REMARK VINA RESULT:    -5.542      5.246      9.227
REMARK INTER + INTRA:         -21.074
REMARK INTER:                 -14.290
REMARK INTRA:                  -6.784
REMARK UNBOUND:                -6.784
REMARK SMILES COc1ccc(Cn2cc(COC(=O)NC[C@@H](O)C(O)[C@@H]3O[C@@](OC[C@H]4O[C@@H](O[C@H]5[C@H](O)[C@@H](O)[C@H](OCCN=[N+]=[N-])O[C@@H]5CO)[C@H](O)[C@@H](O)[C@H]4O)(C(=O)O)C[C@H](O)[C@H]3NC(C)=O)nn2)cc1
REMARK SMILES IDX 23 1 55 2 56 3 58 4 21 5 22 6 24 7 25 8 26 9 28 10 27 11
REMARK SMILES IDX 46 12 48 13 50 14 29 15 30 16 43 17 42 18 35 19 31 20 33 21
REMARK SMILES IDX 44 22 45 23 36 25 37 26 38 27 39 28 40 29 41 30 32 31 34 33
REMARK SMILES IDX 47 35 49 37 51 39 52 41 53 42 54 43 57 45 19 47 20 48 17 50
REMARK SMILES IDX 18 51 16 53 15 54 13 55 14 57 12 58 11 59 10 60 9 61 63 62
REMARK SMILES IDX 8 63 64 64 7 65 6 66 5 67 65 68 4 69 66 70 3 71 2 72 1 73
REMARK SMILES IDX 59 74 60 75 61 77 62 78
REMARK H PARENT 45 24 32 32 34 34 47 36 49 38 51 40 54 44 57 46 20 49 18 52
REMARK H PARENT 15 56 59 76
REMARK Flexibility Score: inf
ROOT
ATOM      1  C   UNL     1      26.568  19.884  13.977  1.00  0.00     0.272 C 
ATOM      2  C   UNL     1      26.253  21.062  13.079  1.00  0.00     0.113 C 
ATOM      3  C   UNL     1      25.952  20.572  11.677  1.00  0.00     0.145 C 
ATOM      4  C   UNL     1      25.014  19.402  11.636  1.00  0.00     0.142 C 
ATOM      5  C   UNL     1      24.635  18.885  13.013  1.00  0.00     0.178 C 
ATOM      6  O   UNL     1      25.716  18.860  13.872  1.00  0.00    -0.332 OA
ENDROOT
BRANCH   1   7
ATOM      7  O   UNL     1      26.955  20.274  15.214  1.00  0.00    -0.338 OA
BRANCH   7   8
ATOM      8  C   UNL     1      26.984  21.550  15.615  1.00  0.00     0.199 C 
BRANCH   8   9
ATOM      9  C   UNL     1      27.976  21.802  16.731  1.00  0.00     0.179 C 
ATOM     10  C   UNL     1      28.010  21.814  19.007  1.00  0.00     0.282 C 
ATOM     11  O   UNL     1      27.584  21.068  17.886  1.00  0.00    -0.341 OA
ATOM     12  C   UNL     1      29.368  22.380  18.813  1.00  0.00     0.202 C 
ATOM     13  C   UNL     1      30.178  21.824  17.691  1.00  0.00     0.179 C 
ATOM     14  C   UNL     1      29.384  21.424  16.464  1.00  0.00     0.177 C 
BRANCH  10  15
ATOM     15  O   UNL     1      27.757  21.164  20.182  1.00  0.00    -0.341 OA
BRANCH  15  16
ATOM     16  C   UNL     1      28.846  20.674  20.871  1.00  0.00     0.184 C 
ATOM     17  C   UNL     1      28.843  19.181  21.091  1.00  0.00     0.178 C 
ATOM     18  O   UNL     1      29.531  18.849  22.258  1.00  0.00    -0.341 OA
ATOM     19  C   UNL     1      30.591  19.730  22.535  1.00  0.00     0.281 C 
ATOM     20  C   UNL     1      28.700  21.234  22.299  1.00  0.00     0.180 C 
ATOM     21  C   UNL     1      30.056  21.117  22.938  1.00  0.00     0.202 C 
BRANCH  17  22
ATOM     22  C   UNL     1      29.448  18.378  19.983  1.00  0.00     0.191 C 
BRANCH  22  23
ATOM     23  O   UNL     1      28.828  18.709  18.780  1.00  0.00    -0.394 OA
ATOM     24  H   UNL     1      29.238  19.564  18.464  1.00  0.00     0.210 HD
ENDBRANCH  22  23
ENDBRANCH  17  22
BRANCH  19  25
ATOM     25  O   UNL     1      31.513  19.833  21.544  1.00  0.00    -0.350 OA
BRANCH  25  26
ATOM     26  C   UNL     1      32.726  19.234  21.692  1.00  0.00     0.169 C 
BRANCH  26  27
ATOM     27  C   UNL     1      33.485  19.498  22.938  1.00  0.00     0.119 C 
BRANCH  27  28
ATOM     28  N   UNL     1      33.684  18.359  23.767  1.00  0.00    -0.092 NA
ATOM     29  N   UNL     1      32.848  17.917  24.567  1.00  0.00     0.001 N 
ATOM     30  N   UNL     1      31.985  17.151  25.054  1.00  0.00    -0.003 NA
ENDBRANCH  27  28
ENDBRANCH  26  27
ENDBRANCH  25  26
ENDBRANCH  19  25
BRANCH  20  31
ATOM     31  O   UNL     1      28.165  22.492  22.314  1.00  0.00    -0.387 OA
ATOM     32  H   UNL     1      28.225  22.920  23.227  1.00  0.00     0.211 HD
ENDBRANCH  20  31
BRANCH  21  33
ATOM     33  O   UNL     1      29.983  21.252  24.324  1.00  0.00    -0.385 OA
ATOM     34  H   UNL     1      30.814  20.889  24.728  1.00  0.00     0.211 HD
ENDBRANCH  21  33
ENDBRANCH  15  16
ENDBRANCH  10  15
BRANCH  12  35
ATOM     35  O   UNL     1      29.346  23.797  18.739  1.00  0.00    -0.385 OA
ATOM     36  H   UNL     1      28.391  24.109  18.726  1.00  0.00     0.211 HD
ENDBRANCH  12  35
BRANCH  13  37
ATOM     37  O   UNL     1      31.010  20.762  18.123  1.00  0.00    -0.387 OA
ATOM     38  H   UNL     1      30.944  20.035  17.452  1.00  0.00     0.211 HD
ENDBRANCH  13  37
BRANCH  14  39
ATOM     39  O   UNL     1      29.546  20.075  16.164  1.00  0.00    -0.387 OA
ATOM     40  H   UNL     1      28.974  19.495  16.724  1.00  0.00     0.211 HD
ENDBRANCH  14  39
ENDBRANCH   8   9
ENDBRANCH   7   8
ENDBRANCH   1   7
BRANCH   1  41
ATOM     41  C   UNL     1      27.957  19.430  13.418  1.00  0.00     0.364 C 
ATOM     42  O   UNL     1      28.148  18.226  13.143  1.00  0.00    -0.246 OA
BRANCH  41  43
ATOM     43  O   UNL     1      28.982  20.287  13.210  1.00  0.00    -0.477 OA
ATOM     44  H   UNL     1      28.971  21.196  12.818  1.00  0.00     0.296 HD
ENDBRANCH  41  43
ENDBRANCH   1  41
BRANCH   3  45
ATOM     45  O   UNL     1      25.341  21.700  11.053  1.00  0.00    -0.391 OA
ATOM     46  H   UNL     1      26.025  22.387  10.846  1.00  0.00     0.211 HD
ENDBRANCH   3  45
BRANCH   5  47
ATOM     47  C   UNL     1      23.418  19.607  13.443  1.00  0.00     0.176 C 
BRANCH  47  48
ATOM     48  O   UNL     1      23.067  19.377  14.805  1.00  0.00    -0.388 OA
ATOM     49  H   UNL     1      22.136  19.666  14.921  1.00  0.00     0.211 HD
ENDBRANCH  47  48
BRANCH  47  50
ATOM     50  C   UNL     1      22.108  19.060  12.802  1.00  0.00     0.165 C 
BRANCH  50  51
ATOM     51  O   UNL     1      22.215  18.043  11.941  1.00  0.00    -0.388 OA
ATOM     52  H   UNL     1      21.340  17.607  11.787  1.00  0.00     0.211 HD
ENDBRANCH  50  51
BRANCH  50  53
ATOM     53  C   UNL     1      21.407  20.274  12.154  1.00  0.00     0.154 C 
BRANCH  53  54
ATOM     54  N   UNL     1      21.575  21.476  12.903  1.00  0.00    -0.319 N 
ATOM     55  C   UNL     1      22.148  22.628  12.272  1.00  0.00     0.407 C 
ATOM     56  H   UNL     1      21.299  21.538  13.888  1.00  0.00     0.167 HD
ATOM     57  O   UNL     1      22.490  22.556  11.059  1.00  0.00    -0.225 OA
BRANCH  55  58
ATOM     58  O   UNL     1      22.301  23.779  13.023  1.00  0.00    -0.443 OA
BRANCH  58  59
ATOM     59  C   UNL     1      23.618  24.333  13.207  1.00  0.00     0.294 C 
BRANCH  59  60
ATOM     60  C   UNL     1      23.948  24.262  14.646  1.00  0.00     0.120 A 
ATOM     61  C   UNL     1      24.523  25.270  15.427  1.00  0.00     0.138 A 
ATOM     62  N   UNL     1      23.773  23.225  15.472  1.00  0.00    -0.132 NA
ATOM     63  N   UNL     1      24.660  24.781  16.665  1.00  0.00    -0.248 N 
ATOM     64  N   UNL     1      24.200  23.539  16.679  1.00  0.00    -0.067 NA
BRANCH  63  65
ATOM     65  C   UNL     1      25.215  25.482  17.796  1.00  0.00     0.181 C 
BRANCH  65  66
ATOM     66  C   UNL     1      24.411  25.174  18.998  1.00  0.00    -0.026 A 
ATOM     67  C   UNL     1      25.011  24.545  20.086  1.00  0.00     0.009 A 
ATOM     68  C   UNL     1      23.083  25.494  19.108  1.00  0.00     0.009 A 
ATOM     69  C   UNL     1      24.314  24.250  21.237  1.00  0.00     0.047 A 
ATOM     70  C   UNL     1      22.376  25.194  20.278  1.00  0.00     0.047 A 
ATOM     71  C   UNL     1      22.970  24.577  21.345  1.00  0.00     0.118 A 
BRANCH  71  72
ATOM     72  O   UNL     1      22.314  24.260  22.520  1.00  0.00    -0.497 OA
ATOM     73  C   UNL     1      22.726  24.652  23.797  1.00  0.00     0.278 C 
ENDBRANCH  71  72
ENDBRANCH  65  66
ENDBRANCH  63  65
ENDBRANCH  59  60
ENDBRANCH  58  59
ENDBRANCH  55  58
ENDBRANCH  53  54
ENDBRANCH  50  53
ENDBRANCH  47  50
ENDBRANCH   5  47
BRANCH   4  74
ATOM     74  N   UNL     1      25.404  18.332  10.743  1.00  0.00    -0.348 N 
ATOM     75  C   UNL     1      24.658  17.916   9.606  1.00  0.00     0.217 C 
ATOM     76  H   UNL     1      26.274  17.815  10.937  1.00  0.00     0.163 HD
ATOM     77  C   UNL     1      25.162  16.779   8.744  1.00  0.00     0.114 C 
ATOM     78  O   UNL     1      23.583  18.494   9.320  1.00  0.00    -0.275 OA
ENDBRANCH   4  74
TORSDOF 32
