REMARK VINA RESULT:    -5.836      4.222      8.697
REMARK INTER + INTRA:         -23.803
REMARK INTER:                 -17.204
REMARK INTRA:                  -6.599
REMARK UNBOUND:                -8.074
REMARK SMILES CC(=O)N[C@@H]1[C@@H](O)C[C@](OC[C@H]2O[C@@H](O[C@H]3[C@H](O)[C@@H](O)[C@H](OCCN=[N+]=[N-])O[C@@H]3CO)[C@H](O)[C@@H](O)[C@H]2O)(C(=O)O)O[C@H]1C(O)[C@H](O)CNC(=O)OCc1cn(C[C@@H](C)CN2CCN(c3ccc(Cl)cc3)CC2)nn1
REMARK SMILES IDX 43 1 42 2 9 3 8 4 41 5 6 6 5 7 10 8 11 9 12 10 14 11 13 12
REMARK SMILES IDX 32 13 34 14 36 15 15 16 16 17 29 18 28 19 21 20 17 21 19 22
REMARK SMILES IDX 30 23 31 24 22 26 23 27 24 28 25 29 26 30 27 31 18 32 20 34
REMARK SMILES IDX 33 36 35 38 37 40 38 42 39 43 40 44 7 46 4 48 2 49 1 51 3 52
REMARK SMILES IDX 44 53 45 55 46 56 47 58 48 59 49 60 50 62 51 63 52 64 53 65
REMARK SMILES IDX 54 66 74 67 55 68 73 69 56 70 57 71 58 72 59 73 60 74 61 75
REMARK SMILES IDX 72 76 62 77 71 78 63 79 64 80 65 81 70 82 66 83 69 84 67 85
REMARK SMILES IDX 68 86
REMARK H PARENT 31 25 18 33 20 35 33 37 35 39 37 41 40 45 7 47 4 50 44 54
REMARK H PARENT 46 57 48 61
REMARK Flexibility Score: inf
ROOT
ATOM      1  C   UNL     1      29.417  22.092  21.363  1.00  0.00     0.176 C 
ENDROOT
BRANCH   1   2
ATOM      2  C   UNL     1      30.033  20.767  20.937  1.00  0.00     0.178 C 
ATOM      3  C   UNL     1      30.275  19.271  19.125  1.00  0.00     0.272 C 
ATOM      4  C   UNL     1      30.521  18.270  20.142  1.00  0.00     0.113 C 
ATOM      5  O   UNL     1      29.615  20.400  19.701  1.00  0.00    -0.332 OA
ATOM      6  C   UNL     1      29.606  18.400  21.345  1.00  0.00     0.145 C 
ATOM      7  C   UNL     1      29.948  19.739  22.014  1.00  0.00     0.142 C 
BRANCH   3   8
ATOM      8  O   UNL     1      29.555  19.004  18.039  1.00  0.00    -0.338 OA
BRANCH   8   9
ATOM      9  C   UNL     1      28.634  19.724  17.454  1.00  0.00     0.199 C 
BRANCH   9  10
ATOM     10  C   UNL     1      28.170  19.484  16.046  1.00  0.00     0.179 C 
ATOM     11  C   UNL     1      26.882  20.725  14.547  1.00  0.00     0.282 C 
ATOM     12  O   UNL     1      26.972  20.066  15.744  1.00  0.00    -0.341 OA
ATOM     13  C   UNL     1      27.824  21.914  14.563  1.00  0.00     0.202 C 
ATOM     14  C   UNL     1      29.211  21.410  14.795  1.00  0.00     0.179 C 
ATOM     15  C   UNL     1      29.278  19.950  15.091  1.00  0.00     0.177 C 
BRANCH  11  16
ATOM     16  O   UNL     1      25.562  21.234  14.482  1.00  0.00    -0.341 OA
BRANCH  16  17
ATOM     17  C   UNL     1      24.926  20.721  13.380  1.00  0.00     0.184 C 
ATOM     18  C   UNL     1      24.200  21.781  12.577  1.00  0.00     0.178 C 
ATOM     19  O   UNL     1      22.842  21.700  12.617  1.00  0.00    -0.341 OA
ATOM     20  C   UNL     1      22.286  20.489  12.245  1.00  0.00     0.281 C 
ATOM     21  C   UNL     1      23.982  19.582  13.749  1.00  0.00     0.180 C 
ATOM     22  C   UNL     1      23.153  19.290  12.519  1.00  0.00     0.202 C 
BRANCH  18  23
ATOM     23  C   UNL     1      24.757  21.910  11.168  1.00  0.00     0.191 C 
BRANCH  23  24
ATOM     24  O   UNL     1      24.431  23.109  10.586  1.00  0.00    -0.394 OA
ATOM     25  H   UNL     1      23.438  23.229  10.702  1.00  0.00     0.210 HD
ENDBRANCH  23  24
ENDBRANCH  18  23
BRANCH  20  26
ATOM     26  O   UNL     1      21.877  20.478  10.917  1.00  0.00    -0.350 OA
BRANCH  26  27
ATOM     27  C   UNL     1      20.540  20.650  10.706  1.00  0.00     0.169 C 
BRANCH  27  28
ATOM     28  C   UNL     1      19.739  20.429  11.957  1.00  0.00     0.119 C 
BRANCH  28  29
ATOM     29  N   UNL     1      19.302  19.043  12.006  1.00  0.00    -0.092 NA
ATOM     30  N   UNL     1      18.742  18.544  11.013  1.00  0.00     0.001 N 
ATOM     31  N   UNL     1      18.206  18.177   9.975  1.00  0.00    -0.003 NA
ENDBRANCH  28  29
ENDBRANCH  27  28
ENDBRANCH  26  27
ENDBRANCH  20  26
BRANCH  21  32
ATOM     32  O   UNL     1      24.698  18.427  14.056  1.00  0.00    -0.387 OA
ATOM     33  H   UNL     1      24.031  17.681  14.013  1.00  0.00     0.211 HD
ENDBRANCH  21  32
BRANCH  22  34
ATOM     34  O   UNL     1      22.299  18.200  12.816  1.00  0.00    -0.385 OA
ATOM     35  H   UNL     1      22.535  17.388  12.339  1.00  0.00     0.211 HD
ENDBRANCH  22  34
ENDBRANCH  16  17
ENDBRANCH  11  16
BRANCH  13  36
ATOM     36  O   UNL     1      27.675  22.596  13.368  1.00  0.00    -0.385 OA
ATOM     37  H   UNL     1      27.035  23.346  13.544  1.00  0.00     0.211 HD
ENDBRANCH  13  36
BRANCH  14  38
ATOM     38  O   UNL     1      29.907  22.147  15.762  1.00  0.00    -0.387 OA
ATOM     39  H   UNL     1      29.287  22.584  16.390  1.00  0.00     0.211 HD
ENDBRANCH  14  38
BRANCH  15  40
ATOM     40  O   UNL     1      30.495  19.608  15.626  1.00  0.00    -0.387 OA
ATOM     41  H   UNL     1      30.524  18.673  15.934  1.00  0.00     0.211 HD
ENDBRANCH  15  40
ENDBRANCH   9  10
ENDBRANCH   8   9
ENDBRANCH   3   8
BRANCH   3  42
ATOM     42  C   UNL     1      31.581  19.914  18.702  1.00  0.00     0.364 C 
ATOM     43  O   UNL     1      31.577  20.961  17.965  1.00  0.00    -0.246 OA
BRANCH  42  44
ATOM     44  O   UNL     1      32.822  19.446  19.053  1.00  0.00    -0.477 OA
ATOM     45  H   UNL     1      33.320  18.777  18.478  1.00  0.00     0.296 HD
ENDBRANCH  42  44
ENDBRANCH   3  42
BRANCH   6  46
ATOM     46  O   UNL     1      28.298  18.423  20.862  1.00  0.00    -0.391 OA
ATOM     47  H   UNL     1      27.821  17.583  21.064  1.00  0.00     0.211 HD
ENDBRANCH   6  46
BRANCH   7  48
ATOM     48  N   UNL     1      31.203  19.556  22.714  1.00  0.00    -0.348 N 
ATOM     49  C   UNL     1      31.399  20.148  23.988  1.00  0.00     0.217 C 
ATOM     50  H   UNL     1      32.002  18.993  22.313  1.00  0.00     0.163 HD
ATOM     51  C   UNL     1      32.718  19.934  24.683  1.00  0.00     0.114 C 
ATOM     52  O   UNL     1      30.520  20.846  24.570  1.00  0.00    -0.275 OA
ENDBRANCH   7  48
ENDBRANCH   1   2
BRANCH   1  53
ATOM     53  O   UNL     1      28.825  21.890  22.609  1.00  0.00    -0.388 OA
ATOM     54  H   UNL     1      29.497  21.881  23.329  1.00  0.00     0.211 HD
ENDBRANCH   1  53
BRANCH   1  55
ATOM     55  C   UNL     1      30.416  23.201  21.540  1.00  0.00     0.165 C 
BRANCH  55  56
ATOM     56  O   UNL     1      30.861  23.394  22.821  1.00  0.00    -0.388 OA
ATOM     57  H   UNL     1      30.758  24.312  23.126  1.00  0.00     0.211 HD
ENDBRANCH  55  56
BRANCH  55  58
ATOM     58  C   UNL     1      30.031  24.492  20.902  1.00  0.00     0.154 C 
BRANCH  58  59
ATOM     59  N   UNL     1      29.018  24.219  19.879  1.00  0.00    -0.319 N 
ATOM     60  C   UNL     1      29.367  24.077  18.516  1.00  0.00     0.407 C 
ATOM     61  H   UNL     1      28.024  24.128  20.169  1.00  0.00     0.167 HD
ATOM     62  O   UNL     1      30.576  24.198  18.200  1.00  0.00    -0.225 OA
BRANCH  60  63
ATOM     63  O   UNL     1      28.391  23.812  17.564  1.00  0.00    -0.443 OA
BRANCH  63  64
ATOM     64  C   UNL     1      27.219  23.115  17.987  1.00  0.00     0.294 C 
BRANCH  64  65
ATOM     65  C   UNL     1      25.977  23.844  17.642  1.00  0.00     0.120 A 
ATOM     66  C   UNL     1      25.213  24.627  18.476  1.00  0.00     0.138 A 
ATOM     67  N   UNL     1      25.349  23.879  16.443  1.00  0.00    -0.132 NA
ATOM     68  N   UNL     1      24.188  25.086  17.764  1.00  0.00    -0.252 N 
ATOM     69  N   UNL     1      24.274  24.631  16.534  1.00  0.00    -0.067 NA
BRANCH  68  70
ATOM     70  C   UNL     1      23.134  25.952  18.295  1.00  0.00     0.150 C 
BRANCH  70  71
ATOM     71  C   UNL     1      23.242  26.060  19.819  1.00  0.00     0.022 C 
ATOM     72  C   UNL     1      22.813  27.470  20.164  1.00  0.00     0.011 C 
BRANCH  71  73
ATOM     73  C   UNL     1      22.343  25.040  20.445  1.00  0.00     0.089 C 
BRANCH  73  74
ATOM     74  N   UNL     1      22.599  24.639  21.766  1.00  0.00    -0.299 NA
ATOM     75  C   UNL     1      21.575  24.579  22.721  1.00  0.00     0.106 C 
ATOM     76  C   UNL     1      23.913  24.928  22.244  1.00  0.00     0.106 C 
ATOM     77  C   UNL     1      21.918  25.342  24.000  1.00  0.00     0.132 C 
ATOM     78  C   UNL     1      24.121  24.249  23.586  1.00  0.00     0.132 C 
ATOM     79  N   UNL     1      23.204  24.865  24.508  1.00  0.00    -0.369 N 
BRANCH  79  80
ATOM     80  C   UNL     1      23.505  25.025  25.866  1.00  0.00     0.037 A 
ATOM     81  C   UNL     1      22.634  24.616  26.872  1.00  0.00     0.027 A 
ATOM     82  C   UNL     1      24.694  25.592  26.309  1.00  0.00     0.027 A 
ATOM     83  C   UNL     1      22.909  24.756  28.212  1.00  0.00     0.022 A 
ATOM     84  C   UNL     1      24.973  25.733  27.653  1.00  0.00     0.022 A 
ATOM     85  C   UNL     1      24.088  25.319  28.624  1.00  0.00     0.041 A 
ATOM     86  Cl  UNL     1      24.435  25.494  30.312  1.00  0.00    -0.084 Cl
ENDBRANCH  79  80
ENDBRANCH  73  74
ENDBRANCH  71  73
ENDBRANCH  70  71
ENDBRANCH  68  70
ENDBRANCH  64  65
ENDBRANCH  63  64
ENDBRANCH  60  63
ENDBRANCH  58  59
ENDBRANCH  55  58
ENDBRANCH   1  55
TORSDOF 34
