REMARK VINA RESULT:    -6.031      7.154     10.945
REMARK INTER + INTRA:         -24.309
REMARK INTER:                 -14.258
REMARK INTRA:                 -10.051
REMARK UNBOUND:                -7.877
REMARK SMILES CC(=O)N[C@@H]1[C@@H](O)C[C@](OC[C@H]2O[C@@H](O[C@H]3[C@H](O)[C@@H](O)[C@H](OCCN=[N+]=[N-])O[C@@H]3CO)[C@H](O)[C@@H](O)[C@H]2O)(C(=O)O)O[C@H]1C(O)[C@H](O)CNC(=O)OCc1cn(CC(O)CCc2ccccc2)nn1
REMARK SMILES IDX 43 1 42 2 9 3 8 4 41 5 6 6 5 7 10 8 11 9 12 10 14 11 13 12
REMARK SMILES IDX 32 13 34 14 36 15 15 16 16 17 29 18 28 19 21 20 17 21 19 22
REMARK SMILES IDX 30 23 31 24 22 26 23 27 24 28 25 29 26 30 27 31 18 32 20 34
REMARK SMILES IDX 33 36 35 38 37 40 38 42 39 43 40 44 7 46 4 48 2 49 1 51 3 52
REMARK SMILES IDX 44 53 45 55 46 56 47 58 48 59 49 60 50 62 51 63 52 64 53 65
REMARK SMILES IDX 54 66 68 67 55 68 67 69 56 70 57 71 58 72 59 74 60 75 61 76
REMARK SMILES IDX 62 77 66 78 63 79 65 80 64 81
REMARK H PARENT 31 25 18 33 20 35 33 37 35 39 37 41 40 45 7 47 4 50 44 54
REMARK H PARENT 46 57 48 61 58 73
REMARK Flexibility Score: inf
ROOT
ATOM      1  C   UNL     1      20.486  32.880  23.122  1.00  0.00     0.176 C 
ENDROOT
BRANCH   1   2
ATOM      2  C   UNL     1      20.283  31.392  23.468  1.00  0.00     0.178 C 
ATOM      3  C   UNL     1      21.447  29.541  22.551  1.00  0.00     0.272 C 
ATOM      4  C   UNL     1      20.459  29.576  21.433  1.00  0.00     0.113 C 
ATOM      5  O   UNL     1      21.416  30.735  23.219  1.00  0.00    -0.332 OA
ATOM      6  C   UNL     1      19.080  29.807  21.939  1.00  0.00     0.145 C 
ATOM      7  C   UNL     1      18.987  30.954  22.901  1.00  0.00     0.142 C 
BRANCH   3   8
ATOM      8  O   UNL     1      22.737  29.246  22.066  1.00  0.00    -0.338 OA
BRANCH   8   9
ATOM      9  C   UNL     1      22.824  28.821  20.789  1.00  0.00     0.199 C 
BRANCH   9  10
ATOM     10  C   UNL     1      23.561  27.465  20.698  1.00  0.00     0.179 C 
ATOM     11  C   UNL     1      24.356  25.686  21.862  1.00  0.00     0.282 C 
ATOM     12  O   UNL     1      23.881  26.972  21.912  1.00  0.00    -0.341 OA
ATOM     13  C   UNL     1      23.176  24.849  21.294  1.00  0.00     0.202 C 
ATOM     14  C   UNL     1      23.231  25.190  19.802  1.00  0.00     0.179 C 
ATOM     15  C   UNL     1      22.798  26.629  19.737  1.00  0.00     0.177 C 
BRANCH  11  16
ATOM     16  O   UNL     1      24.633  25.210  23.094  1.00  0.00    -0.341 OA
BRANCH  16  17
ATOM     17  C   UNL     1      24.246  25.928  24.202  1.00  0.00     0.184 C 
ATOM     18  C   UNL     1      25.389  26.459  25.002  1.00  0.00     0.178 C 
ATOM     19  O   UNL     1      25.447  26.113  26.315  1.00  0.00    -0.341 OA
ATOM     20  C   UNL     1      24.278  25.899  26.981  1.00  0.00     0.281 C 
ATOM     21  C   UNL     1      23.246  25.090  24.944  1.00  0.00     0.180 C 
ATOM     22  C   UNL     1      23.596  24.717  26.338  1.00  0.00     0.202 C 
BRANCH  18  23
ATOM     23  C   UNL     1      25.389  27.971  24.928  1.00  0.00     0.191 C 
BRANCH  23  24
ATOM     24  O   UNL     1      24.227  28.452  24.328  1.00  0.00    -0.394 OA
ATOM     25  H   UNL     1      24.423  29.404  24.078  1.00  0.00     0.210 HD
ENDBRANCH  23  24
ENDBRANCH  18  23
BRANCH  20  26
ATOM     26  O   UNL     1      23.457  27.012  27.059  1.00  0.00    -0.350 OA
BRANCH  26  27
ATOM     27  C   UNL     1      23.498  27.532  28.354  1.00  0.00     0.169 C 
BRANCH  27  28
ATOM     28  C   UNL     1      22.279  26.976  29.089  1.00  0.00     0.119 C 
BRANCH  28  29
ATOM     29  N   UNL     1      22.607  26.603  30.438  1.00  0.00    -0.092 NA
ATOM     30  N   UNL     1      23.619  25.901  30.646  1.00  0.00     0.001 N 
ATOM     31  N   UNL     1      24.442  24.982  30.814  1.00  0.00    -0.003 NA
ENDBRANCH  28  29
ENDBRANCH  27  28
ENDBRANCH  26  27
ENDBRANCH  20  26
BRANCH  21  32
ATOM     32  O   UNL     1      21.988  25.745  25.022  1.00  0.00    -0.387 OA
ATOM     33  H   UNL     1      21.600  25.691  25.926  1.00  0.00     0.211 HD
ENDBRANCH  21  32
BRANCH  22  34
ATOM     34  O   UNL     1      24.494  23.646  26.361  1.00  0.00    -0.385 OA
ATOM     35  H   UNL     1      24.068  22.796  26.129  1.00  0.00     0.211 HD
ENDBRANCH  22  34
ENDBRANCH  16  17
ENDBRANCH  11  16
BRANCH  13  36
ATOM     36  O   UNL     1      23.272  23.524  21.558  1.00  0.00    -0.385 OA
ATOM     37  H   UNL     1      24.018  23.217  22.100  1.00  0.00     0.211 HD
ENDBRANCH  13  36
BRANCH  14  38
ATOM     38  O   UNL     1      22.397  24.352  19.067  1.00  0.00    -0.387 OA
ATOM     39  H   UNL     1      21.661  24.021  19.629  1.00  0.00     0.211 HD
ENDBRANCH  14  38
BRANCH  15  40
ATOM     40  O   UNL     1      21.438  26.645  20.064  1.00  0.00    -0.387 OA
ATOM     41  H   UNL     1      21.084  25.731  20.171  1.00  0.00     0.211 HD
ENDBRANCH  15  40
ENDBRANCH   9  10
ENDBRANCH   8   9
ENDBRANCH   3   8
BRANCH   3  42
ATOM     42  C   UNL     1      21.142  28.384  23.429  1.00  0.00     0.364 C 
ATOM     43  O   UNL     1      21.172  28.546  24.682  1.00  0.00    -0.246 OA
BRANCH  42  44
ATOM     44  O   UNL     1      20.825  27.141  22.956  1.00  0.00    -0.477 OA
ATOM     45  H   UNL     1      19.946  26.716  23.213  1.00  0.00     0.296 HD
ENDBRANCH  42  44
ENDBRANCH   3  42
BRANCH   6  46
ATOM     46  O   UNL     1      18.281  30.031  20.784  1.00  0.00    -0.391 OA
ATOM     47  H   UNL     1      17.349  30.219  21.015  1.00  0.00     0.211 HD
ENDBRANCH   6  46
BRANCH   7  48
ATOM     48  N   UNL     1      17.979  30.762  23.913  1.00  0.00    -0.348 N 
ATOM     49  C   UNL     1      16.587  30.936  23.685  1.00  0.00     0.217 C 
ATOM     50  H   UNL     1      18.255  30.481  24.901  1.00  0.00     0.163 HD
ATOM     51  C   UNL     1      15.651  30.704  24.806  1.00  0.00     0.114 C 
ATOM     52  O   UNL     1      16.164  31.272  22.574  1.00  0.00    -0.275 OA
ENDBRANCH   7  48
ENDBRANCH   1   2
BRANCH   1  53
ATOM     53  O   UNL     1      19.294  33.433  22.699  1.00  0.00    -0.388 OA
ATOM     54  H   UNL     1      18.684  32.773  22.290  1.00  0.00     0.211 HD
ENDBRANCH   1  53
BRANCH   1  55
ATOM     55  C   UNL     1      21.678  33.172  22.290  1.00  0.00     0.165 C 
BRANCH  55  56
ATOM     56  O   UNL     1      22.667  33.730  23.059  1.00  0.00    -0.388 OA
ATOM     57  H   UNL     1      22.815  33.266  23.907  1.00  0.00     0.211 HD
ENDBRANCH  55  56
BRANCH  55  58
ATOM     58  C   UNL     1      21.239  34.110  21.189  1.00  0.00     0.154 C 
BRANCH  58  59
ATOM     59  N   UNL     1      21.190  33.581  19.879  1.00  0.00    -0.319 N 
ATOM     60  C   UNL     1      20.109  32.904  19.256  1.00  0.00     0.407 C 
ATOM     61  H   UNL     1      22.049  33.678  19.233  1.00  0.00     0.167 HD
ATOM     62  O   UNL     1      19.045  32.733  19.862  1.00  0.00    -0.225 OA
BRANCH  60  63
ATOM     63  O   UNL     1      20.220  32.421  17.961  1.00  0.00    -0.443 OA
BRANCH  63  64
ATOM     64  C   UNL     1      20.688  31.189  17.553  1.00  0.00     0.294 C 
BRANCH  64  65
ATOM     65  C   UNL     1      19.810  30.029  17.769  1.00  0.00     0.120 A 
ATOM     66  C   UNL     1      18.441  29.956  17.542  1.00  0.00     0.138 A 
ATOM     67  N   UNL     1      20.181  28.830  18.266  1.00  0.00    -0.132 NA
ATOM     68  N   UNL     1      18.061  28.736  17.910  1.00  0.00    -0.250 N 
ATOM     69  N   UNL     1      19.106  28.073  18.338  1.00  0.00    -0.067 NA
BRANCH  68  70
ATOM     70  C   UNL     1      16.651  28.269  17.840  1.00  0.00     0.177 C 
BRANCH  70  71
ATOM     71  C   UNL     1      16.071  28.487  19.196  1.00  0.00     0.136 C 
BRANCH  71  72
ATOM     72  O   UNL     1      16.455  27.478  20.095  1.00  0.00    -0.391 OA
ATOM     73  H   UNL     1      17.430  27.400  20.170  1.00  0.00     0.211 HD
ENDBRANCH  71  72
BRANCH  71  74
ATOM     74  C   UNL     1      14.608  28.692  19.233  1.00  0.00     0.038 C 
BRANCH  74  75
ATOM     75  C   UNL     1      14.008  29.982  19.556  1.00  0.00     0.038 C 
BRANCH  75  76
ATOM     76  C   UNL     1      13.286  30.161  20.797  1.00  0.00    -0.048 A 
ATOM     77  C   UNL     1      12.619  31.352  21.070  1.00  0.00     0.004 A 
ATOM     78  C   UNL     1      13.295  29.187  21.796  1.00  0.00     0.004 A 
ATOM     79  C   UNL     1      12.002  31.547  22.271  1.00  0.00     0.000 A 
ATOM     80  C   UNL     1      12.664  29.415  22.995  1.00  0.00     0.000 A 
ATOM     81  C   UNL     1      12.000  30.602  23.269  1.00  0.00     0.000 A 
ENDBRANCH  75  76
ENDBRANCH  74  75
ENDBRANCH  71  74
ENDBRANCH  70  71
ENDBRANCH  68  70
ENDBRANCH  64  65
ENDBRANCH  63  64
ENDBRANCH  60  63
ENDBRANCH  58  59
ENDBRANCH  55  58
ENDBRANCH   1  55
TORSDOF 35
