REMARK VINA RESULT:    -5.468     13.913     19.783
REMARK INTER + INTRA:         -20.227
REMARK INTER:                 -13.269
REMARK INTRA:                  -6.959
REMARK UNBOUND:                -6.769
REMARK SMILES CC(=O)N[C@@H]1[C@@H](O)C[C@](OC[C@H]2O[C@@H](O[C@H]3[C@H](O)[C@@H](O)[C@H](OCCN=[N+]=[N-])O[C@@H]3CO)[C@H](O)[C@@H](O)[C@H]2O)(C(=O)O)O[C@H]1C(O)[C@H](O)CNC(=O)OCc1cn(-c2cccnc2)nn1
REMARK SMILES IDX 9 1 8 2 6 3 5 4 42 5 41 6 10 7 11 8 12 9 14 10 13 11 32 12
REMARK SMILES IDX 34 13 36 14 15 15 16 16 29 17 28 18 21 19 17 20 19 21 30 22
REMARK SMILES IDX 31 23 22 25 23 26 24 27 25 28 26 29 27 30 18 31 20 33 33 35
REMARK SMILES IDX 35 37 37 39 38 41 39 42 40 43 7 45 43 47 44 48 45 50 46 51
REMARK SMILES IDX 47 53 48 54 49 55 50 57 51 58 52 59 53 60 54 61 63 62 55 63
REMARK SMILES IDX 62 64 56 65 57 66 61 67 58 68 60 69 59 70 4 71 2 72 1 74
REMARK SMILES IDX 3 75
REMARK H PARENT 31 24 18 32 20 34 33 36 35 38 37 40 40 44 7 46 44 49 46 52
REMARK H PARENT 48 56 4 73
REMARK Flexibility Score: inf
ROOT
ATOM      1  C   UNL     1       4.625  23.867  32.828  1.00  0.00     0.272 C 
ATOM      2  C   UNL     1       5.616  23.066  32.085  1.00  0.00     0.113 C 
ATOM      3  C   UNL     1       5.540  21.619  32.425  1.00  0.00     0.145 C 
ATOM      4  C   UNL     1       4.136  21.096  32.590  1.00  0.00     0.142 C 
ATOM      5  C   UNL     1       3.090  22.130  32.375  1.00  0.00     0.178 C 
ATOM      6  O   UNL     1       3.366  23.327  33.019  1.00  0.00    -0.332 OA
ENDROOT
BRANCH   1   7
ATOM      7  O   UNL     1       4.384  25.102  32.229  1.00  0.00    -0.338 OA
BRANCH   7   8
ATOM      8  C   UNL     1       3.147  25.638  32.396  1.00  0.00     0.199 C 
BRANCH   8   9
ATOM      9  C   UNL     1       3.302  27.167  32.289  1.00  0.00     0.179 C 
ATOM     10  C   UNL     1       2.170  27.392  30.250  1.00  0.00     0.282 C 
ATOM     11  O   UNL     1       3.315  27.546  31.002  1.00  0.00    -0.341 OA
ATOM     12  C   UNL     1       0.973  27.798  31.038  1.00  0.00     0.202 C 
ATOM     13  C   UNL     1       1.453  28.719  32.169  1.00  0.00     0.179 C 
ATOM     14  C   UNL     1       2.273  27.886  33.143  1.00  0.00     0.177 C 
BRANCH  10  15
ATOM     15  O   UNL     1       2.157  26.066  29.823  1.00  0.00    -0.341 OA
BRANCH  15  16
ATOM     16  C   UNL     1       2.491  25.888  28.521  1.00  0.00     0.184 C 
ATOM     17  C   UNL     1       1.592  24.991  27.727  1.00  0.00     0.178 C 
ATOM     18  O   UNL     1       1.712  25.362  26.388  1.00  0.00    -0.341 OA
ATOM     19  C   UNL     1       3.025  25.578  25.984  1.00  0.00     0.281 C 
ATOM     20  C   UNL     1       3.883  25.296  28.328  1.00  0.00     0.180 C 
ATOM     21  C   UNL     1       4.038  24.877  26.859  1.00  0.00     0.202 C 
BRANCH  17  22
ATOM     22  C   UNL     1       0.159  24.979  28.110  1.00  0.00     0.191 C 
BRANCH  22  23
ATOM     23  O   UNL     1      -0.059  24.399  29.333  1.00  0.00    -0.394 OA
ATOM     24  H   UNL     1      -0.458  25.086  29.925  1.00  0.00     0.210 HD
ENDBRANCH  22  23
ENDBRANCH  17  22
BRANCH  19  25
ATOM     25  O   UNL     1       3.357  26.898  25.886  1.00  0.00    -0.350 OA
BRANCH  25  26
ATOM     26  C   UNL     1       4.386  27.279  25.103  1.00  0.00     0.169 C 
BRANCH  26  27
ATOM     27  C   UNL     1       5.447  28.141  25.692  1.00  0.00     0.119 C 
BRANCH  27  28
ATOM     28  N   UNL     1       6.589  27.485  26.230  1.00  0.00    -0.092 NA
ATOM     29  N   UNL     1       7.390  26.839  25.522  1.00  0.00     0.001 N 
ATOM     30  N   UNL     1       7.776  25.840  24.890  1.00  0.00    -0.003 NA
ENDBRANCH  27  28
ENDBRANCH  26  27
ENDBRANCH  25  26
ENDBRANCH  19  25
BRANCH  20  31
ATOM     31  O   UNL     1       4.837  26.275  28.572  1.00  0.00    -0.387 OA
ATOM     32  H   UNL     1       5.544  26.306  27.876  1.00  0.00     0.211 HD
ENDBRANCH  20  31
BRANCH  21  33
ATOM     33  O   UNL     1       3.946  23.495  26.707  1.00  0.00    -0.385 OA
ATOM     34  H   UNL     1       4.447  23.240  25.894  1.00  0.00     0.211 HD
ENDBRANCH  21  33
ENDBRANCH  15  16
ENDBRANCH  10  15
BRANCH  12  35
ATOM     35  O   UNL     1       0.155  28.634  30.253  1.00  0.00    -0.385 OA
ATOM     36  H   UNL     1      -0.287  28.065  29.552  1.00  0.00     0.211 HD
ENDBRANCH  12  35
BRANCH  13  37
ATOM     37  O   UNL     1       0.428  29.393  32.780  1.00  0.00    -0.387 OA
ATOM     38  H   UNL     1       0.791  30.024  33.450  1.00  0.00     0.211 HD
ENDBRANCH  13  37
BRANCH  14  39
ATOM     39  O   UNL     1       1.473  27.025  33.867  1.00  0.00    -0.387 OA
ATOM     40  H   UNL     1       1.985  26.745  34.672  1.00  0.00     0.211 HD
ENDBRANCH  14  39
ENDBRANCH   8   9
ENDBRANCH   7   8
ENDBRANCH   1   7
BRANCH   1  41
ATOM     41  C   UNL     1       5.227  24.158  34.188  1.00  0.00     0.364 C 
ATOM     42  O   UNL     1       6.040  25.092  34.289  1.00  0.00    -0.246 OA
BRANCH  41  43
ATOM     43  O   UNL     1       4.916  23.433  35.312  1.00  0.00    -0.477 OA
ATOM     44  H   UNL     1       3.992  23.095  35.551  1.00  0.00     0.296 HD
ENDBRANCH  41  43
ENDBRANCH   1  41
BRANCH   3  45
ATOM     45  O   UNL     1       6.195  20.931  31.376  1.00  0.00    -0.391 OA
ATOM     46  H   UNL     1       6.950  21.435  31.018  1.00  0.00     0.211 HD
ENDBRANCH   3  45
BRANCH   5  47
ATOM     47  C   UNL     1       2.664  22.337  30.960  1.00  0.00     0.176 C 
BRANCH  47  48
ATOM     48  O   UNL     1       1.263  22.562  30.963  1.00  0.00    -0.388 OA
ATOM     49  H   UNL     1       0.859  22.026  31.699  1.00  0.00     0.211 HD
ENDBRANCH  47  48
BRANCH  47  50
ATOM     50  C   UNL     1       2.892  21.202  30.012  1.00  0.00     0.165 C 
BRANCH  50  51
ATOM     51  O   UNL     1       3.273  21.907  28.791  1.00  0.00    -0.388 OA
ATOM     52  H   UNL     1       2.561  22.579  28.662  1.00  0.00     0.211 HD
ENDBRANCH  50  51
BRANCH  50  53
ATOM     53  C   UNL     1       1.669  20.461  29.577  1.00  0.00     0.154 C 
BRANCH  53  54
ATOM     54  N   UNL     1       1.276  20.602  28.212  1.00  0.00    -0.319 N 
ATOM     55  C   UNL     1      -0.024  21.170  27.942  1.00  0.00     0.407 C 
ATOM     56  H   UNL     1       1.824  20.361  27.393  1.00  0.00     0.167 HD
ATOM     57  O   UNL     1      -0.730  21.507  28.914  1.00  0.00    -0.225 OA
BRANCH  55  58
ATOM     58  O   UNL     1      -0.485  21.337  26.660  1.00  0.00    -0.443 OA
BRANCH  58  59
ATOM     59  C   UNL     1       0.240  22.125  25.749  1.00  0.00     0.294 C 
BRANCH  59  60
ATOM     60  C   UNL     1       0.422  21.362  24.496  1.00  0.00     0.121 A 
ATOM     61  C   UNL     1       1.062  20.161  24.291  1.00  0.00     0.144 A 
ATOM     62  N   UNL     1      -0.036  21.732  23.263  1.00  0.00    -0.131 NA
ATOM     63  N   UNL     1       0.983  19.834  22.991  1.00  0.00    -0.219 N 
ATOM     64  N   UNL     1       0.314  20.805  22.397  1.00  0.00    -0.062 NA
BRANCH  63  65
ATOM     65  C   UNL     1       1.478  18.702  22.283  1.00  0.00     0.085 A 
ATOM     66  C   UNL     1       0.945  18.286  21.082  1.00  0.00     0.031 A 
ATOM     67  C   UNL     1       2.528  17.955  22.782  1.00  0.00     0.139 A 
ATOM     68  C   UNL     1       1.436  17.183  20.419  1.00  0.00     0.022 A 
ATOM     69  N   UNL     1       3.002  16.871  22.120  1.00  0.00    -0.262 NA
ATOM     70  C   UNL     1       2.482  16.464  20.948  1.00  0.00     0.111 A 
ENDBRANCH  63  65
ENDBRANCH  59  60
ENDBRANCH  58  59
ENDBRANCH  55  58
ENDBRANCH  53  54
ENDBRANCH  50  53
ENDBRANCH  47  50
ENDBRANCH   5  47
BRANCH   4  71
ATOM     71  N   UNL     1       3.966  20.487  33.906  1.00  0.00    -0.348 N 
ATOM     72  C   UNL     1       3.242  19.291  34.137  1.00  0.00     0.217 C 
ATOM     73  H   UNL     1       4.394  20.937  34.760  1.00  0.00     0.163 HD
ATOM     74  C   UNL     1       3.090  18.708  35.507  1.00  0.00     0.114 C 
ATOM     75  O   UNL     1       2.701  18.682  33.175  1.00  0.00    -0.275 OA
ENDBRANCH   4  71
TORSDOF 30
