REMARK VINA RESULT:    -7.048     11.404     17.528
REMARK INTER + INTRA:         -22.887
REMARK INTER:                 -17.415
REMARK INTRA:                  -5.473
REMARK UNBOUND:                -5.539
REMARK SMILES CC(=O)N[C@@H]1[C@@H](O)C[C@](OC[C@H]2O[C@@H](O[C@H]3[C@H](O)[C@@H](O)[C@H](OCCN=[N+]=[N-])O[C@@H]3CO)[C@H](O)[C@@H](O)[C@H]2O)(C(=O)O)O[C@H]1C(O)[C@H](O)CNC(=O)OCc1cn(-c2c3ccccc3nc3ccccc23)nn1
REMARK SMILES IDX 9 1 8 2 6 3 5 4 42 5 41 6 10 7 11 8 12 9 14 10 13 11 32 12
REMARK SMILES IDX 34 13 36 14 15 15 16 16 29 17 28 18 21 19 17 20 19 21 30 22
REMARK SMILES IDX 31 23 22 25 23 26 24 27 25 28 26 29 27 30 18 31 20 33 33 35
REMARK SMILES IDX 35 37 37 39 38 41 39 42 40 43 7 45 43 47 44 48 45 50 46 51
REMARK SMILES IDX 47 53 48 54 49 55 50 57 51 58 52 59 53 60 54 61 71 62 55 63
REMARK SMILES IDX 70 64 56 65 57 66 69 67 58 68 62 69 64 70 68 71 59 72 61 73
REMARK SMILES IDX 63 74 65 75 67 76 60 77 66 78 4 79 2 80 1 82 3 83
REMARK H PARENT 31 24 18 32 20 34 33 36 35 38 37 40 40 44 7 46 44 49 46 52
REMARK H PARENT 48 56 4 81
REMARK Flexibility Score: inf
ROOT
ATOM      1  C   UNL     1      15.529  29.786  21.312  1.00  0.00     0.272 C 
ATOM      2  C   UNL     1      16.267  28.456  20.792  1.00  0.00     0.113 C 
ATOM      3  C   UNL     1      15.861  28.370  19.366  1.00  0.00     0.145 C 
ATOM      4  C   UNL     1      16.157  29.607  18.545  1.00  0.00     0.142 C 
ATOM      5  C   UNL     1      16.191  30.859  19.318  1.00  0.00     0.178 C 
ATOM      6  O   UNL     1      16.167  30.761  20.668  1.00  0.00    -0.332 OA
ENDROOT
BRANCH   1   7
ATOM      7  O   UNL     1      15.950  29.753  22.643  1.00  0.00    -0.338 OA
BRANCH   7   8
ATOM      8  C   UNL     1      16.673  30.808  23.085  1.00  0.00     0.199 C 
BRANCH   8   9
ATOM      9  C   UNL     1      15.959  31.747  23.979  1.00  0.00     0.179 C 
ATOM     10  C   UNL     1      13.907  32.720  24.519  1.00  0.00     0.282 C 
ATOM     11  O   UNL     1      14.638  31.880  23.650  1.00  0.00    -0.341 OA
ATOM     12  C   UNL     1      14.733  33.467  25.479  1.00  0.00     0.202 C 
ATOM     13  C   UNL     1      15.670  32.565  26.249  1.00  0.00     0.179 C 
ATOM     14  C   UNL     1      16.115  31.380  25.456  1.00  0.00     0.177 C 
BRANCH  10  15
ATOM     15  O   UNL     1      12.883  31.996  25.115  1.00  0.00    -0.341 OA
BRANCH  15  16
ATOM     16  C   UNL     1      12.098  31.291  24.172  1.00  0.00     0.184 C 
ATOM     17  C   UNL     1      10.746  31.880  24.106  1.00  0.00     0.178 C 
ATOM     18  O   UNL     1       9.769  30.999  23.573  1.00  0.00    -0.341 OA
ATOM     19  C   UNL     1       9.666  29.938  24.464  1.00  0.00     0.281 C 
ATOM     20  C   UNL     1      12.066  29.858  24.726  1.00  0.00     0.180 C 
ATOM     21  C   UNL     1      10.905  29.072  24.184  1.00  0.00     0.202 C 
BRANCH  17  22
ATOM     22  C   UNL     1      10.718  33.122  23.228  1.00  0.00     0.191 C 
BRANCH  22  23
ATOM     23  O   UNL     1      10.635  34.292  23.939  1.00  0.00    -0.394 OA
ATOM     24  H   UNL     1       9.927  34.861  23.541  1.00  0.00     0.210 HD
ENDBRANCH  22  23
ENDBRANCH  17  22
BRANCH  19  25
ATOM     25  O   UNL     1       8.490  29.280  24.206  1.00  0.00    -0.350 OA
BRANCH  25  26
ATOM     26  C   UNL     1       7.658  29.132  25.312  1.00  0.00     0.169 C 
BRANCH  26  27
ATOM     27  C   UNL     1       7.282  27.686  25.553  1.00  0.00     0.119 C 
BRANCH  27  28
ATOM     28  N   UNL     1       5.861  27.666  25.887  1.00  0.00    -0.092 NA
ATOM     29  N   UNL     1       5.201  26.628  25.766  1.00  0.00     0.001 N 
ATOM     30  N   UNL     1       4.512  25.606  25.729  1.00  0.00    -0.003 NA
ENDBRANCH  27  28
ENDBRANCH  26  27
ENDBRANCH  25  26
ENDBRANCH  19  25
BRANCH  20  31
ATOM     31  O   UNL     1      13.286  29.240  24.501  1.00  0.00    -0.387 OA
ATOM     32  H   UNL     1      13.389  28.910  23.574  1.00  0.00     0.211 HD
ENDBRANCH  20  31
BRANCH  21  33
ATOM     33  O   UNL     1      10.824  27.863  24.836  1.00  0.00    -0.385 OA
ATOM     34  H   UNL     1      10.486  28.050  25.764  1.00  0.00     0.211 HD
ENDBRANCH  21  33
ENDBRANCH  15  16
ENDBRANCH  10  15
BRANCH  12  35
ATOM     35  O   UNL     1      15.411  34.520  24.846  1.00  0.00    -0.385 OA
ATOM     36  H   UNL     1      15.449  34.265  23.876  1.00  0.00     0.211 HD
ENDBRANCH  12  35
BRANCH  13  37
ATOM     37  O   UNL     1      15.009  32.177  27.430  1.00  0.00    -0.387 OA
ATOM     38  H   UNL     1      14.036  32.102  27.172  1.00  0.00     0.211 HD
ENDBRANCH  13  37
BRANCH  14  39
ATOM     39  O   UNL     1      15.449  30.217  25.783  1.00  0.00    -0.387 OA
ATOM     40  H   UNL     1      15.997  29.592  26.322  1.00  0.00     0.211 HD
ENDBRANCH  14  39
ENDBRANCH   8   9
ENDBRANCH   7   8
ENDBRANCH   1   7
BRANCH   1  41
ATOM     41  C   UNL     1      14.151  29.476  21.126  1.00  0.00     0.364 C 
ATOM     42  O   UNL     1      13.389  30.251  20.464  1.00  0.00    -0.246 OA
BRANCH  41  43
ATOM     43  O   UNL     1      13.488  28.343  21.612  1.00  0.00    -0.477 OA
ATOM     44  H   UNL     1      12.569  28.124  21.248  1.00  0.00     0.296 HD
ENDBRANCH  41  43
ENDBRANCH   1  41
BRANCH   3  45
ATOM     45  O   UNL     1      16.539  27.252  18.822  1.00  0.00    -0.391 OA
ATOM     46  H   UNL     1      16.875  26.686  19.566  1.00  0.00     0.211 HD
ENDBRANCH   3  45
BRANCH   5  47
ATOM     47  C   UNL     1      17.466  31.690  19.006  1.00  0.00     0.176 C 
BRANCH  47  48
ATOM     48  O   UNL     1      17.162  33.016  18.908  1.00  0.00    -0.388 OA
ATOM     49  H   UNL     1      17.787  33.541  18.317  1.00  0.00     0.211 HD
ENDBRANCH  47  48
BRANCH  47  50
ATOM     50  C   UNL     1      18.641  31.272  19.765  1.00  0.00     0.165 C 
BRANCH  50  51
ATOM     51  O   UNL     1      18.916  31.968  20.944  1.00  0.00    -0.388 OA
ATOM     52  H   UNL     1      19.729  31.624  21.392  1.00  0.00     0.211 HD
ENDBRANCH  50  51
BRANCH  50  53
ATOM     53  C   UNL     1      19.851  30.833  19.034  1.00  0.00     0.154 C 
BRANCH  53  54
ATOM     54  N   UNL     1      20.509  29.634  19.397  1.00  0.00    -0.319 N 
ATOM     55  C   UNL     1      20.161  28.340  18.953  1.00  0.00     0.407 C 
ATOM     56  H   UNL     1      21.357  29.707  20.074  1.00  0.00     0.167 HD
ATOM     57  O   UNL     1      19.209  28.082  18.201  1.00  0.00    -0.225 OA
BRANCH  55  58
ATOM     58  O   UNL     1      20.911  27.219  19.357  1.00  0.00    -0.443 OA
BRANCH  58  59
ATOM     59  C   UNL     1      22.029  27.312  20.223  1.00  0.00     0.294 C 
BRANCH  59  60
ATOM     60  C   UNL     1      21.619  26.922  21.603  1.00  0.00     0.121 A 
ATOM     61  C   UNL     1      21.903  27.559  22.792  1.00  0.00     0.144 A 
ATOM     62  N   UNL     1      20.894  25.848  21.949  1.00  0.00    -0.131 NA
ATOM     63  N   UNL     1      21.358  26.878  23.826  1.00  0.00    -0.219 N 
ATOM     64  N   UNL     1      20.750  25.839  23.278  1.00  0.00    -0.062 NA
BRANCH  63  65
ATOM     65  C   UNL     1      21.438  27.226  25.221  1.00  0.00     0.085 A 
ATOM     66  C   UNL     1      20.994  28.466  25.653  1.00  0.00     0.027 A 
ATOM     67  C   UNL     1      21.952  26.364  26.161  1.00  0.00     0.027 A 
ATOM     68  C   UNL     1      20.468  29.374  24.760  1.00  0.00     0.012 A 
ATOM     69  C   UNL     1      21.055  28.852  26.991  1.00  0.00     0.073 A 
ATOM     70  C   UNL     1      21.994  26.783  27.472  1.00  0.00     0.073 A 
ATOM     71  C   UNL     1      22.406  25.127  25.806  1.00  0.00     0.012 A 
ATOM     72  C   UNL     1      20.024  30.606  25.190  1.00  0.00     0.001 A 
ATOM     73  C   UNL     1      20.611  30.084  27.416  1.00  0.00     0.029 A 
ATOM     74  N   UNL     1      21.561  27.988  27.880  1.00  0.00    -0.248 NA
ATOM     75  C   UNL     1      22.502  25.945  28.444  1.00  0.00     0.029 A 
ATOM     76  C   UNL     1      22.912  24.305  26.804  1.00  0.00     0.001 A 
ATOM     77  C   UNL     1      20.086  30.991  26.526  1.00  0.00     0.002 A 
ATOM     78  C   UNL     1      22.973  24.684  28.128  1.00  0.00     0.002 A 
ENDBRANCH  63  65
ENDBRANCH  59  60
ENDBRANCH  58  59
ENDBRANCH  55  58
ENDBRANCH  53  54
ENDBRANCH  50  53
ENDBRANCH  47  50
ENDBRANCH   5  47
BRANCH   4  79
ATOM     79  N   UNL     1      15.265  29.640  17.409  1.00  0.00    -0.348 N 
ATOM     80  C   UNL     1      15.618  29.215  16.093  1.00  0.00     0.217 C 
ATOM     81  H   UNL     1      14.286  29.997  17.506  1.00  0.00     0.163 HD
ATOM     82  C   UNL     1      14.601  29.305  14.992  1.00  0.00     0.114 C 
ATOM     83  O   UNL     1      16.768  28.782  15.913  1.00  0.00    -0.275 OA
ENDBRANCH   4  79
TORSDOF 30
