REMARK VINA RESULT:    -6.632     17.128     21.210
REMARK INTER + INTRA:         -22.560
REMARK INTER:                 -18.159
REMARK INTRA:                  -4.401
REMARK UNBOUND:                -5.460
REMARK SMILES CC(=O)N[C@@H]1[C@@H](O)C[C@](OC[C@H]2O[C@@H](O[C@H]3[C@H](O)[C@@H](O)[C@H](OCCN=[N+]=[N-])O[C@@H]3CO)[C@H](O)[C@@H](O)[C@H]2O)(C(=O)O)O[C@H]1C(O)[C@H](O)CNC(=O)OCc1cn(C(c2ccccc2)c2ccccc2)nn1
REMARK SMILES IDX 9 1 8 2 6 3 5 4 42 5 41 6 10 7 11 8 12 9 14 10 13 11 32 12
REMARK SMILES IDX 34 13 36 14 15 15 16 16 29 17 28 18 21 19 17 20 19 21 30 22
REMARK SMILES IDX 31 23 22 25 23 26 24 27 25 28 26 29 27 30 18 31 20 33 33 35
REMARK SMILES IDX 35 37 37 39 38 41 39 42 40 43 7 45 43 47 44 48 45 50 46 51
REMARK SMILES IDX 47 53 48 54 49 55 50 57 51 58 52 59 53 60 54 61 70 62 55 63
REMARK SMILES IDX 69 64 56 65 57 66 58 67 62 68 59 69 61 70 60 71 63 72 64 73
REMARK SMILES IDX 68 74 65 75 67 76 66 77 4 78 2 79 1 81 3 82
REMARK H PARENT 31 24 18 32 20 34 33 36 35 38 37 40 40 44 7 46 44 49 46 52
REMARK H PARENT 48 56 4 80
REMARK Flexibility Score: inf
ROOT
ATOM      1  C   UNL     1       1.553  21.552  32.783  1.00  0.00     0.272 C 
ATOM      2  C   UNL     1       2.976  21.206  33.272  1.00  0.00     0.113 C 
ATOM      3  C   UNL     1       2.984  19.864  33.880  1.00  0.00     0.145 C 
ATOM      4  C   UNL     1       2.511  18.842  32.876  1.00  0.00     0.142 C 
ATOM      5  C   UNL     1       1.695  19.424  31.781  1.00  0.00     0.178 C 
ATOM      6  O   UNL     1       0.999  20.550  32.083  1.00  0.00    -0.332 OA
ENDROOT
BRANCH   1   7
ATOM      7  O   UNL     1       1.657  22.691  31.968  1.00  0.00    -0.338 OA
BRANCH   7   8
ATOM      8  C   UNL     1       2.860  23.324  32.135  1.00  0.00     0.199 C 
BRANCH   8   9
ATOM      9  C   UNL     1       2.697  24.787  32.544  1.00  0.00     0.179 C 
ATOM     10  C   UNL     1       4.556  25.689  33.736  1.00  0.00     0.282 C 
ATOM     11  O   UNL     1       3.364  25.071  33.631  1.00  0.00    -0.341 OA
ATOM     12  C   UNL     1       5.212  26.007  32.479  1.00  0.00     0.202 C 
ATOM     13  C   UNL     1       4.296  26.313  31.346  1.00  0.00     0.179 C 
ATOM     14  C   UNL     1       2.943  25.716  31.378  1.00  0.00     0.177 C 
BRANCH  10  15
ATOM     15  O   UNL     1       5.295  24.826  34.602  1.00  0.00    -0.341 OA
BRANCH  15  16
ATOM     16  C   UNL     1       6.624  24.822  34.301  1.00  0.00     0.184 C 
ATOM     17  C   UNL     1       7.153  23.444  34.114  1.00  0.00     0.178 C 
ATOM     18  O   UNL     1       8.455  23.490  33.597  1.00  0.00    -0.341 OA
ATOM     19  C   UNL     1       9.322  23.926  34.560  1.00  0.00     0.281 C 
ATOM     20  C   UNL     1       7.451  25.447  35.418  1.00  0.00     0.180 C 
ATOM     21  C   UNL     1       8.692  24.681  35.659  1.00  0.00     0.202 C 
BRANCH  17  22
ATOM     22  C   UNL     1       6.275  22.530  33.284  1.00  0.00     0.191 C 
BRANCH  22  23
ATOM     23  O   UNL     1       6.862  21.271  33.219  1.00  0.00    -0.394 OA
ATOM     24  H   UNL     1       7.205  20.946  34.077  1.00  0.00     0.210 HD
ENDBRANCH  22  23
ENDBRANCH  17  22
BRANCH  19  25
ATOM     25  O   UNL     1      10.418  24.607  34.003  1.00  0.00    -0.350 OA
BRANCH  25  26
ATOM     26  C   UNL     1      10.820  25.715  34.690  1.00  0.00     0.169 C 
BRANCH  26  27
ATOM     27  C   UNL     1      12.240  25.524  35.172  1.00  0.00     0.119 C 
BRANCH  27  28
ATOM     28  N   UNL     1      12.289  25.195  36.594  1.00  0.00    -0.092 NA
ATOM     29  N   UNL     1      12.039  24.072  37.015  1.00  0.00     0.001 N 
ATOM     30  N   UNL     1      11.455  23.036  37.356  1.00  0.00    -0.003 NA
ENDBRANCH  27  28
ENDBRANCH  26  27
ENDBRANCH  25  26
ENDBRANCH  19  25
BRANCH  20  31
ATOM     31  O   UNL     1       7.648  26.786  35.078  1.00  0.00    -0.387 OA
ATOM     32  H   UNL     1       7.819  26.896  34.103  1.00  0.00     0.211 HD
ENDBRANCH  20  31
BRANCH  21  33
ATOM     33  O   UNL     1       8.451  23.808  36.760  1.00  0.00    -0.385 OA
ATOM     34  H   UNL     1       7.940  24.357  37.419  1.00  0.00     0.211 HD
ENDBRANCH  21  33
ENDBRANCH  15  16
ENDBRANCH  10  15
BRANCH  12  35
ATOM     35  O   UNL     1       6.085  27.122  32.566  1.00  0.00    -0.385 OA
ATOM     36  H   UNL     1       6.087  27.524  31.664  1.00  0.00     0.211 HD
ENDBRANCH  12  35
BRANCH  13  37
ATOM     37  O   UNL     1       4.896  25.989  30.102  1.00  0.00    -0.387 OA
ATOM     38  H   UNL     1       4.871  25.005  29.975  1.00  0.00     0.211 HD
ENDBRANCH  13  37
BRANCH  14  39
ATOM     39  O   UNL     1       2.756  24.934  30.226  1.00  0.00    -0.387 OA
ATOM     40  H   UNL     1       2.871  25.461  29.400  1.00  0.00     0.211 HD
ENDBRANCH  14  39
ENDBRANCH   8   9
ENDBRANCH   7   8
ENDBRANCH   1   7
BRANCH   1  41
ATOM     41  C   UNL     1       0.802  21.894  33.991  1.00  0.00     0.364 C 
ATOM     42  O   UNL     1      -0.327  21.412  34.206  1.00  0.00    -0.246 OA
BRANCH  41  43
ATOM     43  O   UNL     1       1.300  22.771  34.958  1.00  0.00    -0.477 OA
ATOM     44  H   UNL     1       0.680  23.363  35.492  1.00  0.00     0.296 HD
ENDBRANCH  41  43
ENDBRANCH   1  41
BRANCH   3  45
ATOM     45  O   UNL     1       4.318  19.582  34.246  1.00  0.00    -0.391 OA
ATOM     46  H   UNL     1       4.370  18.740  34.764  1.00  0.00     0.211 HD
ENDBRANCH   3  45
BRANCH   5  47
ATOM     47  C   UNL     1       2.368  19.582  30.447  1.00  0.00     0.176 C 
BRANCH  47  48
ATOM     48  O   UNL     1       3.747  19.701  30.718  1.00  0.00    -0.388 OA
ATOM     49  H   UNL     1       4.151  20.490  30.317  1.00  0.00     0.211 HD
ENDBRANCH  47  48
BRANCH  47  50
ATOM     50  C   UNL     1       1.957  20.759  29.638  1.00  0.00     0.165 C 
BRANCH  50  51
ATOM     51  O   UNL     1       1.072  20.300  28.669  1.00  0.00    -0.388 OA
ATOM     52  H   UNL     1       1.472  19.619  28.070  1.00  0.00     0.211 HD
ENDBRANCH  50  51
BRANCH  50  53
ATOM     53  C   UNL     1       3.055  21.527  28.989  1.00  0.00     0.154 C 
BRANCH  53  54
ATOM     54  N   UNL     1       2.676  22.720  28.304  1.00  0.00    -0.319 N 
ATOM     55  C   UNL     1       2.353  22.869  26.951  1.00  0.00     0.407 C 
ATOM     56  H   UNL     1       2.631  23.617  28.888  1.00  0.00     0.167 HD
ATOM     57  O   UNL     1       2.390  21.895  26.190  1.00  0.00    -0.225 OA
BRANCH  55  58
ATOM     58  O   UNL     1       1.983  24.105  26.428  1.00  0.00    -0.443 OA
BRANCH  58  59
ATOM     59  C   UNL     1       2.219  25.301  27.188  1.00  0.00     0.294 C 
BRANCH  59  60
ATOM     60  C   UNL     1       3.166  26.158  26.430  1.00  0.00     0.120 A 
ATOM     61  C   UNL     1       3.890  27.165  27.000  1.00  0.00     0.139 A 
ATOM     62  N   UNL     1       3.440  26.069  25.133  1.00  0.00    -0.132 NA
ATOM     63  N   UNL     1       4.620  27.693  26.002  1.00  0.00    -0.240 N 
ATOM     64  N   UNL     1       4.339  27.020  24.879  1.00  0.00    -0.066 NA
BRANCH  63  65
ATOM     65  C   UNL     1       5.577  28.779  26.037  1.00  0.00     0.169 C 
BRANCH  65  66
ATOM     66  C   UNL     1       6.898  28.231  25.706  1.00  0.00    -0.019 A 
ATOM     67  C   UNL     1       7.784  28.953  24.931  1.00  0.00     0.006 A 
ATOM     68  C   UNL     1       7.318  26.987  26.123  1.00  0.00     0.006 A 
ATOM     69  C   UNL     1       9.032  28.447  24.593  1.00  0.00     0.000 A 
ATOM     70  C   UNL     1       8.567  26.469  25.790  1.00  0.00     0.000 A 
ATOM     71  C   UNL     1       9.440  27.206  25.014  1.00  0.00     0.000 A 
ENDBRANCH  65  66
BRANCH  65  72
ATOM     72  C   UNL     1       5.502  29.493  27.327  1.00  0.00    -0.019 A 
ATOM     73  C   UNL     1       5.846  30.840  27.325  1.00  0.00     0.006 A 
ATOM     74  C   UNL     1       5.150  28.923  28.516  1.00  0.00     0.006 A 
ATOM     75  C   UNL     1       5.828  31.566  28.487  1.00  0.00     0.000 A 
ATOM     76  C   UNL     1       5.129  29.650  29.693  1.00  0.00     0.000 A 
ATOM     77  C   UNL     1       5.470  30.978  29.683  1.00  0.00     0.000 A 
ENDBRANCH  65  72
ENDBRANCH  63  65
ENDBRANCH  59  60
ENDBRANCH  58  59
ENDBRANCH  55  58
ENDBRANCH  53  54
ENDBRANCH  50  53
ENDBRANCH  47  50
ENDBRANCH   5  47
BRANCH   4  78
ATOM     78  N   UNL     1       1.695  17.896  33.661  1.00  0.00    -0.348 N 
ATOM     79  C   UNL     1       1.887  16.488  33.592  1.00  0.00     0.217 C 
ATOM     80  H   UNL     1       0.936  18.233  34.305  1.00  0.00     0.163 HD
ATOM     81  C   UNL     1       1.042  15.550  34.407  1.00  0.00     0.114 C 
ATOM     82  O   UNL     1       2.764  15.990  32.855  1.00  0.00    -0.275 OA
ENDBRANCH   4  78
TORSDOF 32
