REMARK VINA RESULT:    -6.593      2.483      3.507
REMARK INTER + INTRA:         -23.196
REMARK INTER:                 -16.534
REMARK INTRA:                  -6.662
REMARK UNBOUND:                -6.197
REMARK SMILES CC(=O)N[C@@H]1[C@@H](O)C[C@](OC[C@H]2O[C@@H](O[C@H]3[C@H](O)[C@@H](O)[C@H](OCCN=[N+]=[N-])O[C@@H]3CO)[C@H](O)[C@@H](O)[C@H]2O)(C(=O)O)O[C@H]1C(O)[C@H](O)CNC(=O)OCc1cn(Cc2cccc(C#N)c2)nn1
REMARK SMILES IDX 9 1 8 2 6 3 5 4 42 5 41 6 10 7 11 8 12 9 14 10 13 11 32 12
REMARK SMILES IDX 34 13 36 14 15 15 16 16 29 17 28 18 21 19 17 20 19 21 30 22
REMARK SMILES IDX 31 23 22 25 23 26 24 27 25 28 26 29 27 30 18 31 20 33 33 35
REMARK SMILES IDX 35 37 37 39 38 41 39 42 40 43 7 45 43 47 44 48 45 50 46 51
REMARK SMILES IDX 47 53 48 54 49 55 50 57 51 58 52 59 53 60 54 61 66 62 55 63
REMARK SMILES IDX 65 64 56 65 57 66 58 67 64 68 59 69 61 70 60 71 62 72 63 73
REMARK SMILES IDX 4 74 2 75 1 77 3 78
REMARK H PARENT 31 24 18 32 20 34 33 36 35 38 37 40 40 44 7 46 44 49 46 52
REMARK H PARENT 48 56 4 76
REMARK Flexibility Score: inf
ROOT
ATOM      1  C   UNL     1      15.634  31.746  17.736  1.00  0.00     0.272 C 
ATOM      2  C   UNL     1      14.726  31.029  18.706  1.00  0.00     0.113 C 
ATOM      3  C   UNL     1      14.082  29.792  18.243  1.00  0.00     0.145 C 
ATOM      4  C   UNL     1      13.798  29.820  16.737  1.00  0.00     0.142 C 
ATOM      5  C   UNL     1      14.933  30.297  15.948  1.00  0.00     0.178 C 
ATOM      6  O   UNL     1      15.793  31.182  16.512  1.00  0.00    -0.332 OA
ENDROOT
BRANCH   1   7
ATOM      7  O   UNL     1      16.825  31.880  18.291  1.00  0.00    -0.338 OA
BRANCH   7   8
ATOM      8  C   UNL     1      17.999  31.485  18.420  1.00  0.00     0.199 C 
BRANCH   8   9
ATOM      9  C   UNL     1      18.727  31.135  19.688  1.00  0.00     0.179 C 
ATOM     10  C   UNL     1      18.401  30.230  21.726  1.00  0.00     0.282 C 
ATOM     11  O   UNL     1      17.906  30.192  20.416  1.00  0.00    -0.341 OA
ATOM     12  C   UNL     1      19.753  29.609  21.822  1.00  0.00     0.202 C 
ATOM     13  C   UNL     1      20.659  30.007  20.672  1.00  0.00     0.179 C 
ATOM     14  C   UNL     1      19.941  30.235  19.386  1.00  0.00     0.177 C 
BRANCH  10  15
ATOM     15  O   UNL     1      17.512  29.563  22.565  1.00  0.00    -0.341 OA
BRANCH  15  16
ATOM     16  C   UNL     1      16.285  30.170  22.630  1.00  0.00     0.184 C 
ATOM     17  C   UNL     1      15.934  30.623  24.000  1.00  0.00     0.178 C 
ATOM     18  O   UNL     1      14.672  31.160  24.103  1.00  0.00    -0.341 OA
ATOM     19  C   UNL     1      13.648  30.400  23.582  1.00  0.00     0.281 C 
ATOM     20  C   UNL     1      15.258  29.032  22.327  1.00  0.00     0.180 C 
ATOM     21  C   UNL     1      13.930  29.758  22.262  1.00  0.00     0.202 C 
BRANCH  17  22
ATOM     22  C   UNL     1      16.900  31.684  24.474  1.00  0.00     0.191 C 
BRANCH  22  23
ATOM     23  O   UNL     1      18.053  31.081  24.985  1.00  0.00    -0.394 OA
ATOM     24  H   UNL     1      18.258  30.228  24.567  1.00  0.00     0.210 HD
ENDBRANCH  22  23
ENDBRANCH  17  22
BRANCH  19  25
ATOM     25  O   UNL     1      12.568  31.282  23.365  1.00  0.00    -0.350 OA
BRANCH  25  26
ATOM     26  C   UNL     1      11.707  31.237  24.430  1.00  0.00     0.169 C 
BRANCH  26  27
ATOM     27  C   UNL     1      10.626  30.207  24.260  1.00  0.00     0.119 C 
BRANCH  27  28
ATOM     28  N   UNL     1      11.070  28.864  24.547  1.00  0.00    -0.092 NA
ATOM     29  N   UNL     1      10.219  27.999  24.800  1.00  0.00     0.001 N 
ATOM     30  N   UNL     1       9.471  27.061  25.157  1.00  0.00    -0.003 NA
ENDBRANCH  27  28
ENDBRANCH  26  27
ENDBRANCH  25  26
ENDBRANCH  19  25
BRANCH  20  31
ATOM     31  O   UNL     1      15.630  28.441  21.150  1.00  0.00    -0.387 OA
ATOM     32  H   UNL     1      16.321  27.731  21.288  1.00  0.00     0.211 HD
ENDBRANCH  20  31
BRANCH  21  33
ATOM     33  O   UNL     1      12.946  28.805  22.008  1.00  0.00    -0.385 OA
ATOM     34  H   UNL     1      12.066  29.273  22.102  1.00  0.00     0.211 HD
ENDBRANCH  21  33
ENDBRANCH  15  16
ENDBRANCH  10  15
BRANCH  12  35
ATOM     35  O   UNL     1      20.387  30.130  22.974  1.00  0.00    -0.385 OA
ATOM     36  H   UNL     1      19.773  30.817  23.332  1.00  0.00     0.211 HD
ENDBRANCH  12  35
BRANCH  13  37
ATOM     37  O   UNL     1      21.528  28.923  20.477  1.00  0.00    -0.387 OA
ATOM     38  H   UNL     1      21.146  28.217  19.921  1.00  0.00     0.211 HD
ENDBRANCH  13  37
BRANCH  14  39
ATOM     39  O   UNL     1      19.442  28.991  18.969  1.00  0.00    -0.387 OA
ATOM     40  H   UNL     1      19.203  28.986  18.022  1.00  0.00     0.211 HD
ENDBRANCH  14  39
ENDBRANCH   8   9
ENDBRANCH   7   8
ENDBRANCH   1   7
BRANCH   1  41
ATOM     41  C   UNL     1      14.979  33.077  17.470  1.00  0.00     0.364 C 
ATOM     42  O   UNL     1      13.713  33.213  17.579  1.00  0.00    -0.246 OA
BRANCH  41  43
ATOM     43  O   UNL     1      15.703  34.179  17.106  1.00  0.00    -0.477 OA
ATOM     44  H   UNL     1      16.623  34.011  16.665  1.00  0.00     0.296 HD
ENDBRANCH  41  43
ENDBRANCH   1  41
BRANCH   3  45
ATOM     45  O   UNL     1      14.886  28.697  18.525  1.00  0.00    -0.391 OA
ATOM     46  H   UNL     1      14.468  28.054  19.145  1.00  0.00     0.211 HD
ENDBRANCH   3  45
BRANCH   5  47
ATOM     47  C   UNL     1      15.857  29.215  15.427  1.00  0.00     0.176 C 
BRANCH  47  48
ATOM     48  O   UNL     1      14.965  28.259  14.834  1.00  0.00    -0.388 OA
ATOM     49  H   UNL     1      14.222  28.771  14.441  1.00  0.00     0.211 HD
ENDBRANCH  47  48
BRANCH  47  50
ATOM     50  C   UNL     1      16.817  29.550  14.363  1.00  0.00     0.165 C 
BRANCH  50  51
ATOM     51  O   UNL     1      16.798  28.342  13.539  1.00  0.00    -0.388 OA
ATOM     52  H   UNL     1      16.083  27.748  13.917  1.00  0.00     0.211 HD
ENDBRANCH  50  51
BRANCH  50  53
ATOM     53  C   UNL     1      18.252  29.691  14.717  1.00  0.00     0.154 C 
BRANCH  53  54
ATOM     54  N   UNL     1      18.759  28.830  15.737  1.00  0.00    -0.319 N 
ATOM     55  C   UNL     1      20.141  28.447  15.723  1.00  0.00     0.407 C 
ATOM     56  H   UNL     1      18.185  28.461  16.505  1.00  0.00     0.167 HD
ATOM     57  O   UNL     1      20.849  28.899  14.794  1.00  0.00    -0.225 OA
BRANCH  55  58
ATOM     58  O   UNL     1      20.703  27.630  16.662  1.00  0.00    -0.443 OA
BRANCH  58  59
ATOM     59  C   UNL     1      21.923  26.904  16.406  1.00  0.00     0.294 C 
BRANCH  59  60
ATOM     60  C   UNL     1      22.621  26.663  17.700  1.00  0.00     0.120 A 
ATOM     61  C   UNL     1      22.932  25.444  18.259  1.00  0.00     0.138 A 
ATOM     62  N   UNL     1      23.071  27.584  18.560  1.00  0.00    -0.132 NA
ATOM     63  N   UNL     1      23.566  25.644  19.449  1.00  0.00    -0.248 N 
ATOM     64  N   UNL     1      23.634  26.957  19.602  1.00  0.00    -0.067 NA
BRANCH  63  65
ATOM     65  C   UNL     1      24.040  24.624  20.340  1.00  0.00     0.181 C 
BRANCH  65  66
ATOM     66  C   UNL     1      23.226  24.637  21.577  1.00  0.00    -0.025 A 
ATOM     67  C   UNL     1      21.856  24.655  21.576  1.00  0.00     0.006 A 
ATOM     68  C   UNL     1      23.869  24.634  22.810  1.00  0.00     0.025 A 
ATOM     69  C   UNL     1      21.112  24.672  22.726  1.00  0.00     0.002 A 
ATOM     70  C   UNL     1      23.123  24.651  23.963  1.00  0.00     0.052 A 
ATOM     71  C   UNL     1      21.728  24.670  23.969  1.00  0.00     0.019 A 
BRANCH  70  72
ATOM     72  C   UNL     1      23.797  24.644  25.235  1.00  0.00     0.099 C 
ATOM     73  N   UNL     1      24.335  24.650  26.273  1.00  0.00    -0.192 NA
ENDBRANCH  70  72
ENDBRANCH  65  66
ENDBRANCH  63  65
ENDBRANCH  59  60
ENDBRANCH  58  59
ENDBRANCH  55  58
ENDBRANCH  53  54
ENDBRANCH  50  53
ENDBRANCH  47  50
ENDBRANCH   5  47
BRANCH   4  74
ATOM     74  N   UNL     1      12.526  30.507  16.519  1.00  0.00    -0.348 N 
ATOM     75  C   UNL     1      11.528  29.882  15.742  1.00  0.00     0.217 C 
ATOM     76  H   UNL     1      12.290  31.442  16.904  1.00  0.00     0.163 HD
ATOM     77  C   UNL     1      10.204  30.508  15.468  1.00  0.00     0.114 C 
ATOM     78  O   UNL     1      11.762  28.761  15.262  1.00  0.00    -0.275 OA
ENDBRANCH   4  74
TORSDOF 32
