REMARK VINA RESULT:    -6.545      7.447     12.430
REMARK INTER + INTRA:         -22.219
REMARK INTER:                 -13.241
REMARK INTRA:                  -8.978
REMARK UNBOUND:                -5.152
REMARK SMILES CC(=O)N[C@@H]1[C@@H](O)C[C@](OC[C@H]2O[C@@H](O[C@H]3[C@H](O)[C@@H](O)[C@H](OCCN=[N+]=[N-])O[C@@H]3CO)[C@H](O)[C@@H](O)[C@H]2O)(C(=O)O)O[C@H]1C(O)[C@H](O)CNC(=O)OCc1cn(CC(O)c2ccccc2)nn1
REMARK SMILES IDX 9 1 8 2 6 3 5 4 42 5 41 6 10 7 11 8 12 9 14 10 13 11 32 12
REMARK SMILES IDX 34 13 36 14 15 15 16 16 29 17 28 18 21 19 17 20 19 21 30 22
REMARK SMILES IDX 31 23 22 25 23 26 24 27 25 28 26 29 27 30 18 31 20 33 33 35
REMARK SMILES IDX 35 37 37 39 38 41 39 42 40 43 7 45 43 47 44 48 45 50 46 51
REMARK SMILES IDX 47 53 48 54 49 55 50 57 51 58 52 59 53 60 54 61 66 62 55 63
REMARK SMILES IDX 65 64 56 65 57 66 58 67 59 69 60 70 64 71 61 72 63 73 62 74
REMARK SMILES IDX 4 75 2 76 1 78 3 79
REMARK H PARENT 31 24 18 32 20 34 33 36 35 38 37 40 40 44 7 46 44 49 46 52
REMARK H PARENT 48 56 58 68 4 77
REMARK Flexibility Score: inf
ROOT
ATOM      1  C   UNL     1      21.723  17.892   6.532  1.00  0.00     0.272 C 
ATOM      2  C   UNL     1      20.244  17.977   6.472  1.00  0.00     0.113 C 
ATOM      3  C   UNL     1      19.546  18.444   7.700  1.00  0.00     0.145 C 
ATOM      4  C   UNL     1      20.496  18.391   8.854  1.00  0.00     0.142 C 
ATOM      5  C   UNL     1      21.329  17.131   8.704  1.00  0.00     0.178 C 
ATOM      6  O   UNL     1      22.135  17.099   7.608  1.00  0.00    -0.332 OA
ENDROOT
BRANCH   1   7
ATOM      7  O   UNL     1      22.421  19.060   6.612  1.00  0.00    -0.338 OA
BRANCH   7   8
ATOM      8  C   UNL     1      23.750  18.997   6.895  1.00  0.00     0.199 C 
BRANCH   8   9
ATOM      9  C   UNL     1      24.205  20.209   7.677  1.00  0.00     0.179 C 
ATOM     10  C   UNL     1      24.690  20.753   9.859  1.00  0.00     0.282 C 
ATOM     11  O   UNL     1      23.844  20.097   9.005  1.00  0.00    -0.341 OA
ATOM     12  C   UNL     1      26.104  20.218   9.890  1.00  0.00     0.202 C 
ATOM     13  C   UNL     1      26.448  19.725   8.502  1.00  0.00     0.179 C 
ATOM     14  C   UNL     1      25.646  20.560   7.524  1.00  0.00     0.177 C 
BRANCH  10  15
ATOM     15  O   UNL     1      24.247  20.697  11.176  1.00  0.00    -0.341 OA
BRANCH  15  16
ATOM     16  C   UNL     1      23.095  21.386  11.441  1.00  0.00     0.184 C 
ATOM     17  C   UNL     1      23.500  22.832  11.703  1.00  0.00     0.178 C 
ATOM     18  O   UNL     1      23.551  23.099  13.055  1.00  0.00    -0.341 OA
ATOM     19  C   UNL     1      24.327  22.094  13.662  1.00  0.00     0.281 C 
ATOM     20  C   UNL     1      22.477  20.749  12.679  1.00  0.00     0.180 C 
ATOM     21  C   UNL     1      23.402  20.901  13.875  1.00  0.00     0.202 C 
BRANCH  17  22
ATOM     22  C   UNL     1      22.577  23.791  10.971  1.00  0.00     0.191 C 
BRANCH  22  23
ATOM     23  O   UNL     1      21.390  23.168  10.597  1.00  0.00    -0.394 OA
ATOM     24  H   UNL     1      21.276  22.287  11.041  1.00  0.00     0.210 HD
ENDBRANCH  22  23
ENDBRANCH  17  22
BRANCH  19  25
ATOM     25  O   UNL     1      24.804  22.618  14.838  1.00  0.00    -0.350 OA
BRANCH  25  26
ATOM     26  C   UNL     1      25.640  23.702  14.709  1.00  0.00     0.169 C 
BRANCH  26  27
ATOM     27  C   UNL     1      26.877  23.636  15.560  1.00  0.00     0.119 C 
BRANCH  27  28
ATOM     28  N   UNL     1      28.071  23.712  14.710  1.00  0.00    -0.092 NA
ATOM     29  N   UNL     1      28.100  22.882  13.787  1.00  0.00     0.001 N 
ATOM     30  N   UNL     1      28.272  22.279  12.729  1.00  0.00    -0.003 NA
ENDBRANCH  27  28
ENDBRANCH  26  27
ENDBRANCH  25  26
ENDBRANCH  19  25
BRANCH  20  31
ATOM     31  O   UNL     1      21.241  21.322  12.947  1.00  0.00    -0.387 OA
ATOM     32  H   UNL     1      20.571  20.604  13.128  1.00  0.00     0.211 HD
ENDBRANCH  20  31
BRANCH  21  33
ATOM     33  O   UNL     1      24.095  19.729  14.120  1.00  0.00    -0.385 OA
ATOM     34  H   UNL     1      24.899  19.958  14.647  1.00  0.00     0.211 HD
ENDBRANCH  21  33
ENDBRANCH  15  16
ENDBRANCH  10  15
BRANCH  12  35
ATOM     35  O   UNL     1      26.968  21.263  10.234  1.00  0.00    -0.385 OA
ATOM     36  H   UNL     1      27.354  21.044  11.126  1.00  0.00     0.211 HD
ENDBRANCH  12  35
BRANCH  13  37
ATOM     37  O   UNL     1      26.059  18.389   8.456  1.00  0.00    -0.387 OA
ATOM     38  H   UNL     1      26.784  17.769   8.266  1.00  0.00     0.211 HD
ENDBRANCH  13  37
BRANCH  14  39
ATOM     39  O   UNL     1      26.105  20.503   6.229  1.00  0.00    -0.387 OA
ATOM     40  H   UNL     1      26.280  21.392   5.825  1.00  0.00     0.211 HD
ENDBRANCH  14  39
ENDBRANCH   8   9
ENDBRANCH   7   8
ENDBRANCH   1   7
BRANCH   1  41
ATOM     41  C   UNL     1      22.133  17.083   5.312  1.00  0.00     0.364 C 
ATOM     42  O   UNL     1      21.760  17.423   4.201  1.00  0.00    -0.246 OA
BRANCH  41  43
ATOM     43  O   UNL     1      22.929  15.978   5.557  1.00  0.00    -0.477 OA
ATOM     44  H   UNL     1      23.434  15.607   4.780  1.00  0.00     0.296 HD
ENDBRANCH  41  43
ENDBRANCH   1  41
BRANCH   3  45
ATOM     45  O   UNL     1      18.955  19.696   7.522  1.00  0.00    -0.391 OA
ATOM     46  H   UNL     1      19.214  20.235   8.320  1.00  0.00     0.211 HD
ENDBRANCH   3  45
BRANCH   5  47
ATOM     47  C   UNL     1      22.040  16.946  10.020  1.00  0.00     0.176 C 
BRANCH  47  48
ATOM     48  O   UNL     1      22.563  18.185  10.422  1.00  0.00    -0.388 OA
ATOM     49  H   UNL     1      23.523  18.027  10.642  1.00  0.00     0.211 HD
ENDBRANCH  47  48
BRANCH  47  50
ATOM     50  C   UNL     1      23.085  15.883   9.962  1.00  0.00     0.165 C 
BRANCH  50  51
ATOM     51  O   UNL     1      22.755  14.858   9.116  1.00  0.00    -0.388 OA
ATOM     52  H   UNL     1      21.919  14.409   9.315  1.00  0.00     0.211 HD
ENDBRANCH  50  51
BRANCH  50  53
ATOM     53  C   UNL     1      23.637  15.470  11.302  1.00  0.00     0.154 C 
BRANCH  53  54
ATOM     54  N   UNL     1      24.193  16.524  12.097  1.00  0.00    -0.319 N 
ATOM     55  C   UNL     1      25.483  17.096  11.900  1.00  0.00     0.407 C 
ATOM     56  H   UNL     1      23.613  16.934  12.899  1.00  0.00     0.167 HD
ATOM     57  O   UNL     1      26.221  16.698  10.981  1.00  0.00    -0.225 OA
BRANCH  55  58
ATOM     58  O   UNL     1      25.950  18.103  12.716  1.00  0.00    -0.443 OA
BRANCH  58  59
ATOM     59  C   UNL     1      27.325  18.479  12.788  1.00  0.00     0.294 C 
BRANCH  59  60
ATOM     60  C   UNL     1      27.629  18.990  14.162  1.00  0.00     0.120 A 
ATOM     61  C   UNL     1      28.717  18.762  14.965  1.00  0.00     0.138 A 
ATOM     62  N   UNL     1      26.816  19.824  14.847  1.00  0.00    -0.132 NA
ATOM     63  N   UNL     1      28.555  19.460  16.128  1.00  0.00    -0.249 N 
ATOM     64  N   UNL     1      27.401  20.072  15.992  1.00  0.00    -0.067 NA
BRANCH  63  65
ATOM     65  C   UNL     1      29.491  19.487  17.241  1.00  0.00     0.182 C 
BRANCH  65  66
ATOM     66  C   UNL     1      29.018  18.552  18.340  1.00  0.00     0.166 C 
BRANCH  66  67
ATOM     67  O   UNL     1      30.052  17.594  18.465  1.00  0.00    -0.386 OA
ATOM     68  H   UNL     1      30.799  17.977  19.003  1.00  0.00     0.211 HD
ENDBRANCH  66  67
BRANCH  66  69
ATOM     69  C   UNL     1      28.776  19.209  19.627  1.00  0.00    -0.018 A 
ATOM     70  C   UNL     1      28.801  18.548  20.817  1.00  0.00     0.006 A 
ATOM     71  C   UNL     1      28.496  20.582  19.561  1.00  0.00     0.006 A 
ATOM     72  C   UNL     1      28.542  19.264  21.975  1.00  0.00     0.000 A 
ATOM     73  C   UNL     1      28.242  21.266  20.719  1.00  0.00     0.000 A 
ATOM     74  C   UNL     1      28.264  20.610  21.933  1.00  0.00     0.000 A 
ENDBRANCH  66  69
ENDBRANCH  65  66
ENDBRANCH  63  65
ENDBRANCH  59  60
ENDBRANCH  58  59
ENDBRANCH  55  58
ENDBRANCH  53  54
ENDBRANCH  50  53
ENDBRANCH  47  50
ENDBRANCH   5  47
BRANCH   4  75
ATOM     75  N   UNL     1      19.754  18.203  10.112  1.00  0.00    -0.348 N 
ATOM     76  C   UNL     1      19.349  19.292  10.924  1.00  0.00     0.217 C 
ATOM     77  H   UNL     1      19.510  17.243  10.436  1.00  0.00     0.163 HD
ATOM     78  C   UNL     1      18.601  19.142  12.198  1.00  0.00     0.114 C 
ATOM     79  O   UNL     1      19.642  20.457  10.536  1.00  0.00    -0.275 OA
ENDBRANCH   4  75
TORSDOF 33
