REMARK VINA RESULT:    -6.867      2.870      9.302
REMARK INTER + INTRA:         -22.497
REMARK INTER:                 -13.254
REMARK INTRA:                  -9.243
REMARK UNBOUND:                -5.593
REMARK SMILES CC(=O)N[C@@H]1[C@@H](O)C[C@](OC[C@H]2O[C@@H](O[C@H]3[C@H](O)[C@@H](O)[C@H](OCCN=[N+]=[N-])O[C@@H]3CO)[C@H](O)[C@@H](O)[C@H]2O)(C(=O)O)O[C@H]1C(O)[C@H](O)CNC(=O)OCc1cn(C2c3ccccc3-c3ccccc32)nn1
REMARK SMILES IDX 9 1 8 2 6 3 5 4 42 5 41 6 10 7 11 8 12 9 14 10 13 11 32 12
REMARK SMILES IDX 34 13 36 14 15 15 16 16 29 17 28 18 21 19 17 20 19 21 30 22
REMARK SMILES IDX 31 23 22 25 23 26 24 27 25 28 26 29 27 30 18 31 20 33 33 35
REMARK SMILES IDX 35 37 37 39 38 41 39 42 40 43 7 45 43 47 44 48 45 50 46 51
REMARK SMILES IDX 47 53 48 54 49 55 50 57 51 58 52 59 53 60 54 61 70 62 55 63
REMARK SMILES IDX 69 64 56 65 57 66 68 67 58 68 62 69 63 70 67 71 59 72 61 73
REMARK SMILES IDX 64 74 66 75 60 76 65 77 4 78 2 79 1 81 3 82
REMARK H PARENT 31 24 18 32 20 34 33 36 35 38 37 40 40 44 7 46 44 49 46 52
REMARK H PARENT 48 56 4 80
REMARK Flexibility Score: inf
ROOT
ATOM      1  C   UNL     1      20.396  28.405  19.295  1.00  0.00     0.272 C 
ATOM      2  C   UNL     1      21.408  27.470  19.818  1.00  0.00     0.113 C 
ATOM      3  C   UNL     1      21.428  27.402  21.298  1.00  0.00     0.145 C 
ATOM      4  C   UNL     1      20.818  28.598  21.975  1.00  0.00     0.142 C 
ATOM      5  C   UNL     1      20.981  29.787  21.093  1.00  0.00     0.178 C 
ATOM      6  O   UNL     1      20.486  29.699  19.832  1.00  0.00    -0.332 OA
ENDROOT
BRANCH   1   7
ATOM      7  O   UNL     1      19.109  27.966  19.459  1.00  0.00    -0.338 OA
BRANCH   7   8
ATOM      8  C   UNL     1      18.142  28.922  19.604  1.00  0.00     0.199 C 
BRANCH   8   9
ATOM      9  C   UNL     1      16.772  28.305  19.421  1.00  0.00     0.179 C 
ATOM     10  C   UNL     1      15.680  30.067  20.517  1.00  0.00     0.282 C 
ATOM     11  O   UNL     1      15.969  28.733  20.453  1.00  0.00    -0.341 OA
ATOM     12  C   UNL     1      15.306  30.603  19.188  1.00  0.00     0.202 C 
ATOM     13  C   UNL     1      14.842  29.386  18.366  1.00  0.00     0.179 C 
ATOM     14  C   UNL     1      16.162  28.635  18.086  1.00  0.00     0.177 C 
BRANCH  10  15
ATOM     15  O   UNL     1      16.604  30.760  21.251  1.00  0.00    -0.341 OA
BRANCH  15  16
ATOM     16  C   UNL     1      16.189  31.260  22.455  1.00  0.00     0.184 C 
ATOM     17  C   UNL     1      16.480  32.710  22.559  1.00  0.00     0.178 C 
ATOM     18  O   UNL     1      16.912  33.100  23.823  1.00  0.00    -0.341 OA
ATOM     19  C   UNL     1      16.359  32.392  24.839  1.00  0.00     0.281 C 
ATOM     20  C   UNL     1      16.940  30.433  23.495  1.00  0.00     0.180 C 
ATOM     21  C   UNL     1      17.000  31.009  24.848  1.00  0.00     0.202 C 
BRANCH  17  22
ATOM     22  C   UNL     1      15.273  33.559  22.223  1.00  0.00     0.191 C 
BRANCH  22  23
ATOM     23  O   UNL     1      14.154  32.737  21.943  1.00  0.00    -0.394 OA
ATOM     24  H   UNL     1      14.372  31.785  22.179  1.00  0.00     0.210 HD
ENDBRANCH  22  23
ENDBRANCH  17  22
BRANCH  19  25
ATOM     25  O   UNL     1      14.992  32.192  24.786  1.00  0.00    -0.350 OA
BRANCH  25  26
ATOM     26  C   UNL     1      14.477  31.516  25.855  1.00  0.00     0.169 C 
BRANCH  26  27
ATOM     27  C   UNL     1      13.280  30.668  25.597  1.00  0.00     0.119 C 
BRANCH  27  28
ATOM     28  N   UNL     1      13.497  29.662  24.577  1.00  0.00    -0.092 NA
ATOM     29  N   UNL     1      13.050  29.916  23.452  1.00  0.00     0.001 N 
ATOM     30  N   UNL     1      12.544  30.051  22.332  1.00  0.00    -0.003 NA
ENDBRANCH  27  28
ENDBRANCH  26  27
ENDBRANCH  25  26
ENDBRANCH  19  25
BRANCH  20  31
ATOM     31  O   UNL     1      16.330  29.154  23.592  1.00  0.00    -0.387 OA
ATOM     32  H   UNL     1      17.016  28.443  23.537  1.00  0.00     0.211 HD
ENDBRANCH  20  31
BRANCH  21  33
ATOM     33  O   UNL     1      18.332  31.188  25.246  1.00  0.00    -0.385 OA
ATOM     34  H   UNL     1      18.936  31.372  24.481  1.00  0.00     0.211 HD
ENDBRANCH  21  33
ENDBRANCH  15  16
ENDBRANCH  10  15
BRANCH  12  35
ATOM     35  O   UNL     1      14.204  31.455  19.220  1.00  0.00    -0.385 OA
ATOM     36  H   UNL     1      14.518  32.378  19.069  1.00  0.00     0.211 HD
ENDBRANCH  12  35
BRANCH  13  37
ATOM     37  O   UNL     1      14.330  29.763  17.146  1.00  0.00    -0.387 OA
ATOM     38  H   UNL     1      13.960  30.675  17.228  1.00  0.00     0.211 HD
ENDBRANCH  13  37
BRANCH  14  39
ATOM     39  O   UNL     1      16.970  29.540  17.424  1.00  0.00    -0.387 OA
ATOM     40  H   UNL     1      16.468  30.308  17.055  1.00  0.00     0.211 HD
ENDBRANCH  14  39
ENDBRANCH   8   9
ENDBRANCH   7   8
ENDBRANCH   1   7
BRANCH   1  41
ATOM     41  C   UNL     1      20.648  28.669  17.811  1.00  0.00     0.364 C 
ATOM     42  O   UNL     1      20.096  27.924  16.995  1.00  0.00    -0.246 OA
BRANCH  41  43
ATOM     43  O   UNL     1      21.457  29.695  17.388  1.00  0.00    -0.477 OA
ATOM     44  H   UNL     1      22.460  29.552  17.221  1.00  0.00     0.296 HD
ENDBRANCH  41  43
ENDBRANCH   1  41
BRANCH   3  45
ATOM     45  O   UNL     1      20.871  26.243  21.842  1.00  0.00    -0.391 OA
ATOM     46  H   UNL     1      19.947  26.104  21.589  1.00  0.00     0.211 HD
ENDBRANCH   3  45
BRANCH   5  47
ATOM     47  C   UNL     1      20.345  30.993  21.782  1.00  0.00     0.176 C 
BRANCH  47  48
ATOM     48  O   UNL     1      19.245  31.397  21.072  1.00  0.00    -0.388 OA
ATOM     49  H   UNL     1      19.372  31.250  20.086  1.00  0.00     0.211 HD
ENDBRANCH  47  48
BRANCH  47  50
ATOM     50  C   UNL     1      21.380  32.072  21.887  1.00  0.00     0.165 C 
BRANCH  50  51
ATOM     51  O   UNL     1      22.643  31.546  21.560  1.00  0.00    -0.388 OA
ATOM     52  H   UNL     1      22.909  30.856  22.208  1.00  0.00     0.211 HD
ENDBRANCH  50  51
BRANCH  50  53
ATOM     53  C   UNL     1      21.480  32.448  23.370  1.00  0.00     0.154 C 
BRANCH  53  54
ATOM     54  N   UNL     1      22.715  31.931  23.874  1.00  0.00    -0.319 N 
ATOM     55  C   UNL     1      23.280  32.443  25.060  1.00  0.00     0.407 C 
ATOM     56  H   UNL     1      23.206  31.161  23.359  1.00  0.00     0.167 HD
ATOM     57  O   UNL     1      22.725  33.372  25.701  1.00  0.00    -0.225 OA
BRANCH  55  58
ATOM     58  O   UNL     1      24.463  31.953  25.576  1.00  0.00    -0.443 OA
BRANCH  58  59
ATOM     59  C   UNL     1      25.567  31.585  24.764  1.00  0.00     0.294 C 
BRANCH  59  60
ATOM     60  C   UNL     1      25.308  30.214  24.258  1.00  0.00     0.120 A 
ATOM     61  C   UNL     1      25.694  29.004  24.820  1.00  0.00     0.139 A 
ATOM     62  N   UNL     1      24.635  29.887  23.143  1.00  0.00    -0.132 NA
ATOM     63  N   UNL     1      25.253  28.000  24.046  1.00  0.00    -0.240 N 
ATOM     64  N   UNL     1      24.613  28.570  23.037  1.00  0.00    -0.066 NA
BRANCH  63  65
ATOM     65  C   UNL     1      25.441  26.567  24.277  1.00  0.00     0.170 C 
ATOM     66  C   UNL     1      25.072  25.854  23.051  1.00  0.00    -0.011 A 
ATOM     67  C   UNL     1      24.479  26.075  25.280  1.00  0.00    -0.011 A 
ATOM     68  C   UNL     1      25.599  25.880  21.766  1.00  0.00     0.007 A 
ATOM     69  C   UNL     1      24.005  25.024  23.272  1.00  0.00    -0.012 A 
ATOM     70  C   UNL     1      23.638  25.170  24.678  1.00  0.00    -0.012 A 
ATOM     71  C   UNL     1      24.299  26.352  26.622  1.00  0.00     0.007 A 
ATOM     72  C   UNL     1      25.063  25.099  20.767  1.00  0.00     0.000 A 
ATOM     73  C   UNL     1      23.466  24.238  22.264  1.00  0.00     0.009 A 
ATOM     74  C   UNL     1      22.637  24.548  25.389  1.00  0.00     0.009 A 
ATOM     75  C   UNL     1      23.305  25.742  27.351  1.00  0.00     0.000 A 
ATOM     76  C   UNL     1      23.983  24.259  20.990  1.00  0.00     0.001 A 
ATOM     77  C   UNL     1      22.470  24.836  26.732  1.00  0.00     0.001 A 
ENDBRANCH  63  65
ENDBRANCH  59  60
ENDBRANCH  58  59
ENDBRANCH  55  58
ENDBRANCH  53  54
ENDBRANCH  50  53
ENDBRANCH  47  50
ENDBRANCH   5  47
BRANCH   4  78
ATOM     78  N   UNL     1      21.643  28.859  23.170  1.00  0.00    -0.348 N 
ATOM     79  C   UNL     1      21.107  28.763  24.480  1.00  0.00     0.217 C 
ATOM     80  H   UNL     1      22.629  29.117  23.023  1.00  0.00     0.163 HD
ATOM     81  C   UNL     1      21.958  29.031  25.683  1.00  0.00     0.114 C 
ATOM     82  O   UNL     1      19.892  28.444  24.601  1.00  0.00    -0.275 OA
ENDBRANCH   4  78
TORSDOF 30
