REMARK VINA RESULT:    -6.703      3.464      8.263
REMARK INTER + INTRA:         -22.632
REMARK INTER:                 -14.666
REMARK INTRA:                  -7.966
REMARK UNBOUND:                -5.152
REMARK SMILES CC(=O)N[C@@H]1[C@@H](O)C[C@](OC[C@H]2O[C@@H](O[C@H]3[C@H](O)[C@@H](O)[C@H](OCCN=[N+]=[N-])O[C@@H]3CO)[C@H](O)[C@@H](O)[C@H]2O)(C(=O)O)O[C@H]1C(O)[C@H](O)CNC(=O)OCc1cn(CC(O)c2ccccc2)nn1
REMARK SMILES IDX 9 1 8 2 6 3 5 4 42 5 41 6 10 7 11 8 12 9 14 10 13 11 32 12
REMARK SMILES IDX 34 13 36 14 15 15 16 16 29 17 28 18 21 19 17 20 19 21 30 22
REMARK SMILES IDX 31 23 22 25 23 26 24 27 25 28 26 29 27 30 18 31 20 33 33 35
REMARK SMILES IDX 35 37 37 39 38 41 39 42 40 43 7 45 43 47 44 48 45 50 46 51
REMARK SMILES IDX 47 53 48 54 49 55 50 57 51 58 52 59 53 60 54 61 66 62 55 63
REMARK SMILES IDX 65 64 56 65 57 66 58 67 59 69 60 70 64 71 61 72 63 73 62 74
REMARK SMILES IDX 4 75 2 76 1 78 3 79
REMARK H PARENT 31 24 18 32 20 34 33 36 35 38 37 40 40 44 7 46 44 49 46 52
REMARK H PARENT 48 56 58 68 4 77
REMARK Flexibility Score: inf
ROOT
ATOM      1  C   UNL     1      23.219  25.978  17.869  1.00  0.00     0.272 C 
ATOM      2  C   UNL     1      24.229  26.806  17.168  1.00  0.00     0.113 C 
ATOM      3  C   UNL     1      24.334  28.232  17.579  1.00  0.00     0.145 C 
ATOM      4  C   UNL     1      23.129  28.600  18.387  1.00  0.00     0.142 C 
ATOM      5  C   UNL     1      21.929  27.920  17.753  1.00  0.00     0.178 C 
ATOM      6  O   UNL     1      21.950  26.561  17.786  1.00  0.00    -0.332 OA
ENDROOT
BRANCH   1   7
ATOM      7  O   UNL     1      23.437  25.692  19.184  1.00  0.00    -0.338 OA
BRANCH   7   8
ATOM      8  C   UNL     1      22.390  25.245  19.928  1.00  0.00     0.199 C 
BRANCH   8   9
ATOM      9  C   UNL     1      22.850  24.299  21.014  1.00  0.00     0.179 C 
ATOM     10  C   UNL     1      24.833  23.617  21.960  1.00  0.00     0.282 C 
ATOM     11  O   UNL     1      24.160  23.916  20.805  1.00  0.00    -0.341 OA
ATOM     12  C   UNL     1      25.013  24.778  22.912  1.00  0.00     0.202 C 
ATOM     13  C   UNL     1      23.794  25.667  22.798  1.00  0.00     0.179 C 
ATOM     14  C   UNL     1      22.630  24.778  22.409  1.00  0.00     0.177 C 
BRANCH  10  15
ATOM     15  O   UNL     1      26.118  23.147  21.707  1.00  0.00    -0.341 OA
BRANCH  15  16
ATOM     16  C   UNL     1      26.947  24.017  21.055  1.00  0.00     0.184 C 
ATOM     17  C   UNL     1      27.047  23.529  19.614  1.00  0.00     0.178 C 
ATOM     18  O   UNL     1      28.211  22.819  19.407  1.00  0.00    -0.341 OA
ATOM     19  C   UNL     1      28.309  21.850  20.422  1.00  0.00     0.281 C 
ATOM     20  C   UNL     1      28.297  23.950  21.759  1.00  0.00     0.180 C 
ATOM     21  C   UNL     1      28.890  22.556  21.642  1.00  0.00     0.202 C 
BRANCH  17  22
ATOM     22  C   UNL     1      26.911  24.688  18.642  1.00  0.00     0.191 C 
BRANCH  22  23
ATOM     23  O   UNL     1      26.417  25.825  19.274  1.00  0.00    -0.394 OA
ATOM     24  H   UNL     1      26.612  25.825  20.248  1.00  0.00     0.210 HD
ENDBRANCH  22  23
ENDBRANCH  17  22
BRANCH  19  25
ATOM     25  O   UNL     1      29.124  20.854  19.942  1.00  0.00    -0.350 OA
BRANCH  25  26
ATOM     26  C   UNL     1      28.527  19.625  19.783  1.00  0.00     0.169 C 
BRANCH  26  27
ATOM     27  C   UNL     1      28.627  18.727  20.985  1.00  0.00     0.119 C 
BRANCH  27  28
ATOM     28  N   UNL     1      30.036  18.542  21.352  1.00  0.00    -0.092 NA
ATOM     29  N   UNL     1      30.378  19.120  22.395  1.00  0.00     0.001 N 
ATOM     30  N   UNL     1      30.897  19.459  23.458  1.00  0.00    -0.003 NA
ENDBRANCH  27  28
ENDBRANCH  26  27
ENDBRANCH  25  26
ENDBRANCH  19  25
BRANCH  20  31
ATOM     31  O   UNL     1      29.165  24.892  21.224  1.00  0.00    -0.387 OA
ATOM     32  H   UNL     1      28.786  25.807  21.352  1.00  0.00     0.211 HD
ENDBRANCH  20  31
BRANCH  21  33
ATOM     33  O   UNL     1      28.705  21.837  22.809  1.00  0.00    -0.385 OA
ATOM     34  H   UNL     1      29.160  20.965  22.703  1.00  0.00     0.211 HD
ENDBRANCH  21  33
ENDBRANCH  15  16
ENDBRANCH  10  15
BRANCH  12  35
ATOM     35  O   UNL     1      25.094  24.276  24.215  1.00  0.00    -0.385 OA
ATOM     36  H   UNL     1      25.967  24.576  24.591  1.00  0.00     0.211 HD
ENDBRANCH  12  35
BRANCH  13  37
ATOM     37  O   UNL     1      24.078  26.588  21.793  1.00  0.00    -0.387 OA
ATOM     38  H   UNL     1      24.089  26.210  20.896  1.00  0.00     0.211 HD
ENDBRANCH  13  37
BRANCH  14  39
ATOM     39  O   UNL     1      21.396  25.345  22.622  1.00  0.00    -0.387 OA
ATOM     40  H   UNL     1      21.315  26.272  22.281  1.00  0.00     0.211 HD
ENDBRANCH  14  39
ENDBRANCH   8   9
ENDBRANCH   7   8
ENDBRANCH   1   7
BRANCH   1  41
ATOM     41  C   UNL     1      23.087  24.710  17.040  1.00  0.00     0.364 C 
ATOM     42  O   UNL     1      23.958  23.858  17.088  1.00  0.00    -0.246 OA
BRANCH  41  43
ATOM     43  O   UNL     1      21.947  24.610  16.263  1.00  0.00    -0.477 OA
ATOM     44  H   UNL     1      22.081  24.435  15.289  1.00  0.00     0.296 HD
ENDBRANCH  41  43
ENDBRANCH   1  41
BRANCH   3  45
ATOM     45  O   UNL     1      25.541  28.503  18.225  1.00  0.00    -0.391 OA
ATOM     46  H   UNL     1      25.300  28.750  19.161  1.00  0.00     0.211 HD
ENDBRANCH   3  45
BRANCH   5  47
ATOM     47  C   UNL     1      20.715  28.552  18.385  1.00  0.00     0.176 C 
BRANCH  47  48
ATOM     48  O   UNL     1      20.184  27.655  19.325  1.00  0.00    -0.388 OA
ATOM     49  H   UNL     1      20.963  27.230  19.781  1.00  0.00     0.211 HD
ENDBRANCH  47  48
BRANCH  47  50
ATOM     50  C   UNL     1      19.701  28.980  17.377  1.00  0.00     0.165 C 
BRANCH  50  51
ATOM     51  O   UNL     1      20.166  29.954  16.536  1.00  0.00    -0.388 OA
ATOM     52  H   UNL     1      19.531  30.270  15.875  1.00  0.00     0.211 HD
ENDBRANCH  50  51
BRANCH  50  53
ATOM     53  C   UNL     1      18.319  29.205  17.933  1.00  0.00     0.154 C 
BRANCH  53  54
ATOM     54  N   UNL     1      18.258  29.892  19.189  1.00  0.00    -0.319 N 
ATOM     55  C   UNL     1      17.697  29.351  20.383  1.00  0.00     0.407 C 
ATOM     56  H   UNL     1      18.662  30.880  19.264  1.00  0.00     0.167 HD
ATOM     57  O   UNL     1      17.220  28.203  20.398  1.00  0.00    -0.225 OA
BRANCH  55  58
ATOM     58  O   UNL     1      17.667  30.081  21.551  1.00  0.00    -0.443 OA
BRANCH  58  59
ATOM     59  C   UNL     1      18.780  30.832  22.035  1.00  0.00     0.294 C 
BRANCH  59  60
ATOM     60  C   UNL     1      19.844  29.893  22.513  1.00  0.00     0.120 A 
ATOM     61  C   UNL     1      20.279  29.631  23.786  1.00  0.00     0.138 A 
ATOM     62  N   UNL     1      20.568  29.102  21.690  1.00  0.00    -0.132 NA
ATOM     63  N   UNL     1      21.261  28.683  23.726  1.00  0.00    -0.249 N 
ATOM     64  N   UNL     1      21.384  28.411  22.447  1.00  0.00    -0.067 NA
BRANCH  63  65
ATOM     65  C   UNL     1      21.979  28.128  24.863  1.00  0.00     0.182 C 
BRANCH  65  66
ATOM     66  C   UNL     1      21.018  27.374  25.764  1.00  0.00     0.166 C 
BRANCH  66  67
ATOM     67  O   UNL     1      20.184  26.653  24.877  1.00  0.00    -0.386 OA
ATOM     68  H   UNL     1      19.451  26.213  25.388  1.00  0.00     0.211 HD
ENDBRANCH  66  67
BRANCH  66  69
ATOM     69  C   UNL     1      21.669  26.458  26.706  1.00  0.00    -0.018 A 
ATOM     70  C   UNL     1      21.726  26.686  28.046  1.00  0.00     0.006 A 
ATOM     71  C   UNL     1      22.256  25.321  26.133  1.00  0.00     0.006 A 
ATOM     72  C   UNL     1      22.381  25.763  28.845  1.00  0.00     0.000 A 
ATOM     73  C   UNL     1      22.898  24.424  26.943  1.00  0.00     0.000 A 
ATOM     74  C   UNL     1      22.965  24.641  28.305  1.00  0.00     0.000 A 
ENDBRANCH  66  69
ENDBRANCH  65  66
ENDBRANCH  63  65
ENDBRANCH  59  60
ENDBRANCH  58  59
ENDBRANCH  55  58
ENDBRANCH  53  54
ENDBRANCH  50  53
ENDBRANCH  47  50
ENDBRANCH   5  47
BRANCH   4  75
ATOM     75  N   UNL     1      22.856  30.040  18.262  1.00  0.00    -0.348 N 
ATOM     76  C   UNL     1      23.125  30.958  19.308  1.00  0.00     0.217 C 
ATOM     77  H   UNL     1      22.447  30.420  17.381  1.00  0.00     0.163 HD
ATOM     78  C   UNL     1      22.862  32.417  19.218  1.00  0.00     0.114 C 
ATOM     79  O   UNL     1      23.619  30.504  20.377  1.00  0.00    -0.275 OA
ENDBRANCH   4  75
TORSDOF 33
