REMARK VINA RESULT:    -6.217      8.312     13.665
REMARK INTER + INTRA:         -22.033
REMARK INTER:                 -13.574
REMARK INTRA:                  -8.459
REMARK UNBOUND:                -6.367
REMARK SMILES CC(=O)N[C@@H]1[C@@H](O)C[C@](OC[C@H]2O[C@@H](O[C@H]3[C@H](O)[C@@H](O)[C@H](OCCN=[N+]=[N-])O[C@@H]3CO)[C@H](O)[C@@H](O)[C@H]2O)(C(=O)O)O[C@H]1C(O)[C@H](O)CNC(=O)OCc1cn(-c2ncn3c2c(=O)n(C(C)C)c2ccccc23)nn1
REMARK SMILES IDX 9 1 8 2 6 3 5 4 42 5 41 6 10 7 11 8 12 9 14 10 13 11 32 12
REMARK SMILES IDX 34 13 36 14 15 15 16 16 29 17 28 18 21 19 17 20 19 21 30 22
REMARK SMILES IDX 31 23 22 25 23 26 24 27 25 28 26 29 27 30 18 31 20 33 33 35
REMARK SMILES IDX 35 37 37 39 38 41 39 42 40 43 7 45 43 47 44 48 45 50 46 51
REMARK SMILES IDX 47 53 48 54 49 55 50 57 51 58 52 59 53 60 54 61 74 62 55 63
REMARK SMILES IDX 73 64 56 65 57 66 60 67 58 68 59 69 61 70 72 71 63 72 62 73
REMARK SMILES IDX 71 74 67 75 70 76 68 77 69 78 64 79 65 80 66 81 4 82 2 83
REMARK SMILES IDX 1 85 3 86
REMARK H PARENT 31 24 18 32 20 34 33 36 35 38 37 40 40 44 7 46 44 49 46 52
REMARK H PARENT 48 56 4 84
REMARK Flexibility Score: inf
ROOT
ATOM      1  C   UNL     1      13.435  32.751  20.073  1.00  0.00     0.272 C 
ATOM      2  C   UNL     1      13.607  33.304  21.461  1.00  0.00     0.113 C 
ATOM      3  C   UNL     1      12.743  32.646  22.454  1.00  0.00     0.145 C 
ATOM      4  C   UNL     1      12.693  31.148  22.351  1.00  0.00     0.142 C 
ATOM      5  C   UNL     1      12.932  30.632  20.979  1.00  0.00     0.178 C 
ATOM      6  O   UNL     1      13.697  31.347  20.156  1.00  0.00    -0.332 OA
ENDROOT
BRANCH   1   7
ATOM      7  O   UNL     1      14.515  33.184  19.354  1.00  0.00    -0.338 OA
BRANCH   7   8
ATOM      8  C   UNL     1      14.641  33.220  18.058  1.00  0.00     0.199 C 
BRANCH   8   9
ATOM      9  C   UNL     1      15.519  32.347  17.229  1.00  0.00     0.179 C 
ATOM     10  C   UNL     1      17.145  30.724  17.612  1.00  0.00     0.282 C 
ATOM     11  O   UNL     1      16.269  31.601  18.197  1.00  0.00    -0.341 OA
ATOM     12  C   UNL     1      16.435  29.646  16.812  1.00  0.00     0.202 C 
ATOM     13  C   UNL     1      15.459  30.263  15.827  1.00  0.00     0.179 C 
ATOM     14  C   UNL     1      14.639  31.294  16.554  1.00  0.00     0.177 C 
BRANCH  10  15
ATOM     15  O   UNL     1      17.843  30.100  18.639  1.00  0.00    -0.341 OA
BRANCH  15  16
ATOM     16  C   UNL     1      19.093  30.640  18.788  1.00  0.00     0.184 C 
ATOM     17  C   UNL     1      19.922  30.380  17.583  1.00  0.00     0.178 C 
ATOM     18  O   UNL     1      20.787  29.319  17.657  1.00  0.00    -0.341 OA
ATOM     19  C   UNL     1      20.445  28.318  18.528  1.00  0.00     0.281 C 
ATOM     20  C   UNL     1      19.775  30.201  20.068  1.00  0.00     0.180 C 
ATOM     21  C   UNL     1      20.256  28.802  19.944  1.00  0.00     0.202 C 
BRANCH  17  22
ATOM     22  C   UNL     1      20.680  31.627  17.180  1.00  0.00     0.191 C 
BRANCH  22  23
ATOM     23  O   UNL     1      22.008  31.418  17.622  1.00  0.00    -0.394 OA
ATOM     24  H   UNL     1      21.982  31.484  18.604  1.00  0.00     0.210 HD
ENDBRANCH  22  23
ENDBRANCH  17  22
BRANCH  19  25
ATOM     25  O   UNL     1      21.527  27.421  18.574  1.00  0.00    -0.350 OA
BRANCH  25  26
ATOM     26  C   UNL     1      22.592  27.866  19.308  1.00  0.00     0.169 C 
BRANCH  26  27
ATOM     27  C   UNL     1      23.448  26.808  19.928  1.00  0.00     0.119 C 
BRANCH  27  28
ATOM     28  N   UNL     1      22.773  25.530  19.652  1.00  0.00    -0.092 NA
ATOM     29  N   UNL     1      22.396  24.767  20.515  1.00  0.00     0.001 N 
ATOM     30  N   UNL     1      22.235  23.813  21.284  1.00  0.00    -0.003 NA
ENDBRANCH  27  28
ENDBRANCH  26  27
ENDBRANCH  25  26
ENDBRANCH  19  25
BRANCH  20  31
ATOM     31  O   UNL     1      20.788  31.118  20.375  1.00  0.00    -0.387 OA
ATOM     32  H   UNL     1      20.341  32.015  20.338  1.00  0.00     0.211 HD
ENDBRANCH  20  31
BRANCH  21  33
ATOM     33  O   UNL     1      19.299  27.974  20.557  1.00  0.00    -0.385 OA
ATOM     34  H   UNL     1      19.502  27.828  21.518  1.00  0.00     0.211 HD
ENDBRANCH  21  33
ENDBRANCH  15  16
ENDBRANCH  10  15
BRANCH  12  35
ATOM     35  O   UNL     1      17.399  28.995  16.046  1.00  0.00    -0.385 OA
ATOM     36  H   UNL     1      17.768  29.574  15.337  1.00  0.00     0.211 HD
ENDBRANCH  12  35
BRANCH  13  37
ATOM     37  O   UNL     1      14.569  29.238  15.457  1.00  0.00    -0.387 OA
ATOM     38  H   UNL     1      15.044  28.557  14.904  1.00  0.00     0.211 HD
ENDBRANCH  13  37
BRANCH  14  39
ATOM     39  O   UNL     1      13.956  30.590  17.581  1.00  0.00    -0.387 OA
ATOM     40  H   UNL     1      12.982  30.727  17.496  1.00  0.00     0.211 HD
ENDBRANCH  14  39
ENDBRANCH   8   9
ENDBRANCH   7   8
ENDBRANCH   1   7
BRANCH   1  41
ATOM     41  C   UNL     1      12.101  32.909  19.511  1.00  0.00     0.364 C 
ATOM     42  O   UNL     1      11.251  33.695  19.930  1.00  0.00    -0.246 OA
BRANCH  41  43
ATOM     43  O   UNL     1      11.699  32.132  18.408  1.00  0.00    -0.477 OA
ATOM     44  H   UNL     1      12.113  32.303  17.501  1.00  0.00     0.296 HD
ENDBRANCH  41  43
ENDBRANCH   1  41
BRANCH   3  45
ATOM     45  O   UNL     1      13.244  33.006  23.733  1.00  0.00    -0.391 OA
ATOM     46  H   UNL     1      13.811  32.290  24.098  1.00  0.00     0.211 HD
ENDBRANCH   3  45
BRANCH   5  47
ATOM     47  C   UNL     1      13.419  29.194  20.982  1.00  0.00     0.176 C 
BRANCH  47  48
ATOM     48  O   UNL     1      13.572  28.757  22.279  1.00  0.00    -0.388 OA
ATOM     49  H   UNL     1      13.839  29.472  22.910  1.00  0.00     0.211 HD
ENDBRANCH  47  48
BRANCH  47  50
ATOM     50  C   UNL     1      14.659  28.958  20.193  1.00  0.00     0.165 C 
BRANCH  50  51
ATOM     51  O   UNL     1      14.632  27.913  19.308  1.00  0.00    -0.388 OA
ATOM     52  H   UNL     1      15.388  27.893  18.678  1.00  0.00     0.211 HD
ENDBRANCH  50  51
BRANCH  50  53
ATOM     53  C   UNL     1      15.904  28.903  21.024  1.00  0.00     0.154 C 
BRANCH  53  54
ATOM     54  N   UNL     1      16.463  30.248  21.207  1.00  0.00    -0.319 N 
ATOM     55  C   UNL     1      16.339  30.964  22.408  1.00  0.00     0.407 C 
ATOM     56  H   UNL     1      16.987  30.708  20.403  1.00  0.00     0.167 HD
ATOM     57  O   UNL     1      15.722  30.482  23.392  1.00  0.00    -0.225 OA
BRANCH  55  58
ATOM     58  O   UNL     1      16.924  32.236  22.483  1.00  0.00    -0.443 OA
BRANCH  58  59
ATOM     59  C   UNL     1      17.785  32.564  23.537  1.00  0.00     0.294 C 
BRANCH  59  60
ATOM     60  C   UNL     1      19.042  31.723  23.537  1.00  0.00     0.121 A 
ATOM     61  C   UNL     1      19.145  30.412  23.943  1.00  0.00     0.146 A 
ATOM     62  N   UNL     1      20.276  32.077  23.143  1.00  0.00    -0.131 NA
ATOM     63  N   UNL     1      20.436  29.993  23.790  1.00  0.00    -0.200 N 
ATOM     64  N   UNL     1      21.084  31.033  23.303  1.00  0.00    -0.060 NA
BRANCH  63  65
ATOM     65  C   UNL     1      20.929  28.690  24.100  1.00  0.00     0.186 A 
ATOM     66  N   UNL     1      21.113  27.705  23.205  1.00  0.00    -0.216 NA
ATOM     67  C   UNL     1      21.301  28.146  25.304  1.00  0.00     0.158 A 
ATOM     68  C   UNL     1      21.576  26.603  23.827  1.00  0.00     0.207 A 
ATOM     69  N   UNL     1      21.701  26.859  25.147  1.00  0.00    -0.291 N 
ATOM     70  C   UNL     1      21.312  28.709  26.554  1.00  0.00     0.279 A 
ATOM     71  C   UNL     1      22.110  26.117  26.192  1.00  0.00     0.071 A 
ATOM     72  N   UNL     1      21.720  27.986  27.628  1.00  0.00    -0.302 N 
ATOM     73  O   UNL     1      20.944  29.912  26.731  1.00  0.00    -0.267 OA
ATOM     74  C   UNL     1      22.508  24.817  26.037  1.00  0.00     0.029 A 
ATOM     75  C   UNL     1      22.111  26.706  27.437  1.00  0.00     0.068 A 
ATOM     76  C   UNL     1      22.929  24.042  27.128  1.00  0.00     0.002 A 
ATOM     77  C   UNL     1      22.527  25.939  28.509  1.00  0.00     0.028 A 
ATOM     78  C   UNL     1      22.936  24.617  28.377  1.00  0.00     0.002 A 
BRANCH  72  79
ATOM     79  C   UNL     1      21.741  28.589  28.961  1.00  0.00     0.085 C 
ATOM     80  C   UNL     1      22.831  29.593  29.146  1.00  0.00     0.031 C 
ATOM     81  C   UNL     1      20.376  29.060  29.396  1.00  0.00     0.031 C 
ENDBRANCH  72  79
ENDBRANCH  63  65
ENDBRANCH  59  60
ENDBRANCH  58  59
ENDBRANCH  55  58
ENDBRANCH  53  54
ENDBRANCH  50  53
ENDBRANCH  47  50
ENDBRANCH   5  47
BRANCH   4  82
ATOM     82  N   UNL     1      11.437  30.695  22.912  1.00  0.00    -0.348 N 
ATOM     83  C   UNL     1      11.347  29.911  24.084  1.00  0.00     0.217 C 
ATOM     84  H   UNL     1      10.536  30.949  22.440  1.00  0.00     0.163 HD
ATOM     85  C   UNL     1      10.046  29.448  24.651  1.00  0.00     0.114 C 
ATOM     86  O   UNL     1      12.426  29.594  24.666  1.00  0.00    -0.275 OA
ENDBRANCH   4  82
TORSDOF 31
