REMARK VINA RESULT:    -6.320      0.000      0.000
REMARK INTER + INTRA:         -23.079
REMARK INTER:                 -16.051
REMARK INTRA:                  -7.029
REMARK UNBOUND:                -6.784
REMARK SMILES COc1ccc(Cn2cc(COC(=O)NC[C@@H](O)C(O)[C@@H]3O[C@@](OC[C@H]4O[C@@H](O[C@H]5[C@H](O)[C@@H](O)[C@H](OCCN=[N+]=[N-])O[C@@H]5CO)[C@H](O)[C@@H](O)[C@H]4O)(C(=O)O)C[C@H](O)[C@H]3NC(C)=O)nn2)cc1
REMARK SMILES IDX 23 1 55 2 56 3 58 4 21 5 22 6 24 7 25 8 26 9 28 10 27 11
REMARK SMILES IDX 46 12 48 13 50 14 29 15 30 16 43 17 42 18 35 19 31 20 33 21
REMARK SMILES IDX 44 22 45 23 36 25 37 26 38 27 39 28 40 29 41 30 32 31 34 33
REMARK SMILES IDX 47 35 49 37 51 39 52 41 53 42 54 43 57 45 19 47 20 48 17 50
REMARK SMILES IDX 18 51 16 53 15 54 13 55 14 57 12 58 11 59 10 60 9 61 63 62
REMARK SMILES IDX 8 63 64 64 7 65 6 66 5 67 65 68 4 69 66 70 3 71 2 72 1 73
REMARK SMILES IDX 59 74 60 75 61 77 62 78
REMARK H PARENT 45 24 32 32 34 34 47 36 49 38 51 40 54 44 57 46 20 49 18 52
REMARK H PARENT 15 56 59 76
REMARK Flexibility Score: inf
ROOT
ATOM      1  C   UNL     1      22.846  23.678  10.840  1.00  0.00     0.272 C 
ATOM      2  C   UNL     1      24.360  23.646  10.818  1.00  0.00     0.113 C 
ATOM      3  C   UNL     1      24.910  24.933  11.399  1.00  0.00     0.145 C 
ATOM      4  C   UNL     1      24.246  25.349  12.679  1.00  0.00     0.142 C 
ATOM      5  C   UNL     1      23.092  24.445  13.080  1.00  0.00     0.178 C 
ATOM      6  O   UNL     1      22.315  24.087  11.995  1.00  0.00    -0.332 OA
ENDROOT
BRANCH   1   7
ATOM      7  O   UNL     1      22.304  22.600  10.228  1.00  0.00    -0.338 OA
BRANCH   7   8
ATOM      8  C   UNL     1      20.994  22.456   9.997  1.00  0.00     0.199 C 
BRANCH   8   9
ATOM      9  C   UNL     1      20.455  21.112  10.434  1.00  0.00     0.179 C 
ATOM     10  C   UNL     1      20.962  18.907  10.173  1.00  0.00     0.282 C 
ATOM     11  O   UNL     1      21.519  20.168  10.482  1.00  0.00    -0.341 OA
ATOM     12  C   UNL     1      19.651  18.704  10.838  1.00  0.00     0.202 C 
ATOM     13  C   UNL     1      19.301  19.641  11.944  1.00  0.00     0.179 C 
ATOM     14  C   UNL     1      19.803  21.060  11.764  1.00  0.00     0.177 C 
BRANCH  10  15
ATOM     15  O   UNL     1      21.883  17.903  10.266  1.00  0.00    -0.341 OA
BRANCH  15  16
ATOM     16  C   UNL     1      23.175  18.268  10.578  1.00  0.00     0.184 C 
ATOM     17  C   UNL     1      24.247  17.570   9.776  1.00  0.00     0.178 C 
ATOM     18  O   UNL     1      25.427  17.464  10.511  1.00  0.00    -0.341 OA
ATOM     19  C   UNL     1      25.617  18.539  11.397  1.00  0.00     0.281 C 
ATOM     20  C   UNL     1      23.408  17.734  12.005  1.00  0.00     0.180 C 
ATOM     21  C   UNL     1      24.593  18.485  12.547  1.00  0.00     0.202 C 
BRANCH  17  22
ATOM     22  C   UNL     1      24.596  18.230   8.480  1.00  0.00     0.191 C 
BRANCH  22  23
ATOM     23  O   UNL     1      23.886  19.423   8.362  1.00  0.00    -0.394 OA
ATOM     24  H   UNL     1      23.899  19.678   7.396  1.00  0.00     0.210 HD
ENDBRANCH  22  23
ENDBRANCH  17  22
BRANCH  19  25
ATOM     25  O   UNL     1      25.623  19.762  10.808  1.00  0.00    -0.350 OA
BRANCH  25  26
ATOM     26  C   UNL     1      26.809  20.375  10.548  1.00  0.00     0.169 C 
BRANCH  26  27
ATOM     27  C   UNL     1      27.552  20.965  11.687  1.00  0.00     0.119 C 
BRANCH  27  28
ATOM     28  N   UNL     1      26.734  21.502  12.718  1.00  0.00    -0.092 NA
ATOM     29  N   UNL     1      26.424  20.899  13.756  1.00  0.00     0.001 N 
ATOM     30  N   UNL     1      26.404  20.592  14.969  1.00  0.00    -0.003 NA
ENDBRANCH  27  28
ENDBRANCH  26  27
ENDBRANCH  25  26
ENDBRANCH  19  25
BRANCH  20  31
ATOM     31  O   UNL     1      22.282  17.803  12.777  1.00  0.00    -0.387 OA
ATOM     32  H   UNL     1      21.648  18.522  12.462  1.00  0.00     0.211 HD
ENDBRANCH  20  31
BRANCH  21  33
ATOM     33  O   UNL     1      25.125  17.858  13.674  1.00  0.00    -0.385 OA
ATOM     34  H   UNL     1      25.135  18.505  14.427  1.00  0.00     0.211 HD
ENDBRANCH  21  33
ENDBRANCH  15  16
ENDBRANCH  10  15
BRANCH  12  35
ATOM     35  O   UNL     1      18.587  18.638   9.902  1.00  0.00    -0.385 OA
ATOM     36  H   UNL     1      18.291  19.572   9.676  1.00  0.00     0.211 HD
ENDBRANCH  12  35
BRANCH  13  37
ATOM     37  O   UNL     1      19.682  19.126  13.206  1.00  0.00    -0.387 OA
ATOM     38  H   UNL     1      18.856  18.973  13.732  1.00  0.00     0.211 HD
ENDBRANCH  13  37
BRANCH  14  39
ATOM     39  O   UNL     1      20.641  21.444  12.806  1.00  0.00    -0.387 OA
ATOM     40  H   UNL     1      20.508  22.388  13.065  1.00  0.00     0.211 HD
ENDBRANCH  14  39
ENDBRANCH   8   9
ENDBRANCH   7   8
ENDBRANCH   1   7
BRANCH   1  41
ATOM     41  C   UNL     1      22.543  24.757   9.748  1.00  0.00     0.364 C 
ATOM     42  O   UNL     1      23.030  24.631   8.604  1.00  0.00    -0.246 OA
BRANCH  41  43
ATOM     43  O   UNL     1      21.766  25.839   9.979  1.00  0.00    -0.477 OA
ATOM     44  H   UNL     1      21.413  26.507   9.340  1.00  0.00     0.296 HD
ENDBRANCH  41  43
ENDBRANCH   1  41
BRANCH   3  45
ATOM     45  O   UNL     1      26.282  24.630  11.645  1.00  0.00    -0.391 OA
ATOM     46  H   UNL     1      26.398  24.314  12.577  1.00  0.00     0.211 HD
ENDBRANCH   3  45
BRANCH   5  47
ATOM     47  C   UNL     1      23.641  23.368  13.932  1.00  0.00     0.176 C 
BRANCH  47  48
ATOM     48  O   UNL     1      22.663  22.731  14.750  1.00  0.00    -0.388 OA
ATOM     49  H   UNL     1      22.424  23.360  15.464  1.00  0.00     0.211 HD
ENDBRANCH  47  48
BRANCH  47  50
ATOM     50  C   UNL     1      24.558  23.886  15.079  1.00  0.00     0.165 C 
BRANCH  50  51
ATOM     51  O   UNL     1      25.794  23.383  15.162  1.00  0.00    -0.388 OA
ATOM     52  H   UNL     1      26.357  23.909  15.783  1.00  0.00     0.211 HD
ENDBRANCH  50  51
BRANCH  50  53
ATOM     53  C   UNL     1      23.772  23.664  16.390  1.00  0.00     0.154 C 
BRANCH  53  54
ATOM     54  N   UNL     1      23.546  24.873  17.112  1.00  0.00    -0.319 N 
ATOM     55  C   UNL     1      22.374  25.650  16.839  1.00  0.00     0.407 C 
ATOM     56  H   UNL     1      24.205  25.205  17.824  1.00  0.00     0.167 HD
ATOM     57  O   UNL     1      21.559  25.246  15.963  1.00  0.00    -0.225 OA
BRANCH  55  58
ATOM     58  O   UNL     1      22.182  26.819  17.552  1.00  0.00    -0.443 OA
BRANCH  58  59
ATOM     59  C   UNL     1      22.998  27.084  18.710  1.00  0.00     0.294 C 
BRANCH  59  60
ATOM     60  C   UNL     1      22.263  26.618  19.904  1.00  0.00     0.120 A 
ATOM     61  C   UNL     1      22.446  25.411  20.587  1.00  0.00     0.138 A 
ATOM     62  N   UNL     1      21.278  27.249  20.553  1.00  0.00    -0.132 NA
ATOM     63  N   UNL     1      21.567  25.389  21.595  1.00  0.00    -0.248 N 
ATOM     64  N   UNL     1      20.864  26.511  21.564  1.00  0.00    -0.067 NA
BRANCH  63  65
ATOM     65  C   UNL     1      21.406  24.325  22.555  1.00  0.00     0.181 C 
BRANCH  65  66
ATOM     66  C   UNL     1      22.269  24.596  23.725  1.00  0.00    -0.026 A 
ATOM     67  C   UNL     1      21.692  24.783  24.978  1.00  0.00     0.009 A 
ATOM     68  C   UNL     1      23.635  24.657  23.644  1.00  0.00     0.009 A 
ATOM     69  C   UNL     1      22.449  25.021  26.105  1.00  0.00     0.047 A 
ATOM     70  C   UNL     1      24.403  24.898  24.788  1.00  0.00     0.047 A 
ATOM     71  C   UNL     1      23.833  25.082  26.018  1.00  0.00     0.118 A 
BRANCH  71  72
ATOM     72  O   UNL     1      24.548  25.323  27.176  1.00  0.00    -0.497 OA
ATOM     73  C   UNL     1      25.718  26.083  27.251  1.00  0.00     0.278 C 
ENDBRANCH  71  72
ENDBRANCH  65  66
ENDBRANCH  63  65
ENDBRANCH  59  60
ENDBRANCH  58  59
ENDBRANCH  55  58
ENDBRANCH  53  54
ENDBRANCH  50  53
ENDBRANCH  47  50
ENDBRANCH   5  47
BRANCH   4  74
ATOM     74  N   UNL     1      23.894  26.749  12.762  1.00  0.00    -0.348 N 
ATOM     75  C   UNL     1      24.120  27.573  13.899  1.00  0.00     0.217 C 
ATOM     76  H   UNL     1      23.432  27.195  11.956  1.00  0.00     0.163 HD
ATOM     77  C   UNL     1      23.704  29.028  13.875  1.00  0.00     0.114 C 
ATOM     78  O   UNL     1      24.665  27.092  14.920  1.00  0.00    -0.275 OA
ENDBRANCH   4  74
TORSDOF 32
