REMARK VINA RESULT:    -6.269      0.000      0.000
REMARK INTER + INTRA:         -21.689
REMARK INTER:                 -15.642
REMARK INTRA:                  -6.047
REMARK UNBOUND:                -5.342
REMARK SMILES CC(=O)N[C@@H]1[C@@H](O)C[C@](OC[C@H]2O[C@@H](O[C@H]3[C@H](O)[C@@H](O)[C@H](OCCN=[N+]=[N-])O[C@@H]3CO)[C@H](O)[C@@H](O)[C@H]2O)(C(=O)O)O[C@H]1C(O)[C@H](O)CNC(=O)OCc1cn(CCC(=O)O)nn1
REMARK SMILES IDX 43 1 42 2 9 3 8 4 41 5 6 6 5 7 10 8 11 9 12 10 14 11 13 12
REMARK SMILES IDX 32 13 34 14 36 15 15 16 16 17 29 18 28 19 21 20 17 21 19 22
REMARK SMILES IDX 30 23 31 24 22 26 23 27 24 28 25 29 26 30 27 31 18 32 20 34
REMARK SMILES IDX 33 36 35 38 37 40 38 42 39 43 40 44 7 46 4 48 2 49 1 51 3 52
REMARK SMILES IDX 44 53 45 55 46 56 47 58 48 59 49 60 50 62 51 63 52 64 53 65
REMARK SMILES IDX 54 66 62 67 55 68 61 69 56 70 57 71 58 72 59 73 60 74
REMARK H PARENT 31 25 18 33 20 35 33 37 35 39 37 41 40 45 7 47 4 50 44 54
REMARK H PARENT 46 57 48 61 60 75
REMARK Flexibility Score: inf
ROOT
ATOM      1  C   UNL     1       4.354  21.479  32.124  1.00  0.00     0.176 C 
ENDROOT
BRANCH   1   2
ATOM      2  C   UNL     1       3.114  22.009  32.804  1.00  0.00     0.178 C 
ATOM      3  C   UNL     1       1.908  23.996  33.125  1.00  0.00     0.272 C 
ATOM      4  C   UNL     1       1.015  22.915  33.707  1.00  0.00     0.113 C 
ATOM      5  O   UNL     1       3.198  23.342  33.112  1.00  0.00    -0.332 OA
ATOM      6  C   UNL     1       1.753  22.109  34.795  1.00  0.00     0.145 C 
ATOM      7  C   UNL     1       2.838  21.284  34.114  1.00  0.00     0.142 C 
BRANCH   3   8
ATOM      8  O   UNL     1       1.969  25.061  33.945  1.00  0.00    -0.338 OA
BRANCH   8   9
ATOM      9  C   UNL     1       2.417  26.263  33.710  1.00  0.00     0.199 C 
BRANCH   9  10
ATOM     10  C   UNL     1       3.759  26.786  33.992  1.00  0.00     0.179 C 
ATOM     11  C   UNL     1       5.918  26.458  34.703  1.00  0.00     0.282 C 
ATOM     12  O   UNL     1       4.658  25.946  34.590  1.00  0.00    -0.341 OA
ATOM     13  C   UNL     1       6.107  27.860  34.194  1.00  0.00     0.202 C 
ATOM     14  C   UNL     1       5.476  28.059  32.830  1.00  0.00     0.179 C 
ATOM     15  C   UNL     1       4.392  27.037  32.574  1.00  0.00     0.177 C 
BRANCH  11  16
ATOM     16  O   UNL     1       6.896  25.680  34.085  1.00  0.00    -0.341 OA
BRANCH  16  17
ATOM     17  C   UNL     1       7.204  24.517  34.788  1.00  0.00     0.184 C 
ATOM     18  C   UNL     1       7.432  24.868  36.216  1.00  0.00     0.178 C 
ATOM     19  O   UNL     1       8.757  24.681  36.644  1.00  0.00    -0.341 OA
ATOM     20  C   UNL     1       9.540  25.383  35.705  1.00  0.00     0.281 C 
ATOM     21  C   UNL     1       8.381  23.882  34.108  1.00  0.00     0.180 C 
ATOM     22  C   UNL     1       9.702  24.446  34.531  1.00  0.00     0.202 C 
BRANCH  18  23
ATOM     23  C   UNL     1       6.527  24.063  37.136  1.00  0.00     0.191 C 
BRANCH  23  24
ATOM     24  O   UNL     1       5.424  23.586  36.432  1.00  0.00    -0.394 OA
ATOM     25  H   UNL     1       5.733  23.263  35.553  1.00  0.00     0.210 HD
ENDBRANCH  23  24
ENDBRANCH  18  23
BRANCH  20  26
ATOM     26  O   UNL     1      10.747  25.774  36.234  1.00  0.00    -0.350 OA
BRANCH  26  27
ATOM     27  C   UNL     1      11.327  24.697  36.900  1.00  0.00     0.169 C 
BRANCH  27  28
ATOM     28  C   UNL     1      11.905  25.180  38.224  1.00  0.00     0.119 C 
BRANCH  28  29
ATOM     29  N   UNL     1      12.444  24.010  38.885  1.00  0.00    -0.092 NA
ATOM     30  N   UNL     1      11.916  23.630  39.929  1.00  0.00     0.001 N 
ATOM     31  N   UNL     1      11.523  22.985  40.924  1.00  0.00    -0.003 NA
ENDBRANCH  28  29
ENDBRANCH  27  28
ENDBRANCH  26  27
ENDBRANCH  20  26
BRANCH  21  32
ATOM     32  O   UNL     1       8.359  22.527  34.420  1.00  0.00    -0.387 OA
ATOM     33  H   UNL     1       8.408  22.017  33.588  1.00  0.00     0.211 HD
ENDBRANCH  21  32
BRANCH  22  34
ATOM     34  O   UNL     1      10.339  25.083  33.464  1.00  0.00    -0.385 OA
ATOM     35  H   UNL     1      10.327  24.498  32.657  1.00  0.00     0.211 HD
ENDBRANCH  22  34
ENDBRANCH  16  17
ENDBRANCH  11  16
BRANCH  13  36
ATOM     36  O   UNL     1       5.695  28.841  35.108  1.00  0.00    -0.385 OA
ATOM     37  H   UNL     1       4.934  29.324  34.749  1.00  0.00     0.211 HD
ENDBRANCH  13  36
BRANCH  14  38
ATOM     38  O   UNL     1       6.441  28.081  31.849  1.00  0.00    -0.387 OA
ATOM     39  H   UNL     1       6.072  27.811  30.984  1.00  0.00     0.211 HD
ENDBRANCH  14  38
BRANCH  15  40
ATOM     40  O   UNL     1       4.891  25.819  32.178  1.00  0.00    -0.387 OA
ATOM     41  H   UNL     1       5.127  25.206  32.912  1.00  0.00     0.211 HD
ENDBRANCH  15  40
ENDBRANCH   9  10
ENDBRANCH   8   9
ENDBRANCH   3   8
BRANCH   3  42
ATOM     42  C   UNL     1       1.617  24.320  31.725  1.00  0.00     0.364 C 
ATOM     43  O   UNL     1       0.429  24.380  31.327  1.00  0.00    -0.246 OA
BRANCH  42  44
ATOM     44  O   UNL     1       2.621  24.565  30.823  1.00  0.00    -0.477 OA
ATOM     45  H   UNL     1       2.695  25.370  30.234  1.00  0.00     0.296 HD
ENDBRANCH  42  44
ENDBRANCH   3  42
BRANCH   6  46
ATOM     46  O   UNL     1       2.360  23.020  35.632  1.00  0.00    -0.391 OA
ATOM     47  H   UNL     1       2.786  22.513  36.383  1.00  0.00     0.211 HD
ENDBRANCH   6  46
BRANCH   7  48
ATOM     48  N   UNL     1       2.400  19.942  33.911  1.00  0.00    -0.348 N 
ATOM     49  C   UNL     1       3.057  18.882  34.589  1.00  0.00     0.217 C 
ATOM     50  H   UNL     1       1.608  19.695  33.278  1.00  0.00     0.163 HD
ATOM     51  C   UNL     1       2.668  17.459  34.434  1.00  0.00     0.114 C 
ATOM     52  O   UNL     1       4.024  19.113  35.372  1.00  0.00    -0.275 OA
ENDBRANCH   7  48
ENDBRANCH   1   2
BRANCH   1  53
ATOM     53  O   UNL     1       5.145  20.856  33.090  1.00  0.00    -0.388 OA
ATOM     54  H   UNL     1       5.619  21.511  33.642  1.00  0.00     0.211 HD
ENDBRANCH   1  53
BRANCH   1  55
ATOM     55  C   UNL     1       4.094  20.505  31.019  1.00  0.00     0.165 C 
BRANCH  55  56
ATOM     56  O   UNL     1       5.175  20.538  30.132  1.00  0.00    -0.388 OA
ATOM     57  H   UNL     1       5.094  21.344  29.568  1.00  0.00     0.211 HD
ENDBRANCH  55  56
BRANCH  55  58
ATOM     58  C   UNL     1       2.869  21.022  30.257  1.00  0.00     0.154 C 
BRANCH  58  59
ATOM     59  N   UNL     1       3.264  21.881  29.175  1.00  0.00    -0.319 N 
ATOM     60  C   UNL     1       2.361  22.524  28.285  1.00  0.00     0.407 C 
ATOM     61  H   UNL     1       4.294  22.079  28.994  1.00  0.00     0.167 HD
ATOM     62  O   UNL     1       1.132  22.326  28.457  1.00  0.00    -0.225 OA
BRANCH  60  63
ATOM     63  O   UNL     1       2.790  23.343  27.256  1.00  0.00    -0.443 OA
BRANCH  63  64
ATOM     64  C   UNL     1       2.300  24.658  27.175  1.00  0.00     0.294 C 
BRANCH  64  65
ATOM     65  C   UNL     1       3.296  25.554  26.558  1.00  0.00     0.120 A 
ATOM     66  C   UNL     1       4.361  26.101  27.262  1.00  0.00     0.138 A 
ATOM     67  N   UNL     1       3.374  25.977  25.273  1.00  0.00    -0.132 NA
ATOM     68  N   UNL     1       5.051  26.841  26.361  1.00  0.00    -0.252 N 
ATOM     69  N   UNL     1       4.439  26.748  25.190  1.00  0.00    -0.067 NA
BRANCH  68  70
ATOM     70  C   UNL     1       6.255  27.601  26.621  1.00  0.00     0.158 C 
BRANCH  70  71
ATOM     71  C   UNL     1       7.133  27.763  25.400  1.00  0.00     0.146 C 
BRANCH  71  72
ATOM     72  C   UNL     1       8.055  26.620  25.344  1.00  0.00     0.305 C 
ATOM     73  O   UNL     1       8.318  26.090  24.243  1.00  0.00    -0.252 OA
BRANCH  72  74
ATOM     74  O   UNL     1       8.652  26.100  26.491  1.00  0.00    -0.481 OA
ATOM     75  H   UNL     1       8.174  26.020  27.383  1.00  0.00     0.296 HD
ENDBRANCH  72  74
ENDBRANCH  71  72
ENDBRANCH  70  71
ENDBRANCH  68  70
ENDBRANCH  64  65
ENDBRANCH  63  64
ENDBRANCH  60  63
ENDBRANCH  58  59
ENDBRANCH  55  58
ENDBRANCH   1  55
TORSDOF 33
