REMARK VINA RESULT:    -5.268      2.256      3.005
REMARK INTER + INTRA:         -22.671
REMARK INTER:                 -17.172
REMARK INTRA:                  -5.499
REMARK UNBOUND:                -8.780
REMARK SMILES COc1ccc(Cn2cc(COC(=O)NC[C@@H](O)C(O)[C@@H]3O[C@@](OC[C@H]4O[C@@H](O[C@H]5[C@H](O)[C@@H](O)[C@H](OCCN=[N+]=[N-])O[C@@H]5CO)[C@H](O)[C@@H](O)[C@H]4O)(C(=O)O)C[C@H](O)[C@H]3NC(C)=O)nn2)cc1OC
REMARK SMILES IDX 23 1 55 2 56 3 58 4 21 5 22 6 24 7 25 8 26 9 28 10 27 11
REMARK SMILES IDX 46 12 48 13 50 14 29 15 30 16 43 17 42 18 35 19 31 20 33 21
REMARK SMILES IDX 44 22 45 23 36 25 37 26 38 27 39 28 40 29 41 30 32 31 34 33
REMARK SMILES IDX 47 35 49 37 51 39 52 41 53 42 54 43 57 45 19 47 20 48 17 50
REMARK SMILES IDX 18 51 16 53 15 54 13 55 14 57 12 58 11 59 10 60 9 61 63 62
REMARK SMILES IDX 8 63 64 64 7 65 6 66 65 67 5 68 66 69 4 70 3 71 67 72 68 73
REMARK SMILES IDX 2 74 1 75 59 76 60 77 61 79 62 80
REMARK H PARENT 45 24 32 32 34 34 47 36 49 38 51 40 54 44 57 46 20 49 18 52
REMARK H PARENT 15 56 59 78
REMARK Flexibility Score: inf
ROOT
ATOM      1  C   UNL     1      23.304  25.024  19.196  1.00  0.00     0.272 C 
ATOM      2  C   UNL     1      22.618  23.868  19.903  1.00  0.00     0.113 C 
ATOM      3  C   UNL     1      22.571  23.870  21.388  1.00  0.00     0.145 C 
ATOM      4  C   UNL     1      23.678  24.768  21.935  1.00  0.00     0.142 C 
ATOM      5  C   UNL     1      24.778  24.675  20.954  1.00  0.00     0.178 C 
ATOM      6  O   UNL     1      24.476  25.451  19.851  1.00  0.00    -0.332 OA
ENDROOT
BRANCH   1   7
ATOM      7  O   UNL     1      22.381  26.060  19.255  1.00  0.00    -0.338 OA
BRANCH   7   8
ATOM      8  C   UNL     1      22.856  27.314  19.486  1.00  0.00     0.199 C 
BRANCH   8   9
ATOM      9  C   UNL     1      21.732  28.287  19.716  1.00  0.00     0.179 C 
ATOM     10  C   UNL     1      19.677  28.997  19.056  1.00  0.00     0.282 C 
ATOM     11  O   UNL     1      20.542  27.836  19.117  1.00  0.00    -0.341 OA
ATOM     12  C   UNL     1      19.187  29.313  20.392  1.00  0.00     0.202 C 
ATOM     13  C   UNL     1      20.284  29.275  21.443  1.00  0.00     0.179 C 
ATOM     14  C   UNL     1      21.373  28.302  21.209  1.00  0.00     0.177 C 
BRANCH  10  15
ATOM     15  O   UNL     1      18.705  28.697  18.123  1.00  0.00    -0.341 OA
BRANCH  15  16
ATOM     16  C   UNL     1      17.563  29.467  18.350  1.00  0.00     0.184 C 
ATOM     17  C   UNL     1      16.309  28.688  18.323  1.00  0.00     0.178 C 
ATOM     18  O   UNL     1      15.292  29.491  18.831  1.00  0.00    -0.341 OA
ATOM     19  C   UNL     1      15.393  30.785  18.461  1.00  0.00     0.281 C 
ATOM     20  C   UNL     1      17.529  30.542  17.256  1.00  0.00     0.180 C 
ATOM     21  C   UNL     1      16.083  31.043  17.141  1.00  0.00     0.202 C 
BRANCH  17  22
ATOM     22  C   UNL     1      16.407  27.378  19.072  1.00  0.00     0.191 C 
BRANCH  22  23
ATOM     23  O   UNL     1      16.295  27.689  20.426  1.00  0.00    -0.394 OA
ATOM     24  H   UNL     1      16.121  28.673  20.519  1.00  0.00     0.210 HD
ENDBRANCH  22  23
ENDBRANCH  17  22
BRANCH  19  25
ATOM     25  O   UNL     1      16.190  31.469  19.448  1.00  0.00    -0.350 OA
BRANCH  25  26
ATOM     26  C   UNL     1      15.320  32.344  20.130  1.00  0.00     0.169 C 
BRANCH  26  27
ATOM     27  C   UNL     1      14.527  31.652  21.223  1.00  0.00     0.119 C 
BRANCH  27  28
ATOM     28  N   UNL     1      15.319  31.620  22.422  1.00  0.00    -0.092 NA
ATOM     29  N   UNL     1      16.088  30.689  22.678  1.00  0.00     0.001 N 
ATOM     30  N   UNL     1      16.618  29.561  22.739  1.00  0.00    -0.003 NA
ENDBRANCH  27  28
ENDBRANCH  26  27
ENDBRANCH  25  26
ENDBRANCH  19  25
BRANCH  20  31
ATOM     31  O   UNL     1      18.295  31.607  17.701  1.00  0.00    -0.387 OA
ATOM     32  H   UNL     1      17.809  32.455  17.471  1.00  0.00     0.211 HD
ENDBRANCH  20  31
BRANCH  21  33
ATOM     33  O   UNL     1      15.460  30.330  16.143  1.00  0.00    -0.385 OA
ATOM     34  H   UNL     1      14.915  29.576  16.499  1.00  0.00     0.211 HD
ENDBRANCH  21  33
ENDBRANCH  15  16
ENDBRANCH  10  15
BRANCH  12  35
ATOM     35  O   UNL     1      18.645  30.586  20.454  1.00  0.00    -0.385 OA
ATOM     36  H   UNL     1      18.133  30.735  21.301  1.00  0.00     0.211 HD
ENDBRANCH  12  35
BRANCH  13  37
ATOM     37  O   UNL     1      19.659  29.050  22.698  1.00  0.00    -0.387 OA
ATOM     38  H   UNL     1      20.360  29.177  23.389  1.00  0.00     0.211 HD
ENDBRANCH  13  37
BRANCH  14  39
ATOM     39  O   UNL     1      20.962  26.983  21.504  1.00  0.00    -0.387 OA
ATOM     40  H   UNL     1      21.196  26.355  20.738  1.00  0.00     0.211 HD
ENDBRANCH  14  39
ENDBRANCH   8   9
ENDBRANCH   7   8
ENDBRANCH   1   7
BRANCH   1  41
ATOM     41  C   UNL     1      23.671  24.576  17.829  1.00  0.00     0.364 C 
ATOM     42  O   UNL     1      24.826  24.670  17.405  1.00  0.00    -0.246 OA
BRANCH  41  43
ATOM     43  O   UNL     1      22.741  24.016  16.913  1.00  0.00    -0.477 OA
ATOM     44  H   UNL     1      23.160  23.411  16.168  1.00  0.00     0.296 HD
ENDBRANCH  41  43
ENDBRANCH   1  41
BRANCH   3  45
ATOM     45  O   UNL     1      21.366  24.331  21.861  1.00  0.00    -0.391 OA
ATOM     46  H   UNL     1      20.615  23.957  21.316  1.00  0.00     0.211 HD
ENDBRANCH   3  45
BRANCH   5  47
ATOM     47  C   UNL     1      26.113  24.812  21.524  1.00  0.00     0.176 C 
BRANCH  47  48
ATOM     48  O   UNL     1      26.532  23.797  22.376  1.00  0.00    -0.388 OA
ATOM     49  H   UNL     1      25.843  23.394  22.917  1.00  0.00     0.211 HD
ENDBRANCH  47  48
BRANCH  47  50
ATOM     50  C   UNL     1      27.178  24.535  20.330  1.00  0.00     0.165 C 
BRANCH  50  51
ATOM     51  O   UNL     1      27.041  25.528  19.440  1.00  0.00    -0.388 OA
ATOM     52  H   UNL     1      27.375  26.411  19.775  1.00  0.00     0.211 HD
ENDBRANCH  50  51
BRANCH  50  53
ATOM     53  C   UNL     1      27.173  23.136  19.972  1.00  0.00     0.154 C 
BRANCH  53  54
ATOM     54  N   UNL     1      27.997  22.139  20.567  1.00  0.00    -0.319 N 
ATOM     55  C   UNL     1      28.356  21.045  19.741  1.00  0.00     0.407 C 
ATOM     56  H   UNL     1      28.340  22.122  21.524  1.00  0.00     0.167 HD
ATOM     57  O   UNL     1      27.941  20.977  18.538  1.00  0.00    -0.225 OA
BRANCH  55  58
ATOM     58  O   UNL     1      29.159  19.976  20.125  1.00  0.00    -0.443 OA
BRANCH  58  59
ATOM     59  C   UNL     1      28.692  19.201  21.282  1.00  0.00     0.294 C 
BRANCH  59  60
ATOM     60  C   UNL     1      29.449  19.817  22.410  1.00  0.00     0.120 A 
ATOM     61  C   UNL     1      30.719  19.385  22.861  1.00  0.00     0.138 A 
ATOM     62  N   UNL     1      29.124  20.890  23.121  1.00  0.00    -0.132 NA
ATOM     63  N   UNL     1      31.072  20.259  23.833  1.00  0.00    -0.248 N 
ATOM     64  N   UNL     1      30.137  21.132  23.979  1.00  0.00    -0.067 NA
BRANCH  63  65
ATOM     65  C   UNL     1      32.376  20.224  24.548  1.00  0.00     0.181 C 
BRANCH  65  66
ATOM     66  C   UNL     1      32.116  19.223  25.674  1.00  0.00    -0.023 A 
ATOM     67  C   UNL     1      32.390  17.879  25.540  1.00  0.00     0.056 A 
ATOM     68  C   UNL     1      31.716  19.725  26.871  1.00  0.00     0.010 A 
ATOM     69  C   UNL     1      32.228  17.102  26.722  1.00  0.00     0.161 A 
ATOM     70  C   UNL     1      31.559  18.928  28.046  1.00  0.00     0.051 A 
ATOM     71  C   UNL     1      31.841  17.596  27.902  1.00  0.00     0.160 A 
BRANCH  69  72
ATOM     72  O   UNL     1      32.484  15.732  26.652  1.00  0.00    -0.493 OA
ATOM     73  C   UNL     1      32.894  15.102  25.433  1.00  0.00     0.278 C 
ENDBRANCH  69  72
BRANCH  71  74
ATOM     74  O   UNL     1      31.742  16.724  29.023  1.00  0.00    -0.493 OA
ATOM     75  C   UNL     1      32.403  17.115  30.245  1.00  0.00     0.278 C 
ENDBRANCH  71  74
ENDBRANCH  65  66
ENDBRANCH  63  65
ENDBRANCH  59  60
ENDBRANCH  58  59
ENDBRANCH  55  58
ENDBRANCH  53  54
ENDBRANCH  50  53
ENDBRANCH  47  50
ENDBRANCH   5  47
BRANCH   4  76
ATOM     76  N   UNL     1      24.005  24.329  23.265  1.00  0.00    -0.348 N 
ATOM     77  C   UNL     1      23.393  24.943  24.363  1.00  0.00     0.217 C 
ATOM     78  H   UNL     1      24.678  23.540  23.471  1.00  0.00     0.163 HD
ATOM     79  C   UNL     1      23.641  24.623  25.802  1.00  0.00     0.114 C 
ATOM     80  O   UNL     1      22.516  25.890  24.231  1.00  0.00    -0.275 OA
ENDBRANCH   4  76
TORSDOF 33
