REMARK VINA RESULT:    -6.075     15.078     20.444
REMARK INTER + INTRA:         -21.184
REMARK INTER:                 -13.060
REMARK INTRA:                  -8.125
REMARK UNBOUND:                -5.342
REMARK SMILES CC(=O)N[C@@H]1[C@@H](O)C[C@](OC[C@H]2O[C@@H](O[C@H]3[C@H](O)[C@@H](O)[C@H](OCCN=[N+]=[N-])O[C@@H]3CO)[C@H](O)[C@@H](O)[C@H]2O)(C(=O)O)O[C@H]1C(O)[C@H](O)CNC(=O)OCc1cn(CCC(=O)O)nn1
REMARK SMILES IDX 43 1 42 2 9 3 8 4 41 5 6 6 5 7 10 8 11 9 12 10 14 11 13 12
REMARK SMILES IDX 32 13 34 14 36 15 15 16 16 17 29 18 28 19 21 20 17 21 19 22
REMARK SMILES IDX 30 23 31 24 22 26 23 27 24 28 25 29 26 30 27 31 18 32 20 34
REMARK SMILES IDX 33 36 35 38 37 40 38 42 39 43 40 44 7 46 4 48 2 49 1 51 3 52
REMARK SMILES IDX 44 53 45 55 46 56 47 58 48 59 49 60 50 62 51 63 52 64 53 65
REMARK SMILES IDX 54 66 62 67 55 68 61 69 56 70 57 71 58 72 59 73 60 74
REMARK H PARENT 31 25 18 33 20 35 33 37 35 39 37 41 40 45 7 47 4 50 44 54
REMARK H PARENT 46 57 48 61 60 75
REMARK Flexibility Score: inf
ROOT
ATOM      1  C   UNL     1      22.600  26.545  20.985  1.00  0.00     0.176 C 
ENDROOT
BRANCH   1   2
ATOM      2  C   UNL     1      22.184  27.440  19.842  1.00  0.00     0.178 C 
ATOM      3  C   UNL     1      20.271  28.329  18.815  1.00  0.00     0.272 C 
ATOM      4  C   UNL     1      21.427  29.039  18.134  1.00  0.00     0.113 C 
ATOM      5  O   UNL     1      20.923  27.168  19.378  1.00  0.00    -0.332 OA
ATOM      6  C   UNL     1      22.412  28.028  17.512  1.00  0.00     0.145 C 
ATOM      7  C   UNL     1      23.118  27.298  18.647  1.00  0.00     0.142 C 
BRANCH   3   8
ATOM      8  O   UNL     1      19.361  27.921  17.912  1.00  0.00    -0.338 OA
BRANCH   8   9
ATOM      9  C   UNL     1      18.719  28.613  17.012  1.00  0.00     0.199 C 
BRANCH   9  10
ATOM     10  C   UNL     1      17.319  29.051  17.055  1.00  0.00     0.179 C 
ATOM     11  C   UNL     1      15.396  29.472  18.238  1.00  0.00     0.282 C 
ATOM     12  O   UNL     1      16.648  28.928  18.241  1.00  0.00    -0.341 OA
ATOM     13  C   UNL     1      14.944  30.079  16.940  1.00  0.00     0.202 C 
ATOM     14  C   UNL     1      16.009  30.968  16.327  1.00  0.00     0.179 C 
ATOM     15  C   UNL     1      17.384  30.608  16.841  1.00  0.00     0.177 C 
BRANCH  11  16
ATOM     16  O   UNL     1      15.210  30.449  19.216  1.00  0.00    -0.341 OA
BRANCH  16  17
ATOM     17  C   UNL     1      15.081  29.929  20.502  1.00  0.00     0.184 C 
ATOM     18  C   UNL     1      13.965  30.633  21.191  1.00  0.00     0.178 C 
ATOM     19  O   UNL     1      14.377  31.427  22.275  1.00  0.00    -0.341 OA
ATOM     20  C   UNL     1      15.393  32.252  21.749  1.00  0.00     0.281 C 
ATOM     21  C   UNL     1      16.414  30.067  21.176  1.00  0.00     0.180 C 
ATOM     22  C   UNL     1      16.651  31.415  21.782  1.00  0.00     0.202 C 
BRANCH  18  23
ATOM     23  C   UNL     1      12.923  29.650  21.704  1.00  0.00     0.191 C 
BRANCH  23  24
ATOM     24  O   UNL     1      13.479  28.380  21.832  1.00  0.00    -0.394 OA
ATOM     25  H   UNL     1      13.234  28.022  22.717  1.00  0.00     0.210 HD
ENDBRANCH  23  24
ENDBRANCH  18  23
BRANCH  20  26
ATOM     26  O   UNL     1      15.524  33.421  22.460  1.00  0.00    -0.350 OA
BRANCH  26  27
ATOM     27  C   UNL     1      14.743  33.350  23.610  1.00  0.00     0.169 C 
BRANCH  27  28
ATOM     28  C   UNL     1      15.637  33.502  24.833  1.00  0.00     0.119 C 
BRANCH  28  29
ATOM     29  N   UNL     1      15.137  32.570  25.823  1.00  0.00    -0.092 NA
ATOM     30  N   UNL     1      15.922  31.763  26.318  1.00  0.00     0.001 N 
ATOM     31  N   UNL     1      16.504  30.922  27.035  1.00  0.00    -0.003 NA
ENDBRANCH  28  29
ENDBRANCH  27  28
ENDBRANCH  26  27
ENDBRANCH  20  26
BRANCH  21  32
ATOM     32  O   UNL     1      16.469  29.112  22.186  1.00  0.00    -0.387 OA
ATOM     33  H   UNL     1      17.398  28.830  22.294  1.00  0.00     0.211 HD
ENDBRANCH  21  32
BRANCH  22  34
ATOM     34  O   UNL     1      17.707  32.070  21.146  1.00  0.00    -0.385 OA
ATOM     35  H   UNL     1      18.563  31.889  21.624  1.00  0.00     0.211 HD
ENDBRANCH  22  34
ENDBRANCH  16  17
ENDBRANCH  11  16
BRANCH  13  36
ATOM     36  O   UNL     1      14.464  29.132  16.024  1.00  0.00    -0.385 OA
ATOM     37  H   UNL     1      14.713  28.240  16.314  1.00  0.00     0.211 HD
ENDBRANCH  13  36
BRANCH  14  38
ATOM     38  O   UNL     1      15.694  32.295  16.509  1.00  0.00    -0.387 OA
ATOM     39  H   UNL     1      15.134  32.628  15.779  1.00  0.00     0.211 HD
ENDBRANCH  14  38
BRANCH  15  40
ATOM     40  O   UNL     1      17.643  31.135  18.083  1.00  0.00    -0.387 OA
ATOM     41  H   UNL     1      17.378  30.565  18.842  1.00  0.00     0.211 HD
ENDBRANCH  15  40
ENDBRANCH   9  10
ENDBRANCH   8   9
ENDBRANCH   3   8
BRANCH   3  42
ATOM     42  C   UNL     1      19.711  29.058  19.956  1.00  0.00     0.364 C 
ATOM     43  O   UNL     1      19.767  30.312  19.991  1.00  0.00    -0.246 OA
BRANCH  42  44
ATOM     44  O   UNL     1      19.118  28.403  21.005  1.00  0.00    -0.477 OA
ATOM     45  H   UNL     1      18.307  28.708  21.503  1.00  0.00     0.296 HD
ENDBRANCH  42  44
ENDBRANCH   3  42
BRANCH   6  46
ATOM     46  O   UNL     1      21.660  27.113  16.807  1.00  0.00    -0.391 OA
ATOM     47  H   UNL     1      22.018  26.199  17.009  1.00  0.00     0.211 HD
ENDBRANCH   6  46
BRANCH   7  48
ATOM     48  N   UNL     1      24.403  27.867  18.893  1.00  0.00    -0.348 N 
ATOM     49  C   UNL     1      25.553  27.036  18.862  1.00  0.00     0.217 C 
ATOM     50  H   UNL     1      24.543  28.880  19.098  1.00  0.00     0.163 HD
ATOM     51  C   UNL     1      26.924  27.544  19.108  1.00  0.00     0.114 C 
ATOM     52  O   UNL     1      25.452  25.798  18.618  1.00  0.00    -0.275 OA
ENDBRANCH   7  48
ENDBRANCH   1   2
BRANCH   1  53
ATOM     53  O   UNL     1      22.711  27.332  22.132  1.00  0.00    -0.388 OA
ATOM     54  H   UNL     1      22.214  28.169  22.042  1.00  0.00     0.211 HD
ENDBRANCH   1  53
BRANCH   1  55
ATOM     55  C   UNL     1      21.661  25.416  21.269  1.00  0.00     0.165 C 
BRANCH  55  56
ATOM     56  O   UNL     1      20.635  25.886  22.095  1.00  0.00    -0.388 OA
ATOM     57  H   UNL     1      20.840  26.816  22.352  1.00  0.00     0.211 HD
ENDBRANCH  55  56
BRANCH  55  58
ATOM     58  C   UNL     1      22.452  24.380  22.077  1.00  0.00     0.154 C 
BRANCH  58  59
ATOM     59  N   UNL     1      22.319  24.621  23.487  1.00  0.00    -0.319 N 
ATOM     60  C   UNL     1      23.399  24.616  24.411  1.00  0.00     0.407 C 
ATOM     61  H   UNL     1      21.364  24.825  23.911  1.00  0.00     0.167 HD
ATOM     62  O   UNL     1      24.550  24.383  23.962  1.00  0.00    -0.225 OA
BRANCH  60  63
ATOM     63  O   UNL     1      23.222  24.853  25.762  1.00  0.00    -0.443 OA
BRANCH  63  64
ATOM     64  C   UNL     1      23.939  25.894  26.377  1.00  0.00     0.294 C 
BRANCH  64  65
ATOM     65  C   UNL     1      23.490  27.208  25.878  1.00  0.00     0.120 A 
ATOM     66  C   UNL     1      22.396  27.883  26.403  1.00  0.00     0.138 A 
ATOM     67  N   UNL     1      24.026  27.969  24.893  1.00  0.00    -0.132 NA
ATOM     68  N   UNL     1      22.313  29.042  25.706  1.00  0.00    -0.252 N 
ATOM     69  N   UNL     1      23.295  29.062  24.816  1.00  0.00    -0.067 NA
BRANCH  68  70
ATOM     70  C   UNL     1      21.332  30.088  25.896  1.00  0.00     0.158 C 
BRANCH  70  71
ATOM     71  C   UNL     1      20.779  30.630  24.597  1.00  0.00     0.146 C 
BRANCH  71  72
ATOM     72  C   UNL     1      19.971  29.578  23.968  1.00  0.00     0.305 C 
ATOM     73  O   UNL     1      18.724  29.667  23.975  1.00  0.00    -0.252 OA
BRANCH  72  74
ATOM     74  O   UNL     1      20.554  28.469  23.356  1.00  0.00    -0.481 OA
ATOM     75  H   UNL     1      21.551  28.283  23.373  1.00  0.00     0.296 HD
ENDBRANCH  72  74
ENDBRANCH  71  72
ENDBRANCH  70  71
ENDBRANCH  68  70
ENDBRANCH  64  65
ENDBRANCH  63  64
ENDBRANCH  60  63
ENDBRANCH  58  59
ENDBRANCH  55  58
ENDBRANCH   1  55
TORSDOF 33
