REMARK VINA RESULT:    -5.736      3.905      8.933
REMARK INTER + INTRA:         -22.214
REMARK INTER:                 -15.587
REMARK INTRA:                  -6.627
REMARK UNBOUND:                -7.759
REMARK SMILES CC(=O)N[C@@H]1[C@@H](O)C[C@](OC[C@H]2O[C@@H](O[C@H]3[C@H](O)[C@@H](O)[C@H](OCCN=[N+]=[N-])O[C@@H]3CO)[C@H](O)[C@@H](O)[C@H]2O)(C(=O)O)O[C@H]1C(O)[C@H](O)CNC(=O)OCc1cn(-c2cc(Cl)ccc2C(=O)N(C)C)nn1
REMARK SMILES IDX 9 1 8 2 6 3 5 4 42 5 41 6 10 7 11 8 12 9 14 10 13 11 32 12
REMARK SMILES IDX 34 13 36 14 15 15 16 16 29 17 28 18 21 19 17 20 19 21 30 22
REMARK SMILES IDX 31 23 22 25 23 26 24 27 25 28 26 29 27 30 18 31 20 33 33 35
REMARK SMILES IDX 35 37 37 39 38 41 39 42 40 43 7 45 43 47 44 48 45 50 46 51
REMARK SMILES IDX 47 53 48 54 49 55 50 57 51 58 52 59 53 60 54 61 69 62 55 63
REMARK SMILES IDX 68 64 56 65 57 66 62 67 58 68 61 69 59 70 60 71 63 72 64 73
REMARK SMILES IDX 65 74 66 75 67 76 4 77 2 78 1 80 3 81
REMARK H PARENT 31 24 18 32 20 34 33 36 35 38 37 40 40 44 7 46 44 49 46 52
REMARK H PARENT 48 56 4 79
REMARK Flexibility Score: inf
ROOT
ATOM      1  C   UNL     1      21.536  26.380  22.927  1.00  0.00     0.272 C 
ATOM      2  C   UNL     1      22.989  26.673  22.932  1.00  0.00     0.113 C 
ATOM      3  C   UNL     1      23.295  27.805  21.985  1.00  0.00     0.145 C 
ATOM      4  C   UNL     1      22.840  27.359  20.615  1.00  0.00     0.142 C 
ATOM      5  C   UNL     1      21.424  26.963  20.616  1.00  0.00     0.178 C 
ATOM      6  O   UNL     1      20.842  26.545  21.770  1.00  0.00    -0.332 OA
ENDROOT
BRANCH   1   7
ATOM      7  O   UNL     1      20.865  27.099  23.904  1.00  0.00    -0.338 OA
BRANCH   7   8
ATOM      8  C   UNL     1      21.176  26.884  25.199  1.00  0.00     0.199 C 
BRANCH   8   9
ATOM      9  C   UNL     1      21.099  28.209  25.974  1.00  0.00     0.179 C 
ATOM     10  C   UNL     1      21.458  28.895  28.146  1.00  0.00     0.282 C 
ATOM     11  O   UNL     1      20.823  27.929  27.280  1.00  0.00    -0.341 OA
ATOM     12  C   UNL     1      21.218  30.254  27.529  1.00  0.00     0.202 C 
ATOM     13  C   UNL     1      22.012  30.426  26.251  1.00  0.00     0.179 C 
ATOM     14  C   UNL     1      22.258  29.054  25.649  1.00  0.00     0.177 C 
BRANCH  10  15
ATOM     15  O   UNL     1      22.726  28.511  28.247  1.00  0.00    -0.341 OA
BRANCH  15  16
ATOM     16  C   UNL     1      23.210  27.835  29.353  1.00  0.00     0.184 C 
ATOM     17  C   UNL     1      24.695  28.000  29.330  1.00  0.00     0.178 C 
ATOM     18  O   UNL     1      25.274  27.323  30.417  1.00  0.00    -0.341 OA
ATOM     19  C   UNL     1      25.197  25.958  29.971  1.00  0.00     0.281 C 
ATOM     20  C   UNL     1      22.840  26.376  29.285  1.00  0.00     0.180 C 
ATOM     21  C   UNL     1      23.782  25.523  30.077  1.00  0.00     0.202 C 
BRANCH  17  22
ATOM     22  C   UNL     1      25.088  29.462  29.372  1.00  0.00     0.191 C 
BRANCH  22  23
ATOM     23  O   UNL     1      25.986  29.706  28.355  1.00  0.00    -0.394 OA
ATOM     24  H   UNL     1      25.675  29.276  27.519  1.00  0.00     0.210 HD
ENDBRANCH  22  23
ENDBRANCH  17  22
BRANCH  19  25
ATOM     25  O   UNL     1      26.059  25.237  30.701  1.00  0.00    -0.350 OA
BRANCH  25  26
ATOM     26  C   UNL     1      27.220  25.890  31.076  1.00  0.00     0.169 C 
BRANCH  26  27
ATOM     27  C   UNL     1      28.429  25.508  30.247  1.00  0.00     0.119 C 
BRANCH  27  28
ATOM     28  N   UNL     1      28.910  26.640  29.485  1.00  0.00    -0.092 NA
ATOM     29  N   UNL     1      28.343  26.985  28.454  1.00  0.00     0.001 N 
ATOM     30  N   UNL     1      27.589  27.240  27.492  1.00  0.00    -0.003 NA
ENDBRANCH  27  28
ENDBRANCH  26  27
ENDBRANCH  25  26
ENDBRANCH  19  25
BRANCH  20  31
ATOM     31  O   UNL     1      21.557  26.147  29.796  1.00  0.00    -0.387 OA
ATOM     32  H   UNL     1      21.292  25.190  29.659  1.00  0.00     0.211 HD
ENDBRANCH  20  31
BRANCH  21  33
ATOM     33  O   UNL     1      23.661  24.203  29.647  1.00  0.00    -0.385 OA
ATOM     34  H   UNL     1      24.513  23.718  29.621  1.00  0.00     0.211 HD
ENDBRANCH  21  33
ENDBRANCH  15  16
ENDBRANCH  10  15
BRANCH  12  35
ATOM     35  O   UNL     1      19.856  30.290  27.168  1.00  0.00    -0.385 OA
ATOM     36  H   UNL     1      19.677  29.704  26.366  1.00  0.00     0.211 HD
ENDBRANCH  12  35
BRANCH  13  37
ATOM     37  O   UNL     1      23.216  31.059  26.407  1.00  0.00    -0.387 OA
ATOM     38  H   UNL     1      23.780  30.672  27.120  1.00  0.00     0.211 HD
ENDBRANCH  13  37
BRANCH  14  39
ATOM     39  O   UNL     1      23.510  28.553  25.866  1.00  0.00    -0.387 OA
ATOM     40  H   UNL     1      24.245  29.188  25.723  1.00  0.00     0.211 HD
ENDBRANCH  14  39
ENDBRANCH   8   9
ENDBRANCH   7   8
ENDBRANCH   1   7
BRANCH   1  41
ATOM     41  C   UNL     1      21.350  24.917  23.371  1.00  0.00     0.364 C 
ATOM     42  O   UNL     1      22.396  24.308  23.691  1.00  0.00    -0.246 OA
BRANCH  41  43
ATOM     43  O   UNL     1      20.143  24.294  23.421  1.00  0.00    -0.477 OA
ATOM     44  H   UNL     1      19.977  23.329  23.237  1.00  0.00     0.296 HD
ENDBRANCH  41  43
ENDBRANCH   1  41
BRANCH   3  45
ATOM     45  O   UNL     1      22.724  28.960  22.437  1.00  0.00    -0.391 OA
ATOM     46  H   UNL     1      22.627  29.077  23.388  1.00  0.00     0.211 HD
ENDBRANCH   3  45
BRANCH   5  47
ATOM     47  C   UNL     1      20.463  27.972  20.000  1.00  0.00     0.176 C 
BRANCH  47  48
ATOM     48  O   UNL     1      19.472  28.403  20.835  1.00  0.00    -0.388 OA
ATOM     49  H   UNL     1      19.290  29.380  20.802  1.00  0.00     0.211 HD
ENDBRANCH  47  48
BRANCH  47  50
ATOM     50  C   UNL     1      21.091  29.116  19.294  1.00  0.00     0.165 C 
BRANCH  50  51
ATOM     51  O   UNL     1      20.471  30.349  19.606  1.00  0.00    -0.388 OA
ATOM     52  H   UNL     1      19.698  30.518  19.017  1.00  0.00     0.211 HD
ENDBRANCH  50  51
BRANCH  50  53
ATOM     53  C   UNL     1      20.744  28.936  17.798  1.00  0.00     0.154 C 
BRANCH  53  54
ATOM     54  N   UNL     1      19.412  28.418  17.657  1.00  0.00    -0.319 N 
ATOM     55  C   UNL     1      18.434  29.099  16.904  1.00  0.00     0.407 C 
ATOM     56  H   UNL     1      19.119  27.504  18.114  1.00  0.00     0.167 HD
ATOM     57  O   UNL     1      18.704  30.170  16.314  1.00  0.00    -0.225 OA
BRANCH  55  58
ATOM     58  O   UNL     1      17.130  28.601  16.793  1.00  0.00    -0.443 OA
BRANCH  58  59
ATOM     59  C   UNL     1      16.044  29.229  17.416  1.00  0.00     0.294 C 
BRANCH  59  60
ATOM     60  C   UNL     1      16.027  28.941  18.883  1.00  0.00     0.121 A 
ATOM     61  C   UNL     1      15.321  29.710  19.831  1.00  0.00     0.144 A 
ATOM     62  N   UNL     1      16.614  27.980  19.579  1.00  0.00    -0.131 NA
ATOM     63  N   UNL     1      15.512  29.185  21.033  1.00  0.00    -0.219 N 
ATOM     64  N   UNL     1      16.310  28.126  20.843  1.00  0.00    -0.062 NA
BRANCH  63  65
ATOM     65  C   UNL     1      15.043  29.546  22.318  1.00  0.00     0.081 A 
ATOM     66  C   UNL     1      13.701  29.315  22.646  1.00  0.00     0.049 A 
ATOM     67  C   UNL     1      15.797  30.145  23.286  1.00  0.00     0.065 A 
ATOM     68  C   UNL     1      13.193  29.671  23.852  1.00  0.00     0.043 A 
ATOM     69  C   UNL     1      15.271  30.517  24.537  1.00  0.00     0.017 A 
ATOM     70  Cl  UNL     1      11.499  29.352  24.199  1.00  0.00    -0.084 Cl
ATOM     71  C   UNL     1      13.949  30.274  24.820  1.00  0.00     0.021 A 
BRANCH  67  72
ATOM     72  C   UNL     1      17.229  30.400  23.098  1.00  0.00     0.255 C 
ATOM     73  O   UNL     1      18.045  29.546  23.499  1.00  0.00    -0.269 OA
ATOM     74  N   UNL     1      17.662  31.576  22.480  1.00  0.00    -0.345 N 
ATOM     75  C   UNL     1      16.695  32.567  22.017  1.00  0.00     0.146 C 
ATOM     76  C   UNL     1      19.081  31.850  22.271  1.00  0.00     0.146 C 
ENDBRANCH  67  72
ENDBRANCH  63  65
ENDBRANCH  59  60
ENDBRANCH  58  59
ENDBRANCH  55  58
ENDBRANCH  53  54
ENDBRANCH  50  53
ENDBRANCH  47  50
ENDBRANCH   5  47
BRANCH   4  77
ATOM     77  N   UNL     1      23.743  26.275  20.216  1.00  0.00    -0.348 N 
ATOM     78  C   UNL     1      24.576  26.361  19.081  1.00  0.00     0.217 C 
ATOM     79  H   UNL     1      23.779  25.403  20.779  1.00  0.00     0.163 HD
ATOM     80  C   UNL     1      25.490  25.269  18.670  1.00  0.00     0.114 C 
ATOM     81  O   UNL     1      24.544  27.411  18.386  1.00  0.00    -0.275 OA
ENDBRANCH   4  77
TORSDOF 31
