REMARK VINA RESULT:    -5.676      0.000      0.000
REMARK INTER + INTRA:         -22.743
REMARK INTER:                 -14.853
REMARK INTRA:                  -7.890
REMARK UNBOUND:                -8.275
REMARK SMILES CC(=O)N[C@@H]1[C@@H](O)C[C@](OC[C@H]2O[C@@H](O[C@H]3[C@H](O)[C@@H](O)[C@H](OCCN=[N+]=[N-])O[C@@H]3CO)[C@H](O)[C@@H](O)[C@H]2O)(C(=O)O)O[C@H]1C(O)[C@H](O)CNC(=O)OCc1cn(C(C)(C)C(=O)O)nn1
REMARK SMILES IDX 9 1 8 2 6 3 5 4 42 5 41 6 10 7 11 8 12 9 14 10 13 11 32 12
REMARK SMILES IDX 34 13 36 14 15 15 16 16 29 17 28 18 21 19 17 20 19 21 30 22
REMARK SMILES IDX 31 23 22 25 23 26 24 27 25 28 26 29 27 30 18 31 20 33 33 35
REMARK SMILES IDX 35 37 37 39 38 41 39 42 40 43 7 45 43 47 44 48 45 50 46 51
REMARK SMILES IDX 47 53 48 54 49 55 50 57 51 58 52 59 53 60 54 61 63 62 55 63
REMARK SMILES IDX 62 64 56 65 57 66 58 67 59 68 60 69 61 70 4 72 2 73 1 75
REMARK SMILES IDX 3 76
REMARK H PARENT 31 24 18 32 20 34 33 36 35 38 37 40 40 44 7 46 44 49 46 52
REMARK H PARENT 48 56 61 71 4 74
REMARK Flexibility Score: inf
ROOT
ATOM      1  C   UNL     1      23.178  25.312  22.323  1.00  0.00     0.272 C 
ATOM      2  C   UNL     1      23.957  24.114  22.680  1.00  0.00     0.113 C 
ATOM      3  C   UNL     1      25.239  23.936  21.916  1.00  0.00     0.145 C 
ATOM      4  C   UNL     1      25.141  24.613  20.583  1.00  0.00     0.142 C 
ATOM      5  C   UNL     1      23.649  24.558  20.203  1.00  0.00     0.178 C 
ATOM      6  O   UNL     1      23.009  25.520  20.950  1.00  0.00    -0.332 OA
ENDROOT
BRANCH   1   7
ATOM      7  O   UNL     1      23.634  26.475  22.863  1.00  0.00    -0.338 OA
BRANCH   7   8
ATOM      8  C   UNL     1      23.744  26.568  24.214  1.00  0.00     0.199 C 
BRANCH   8   9
ATOM      9  C   UNL     1      23.145  27.857  24.731  1.00  0.00     0.179 C 
ATOM     10  C   UNL     1      22.105  29.776  23.979  1.00  0.00     0.282 C 
ATOM     11  O   UNL     1      22.465  28.418  23.651  1.00  0.00    -0.341 OA
ATOM     12  C   UNL     1      21.040  29.682  25.005  1.00  0.00     0.202 C 
ATOM     13  C   UNL     1      20.866  28.255  25.523  1.00  0.00     0.179 C 
ATOM     14  C   UNL     1      22.211  27.628  25.859  1.00  0.00     0.177 C 
BRANCH  10  15
ATOM     15  O   UNL     1      21.802  30.323  22.769  1.00  0.00    -0.341 OA
BRANCH  15  16
ATOM     16  C   UNL     1      21.723  29.425  21.719  1.00  0.00     0.184 C 
ATOM     17  C   UNL     1      22.394  30.001  20.511  1.00  0.00     0.178 C 
ATOM     18  O   UNL     1      21.939  29.393  19.331  1.00  0.00    -0.341 OA
ATOM     19  C   UNL     1      20.653  29.786  18.989  1.00  0.00     0.281 C 
ATOM     20  C   UNL     1      20.263  29.165  21.347  1.00  0.00     0.180 C 
ATOM     21  C   UNL     1      19.848  30.092  20.233  1.00  0.00     0.202 C 
BRANCH  17  22
ATOM     22  C   UNL     1      23.907  29.725  20.522  1.00  0.00     0.191 C 
BRANCH  22  23
ATOM     23  O   UNL     1      24.102  28.526  21.176  1.00  0.00    -0.394 OA
ATOM     24  H   UNL     1      23.888  27.780  20.539  1.00  0.00     0.210 HD
ENDBRANCH  22  23
ENDBRANCH  17  22
BRANCH  19  25
ATOM     25  O   UNL     1      20.099  28.724  18.276  1.00  0.00    -0.350 OA
BRANCH  25  26
ATOM     26  C   UNL     1      19.189  29.084  17.316  1.00  0.00     0.169 C 
BRANCH  26  27
ATOM     27  C   UNL     1      17.993  28.137  17.485  1.00  0.00     0.119 C 
BRANCH  27  28
ATOM     28  N   UNL     1      16.925  28.741  18.248  1.00  0.00    -0.092 NA
ATOM     29  N   UNL     1      16.711  28.317  19.394  1.00  0.00     0.001 N 
ATOM     30  N   UNL     1      16.362  27.729  20.408  1.00  0.00    -0.003 NA
ENDBRANCH  27  28
ENDBRANCH  26  27
ENDBRANCH  25  26
ENDBRANCH  19  25
BRANCH  20  31
ATOM     31  O   UNL     1      20.132  27.859  20.887  1.00  0.00    -0.387 OA
ATOM     32  H   UNL     1      19.730  27.804  19.985  1.00  0.00     0.211 HD
ENDBRANCH  20  31
BRANCH  21  33
ATOM     33  O   UNL     1      20.040  31.399  20.665  1.00  0.00    -0.385 OA
ATOM     34  H   UNL     1      20.835  31.513  21.238  1.00  0.00     0.211 HD
ENDBRANCH  21  33
ENDBRANCH  15  16
ENDBRANCH  10  15
BRANCH  12  35
ATOM     35  O   UNL     1      21.453  30.419  26.137  1.00  0.00    -0.385 OA
ATOM     36  H   UNL     1      21.610  29.878  26.925  1.00  0.00     0.211 HD
ENDBRANCH  12  35
BRANCH  13  37
ATOM     37  O   UNL     1      20.162  27.493  24.610  1.00  0.00    -0.387 OA
ATOM     38  H   UNL     1      20.087  26.556  24.923  1.00  0.00     0.211 HD
ENDBRANCH  13  37
BRANCH  14  39
ATOM     39  O   UNL     1      21.985  26.276  26.061  1.00  0.00    -0.387 OA
ATOM     40  H   UNL     1      21.124  26.043  25.610  1.00  0.00     0.211 HD
ENDBRANCH  14  39
ENDBRANCH   8   9
ENDBRANCH   7   8
ENDBRANCH   1   7
BRANCH   1  41
ATOM     41  C   UNL     1      21.743  25.054  22.799  1.00  0.00     0.364 C 
ATOM     42  O   UNL     1      20.776  25.546  22.179  1.00  0.00    -0.246 OA
BRANCH  41  43
ATOM     43  O   UNL     1      21.490  24.278  23.913  1.00  0.00    -0.477 OA
ATOM     44  H   UNL     1      20.585  24.195  24.348  1.00  0.00     0.296 HD
ENDBRANCH  41  43
ENDBRANCH   1  41
BRANCH   3  45
ATOM     45  O   UNL     1      26.276  24.496  22.633  1.00  0.00    -0.391 OA
ATOM     46  H   UNL     1      26.129  25.459  22.826  1.00  0.00     0.211 HD
ENDBRANCH   3  45
BRANCH   5  47
ATOM     47  C   UNL     1      23.446  24.796  18.734  1.00  0.00     0.176 C 
BRANCH  47  48
ATOM     48  O   UNL     1      22.293  24.140  18.311  1.00  0.00    -0.388 OA
ATOM     49  H   UNL     1      21.809  23.736  19.091  1.00  0.00     0.211 HD
ENDBRANCH  47  48
BRANCH  47  50
ATOM     50  C   UNL     1      23.267  26.274  18.472  1.00  0.00     0.165 C 
BRANCH  50  51
ATOM     51  O   UNL     1      21.907  26.612  18.423  1.00  0.00    -0.388 OA
ATOM     52  H   UNL     1      21.733  27.050  17.561  1.00  0.00     0.211 HD
ENDBRANCH  50  51
BRANCH  50  53
ATOM     53  C   UNL     1      23.913  26.724  17.189  1.00  0.00     0.154 C 
BRANCH  53  54
ATOM     54  N   UNL     1      23.724  25.759  16.133  1.00  0.00    -0.319 N 
ATOM     55  C   UNL     1      22.670  25.882  15.196  1.00  0.00     0.407 C 
ATOM     56  H   UNL     1      24.369  24.949  16.046  1.00  0.00     0.167 HD
ATOM     57  O   UNL     1      21.849  26.833  15.233  1.00  0.00    -0.225 OA
BRANCH  55  58
ATOM     58  O   UNL     1      22.494  24.935  14.176  1.00  0.00    -0.443 OA
BRANCH  58  59
ATOM     59  C   UNL     1      22.828  23.569  14.441  1.00  0.00     0.294 C 
BRANCH  59  60
ATOM     60  C   UNL     1      22.670  22.742  13.245  1.00  0.00     0.120 A 
ATOM     61  C   UNL     1      21.564  22.008  12.900  1.00  0.00     0.139 A 
ATOM     62  N   UNL     1      23.578  22.558  12.282  1.00  0.00    -0.132 NA
ATOM     63  N   UNL     1      21.819  21.388  11.731  1.00  0.00    -0.235 N 
ATOM     64  N   UNL     1      23.059  21.754  11.393  1.00  0.00    -0.066 NA
BRANCH  63  65
ATOM     65  C   UNL     1      20.975  20.503  10.955  1.00  0.00     0.155 C 
ATOM     66  C   UNL     1      21.783  19.374  10.389  1.00  0.00     0.049 C 
ATOM     67  C   UNL     1      20.334  21.252   9.792  1.00  0.00     0.049 C 
BRANCH  65  68
ATOM     68  C   UNL     1      19.886  20.025  11.837  1.00  0.00     0.331 C 
ATOM     69  O   UNL     1      20.074  19.025  12.546  1.00  0.00    -0.250 OA
BRANCH  68  70
ATOM     70  O   UNL     1      18.682  20.706  11.846  1.00  0.00    -0.479 OA
ATOM     71  H   UNL     1      18.102  20.785  12.673  1.00  0.00     0.296 HD
ENDBRANCH  68  70
ENDBRANCH  65  68
ENDBRANCH  63  65
ENDBRANCH  59  60
ENDBRANCH  58  59
ENDBRANCH  55  58
ENDBRANCH  53  54
ENDBRANCH  50  53
ENDBRANCH  47  50
ENDBRANCH   5  47
BRANCH   4  72
ATOM     72  N   UNL     1      25.841  23.904  19.544  1.00  0.00    -0.348 N 
ATOM     73  C   UNL     1      27.234  24.041  19.283  1.00  0.00     0.217 C 
ATOM     74  H   UNL     1      25.300  23.248  18.947  1.00  0.00     0.163 HD
ATOM     75  C   UNL     1      27.884  23.267  18.182  1.00  0.00     0.114 C 
ATOM     76  O   UNL     1      27.918  24.826  19.992  1.00  0.00    -0.275 OA
ENDBRANCH   4  72
TORSDOF 32
