REMARK VINA RESULT:    -4.898      9.331     12.696
REMARK INTER + INTRA:         -20.762
REMARK INTER:                  -9.569
REMARK INTRA:                 -11.193
REMARK UNBOUND:                -8.275
REMARK SMILES CC(=O)N[C@@H]1[C@@H](O)C[C@](OC[C@H]2O[C@@H](O[C@H]3[C@H](O)[C@@H](O)[C@H](OCCN=[N+]=[N-])O[C@@H]3CO)[C@H](O)[C@@H](O)[C@H]2O)(C(=O)O)O[C@H]1C(O)[C@H](O)CNC(=O)OCc1cn(C(C)(C)C(=O)O)nn1
REMARK SMILES IDX 9 1 8 2 6 3 5 4 42 5 41 6 10 7 11 8 12 9 14 10 13 11 32 12
REMARK SMILES IDX 34 13 36 14 15 15 16 16 29 17 28 18 21 19 17 20 19 21 30 22
REMARK SMILES IDX 31 23 22 25 23 26 24 27 25 28 26 29 27 30 18 31 20 33 33 35
REMARK SMILES IDX 35 37 37 39 38 41 39 42 40 43 7 45 43 47 44 48 45 50 46 51
REMARK SMILES IDX 47 53 48 54 49 55 50 57 51 58 52 59 53 60 54 61 63 62 55 63
REMARK SMILES IDX 62 64 56 65 57 66 58 67 59 68 60 69 61 70 4 72 2 73 1 75
REMARK SMILES IDX 3 76
REMARK H PARENT 31 24 18 32 20 34 33 36 35 38 37 40 40 44 7 46 44 49 46 52
REMARK H PARENT 48 56 61 71 4 74
REMARK Flexibility Score: inf
ROOT
ATOM      1  C   UNL     1      20.368  19.677   9.921  1.00  0.00     0.272 C 
ATOM      2  C   UNL     1      19.423  18.611   9.548  1.00  0.00     0.113 C 
ATOM      3  C   UNL     1      19.545  18.118   8.134  1.00  0.00     0.145 C 
ATOM      4  C   UNL     1      20.119  19.194   7.263  1.00  0.00     0.142 C 
ATOM      5  C   UNL     1      19.671  20.522   7.900  1.00  0.00     0.178 C 
ATOM      6  O   UNL     1      20.469  20.727   9.002  1.00  0.00    -0.332 OA
ENDROOT
BRANCH   1   7
ATOM      7  O   UNL     1      21.630  19.253  10.202  1.00  0.00    -0.338 OA
BRANCH   7   8
ATOM      8  C   UNL     1      21.793  18.227  11.080  1.00  0.00     0.199 C 
BRANCH   8   9
ATOM      9  C   UNL     1      23.060  18.390  11.891  1.00  0.00     0.179 C 
ATOM     10  C   UNL     1      25.063  19.537  11.874  1.00  0.00     0.282 C 
ATOM     11  O   UNL     1      23.722  19.487  11.343  1.00  0.00    -0.341 OA
ATOM     12  C   UNL     1      24.928  19.931  13.296  1.00  0.00     0.202 C 
ATOM     13  C   UNL     1      23.473  19.910  13.761  1.00  0.00     0.179 C 
ATOM     14  C   UNL     1      22.778  18.628  13.327  1.00  0.00     0.177 C 
BRANCH  10  15
ATOM     15  O   UNL     1      25.709  20.379  11.020  1.00  0.00    -0.341 OA
BRANCH  15  16
ATOM     16  C   UNL     1      25.342  21.710  11.114  1.00  0.00     0.184 C 
ATOM     17  C   UNL     1      25.130  22.273   9.743  1.00  0.00     0.178 C 
ATOM     18  O   UNL     1      25.242  23.672   9.739  1.00  0.00    -0.341 OA
ATOM     19  C   UNL     1      26.553  24.104   9.876  1.00  0.00     0.281 C 
ATOM     20  C   UNL     1      26.456  22.525  11.772  1.00  0.00     0.180 C 
ATOM     21  C   UNL     1      27.345  23.122  10.712  1.00  0.00     0.202 C 
BRANCH  17  22
ATOM     22  C   UNL     1      23.702  22.004   9.238  1.00  0.00     0.191 C 
BRANCH  22  23
ATOM     23  O   UNL     1      22.884  21.913  10.346  1.00  0.00    -0.394 OA
ATOM     24  H   UNL     1      21.957  22.187  10.079  1.00  0.00     0.210 HD
ENDBRANCH  22  23
ENDBRANCH  17  22
BRANCH  19  25
ATOM     25  O   UNL     1      26.487  25.354  10.490  1.00  0.00    -0.350 OA
BRANCH  25  26
ATOM     26  C   UNL     1      25.446  26.145  10.080  1.00  0.00     0.169 C 
BRANCH  26  27
ATOM     27  C   UNL     1      24.853  26.764  11.354  1.00  0.00     0.119 C 
BRANCH  27  28
ATOM     28  N   UNL     1      23.944  25.864  12.023  1.00  0.00    -0.092 NA
ATOM     29  N   UNL     1      23.083  25.286  11.341  1.00  0.00     0.001 N 
ATOM     30  N   UNL     1      22.105  24.923  10.703  1.00  0.00    -0.003 NA
ENDBRANCH  27  28
ENDBRANCH  26  27
ENDBRANCH  25  26
ENDBRANCH  19  25
BRANCH  20  31
ATOM     31  O   UNL     1      25.893  23.571  12.497  1.00  0.00    -0.387 OA
ATOM     32  H   UNL     1      25.018  23.339  12.896  1.00  0.00     0.211 HD
ENDBRANCH  20  31
BRANCH  21  33
ATOM     33  O   UNL     1      27.859  22.085   9.943  1.00  0.00    -0.385 OA
ATOM     34  H   UNL     1      28.611  21.612  10.371  1.00  0.00     0.211 HD
ENDBRANCH  21  33
ENDBRANCH  15  16
ENDBRANCH  10  15
BRANCH  12  35
ATOM     35  O   UNL     1      25.563  18.948  14.087  1.00  0.00    -0.385 OA
ATOM     36  H   UNL     1      24.974  18.506  14.716  1.00  0.00     0.211 HD
ENDBRANCH  12  35
BRANCH  13  37
ATOM     37  O   UNL     1      22.805  21.032  13.306  1.00  0.00    -0.387 OA
ATOM     38  H   UNL     1      23.391  21.570  12.714  1.00  0.00     0.211 HD
ENDBRANCH  13  37
BRANCH  14  39
ATOM     39  O   UNL     1      21.423  18.810  13.552  1.00  0.00    -0.387 OA
ATOM     40  H   UNL     1      21.086  19.457  12.869  1.00  0.00     0.211 HD
ENDBRANCH  14  39
ENDBRANCH   8   9
ENDBRANCH   7   8
ENDBRANCH   1   7
BRANCH   1  41
ATOM     41  C   UNL     1      19.774  20.371  11.154  1.00  0.00     0.364 C 
ATOM     42  O   UNL     1      20.437  21.231  11.772  1.00  0.00    -0.246 OA
BRANCH  41  43
ATOM     43  O   UNL     1      18.505  20.063  11.604  1.00  0.00    -0.477 OA
ATOM     44  H   UNL     1      18.294  19.786  12.549  1.00  0.00     0.296 HD
ENDBRANCH  41  43
ENDBRANCH   1  41
BRANCH   3  45
ATOM     45  O   UNL     1      20.379  17.020   8.106  1.00  0.00    -0.391 OA
ATOM     46  H   UNL     1      20.027  16.260   8.639  1.00  0.00     0.211 HD
ENDBRANCH   3  45
BRANCH   5  47
ATOM     47  C   UNL     1      19.788  21.665   6.933  1.00  0.00     0.176 C 
BRANCH  47  48
ATOM     48  O   UNL     1      18.519  22.043   6.503  1.00  0.00    -0.388 OA
ATOM     49  H   UNL     1      18.582  22.704   5.751  1.00  0.00     0.211 HD
ENDBRANCH  47  48
BRANCH  47  50
ATOM     50  C   UNL     1      20.424  22.854   7.615  1.00  0.00     0.165 C 
BRANCH  50  51
ATOM     51  O   UNL     1      19.520  23.473   8.489  1.00  0.00    -0.388 OA
ATOM     52  H   UNL     1      19.663  24.444   8.438  1.00  0.00     0.211 HD
ENDBRANCH  50  51
BRANCH  50  53
ATOM     53  C   UNL     1      20.927  23.887   6.643  1.00  0.00     0.154 C 
BRANCH  53  54
ATOM     54  N   UNL     1      22.333  24.152   6.830  1.00  0.00    -0.319 N 
ATOM     55  C   UNL     1      23.311  23.621   5.957  1.00  0.00     0.407 C 
ATOM     56  H   UNL     1      22.650  24.746   7.622  1.00  0.00     0.167 HD
ATOM     57  O   UNL     1      23.009  22.896   4.975  1.00  0.00    -0.225 OA
BRANCH  55  58
ATOM     58  O   UNL     1      24.676  23.882   6.152  1.00  0.00    -0.443 OA
BRANCH  58  59
ATOM     59  C   UNL     1      25.633  23.153   5.377  1.00  0.00     0.294 C 
BRANCH  59  60
ATOM     60  C   UNL     1      26.164  22.014   6.125  1.00  0.00     0.120 A 
ATOM     61  C   UNL     1      25.648  20.744   6.153  1.00  0.00     0.139 A 
ATOM     62  N   UNL     1      27.243  22.016   6.912  1.00  0.00    -0.132 NA
ATOM     63  N   UNL     1      26.423  19.993   6.959  1.00  0.00    -0.235 N 
ATOM     64  N   UNL     1      27.384  20.812   7.399  1.00  0.00    -0.066 NA
BRANCH  63  65
ATOM     65  C   UNL     1      26.299  18.594   7.315  1.00  0.00     0.155 C 
ATOM     66  C   UNL     1      27.111  18.293   8.539  1.00  0.00     0.049 C 
ATOM     67  C   UNL     1      26.803  17.703   6.185  1.00  0.00     0.049 C 
BRANCH  65  68
ATOM     68  C   UNL     1      24.861  18.301   7.512  1.00  0.00     0.331 C 
ATOM     69  O   UNL     1      24.262  17.612   6.672  1.00  0.00    -0.250 OA
BRANCH  68  70
ATOM     70  O   UNL     1      24.221  18.804   8.630  1.00  0.00    -0.479 OA
ATOM     71  H   UNL     1      24.722  19.144   9.443  1.00  0.00     0.296 HD
ENDBRANCH  68  70
ENDBRANCH  65  68
ENDBRANCH  63  65
ENDBRANCH  59  60
ENDBRANCH  58  59
ENDBRANCH  55  58
ENDBRANCH  53  54
ENDBRANCH  50  53
ENDBRANCH  47  50
ENDBRANCH   5  47
BRANCH   4  72
ATOM     72  N   UNL     1      19.568  19.188   5.932  1.00  0.00    -0.348 N 
ATOM     73  C   UNL     1      20.053  18.372   4.872  1.00  0.00     0.217 C 
ATOM     74  H   UNL     1      18.764  19.814   5.731  1.00  0.00     0.163 HD
ATOM     75  C   UNL     1      19.423  18.427   3.517  1.00  0.00     0.114 C 
ATOM     76  O   UNL     1      21.024  17.598   5.085  1.00  0.00    -0.275 OA
ENDBRANCH   4  72
TORSDOF 32
