REMARK VINA RESULT:    -6.228      2.675      8.131
REMARK INTER + INTRA:         -20.887
REMARK INTER:                 -11.117
REMARK INTRA:                  -9.770
REMARK UNBOUND:                -4.828
REMARK SMILES CC(=O)N[C@@H]1[C@@H](O)C[C@](OC[C@H]2O[C@@H](O[C@H]3[C@H](O)[C@@H](O)[C@H](OCCN=[N+]=[N-])O[C@@H]3CO)[C@H](O)[C@@H](O)[C@H]2O)(C(=O)O)O[C@H]1C(O)[C@H](O)CNC(=O)OCc1cn(CCN2CCCC2)nn1
REMARK SMILES IDX 9 1 8 2 6 3 5 4 42 5 41 6 10 7 11 8 12 9 14 10 13 11 32 12
REMARK SMILES IDX 34 13 36 14 15 15 16 16 29 17 28 18 21 19 17 20 19 21 30 22
REMARK SMILES IDX 31 23 22 25 23 26 24 27 25 28 26 29 27 30 18 31 20 33 33 35
REMARK SMILES IDX 35 37 37 39 38 41 39 42 40 43 7 45 43 47 44 48 45 50 46 51
REMARK SMILES IDX 47 53 48 54 49 55 50 57 51 58 52 59 53 60 54 61 64 62 55 63
REMARK SMILES IDX 63 64 56 65 57 66 58 67 59 68 62 69 60 70 61 71 4 72 2 73
REMARK SMILES IDX 1 75 3 76
REMARK H PARENT 31 24 18 32 20 34 33 36 35 38 37 40 40 44 7 46 44 49 46 52
REMARK H PARENT 48 56 4 74
REMARK Flexibility Score: inf
ROOT
ATOM      1  C   UNL     1      21.975  29.883  20.842  1.00  0.00     0.272 C 
ATOM      2  C   UNL     1      21.236  29.193  19.739  1.00  0.00     0.113 C 
ATOM      3  C   UNL     1      20.447  27.994  20.282  1.00  0.00     0.145 C 
ATOM      4  C   UNL     1      21.521  26.995  20.798  1.00  0.00     0.142 C 
ATOM      5  C   UNL     1      22.366  27.741  21.764  1.00  0.00     0.178 C 
ATOM      6  O   UNL     1      21.895  29.043  21.960  1.00  0.00    -0.332 OA
ENDROOT
BRANCH   1   7
ATOM      7  O   UNL     1      21.313  31.035  21.273  1.00  0.00    -0.338 OA
BRANCH   7   8
ATOM      8  C   UNL     1      20.993  31.130  22.578  1.00  0.00     0.199 C 
BRANCH   8   9
ATOM      9  C   UNL     1      19.513  31.421  22.811  1.00  0.00     0.179 C 
ATOM     10  C   UNL     1      17.508  31.739  21.745  1.00  0.00     0.282 C 
ATOM     11  O   UNL     1      18.711  31.087  21.733  1.00  0.00    -0.341 OA
ATOM     12  C   UNL     1      16.972  31.831  23.133  1.00  0.00     0.202 C 
ATOM     13  C   UNL     1      17.524  30.679  23.955  1.00  0.00     0.179 C 
ATOM     14  C   UNL     1      19.030  30.769  24.092  1.00  0.00     0.177 C 
BRANCH  10  15
ATOM     15  O   UNL     1      16.609  31.333  20.804  1.00  0.00    -0.341 OA
BRANCH  15  16
ATOM     16  C   UNL     1      16.960  30.632  19.730  1.00  0.00     0.184 C 
ATOM     17  C   UNL     1      16.597  31.198  18.372  1.00  0.00     0.178 C 
ATOM     18  O   UNL     1      17.490  30.642  17.451  1.00  0.00    -0.341 OA
ATOM     19  C   UNL     1      17.032  29.310  17.237  1.00  0.00     0.281 C 
ATOM     20  C   UNL     1      16.497  29.187  19.690  1.00  0.00     0.180 C 
ATOM     21  C   UNL     1      17.267  28.570  18.538  1.00  0.00     0.202 C 
BRANCH  17  22
ATOM     22  C   UNL     1      16.599  32.687  18.300  1.00  0.00     0.191 C 
BRANCH  22  23
ATOM     23  O   UNL     1      16.634  33.053  16.957  1.00  0.00    -0.394 OA
ATOM     24  H   UNL     1      16.906  32.274  16.399  1.00  0.00     0.210 HD
ENDBRANCH  22  23
ENDBRANCH  17  22
BRANCH  19  25
ATOM     25  O   UNL     1      17.865  28.784  16.302  1.00  0.00    -0.350 OA
BRANCH  25  26
ATOM     26  C   UNL     1      19.111  29.285  16.145  1.00  0.00     0.169 C 
BRANCH  26  27
ATOM     27  C   UNL     1      20.265  28.365  16.330  1.00  0.00     0.119 C 
BRANCH  27  28
ATOM     28  N   UNL     1      21.530  28.886  15.873  1.00  0.00    -0.092 NA
ATOM     29  N   UNL     1      22.557  28.578  16.462  1.00  0.00     0.001 N 
ATOM     30  N   UNL     1      23.521  28.124  17.087  1.00  0.00    -0.003 NA
ENDBRANCH  27  28
ENDBRANCH  26  27
ENDBRANCH  25  26
ENDBRANCH  19  25
BRANCH  20  31
ATOM     31  O   UNL     1      16.883  28.500  20.832  1.00  0.00    -0.387 OA
ATOM     32  H   UNL     1      17.596  27.848  20.691  1.00  0.00     0.211 HD
ENDBRANCH  20  31
BRANCH  21  33
ATOM     33  O   UNL     1      17.078  27.213  18.424  1.00  0.00    -0.385 OA
ATOM     34  H   UNL     1      16.219  26.865  18.718  1.00  0.00     0.211 HD
ENDBRANCH  21  33
ENDBRANCH  15  16
ENDBRANCH  10  15
BRANCH  12  35
ATOM     35  O   UNL     1      17.340  33.010  23.794  1.00  0.00    -0.385 OA
ATOM     36  H   UNL     1      17.515  32.825  24.762  1.00  0.00     0.211 HD
ENDBRANCH  12  35
BRANCH  13  37
ATOM     37  O   UNL     1      17.246  29.467  23.316  1.00  0.00    -0.387 OA
ATOM     38  H   UNL     1      17.701  29.444  22.415  1.00  0.00     0.211 HD
ENDBRANCH  13  37
BRANCH  14  39
ATOM     39  O   UNL     1      19.497  29.462  24.214  1.00  0.00    -0.387 OA
ATOM     40  H   UNL     1      18.783  28.977  24.723  1.00  0.00     0.211 HD
ENDBRANCH  14  39
ENDBRANCH   8   9
ENDBRANCH   7   8
ENDBRANCH   1   7
BRANCH   1  41
ATOM     41  C   UNL     1      23.399  30.174  20.531  1.00  0.00     0.364 C 
ATOM     42  O   UNL     1      24.062  30.848  21.377  1.00  0.00    -0.246 OA
BRANCH  41  43
ATOM     43  O   UNL     1      24.074  29.783  19.405  1.00  0.00    -0.477 OA
ATOM     44  H   UNL     1      24.364  30.342  18.636  1.00  0.00     0.296 HD
ENDBRANCH  41  43
ENDBRANCH   1  41
BRANCH   3  45
ATOM     45  O   UNL     1      19.688  28.343  21.371  1.00  0.00    -0.391 OA
ATOM     46  H   UNL     1      20.135  28.148  22.238  1.00  0.00     0.211 HD
ENDBRANCH   3  45
BRANCH   5  47
ATOM     47  C   UNL     1      22.281  27.122  23.139  1.00  0.00     0.176 C 
BRANCH  47  48
ATOM     48  O   UNL     1      20.999  27.020  23.646  1.00  0.00    -0.388 OA
ATOM     49  H   UNL     1      20.898  26.437  24.430  1.00  0.00     0.211 HD
ENDBRANCH  47  48
BRANCH  47  50
ATOM     50  C   UNL     1      23.075  25.908  23.425  1.00  0.00     0.165 C 
BRANCH  50  51
ATOM     51  O   UNL     1      24.195  25.703  22.653  1.00  0.00    -0.388 OA
ATOM     52  H   UNL     1      25.037  26.058  23.015  1.00  0.00     0.211 HD
ENDBRANCH  50  51
BRANCH  50  53
ATOM     53  C   UNL     1      22.326  24.700  23.885  1.00  0.00     0.154 C 
BRANCH  53  54
ATOM     54  N   UNL     1      21.917  24.757  25.238  1.00  0.00    -0.319 N 
ATOM     55  C   UNL     1      22.825  24.548  26.333  1.00  0.00     0.407 C 
ATOM     56  H   UNL     1      20.918  24.963  25.482  1.00  0.00     0.167 HD
ATOM     57  O   UNL     1      24.036  24.302  26.175  1.00  0.00    -0.225 OA
BRANCH  55  58
ATOM     58  O   UNL     1      22.367  24.620  27.649  1.00  0.00    -0.443 OA
BRANCH  58  59
ATOM     59  C   UNL     1      22.514  25.834  28.393  1.00  0.00     0.294 C 
BRANCH  59  60
ATOM     60  C   UNL     1      22.207  27.006  27.549  1.00  0.00     0.120 A 
ATOM     61  C   UNL     1      22.955  28.071  27.135  1.00  0.00     0.138 A 
ATOM     62  N   UNL     1      20.978  27.217  26.993  1.00  0.00    -0.132 NA
ATOM     63  N   UNL     1      22.209  28.871  26.372  1.00  0.00    -0.251 N 
ATOM     64  N   UNL     1      20.982  28.315  26.301  1.00  0.00    -0.067 NA
BRANCH  63  65
ATOM     65  C   UNL     1      22.542  30.095  25.715  1.00  0.00     0.161 C 
BRANCH  65  66
ATOM     66  C   UNL     1      23.742  30.024  24.845  1.00  0.00     0.108 C 
BRANCH  66  67
ATOM     67  N   UNL     1      24.966  30.528  25.307  1.00  0.00    -0.301 NA
ATOM     68  C   UNL     1      26.110  30.511  24.486  1.00  0.00     0.084 C 
ATOM     69  C   UNL     1      24.903  31.736  26.073  1.00  0.00     0.084 C 
ATOM     70  C   UNL     1      26.752  31.889  24.553  1.00  0.00     0.017 C 
ATOM     71  C   UNL     1      26.117  32.546  25.743  1.00  0.00     0.017 C 
ENDBRANCH  66  67
ENDBRANCH  65  66
ENDBRANCH  63  65
ENDBRANCH  59  60
ENDBRANCH  58  59
ENDBRANCH  55  58
ENDBRANCH  53  54
ENDBRANCH  50  53
ENDBRANCH  47  50
ENDBRANCH   5  47
BRANCH   4  72
ATOM     72  N   UNL     1      22.218  26.519  19.617  1.00  0.00    -0.348 N 
ATOM     73  C   UNL     1      22.662  25.176  19.447  1.00  0.00     0.217 C 
ATOM     74  H   UNL     1      22.421  27.162  18.831  1.00  0.00     0.163 HD
ATOM     75  C   UNL     1      23.383  24.794  18.184  1.00  0.00     0.114 C 
ATOM     76  O   UNL     1      22.448  24.351  20.337  1.00  0.00    -0.275 OA
ENDBRANCH   4  72
TORSDOF 32
