REMARK VINA RESULT:    -4.837      3.607      9.713
REMARK INTER + INTRA:         -21.066
REMARK INTER:                 -16.326
REMARK INTRA:                  -4.740
REMARK UNBOUND:                -8.028
REMARK SMILES CCN(CC)CCn1cc(COC(=O)NC[C@@H](O)C(O)[C@@H]2O[C@@](OC[C@H]3O[C@@H](O[C@H]4[C@H](O)[C@@H](O)[C@H](OCCN=[N+]=[N-])O[C@@H]4CO)[C@H](O)[C@@H](O)[C@H]3O)(C(=O)O)C[C@H](O)[C@H]2NC(C)=O)nn1
REMARK SMILES IDX 19 1 21 2 23 3 55 4 22 5 56 6 58 7 24 8 25 9 26 10 28 11
REMARK SMILES IDX 27 12 46 13 48 14 50 15 29 16 30 17 43 18 42 19 35 20 31 21
REMARK SMILES IDX 33 22 44 23 45 24 36 26 37 27 38 28 39 29 40 30 41 31 32 32
REMARK SMILES IDX 34 34 47 36 49 38 51 40 52 42 53 43 54 44 57 46 59 48 60 49
REMARK SMILES IDX 61 51 62 52 20 53 17 55 18 56 16 58 15 59 13 60 14 62 12 63
REMARK SMILES IDX 11 64 10 65 9 66 63 67 8 68 64 69 7 70 6 71 3 72 2 73 1 74
REMARK SMILES IDX 4 75 5 76
REMARK H PARENT 45 25 32 33 34 35 47 37 49 39 51 41 54 45 57 47 59 50 20 54
REMARK H PARENT 18 57 15 61
REMARK Flexibility Score: inf
ROOT
ATOM      1  C   UNL     1      13.872  30.937  21.595  1.00  0.00     0.176 C 
ENDROOT
BRANCH   1   2
ATOM      2  C   UNL     1      14.456  30.511  20.274  1.00  0.00     0.178 C 
ATOM      3  C   UNL     1      16.239  29.440  19.289  1.00  0.00     0.272 C 
ATOM      4  C   UNL     1      15.298  29.642  18.091  1.00  0.00     0.113 C 
ATOM      5  O   UNL     1      15.626  29.817  20.463  1.00  0.00    -0.332 OA
ATOM      6  C   UNL     1      14.807  31.046  17.947  1.00  0.00     0.145 C 
ATOM      7  C   UNL     1      14.775  31.668  19.352  1.00  0.00     0.142 C 
BRANCH   3   8
ATOM      8  O   UNL     1      17.394  30.124  18.998  1.00  0.00    -0.338 OA
BRANCH   8   9
ATOM      9  C   UNL     1      18.415  30.005  19.908  1.00  0.00     0.199 C 
BRANCH   9  10
ATOM     10  C   UNL     1      19.788  30.076  19.215  1.00  0.00     0.179 C 
ATOM     11  C   UNL     1      21.765  28.856  19.584  1.00  0.00     0.282 C 
ATOM     12  O   UNL     1      20.678  29.555  20.086  1.00  0.00    -0.341 OA
ATOM     13  C   UNL     1      22.136  29.286  18.221  1.00  0.00     0.202 C 
ATOM     14  C   UNL     1      21.008  29.223  17.229  1.00  0.00     0.179 C 
ATOM     15  C   UNL     1      19.685  29.260  17.963  1.00  0.00     0.177 C 
BRANCH  11  16
ATOM     16  O   UNL     1      21.449  27.519  19.783  1.00  0.00    -0.341 OA
BRANCH  16  17
ATOM     17  C   UNL     1      22.235  26.876  20.672  1.00  0.00     0.184 C 
ATOM     18  C   UNL     1      22.526  25.451  20.280  1.00  0.00     0.178 C 
ATOM     19  O   UNL     1      23.447  24.919  21.228  1.00  0.00    -0.341 OA
ATOM     20  C   UNL     1      22.736  24.548  22.349  1.00  0.00     0.281 C 
ATOM     21  C   UNL     1      21.647  26.826  22.078  1.00  0.00     0.180 C 
ATOM     22  C   UNL     1      21.619  25.447  22.655  1.00  0.00     0.202 C 
BRANCH  18  23
ATOM     23  C   UNL     1      23.003  25.245  18.888  1.00  0.00     0.191 C 
BRANCH  23  24
ATOM     24  O   UNL     1      22.375  24.113  18.381  1.00  0.00    -0.394 OA
ATOM     25  H   UNL     1      21.434  24.017  18.670  1.00  0.00     0.210 HD
ENDBRANCH  23  24
ENDBRANCH  18  23
BRANCH  20  26
ATOM     26  O   UNL     1      23.572  24.268  23.425  1.00  0.00    -0.350 OA
BRANCH  26  27
ATOM     27  C   UNL     1      24.600  25.144  23.599  1.00  0.00     0.169 C 
BRANCH  27  28
ATOM     28  C   UNL     1      24.811  25.530  25.051  1.00  0.00     0.119 C 
BRANCH  28  29
ATOM     29  N   UNL     1      24.451  24.444  25.941  1.00  0.00    -0.092 NA
ATOM     30  N   UNL     1      23.472  24.493  26.697  1.00  0.00     0.001 N 
ATOM     31  N   UNL     1      22.830  24.723  27.723  1.00  0.00    -0.003 NA
ENDBRANCH  28  29
ENDBRANCH  27  28
ENDBRANCH  26  27
ENDBRANCH  20  26
BRANCH  21  32
ATOM     32  O   UNL     1      22.399  27.650  22.894  1.00  0.00    -0.387 OA
ATOM     33  H   UNL     1      22.836  27.189  23.640  1.00  0.00     0.211 HD
ENDBRANCH  21  32
BRANCH  22  34
ATOM     34  O   UNL     1      20.396  24.795  22.360  1.00  0.00    -0.385 OA
ATOM     35  H   UNL     1      20.045  25.236  21.543  1.00  0.00     0.211 HD
ENDBRANCH  22  34
ENDBRANCH  16  17
ENDBRANCH  11  16
BRANCH  13  36
ATOM     36  O   UNL     1      22.542  30.652  18.282  1.00  0.00    -0.385 OA
ATOM     37  H   UNL     1      23.464  30.729  18.587  1.00  0.00     0.211 HD
ENDBRANCH  13  36
BRANCH  14  38
ATOM     38  O   UNL     1      21.082  28.150  16.356  1.00  0.00    -0.387 OA
ATOM     39  H   UNL     1      20.218  27.866  16.017  1.00  0.00     0.211 HD
ENDBRANCH  14  38
BRANCH  15  40
ATOM     40  O   UNL     1      19.353  27.956  18.306  1.00  0.00    -0.387 OA
ATOM     41  H   UNL     1      18.463  27.936  18.763  1.00  0.00     0.211 HD
ENDBRANCH  15  40
ENDBRANCH   9  10
ENDBRANCH   8   9
ENDBRANCH   3   8
BRANCH   3  42
ATOM     42  C   UNL     1      16.480  27.975  19.320  1.00  0.00     0.364 C 
ATOM     43  O   UNL     1      16.712  27.331  18.241  1.00  0.00    -0.246 OA
BRANCH  42  44
ATOM     44  O   UNL     1      16.477  27.205  20.466  1.00  0.00    -0.477 OA
ATOM     45  H   UNL     1      17.240  27.280  21.129  1.00  0.00     0.296 HD
ENDBRANCH  42  44
ENDBRANCH   3  42
BRANCH   6  46
ATOM     46  O   UNL     1      15.489  31.815  17.036  1.00  0.00    -0.391 OA
ATOM     47  H   UNL     1      15.290  31.451  16.135  1.00  0.00     0.211 HD
ENDBRANCH   6  46
BRANCH   7  48
ATOM     48  N   UNL     1      13.864  32.759  19.423  1.00  0.00    -0.348 N 
ATOM     49  C   UNL     1      14.403  34.088  19.578  1.00  0.00     0.217 C 
ATOM     50  H   UNL     1      12.832  32.693  19.368  1.00  0.00     0.163 HD
ATOM     51  C   UNL     1      13.514  35.273  19.661  1.00  0.00     0.114 C 
ATOM     52  O   UNL     1      15.645  34.288  19.650  1.00  0.00    -0.275 OA
ENDBRANCH   7  48
ENDBRANCH   1   2
BRANCH   1  53
ATOM     53  O   UNL     1      12.505  31.120  21.430  1.00  0.00    -0.388 OA
ATOM     54  H   UNL     1      12.013  30.397  21.932  1.00  0.00     0.211 HD
ENDBRANCH   1  53
BRANCH   1  55
ATOM     55  C   UNL     1      14.102  29.801  22.559  1.00  0.00     0.165 C 
BRANCH  55  56
ATOM     56  O   UNL     1      13.574  28.625  22.015  1.00  0.00    -0.388 OA
ATOM     57  H   UNL     1      12.760  28.861  21.508  1.00  0.00     0.211 HD
ENDBRANCH  55  56
BRANCH  55  58
ATOM     58  C   UNL     1      13.564  30.002  23.927  1.00  0.00     0.154 C 
BRANCH  58  59
ATOM     59  N   UNL     1      12.394  29.246  24.216  1.00  0.00    -0.319 N 
ATOM     60  C   UNL     1      11.119  29.907  24.243  1.00  0.00     0.407 C 
ATOM     61  H   UNL     1      12.433  28.245  24.412  1.00  0.00     0.167 HD
ATOM     62  O   UNL     1      11.026  31.131  24.025  1.00  0.00    -0.225 OA
BRANCH  60  63
ATOM     63  O   UNL     1       9.993  29.149  24.521  1.00  0.00    -0.443 OA
BRANCH  63  64
ATOM     64  C   UNL     1      10.177  27.801  24.986  1.00  0.00     0.294 C 
BRANCH  64  65
ATOM     65  C   UNL     1       8.855  27.161  25.021  1.00  0.00     0.120 A 
ATOM     66  C   UNL     1       7.664  27.854  25.262  1.00  0.00     0.138 A 
ATOM     67  N   UNL     1       8.493  25.893  24.848  1.00  0.00    -0.132 NA
ATOM     68  N   UNL     1       6.642  26.980  25.224  1.00  0.00    -0.251 N 
ATOM     69  N   UNL     1       7.166  25.809  24.975  1.00  0.00    -0.067 NA
BRANCH  68  70
ATOM     70  C   UNL     1       5.233  27.261  25.420  1.00  0.00     0.161 C 
BRANCH  70  71
ATOM     71  C   UNL     1       4.949  28.624  24.828  1.00  0.00     0.108 C 
BRANCH  71  72
ATOM     72  N   UNL     1       4.312  29.523  25.745  1.00  0.00    -0.302 NA
BRANCH  72  73
ATOM     73  C   UNL     1       4.726  29.301  27.103  1.00  0.00     0.081 C 
ATOM     74  C   UNL     1       5.802  30.322  27.453  1.00  0.00     0.021 C 
ENDBRANCH  72  73
BRANCH  72  75
ATOM     75  C   UNL     1       2.892  29.581  25.585  1.00  0.00     0.081 C 
ATOM     76  C   UNL     1       2.188  29.420  26.918  1.00  0.00     0.021 C 
ENDBRANCH  72  75
ENDBRANCH  71  72
ENDBRANCH  70  71
ENDBRANCH  68  70
ENDBRANCH  64  65
ENDBRANCH  63  64
ENDBRANCH  60  63
ENDBRANCH  58  59
ENDBRANCH  55  58
ENDBRANCH   1  55
TORSDOF 34
