REMARK VINA RESULT:    -5.861      4.434      9.587
REMARK INTER + INTRA:         -21.878
REMARK INTER:                 -14.227
REMARK INTRA:                  -7.651
REMARK UNBOUND:                -6.938
REMARK SMILES CC(=O)N[C@@H]1[C@@H](O)C[C@](OC[C@H]2O[C@@H](O[C@H]3[C@H](O)[C@@H](O)[C@H](OCCN=[N+]=[N-])O[C@@H]3CO)[C@H](O)[C@@H](O)[C@H]2O)(C(=O)O)O[C@H]1C(O)[C@H](O)CNC(=O)OCc1cn(Cc2cc(Br)cc(Br)c2O)nn1
REMARK SMILES IDX 9 1 8 2 6 3 5 4 42 5 41 6 10 7 11 8 12 9 14 10 13 11 32 12
REMARK SMILES IDX 34 13 36 14 15 15 16 16 29 17 28 18 21 19 17 20 19 21 30 22
REMARK SMILES IDX 31 23 22 25 23 26 24 27 25 28 26 29 27 30 18 31 20 33 33 35
REMARK SMILES IDX 35 37 37 39 38 41 39 42 40 43 7 45 43 47 44 48 45 50 46 51
REMARK SMILES IDX 47 53 48 54 49 55 50 57 51 58 52 59 53 60 54 61 67 62 55 63
REMARK SMILES IDX 66 64 56 65 57 66 58 67 64 68 59 69 62 70 60 71 61 72 63 73
REMARK SMILES IDX 65 74 4 76 2 77 1 79 3 80
REMARK H PARENT 31 24 18 32 20 34 33 36 35 38 37 40 40 44 7 46 44 49 46 52
REMARK H PARENT 48 56 65 75 4 78
REMARK Flexibility Score: inf
ROOT
ATOM      1  C   UNL     1      18.982  31.694  25.542  1.00  0.00     0.272 C 
ATOM      2  C   UNL     1      19.299  32.318  24.100  1.00  0.00     0.113 C 
ATOM      3  C   UNL     1      20.711  32.734  24.029  1.00  0.00     0.145 C 
ATOM      4  C   UNL     1      21.615  31.576  24.361  1.00  0.00     0.142 C 
ATOM      5  C   UNL     1      20.973  30.459  25.128  1.00  0.00     0.178 C 
ATOM      6  O   UNL     1      19.782  30.617  25.692  1.00  0.00    -0.332 OA
ENDROOT
BRANCH   1   7
ATOM      7  O   UNL     1      17.695  31.323  25.347  1.00  0.00    -0.338 OA
BRANCH   7   8
ATOM      8  C   UNL     1      17.166  30.884  24.222  1.00  0.00     0.199 C 
BRANCH   8   9
ATOM      9  C   UNL     1      15.885  31.428  23.691  1.00  0.00     0.179 C 
ATOM     10  C   UNL     1      15.679  30.028  21.841  1.00  0.00     0.282 C 
ATOM     11  O   UNL     1      15.745  31.282  22.354  1.00  0.00    -0.341 OA
ATOM     12  C   UNL     1      14.812  29.117  22.648  1.00  0.00     0.202 C 
ATOM     13  C   UNL     1      13.921  29.906  23.569  1.00  0.00     0.179 C 
ATOM     14  C   UNL     1      14.676  30.865  24.442  1.00  0.00     0.177 C 
BRANCH  10  15
ATOM     15  O   UNL     1      16.961  29.511  21.599  1.00  0.00    -0.341 OA
BRANCH  15  16
ATOM     16  C   UNL     1      17.361  29.583  20.284  1.00  0.00     0.184 C 
ATOM     17  C   UNL     1      17.181  30.975  19.723  1.00  0.00     0.178 C 
ATOM     18  O   UNL     1      17.316  31.060  18.367  1.00  0.00    -0.341 OA
ATOM     19  C   UNL     1      17.885  29.967  17.737  1.00  0.00     0.281 C 
ATOM     20  C   UNL     1      16.485  28.702  19.387  1.00  0.00     0.180 C 
ATOM     21  C   UNL     1      17.178  28.675  18.045  1.00  0.00     0.202 C 
BRANCH  17  22
ATOM     22  C   UNL     1      18.068  31.997  20.403  1.00  0.00     0.191 C 
BRANCH  22  23
ATOM     23  O   UNL     1      19.319  31.485  20.668  1.00  0.00    -0.394 OA
ATOM     24  H   UNL     1      19.932  31.778  19.953  1.00  0.00     0.210 HD
ENDBRANCH  22  23
ENDBRANCH  17  22
BRANCH  19  25
ATOM     25  O   UNL     1      19.235  29.926  18.044  1.00  0.00    -0.350 OA
BRANCH  25  26
ATOM     26  C   UNL     1      19.805  28.755  17.622  1.00  0.00     0.169 C 
BRANCH  26  27
ATOM     27  C   UNL     1      21.249  28.576  17.946  1.00  0.00     0.119 C 
BRANCH  27  28
ATOM     28  N   UNL     1      21.553  27.256  18.461  1.00  0.00    -0.092 NA
ATOM     29  N   UNL     1      22.667  26.928  18.817  1.00  0.00     0.001 N 
ATOM     30  N   UNL     1      23.651  26.541  19.444  1.00  0.00    -0.003 NA
ENDBRANCH  27  28
ENDBRANCH  26  27
ENDBRANCH  25  26
ENDBRANCH  19  25
BRANCH  20  31
ATOM     31  O   UNL     1      16.250  27.456  19.902  1.00  0.00    -0.387 OA
ATOM     32  H   UNL     1      16.991  26.865  19.553  1.00  0.00     0.211 HD
ENDBRANCH  20  31
BRANCH  21  33
ATOM     33  O   UNL     1      16.292  28.378  17.017  1.00  0.00    -0.385 OA
ATOM     34  H   UNL     1      16.013  27.447  17.061  1.00  0.00     0.211 HD
ENDBRANCH  21  33
ENDBRANCH  15  16
ENDBRANCH  10  15
BRANCH  12  35
ATOM     35  O   UNL     1      14.024  28.366  21.742  1.00  0.00    -0.385 OA
ATOM     36  H   UNL     1      13.198  28.158  22.239  1.00  0.00     0.211 HD
ENDBRANCH  12  35
BRANCH  13  37
ATOM     37  O   UNL     1      13.093  29.081  24.328  1.00  0.00    -0.387 OA
ATOM     38  H   UNL     1      12.360  28.802  23.723  1.00  0.00     0.211 HD
ENDBRANCH  13  37
BRANCH  14  39
ATOM     39  O   UNL     1      15.109  30.214  25.583  1.00  0.00    -0.387 OA
ATOM     40  H   UNL     1      15.162  29.233  25.432  1.00  0.00     0.211 HD
ENDBRANCH  14  39
ENDBRANCH   8   9
ENDBRANCH   7   8
ENDBRANCH   1   7
BRANCH   1  41
ATOM     41  C   UNL     1      19.247  32.773  26.488  1.00  0.00     0.364 C 
ATOM     42  O   UNL     1      18.582  33.875  26.440  1.00  0.00    -0.246 OA
BRANCH  41  43
ATOM     43  O   UNL     1      20.184  32.726  27.486  1.00  0.00    -0.477 OA
ATOM     44  H   UNL     1      21.035  33.266  27.427  1.00  0.00     0.296 HD
ENDBRANCH  41  43
ENDBRANCH   1  41
BRANCH   3  45
ATOM     45  O   UNL     1      20.969  33.234  22.739  1.00  0.00    -0.391 OA
ATOM     46  H   UNL     1      20.121  33.457  22.293  1.00  0.00     0.211 HD
ENDBRANCH   3  45
BRANCH   5  47
ATOM     47  C   UNL     1      21.115  29.196  24.300  1.00  0.00     0.176 C 
BRANCH  47  48
ATOM     48  O   UNL     1      20.186  28.230  24.762  1.00  0.00    -0.388 OA
ATOM     49  H   UNL     1      19.610  28.606  25.457  1.00  0.00     0.211 HD
ENDBRANCH  47  48
BRANCH  47  50
ATOM     50  C   UNL     1      21.046  29.370  22.839  1.00  0.00     0.165 C 
BRANCH  50  51
ATOM     51  O   UNL     1      19.766  29.237  22.348  1.00  0.00    -0.388 OA
ATOM     52  H   UNL     1      19.557  29.865  21.611  1.00  0.00     0.211 HD
ENDBRANCH  50  51
BRANCH  50  53
ATOM     53  C   UNL     1      22.013  28.612  21.996  1.00  0.00     0.154 C 
BRANCH  53  54
ATOM     54  N   UNL     1      22.419  27.336  22.475  1.00  0.00    -0.319 N 
ATOM     55  C   UNL     1      21.542  26.225  22.227  1.00  0.00     0.407 C 
ATOM     56  H   UNL     1      23.286  27.156  23.005  1.00  0.00     0.167 HD
ATOM     57  O   UNL     1      20.450  26.431  21.595  1.00  0.00    -0.225 OA
BRANCH  55  58
ATOM     58  O   UNL     1      21.881  24.976  22.663  1.00  0.00    -0.443 OA
BRANCH  58  59
ATOM     59  C   UNL     1      23.204  24.601  22.948  1.00  0.00     0.294 C 
BRANCH  59  60
ATOM     60  C   UNL     1      23.434  24.574  24.410  1.00  0.00     0.120 A 
ATOM     61  C   UNL     1      22.513  24.587  25.450  1.00  0.00     0.138 A 
ATOM     62  N   UNL     1      24.625  24.521  25.027  1.00  0.00    -0.132 NA
ATOM     63  N   UNL     1      23.147  24.545  26.631  1.00  0.00    -0.248 N 
ATOM     64  N   UNL     1      24.449  24.505  26.333  1.00  0.00    -0.067 NA
BRANCH  63  65
ATOM     65  C   UNL     1      22.602  24.543  27.993  1.00  0.00     0.185 C 
BRANCH  65  66
ATOM     66  C   UNL     1      22.828  25.890  28.565  1.00  0.00     0.018 A 
ATOM     67  C   UNL     1      21.824  26.833  28.466  1.00  0.00     0.025 A 
ATOM     68  C   UNL     1      24.016  26.240  29.197  1.00  0.00     0.134 A 
ATOM     69  C   UNL     1      21.967  28.113  28.980  1.00  0.00     0.019 A 
ATOM     70  C   UNL     1      24.189  27.511  29.721  1.00  0.00     0.061 A 
ATOM     71  Br  UNL     1      20.555  29.380  28.820  1.00  0.00    -0.051 Br
ATOM     72  C   UNL     1      23.150  28.433  29.601  1.00  0.00     0.035 A 
ATOM     73  Br  UNL     1      25.811  27.961  30.578  1.00  0.00    -0.047 Br
BRANCH  68  74
ATOM     74  O   UNL     1      24.980  25.253  29.262  1.00  0.00    -0.506 OA
ATOM     75  H   UNL     1      25.549  25.063  28.454  1.00  0.00     0.293 HD
ENDBRANCH  68  74
ENDBRANCH  65  66
ENDBRANCH  63  65
ENDBRANCH  59  60
ENDBRANCH  58  59
ENDBRANCH  55  58
ENDBRANCH  53  54
ENDBRANCH  50  53
ENDBRANCH  47  50
ENDBRANCH   5  47
BRANCH   4  76
ATOM     76  N   UNL     1      22.845  32.068  24.943  1.00  0.00    -0.348 N 
ATOM     77  C   UNL     1      24.073  31.800  24.286  1.00  0.00     0.217 C 
ATOM     78  H   UNL     1      22.876  32.614  25.835  1.00  0.00     0.163 HD
ATOM     79  C   UNL     1      25.345  32.310  24.888  1.00  0.00     0.114 C 
ATOM     80  O   UNL     1      24.082  31.135  23.196  1.00  0.00    -0.275 OA
ENDBRANCH   4  76
TORSDOF 32
