REMARK VINA RESULT:    -4.604     12.864     19.308
REMARK INTER + INTRA:         -23.792
REMARK INTER:                 -12.819
REMARK INTRA:                 -10.973
REMARK UNBOUND:               -10.710
REMARK SMILES CC(=O)N[C@@H]1[C@@H](O)C[C@](OC[C@H]2O[C@@H](O[C@H]3[C@H](O)[C@@H](O)[C@H](OCCN=[N+]=[N-])O[C@@H]3CO)[C@H](O)[C@@H](O)[C@H]2O)(C(=O)O)O[C@H]1C(O)[C@H](O)CNC(=O)OCc1cn(CC(=O)NCC(O)Cn2ccnc2[N+](=O)[O-])nn1
REMARK SMILES IDX 47 1 45 2 43 3 42 4 9 5 8 6 41 7 6 8 5 9 10 10 11 11 12 12
REMARK SMILES IDX 14 13 13 14 32 15 34 16 36 17 15 18 16 19 29 20 28 21 21 22
REMARK SMILES IDX 17 23 19 24 30 25 31 26 22 28 23 29 24 30 25 31 26 32 27 33
REMARK SMILES IDX 18 34 20 36 33 38 35 40 37 42 38 44 39 45 40 46 7 48 4 50
REMARK SMILES IDX 2 51 1 53 3 54 44 55 46 57 48 59 49 60 50 62 51 63 52 64
REMARK SMILES IDX 53 65 54 66 73 67 55 68 72 69 56 70 57 71 58 72 59 73 60 75
REMARK SMILES IDX 61 76 62 77 63 79 64 80 65 81 68 82 66 83 67 84 69 85 70 86
REMARK SMILES IDX 71 87
REMARK H PARENT 31 27 18 35 20 37 33 39 35 41 37 43 40 47 7 49 4 52 44 56
REMARK H PARENT 46 58 48 61 59 74 62 78
REMARK Flexibility Score: inf
ROOT
ATOM      1  C   UNL     1      20.486  32.453  14.689  1.00  0.00     0.154 C 
ENDROOT
BRANCH   1   2
ATOM      2  C   UNL     1      19.108  32.802  15.141  1.00  0.00     0.165 C 
BRANCH   2   3
ATOM      3  C   UNL     1      18.923  32.992  16.600  1.00  0.00     0.176 C 
BRANCH   3   4
ATOM      4  C   UNL     1      18.719  31.813  17.459  1.00  0.00     0.178 C 
ATOM      5  C   UNL     1      17.799  29.688  17.645  1.00  0.00     0.272 C 
ATOM      6  C   UNL     1      18.827  29.598  18.717  1.00  0.00     0.113 C 
ATOM      7  O   UNL     1      17.881  30.876  16.895  1.00  0.00    -0.332 OA
ATOM      8  C   UNL     1      18.891  30.779  19.627  1.00  0.00     0.145 C 
ATOM      9  C   UNL     1      18.357  32.034  18.879  1.00  0.00     0.142 C 
BRANCH   5  10
ATOM     10  O   UNL     1      16.497  29.527  18.021  1.00  0.00    -0.338 OA
BRANCH  10  11
ATOM     11  C   UNL     1      16.181  28.440  18.773  1.00  0.00     0.199 C 
BRANCH  11  12
ATOM     12  C   UNL     1      15.194  28.751  19.881  1.00  0.00     0.179 C 
ATOM     13  C   UNL     1      15.100  29.393  22.120  1.00  0.00     0.282 C 
ATOM     14  O   UNL     1      15.705  28.634  21.125  1.00  0.00    -0.341 OA
ATOM     15  C   UNL     1      13.611  29.511  21.908  1.00  0.00     0.202 C 
ATOM     16  C   UNL     1      13.288  30.106  20.557  1.00  0.00     0.179 C 
ATOM     17  C   UNL     1      14.516  30.078  19.668  1.00  0.00     0.177 C 
BRANCH  13  18
ATOM     18  O   UNL     1      15.633  30.621  22.284  1.00  0.00    -0.341 OA
BRANCH  18  19
ATOM     19  C   UNL     1      15.912  31.125  23.498  1.00  0.00     0.184 C 
ATOM     20  C   UNL     1      15.691  32.598  23.705  1.00  0.00     0.178 C 
ATOM     21  O   UNL     1      15.609  32.790  25.086  1.00  0.00    -0.341 OA
ATOM     22  C   UNL     1      16.845  32.599  25.694  1.00  0.00     0.281 C 
ATOM     23  C   UNL     1      17.378  30.908  23.904  1.00  0.00     0.180 C 
ATOM     24  C   UNL     1      17.456  31.269  25.370  1.00  0.00     0.202 C 
BRANCH  20  25
ATOM     25  C   UNL     1      14.370  33.006  23.123  1.00  0.00     0.191 C 
BRANCH  25  26
ATOM     26  O   UNL     1      14.480  33.335  21.766  1.00  0.00    -0.394 OA
ATOM     27  H   UNL     1      15.076  34.150  21.755  1.00  0.00     0.210 HD
ENDBRANCH  25  26
ENDBRANCH  20  25
BRANCH  22  28
ATOM     28  O   UNL     1      16.637  32.640  27.071  1.00  0.00    -0.350 OA
BRANCH  28  29
ATOM     29  C   UNL     1      15.397  32.099  27.414  1.00  0.00     0.169 C 
BRANCH  29  30
ATOM     30  C   UNL     1      15.466  31.799  28.913  1.00  0.00     0.119 C 
BRANCH  30  31
ATOM     31  N   UNL     1      16.141  30.534  29.143  1.00  0.00    -0.092 NA
ATOM     32  N   UNL     1      15.780  29.881  30.146  1.00  0.00     0.001 N 
ATOM     33  N   UNL     1      15.285  29.074  30.922  1.00  0.00    -0.003 NA
ENDBRANCH  30  31
ENDBRANCH  29  30
ENDBRANCH  28  29
ENDBRANCH  22  28
BRANCH  23  34
ATOM     34  O   UNL     1      17.737  29.568  23.798  1.00  0.00    -0.387 OA
ATOM     35  H   UNL     1      18.274  29.516  22.945  1.00  0.00     0.211 HD
ENDBRANCH  23  34
BRANCH  24  36
ATOM     36  O   UNL     1      18.762  31.266  25.857  1.00  0.00    -0.385 OA
ATOM     37  H   UNL     1      18.984  30.330  26.138  1.00  0.00     0.211 HD
ENDBRANCH  24  36
ENDBRANCH  18  19
ENDBRANCH  13  18
BRANCH  15  38
ATOM     38  O   UNL     1      12.964  28.281  22.094  1.00  0.00    -0.385 OA
ATOM     39  H   UNL     1      12.056  28.402  21.672  1.00  0.00     0.211 HD
ENDBRANCH  15  38
BRANCH  16  40
ATOM     40  O   UNL     1      12.897  31.437  20.677  1.00  0.00    -0.387 OA
ATOM     41  H   UNL     1      13.204  31.845  21.539  1.00  0.00     0.211 HD
ENDBRANCH  16  40
BRANCH  17  42
ATOM     42  O   UNL     1      15.341  31.167  19.813  1.00  0.00    -0.387 OA
ATOM     43  H   UNL     1      15.088  31.928  19.221  1.00  0.00     0.211 HD
ENDBRANCH  17  42
ENDBRANCH  11  12
ENDBRANCH  10  11
ENDBRANCH   5  10
BRANCH   5  44
ATOM     44  C   UNL     1      18.149  28.630  16.625  1.00  0.00     0.364 C 
ATOM     45  O   UNL     1      17.599  28.718  15.513  1.00  0.00    -0.246 OA
BRANCH  44  46
ATOM     46  O   UNL     1      19.029  27.604  16.873  1.00  0.00    -0.477 OA
ATOM     47  H   UNL     1      19.989  27.627  16.483  1.00  0.00     0.296 HD
ENDBRANCH  44  46
ENDBRANCH   5  44
BRANCH   8  48
ATOM     48  O   UNL     1      18.303  30.664  20.845  1.00  0.00    -0.391 OA
ATOM     49  H   UNL     1      18.133  29.766  21.165  1.00  0.00     0.211 HD
ENDBRANCH   8  48
BRANCH   9  50
ATOM     50  N   UNL     1      18.903  33.160  19.538  1.00  0.00    -0.348 N 
ATOM     51  C   UNL     1      18.112  33.948  20.449  1.00  0.00     0.217 C 
ATOM     52  H   UNL     1      19.881  33.448  19.400  1.00  0.00     0.163 HD
ATOM     53  C   UNL     1      18.665  35.140  21.145  1.00  0.00     0.114 C 
ATOM     54  O   UNL     1      16.927  33.603  20.642  1.00  0.00    -0.275 OA
ENDBRANCH   9  50
ENDBRANCH   3   4
BRANCH   3  55
ATOM     55  O   UNL     1      17.889  33.948  16.764  1.00  0.00    -0.388 OA
ATOM     56  H   UNL     1      18.069  34.433  17.586  1.00  0.00     0.211 HD
ENDBRANCH   3  55
ENDBRANCH   2   3
BRANCH   2  57
ATOM     57  O   UNL     1      18.124  32.112  14.472  1.00  0.00    -0.388 OA
ATOM     58  H   UNL     1      17.724  31.366  14.954  1.00  0.00     0.211 HD
ENDBRANCH   2  57
ENDBRANCH   1   2
BRANCH   1  59
ATOM     59  N   UNL     1      20.874  31.164  15.194  1.00  0.00    -0.319 N 
ATOM     60  C   UNL     1      20.726  29.960  14.461  1.00  0.00     0.407 C 
ATOM     61  H   UNL     1      21.296  31.073  16.165  1.00  0.00     0.167 HD
ATOM     62  O   UNL     1      20.244  30.003  13.310  1.00  0.00    -0.225 OA
BRANCH  60  63
ATOM     63  O   UNL     1      21.079  28.715  14.936  1.00  0.00    -0.443 OA
BRANCH  63  64
ATOM     64  C   UNL     1      22.350  28.455  15.470  1.00  0.00     0.294 C 
BRANCH  64  65
ATOM     65  C   UNL     1      22.407  27.545  16.612  1.00  0.00     0.120 A 
ATOM     66  C   UNL     1      23.122  26.382  16.740  1.00  0.00     0.138 A 
ATOM     67  N   UNL     1      21.742  27.673  17.772  1.00  0.00    -0.132 NA
ATOM     68  N   UNL     1      22.874  25.844  17.958  1.00  0.00    -0.243 N 
ATOM     69  N   UNL     1      22.043  26.632  18.564  1.00  0.00    -0.067 NA
BRANCH  68  70
ATOM     70  C   UNL     1      23.460  24.621  18.493  1.00  0.00     0.245 C 
BRANCH  70  71
ATOM     71  C   UNL     1      23.484  24.703  19.968  1.00  0.00     0.241 C 
ATOM     72  O   UNL     1      24.511  25.142  20.589  1.00  0.00    -0.273 OA
ATOM     73  N   UNL     1      22.381  24.312  20.784  1.00  0.00    -0.352 N 
ATOM     74  H   UNL     1      21.526  23.950  20.329  1.00  0.00     0.163 HD
BRANCH  73  75
ATOM     75  C   UNL     1      22.500  24.433  22.225  1.00  0.00     0.151 C 
BRANCH  75  76
ATOM     76  C   UNL     1      21.537  25.427  22.795  1.00  0.00     0.168 C 
BRANCH  76  77
ATOM     77  O   UNL     1      20.488  25.702  21.937  1.00  0.00    -0.388 OA
ATOM     78  H   UNL     1      20.867  26.112  21.124  1.00  0.00     0.211 HD
ENDBRANCH  76  77
BRANCH  76  79
ATOM     79  C   UNL     1      22.322  26.693  23.105  1.00  0.00     0.239 C 
BRANCH  79  80
ATOM     80  N   UNL     1      21.718  27.448  24.165  1.00  0.00    -0.227 N 
ATOM     81  C   UNL     1      21.818  27.144  25.486  1.00  0.00     0.204 A 
ATOM     82  C   UNL     1      20.941  28.557  24.110  1.00  0.00     0.434 A 
ATOM     83  C   UNL     1      21.107  28.063  26.218  1.00  0.00     0.245 A 
ATOM     84  N   UNL     1      20.575  28.922  25.355  1.00  0.00    -0.074 NA
BRANCH  82  85
ATOM     85  N   UNL     1      20.576  29.245  22.915  1.00  0.00    -0.047 N 
ATOM     86  O   UNL     1      20.697  30.459  22.754  1.00  0.00    -0.390 OA
ATOM     87  O   UNL     1      20.041  28.503  21.871  1.00  0.00    -0.390 OA
ENDBRANCH  82  85
ENDBRANCH  79  80
ENDBRANCH  76  79
ENDBRANCH  75  76
ENDBRANCH  73  75
ENDBRANCH  70  71
ENDBRANCH  68  70
ENDBRANCH  64  65
ENDBRANCH  63  64
ENDBRANCH  60  63
ENDBRANCH   1  59
TORSDOF 37
