REMARK VINA RESULT:    -5.592      2.622      7.374
REMARK INTER + INTRA:         -24.362
REMARK INTER:                 -14.698
REMARK INTRA:                  -9.664
REMARK UNBOUND:                -7.166
REMARK SMILES CC(=O)N[C@@H]1[C@@H](O)C[C@](OC[C@H]2O[C@@H](O[C@H]3[C@H](O)[C@@H](O)[C@H](OCCN=[N+]=[N-])O[C@@H]3CO)[C@H](O)[C@@H](O)[C@H]2O)(C(=O)O)O[C@H]1C(O)[C@H](O)CNC(=O)OCc1cn(CCCCCCCCCCC(=O)O)nn1
REMARK SMILES IDX 51 1 49 2 48 3 50 5 47 6 45 7 43 8 42 9 9 10 8 11 41 12 6 13
REMARK SMILES IDX 5 14 10 15 11 16 12 17 14 18 13 19 32 20 34 21 36 22 15 23
REMARK SMILES IDX 16 24 29 25 28 26 21 27 17 28 19 29 30 30 31 31 22 33 23 34
REMARK SMILES IDX 24 35 25 36 26 37 27 38 18 39 20 41 33 43 35 45 37 47 38 49
REMARK SMILES IDX 39 50 40 51 7 53 4 55 2 56 1 58 3 59 44 60 46 62 52 64 53 65
REMARK SMILES IDX 54 66 70 67 55 68 69 69 56 70 57 71 58 72 59 73 60 74 61 75
REMARK SMILES IDX 62 76 63 77 64 78 65 79 66 80 67 81 68 82
REMARK H PARENT 48 4 31 32 18 40 20 42 33 44 35 46 37 48 40 52 7 54 4 57 44 61
REMARK H PARENT 46 63 68 83
REMARK Flexibility Score: inf
ROOT
ATOM      1  O   UNL     1      21.112  29.578  18.167  1.00  0.00    -0.443 OA
ENDROOT
BRANCH   1   2
ATOM      2  C   UNL     1      20.616  30.888  17.979  1.00  0.00     0.407 C 
ATOM      3  N   UNL     1      19.797  31.502  18.959  1.00  0.00    -0.319 N 
ATOM      4  H   UNL     1      19.559  30.955  19.828  1.00  0.00     0.167 HD
ATOM      5  O   UNL     1      20.890  31.538  16.945  1.00  0.00    -0.225 OA
BRANCH   3   6
ATOM      6  C   UNL     1      19.281  32.829  18.813  1.00  0.00     0.154 C 
BRANCH   6   7
ATOM      7  C   UNL     1      17.759  32.920  18.851  1.00  0.00     0.165 C 
BRANCH   7   8
ATOM      8  C   UNL     1      17.298  32.693  17.454  1.00  0.00     0.176 C 
BRANCH   8   9
ATOM      9  C   UNL     1      16.567  31.396  17.197  1.00  0.00     0.178 C 
ATOM     10  C   UNL     1      14.992  30.017  18.209  1.00  0.00     0.272 C 
ATOM     11  C   UNL     1      15.762  28.854  17.620  1.00  0.00     0.113 C 
ATOM     12  O   UNL     1      15.872  31.076  18.330  1.00  0.00    -0.332 OA
ATOM     13  C   UNL     1      17.233  29.097  17.514  1.00  0.00     0.145 C 
ATOM     14  C   UNL     1      17.460  30.324  16.656  1.00  0.00     0.142 C 
BRANCH  10  15
ATOM     15  O   UNL     1      14.464  29.676  19.466  1.00  0.00    -0.338 OA
BRANCH  15  16
ATOM     16  C   UNL     1      15.067  30.221  20.548  1.00  0.00     0.199 C 
BRANCH  16  17
ATOM     17  C   UNL     1      15.187  29.091  21.593  1.00  0.00     0.179 C 
ATOM     18  C   UNL     1      16.344  29.962  23.464  1.00  0.00     0.282 C 
ATOM     19  O   UNL     1      16.282  29.184  22.357  1.00  0.00    -0.341 OA
ATOM     20  C   UNL     1      15.025  30.417  23.961  1.00  0.00     0.202 C 
ATOM     21  C   UNL     1      14.016  29.288  23.787  1.00  0.00     0.179 C 
ATOM     22  C   UNL     1      13.873  28.924  22.323  1.00  0.00     0.177 C 
BRANCH  18  23
ATOM     23  O   UNL     1      17.236  31.022  23.162  1.00  0.00    -0.341 OA
BRANCH  23  24
ATOM     24  C   UNL     1      18.480  30.673  23.672  1.00  0.00     0.184 C 
ATOM     25  C   UNL     1      19.070  31.649  24.636  1.00  0.00     0.178 C 
ATOM     26  O   UNL     1      20.354  31.309  24.944  1.00  0.00    -0.341 OA
ATOM     27  C   UNL     1      20.875  30.133  24.551  1.00  0.00     0.281 C 
ATOM     28  C   UNL     1      19.491  30.546  22.520  1.00  0.00     0.180 C 
ATOM     29  C   UNL     1      20.677  29.803  23.090  1.00  0.00     0.202 C 
BRANCH  25  30
ATOM     30  C   UNL     1      18.260  31.810  25.909  1.00  0.00     0.191 C 
BRANCH  30  31
ATOM     31  O   UNL     1      17.168  32.626  25.772  1.00  0.00    -0.394 OA
ATOM     32  H   UNL     1      16.569  32.483  26.550  1.00  0.00     0.210 HD
ENDBRANCH  30  31
ENDBRANCH  25  30
BRANCH  27  33
ATOM     33  O   UNL     1      20.342  29.095  25.303  1.00  0.00    -0.350 OA
BRANCH  33  34
ATOM     34  C   UNL     1      21.323  28.208  25.746  1.00  0.00     0.169 C 
BRANCH  34  35
ATOM     35  C   UNL     1      22.641  28.891  25.975  1.00  0.00     0.119 C 
BRANCH  35  36
ATOM     36  N   UNL     1      23.702  28.062  25.400  1.00  0.00    -0.092 NA
ATOM     37  N   UNL     1      23.926  28.076  24.170  1.00  0.00     0.001 N 
ATOM     38  N   UNL     1      23.913  28.272  22.935  1.00  0.00    -0.003 NA
ENDBRANCH  35  36
ENDBRANCH  34  35
ENDBRANCH  33  34
ENDBRANCH  27  33
BRANCH  28  39
ATOM     39  O   UNL     1      18.982  29.857  21.441  1.00  0.00    -0.387 OA
ATOM     40  H   UNL     1      19.623  29.218  21.039  1.00  0.00     0.211 HD
ENDBRANCH  28  39
BRANCH  29  41
ATOM     41  O   UNL     1      21.808  30.237  22.405  1.00  0.00    -0.385 OA
ATOM     42  H   UNL     1      22.171  31.034  22.903  1.00  0.00     0.211 HD
ENDBRANCH  29  41
ENDBRANCH  23  24
ENDBRANCH  18  23
BRANCH  20  43
ATOM     43  O   UNL     1      15.028  30.682  25.338  1.00  0.00    -0.385 OA
ATOM     44  H   UNL     1      14.803  31.656  25.423  1.00  0.00     0.211 HD
ENDBRANCH  20  43
BRANCH  21  45
ATOM     45  O   UNL     1      12.773  29.656  24.299  1.00  0.00    -0.387 OA
ATOM     46  H   UNL     1      12.720  29.267  25.208  1.00  0.00     0.211 HD
ENDBRANCH  21  45
BRANCH  22  47
ATOM     47  O   UNL     1      12.914  29.741  21.777  1.00  0.00    -0.387 OA
ATOM     48  H   UNL     1      12.747  29.450  20.844  1.00  0.00     0.211 HD
ENDBRANCH  22  47
ENDBRANCH  16  17
ENDBRANCH  15  16
ENDBRANCH  10  15
BRANCH  10  49
ATOM     49  C   UNL     1      13.826  30.375  17.397  1.00  0.00     0.364 C 
ATOM     50  O   UNL     1      13.228  31.458  17.515  1.00  0.00    -0.246 OA
BRANCH  49  51
ATOM     51  O   UNL     1      13.336  29.497  16.445  1.00  0.00    -0.477 OA
ATOM     52  H   UNL     1      13.319  29.725  15.448  1.00  0.00     0.296 HD
ENDBRANCH  49  51
ENDBRANCH  10  49
BRANCH  13  53
ATOM     53  O   UNL     1      17.917  29.151  18.708  1.00  0.00    -0.391 OA
ATOM     54  H   UNL     1      17.529  29.796  19.367  1.00  0.00     0.211 HD
ENDBRANCH  13  53
BRANCH  14  55
ATOM     55  N   UNL     1      17.211  29.951  15.303  1.00  0.00    -0.348 N 
ATOM     56  C   UNL     1      18.194  29.418  14.421  1.00  0.00     0.217 C 
ATOM     57  H   UNL     1      16.254  30.061  14.889  1.00  0.00     0.163 HD
ATOM     58  C   UNL     1      17.859  29.055  13.033  1.00  0.00     0.114 C 
ATOM     59  O   UNL     1      19.347  29.269  14.864  1.00  0.00    -0.275 OA
ENDBRANCH  14  55
ENDBRANCH   8   9
BRANCH   8  60
ATOM     60  O   UNL     1      18.335  32.940  16.596  1.00  0.00    -0.388 OA
ATOM     61  H   UNL     1      19.223  32.836  16.972  1.00  0.00     0.211 HD
ENDBRANCH   8  60
ENDBRANCH   7   8
BRANCH   7  62
ATOM     62  O   UNL     1      17.442  34.169  19.374  1.00  0.00    -0.388 OA
ATOM     63  H   UNL     1      18.233  34.755  19.445  1.00  0.00     0.211 HD
ENDBRANCH   7  62
ENDBRANCH   6   7
ENDBRANCH   3   6
ENDBRANCH   1   2
BRANCH   1  64
ATOM     64  C   UNL     1      22.045  29.399  19.242  1.00  0.00     0.294 C 
BRANCH  64  65
ATOM     65  C   UNL     1      21.893  28.009  19.721  1.00  0.00     0.120 A 
ATOM     66  C   UNL     1      22.719  26.956  19.373  1.00  0.00     0.138 A 
ATOM     67  N   UNL     1      20.969  27.519  20.559  1.00  0.00    -0.132 NA
ATOM     68  N   UNL     1      22.250  25.874  20.023  1.00  0.00    -0.252 N 
ATOM     69  N   UNL     1      21.175  26.245  20.745  1.00  0.00    -0.067 NA
BRANCH  68  70
ATOM     70  C   UNL     1      22.746  24.533  20.010  1.00  0.00     0.146 C 
BRANCH  70  71
ATOM     71  C   UNL     1      22.792  23.843  21.327  1.00  0.00     0.024 C 
BRANCH  71  72
ATOM     72  C   UNL     1      24.004  24.086  22.157  1.00  0.00     0.002 C 
BRANCH  72  73
ATOM     73  C   UNL     1      23.755  24.558  23.547  1.00  0.00     0.000 C 
BRANCH  73  74
ATOM     74  C   UNL     1      22.357  24.979  23.846  1.00  0.00     0.000 C 
BRANCH  74  75
ATOM     75  C   UNL     1      21.983  24.580  25.247  1.00  0.00     0.000 C 
BRANCH  75  76
ATOM     76  C   UNL     1      23.150  24.620  26.209  1.00  0.00     0.000 C 
BRANCH  76  77
ATOM     77  C   UNL     1      22.771  24.295  27.616  1.00  0.00     0.001 C 
BRANCH  77  78
ATOM     78  C   UNL     1      22.374  25.474  28.449  1.00  0.00     0.012 C 
BRANCH  78  79
ATOM     79  C   UNL     1      23.596  26.357  28.638  1.00  0.00     0.122 C 
BRANCH  79  80
ATOM     80  C   UNL     1      24.495  25.725  29.618  1.00  0.00     0.303 C 
ATOM     81  O   UNL     1      24.077  25.398  30.749  1.00  0.00    -0.252 OA
BRANCH  80  82
ATOM     82  O   UNL     1      25.828  25.476  29.321  1.00  0.00    -0.481 OA
ATOM     83  H   UNL     1      26.357  24.764  29.791  1.00  0.00     0.296 HD
ENDBRANCH  80  82
ENDBRANCH  79  80
ENDBRANCH  78  79
ENDBRANCH  77  78
ENDBRANCH  76  77
ENDBRANCH  75  76
ENDBRANCH  74  75
ENDBRANCH  73  74
ENDBRANCH  72  73
ENDBRANCH  71  72
ENDBRANCH  70  71
ENDBRANCH  68  70
ENDBRANCH  64  65
ENDBRANCH   1  64
TORSDOF 41
