REMARK VINA RESULT:    -4.929      3.033     10.688
REMARK INTER + INTRA:         -22.476
REMARK INTER:                 -14.416
REMARK INTRA:                  -8.059
REMARK UNBOUND:                -9.623
REMARK SMILES CC(=O)N[C@@H]1[C@@H](O)C[C@](OC[C@H]2O[C@@H](O[C@H]3[C@H](O)[C@@H](O)[C@H](OCCN=[N+]=[N-])O[C@@H]3CO)[C@H](O)[C@@H](O)[C@H]2O)(C(=O)O)O[C@H]1C(O)[C@H](O)CNC(=O)OCc1cn(Cc2ccc(C(=O)O)cc2)nn1
REMARK SMILES IDX 43 1 42 2 9 3 8 4 41 5 6 6 5 7 10 8 11 9 12 10 14 11 13 12
REMARK SMILES IDX 32 13 34 14 36 15 15 16 16 17 29 18 28 19 21 20 17 21 19 22
REMARK SMILES IDX 30 23 31 24 22 26 23 27 24 28 25 29 26 30 27 31 18 32 20 34
REMARK SMILES IDX 33 36 35 38 37 40 38 42 39 43 40 44 7 46 4 48 2 49 1 51 3 52
REMARK SMILES IDX 44 53 45 55 46 56 47 58 48 59 49 60 50 62 51 63 52 64 53 65
REMARK SMILES IDX 54 66 67 67 55 68 66 69 56 70 57 71 58 72 65 73 59 74 64 75
REMARK SMILES IDX 60 76 61 77 62 78 63 79
REMARK H PARENT 31 25 18 33 20 35 33 37 35 39 37 41 40 45 7 47 4 50 44 54
REMARK H PARENT 46 57 48 61 63 80
REMARK Flexibility Score: inf
ROOT
ATOM      1  C   UNL     1      21.409  28.109  24.070  1.00  0.00     0.176 C 
ENDROOT
BRANCH   1   2
ATOM      2  C   UNL     1      22.358  26.891  24.078  1.00  0.00     0.178 C 
ATOM      3  C   UNL     1      23.270  25.616  22.305  1.00  0.00     0.272 C 
ATOM      4  C   UNL     1      22.649  24.416  22.900  1.00  0.00     0.113 C 
ATOM      5  O   UNL     1      22.846  26.809  22.832  1.00  0.00    -0.332 OA
ATOM      6  C   UNL     1      21.330  24.701  23.588  1.00  0.00     0.145 C 
ATOM      7  C   UNL     1      21.604  25.749  24.627  1.00  0.00     0.142 C 
BRANCH   3   8
ATOM      8  O   UNL     1      23.019  25.700  20.961  1.00  0.00    -0.338 OA
BRANCH   8   9
ATOM      9  C   UNL     1      22.938  24.579  20.215  1.00  0.00     0.199 C 
BRANCH   9  10
ATOM     10  C   UNL     1      22.904  24.942  18.711  1.00  0.00     0.179 C 
ATOM     11  C   UNL     1      22.417  26.729  17.296  1.00  0.00     0.282 C 
ATOM     12  O   UNL     1      22.339  26.177  18.574  1.00  0.00    -0.341 OA
ATOM     13  C   UNL     1      22.900  25.787  16.252  1.00  0.00     0.202 C 
ATOM     14  C   UNL     1      24.244  25.243  16.688  1.00  0.00     0.179 C 
ATOM     15  C   UNL     1      24.294  24.865  18.135  1.00  0.00     0.177 C 
BRANCH  11  16
ATOM     16  O   UNL     1      23.234  27.857  17.368  1.00  0.00    -0.341 OA
BRANCH  16  17
ATOM     17  C   UNL     1      22.797  28.747  18.305  1.00  0.00     0.184 C 
ATOM     18  C   UNL     1      22.293  30.011  17.712  1.00  0.00     0.178 C 
ATOM     19  O   UNL     1      21.612  30.780  18.667  1.00  0.00    -0.341 OA
ATOM     20  C   UNL     1      22.291  30.776  19.888  1.00  0.00     0.281 C 
ATOM     21  C   UNL     1      24.007  29.056  19.208  1.00  0.00     0.180 C 
ATOM     22  C   UNL     1      23.747  30.436  19.775  1.00  0.00     0.202 C 
BRANCH  18  23
ATOM     23  C   UNL     1      21.340  29.729  16.585  1.00  0.00     0.191 C 
BRANCH  23  24
ATOM     24  O   UNL     1      20.068  29.585  17.186  1.00  0.00    -0.394 OA
ATOM     25  H   UNL     1      19.892  30.332  17.790  1.00  0.00     0.210 HD
ENDBRANCH  23  24
ENDBRANCH  18  23
BRANCH  20  26
ATOM     26  O   UNL     1      21.627  29.953  20.768  1.00  0.00    -0.350 OA
BRANCH  26  27
ATOM     27  C   UNL     1      20.255  30.049  20.738  1.00  0.00     0.169 C 
BRANCH  27  28
ATOM     28  C   UNL     1      19.520  28.754  20.642  1.00  0.00     0.119 C 
BRANCH  28  29
ATOM     29  N   UNL     1      18.428  28.962  19.678  1.00  0.00    -0.092 NA
ATOM     30  N   UNL     1      17.370  28.346  19.737  1.00  0.00     0.001 N 
ATOM     31  N   UNL     1      16.474  27.530  19.924  1.00  0.00    -0.003 NA
ENDBRANCH  28  29
ENDBRANCH  27  28
ENDBRANCH  26  27
ENDBRANCH  20  26
BRANCH  21  32
ATOM     32  O   UNL     1      24.120  28.107  20.200  1.00  0.00    -0.387 OA
ATOM     33  H   UNL     1      23.653  28.400  21.048  1.00  0.00     0.211 HD
ENDBRANCH  21  32
BRANCH  22  34
ATOM     34  O   UNL     1      24.445  31.374  19.050  1.00  0.00    -0.385 OA
ATOM     35  H   UNL     1      24.046  32.261  19.096  1.00  0.00     0.211 HD
ENDBRANCH  22  34
ENDBRANCH  16  17
ENDBRANCH  11  16
BRANCH  13  36
ATOM     36  O   UNL     1      21.999  24.732  16.042  1.00  0.00    -0.385 OA
ATOM     37  H   UNL     1      21.492  24.633  16.894  1.00  0.00     0.211 HD
ENDBRANCH  13  36
BRANCH  14  38
ATOM     38  O   UNL     1      25.271  26.147  16.411  1.00  0.00    -0.387 OA
ATOM     39  H   UNL     1      25.852  25.744  15.707  1.00  0.00     0.211 HD
ENDBRANCH  14  38
BRANCH  15  40
ATOM     40  O   UNL     1      25.197  25.655  18.859  1.00  0.00    -0.387 OA
ATOM     41  H   UNL     1      24.917  26.600  18.736  1.00  0.00     0.211 HD
ENDBRANCH  15  40
ENDBRANCH   9  10
ENDBRANCH   8   9
ENDBRANCH   3   8
BRANCH   3  42
ATOM     42  C   UNL     1      24.755  25.562  22.570  1.00  0.00     0.364 C 
ATOM     43  O   UNL     1      25.212  24.882  23.523  1.00  0.00    -0.246 OA
BRANCH  42  44
ATOM     44  O   UNL     1      25.661  26.251  21.780  1.00  0.00    -0.477 OA
ATOM     45  H   UNL     1      25.286  27.014  21.196  1.00  0.00     0.296 HD
ENDBRANCH  42  44
ENDBRANCH   3  42
BRANCH   6  46
ATOM     46  O   UNL     1      20.429  25.085  22.620  1.00  0.00    -0.391 OA
ATOM     47  H   UNL     1      20.793  25.854  22.107  1.00  0.00     0.211 HD
ENDBRANCH   6  46
BRANCH   7  48
ATOM     48  N   UNL     1      22.368  25.135  25.705  1.00  0.00    -0.348 N 
ATOM     49  C   UNL     1      22.285  25.628  27.054  1.00  0.00     0.217 C 
ATOM     50  H   UNL     1      23.009  24.323  25.581  1.00  0.00     0.163 HD
ATOM     51  C   UNL     1      23.085  24.970  28.133  1.00  0.00     0.114 C 
ATOM     52  O   UNL     1      21.544  26.597  27.288  1.00  0.00    -0.275 OA
ENDBRANCH   7  48
ENDBRANCH   1   2
BRANCH   1  53
ATOM     53  O   UNL     1      20.163  27.841  24.535  1.00  0.00    -0.388 OA
ATOM     54  H   UNL     1      20.049  27.828  25.510  1.00  0.00     0.211 HD
ENDBRANCH   1  53
BRANCH   1  55
ATOM     55  C   UNL     1      22.055  29.309  24.720  1.00  0.00     0.165 C 
BRANCH  55  56
ATOM     56  O   UNL     1      22.098  29.126  26.065  1.00  0.00    -0.388 OA
ATOM     57  H   UNL     1      22.932  28.773  26.430  1.00  0.00     0.211 HD
ENDBRANCH  55  56
BRANCH  55  58
ATOM     58  C   UNL     1      21.461  30.558  24.192  1.00  0.00     0.154 C 
BRANCH  58  59
ATOM     59  N   UNL     1      20.047  30.637  24.435  1.00  0.00    -0.319 N 
ATOM     60  C   UNL     1      19.470  31.183  25.603  1.00  0.00     0.407 C 
ATOM     61  H   UNL     1      19.372  30.269  23.710  1.00  0.00     0.167 HD
ATOM     62  O   UNL     1      20.158  31.646  26.525  1.00  0.00    -0.225 OA
BRANCH  60  63
ATOM     63  O   UNL     1      18.077  31.245  25.806  1.00  0.00    -0.443 OA
BRANCH  63  64
ATOM     64  C   UNL     1      17.256  31.897  24.854  1.00  0.00     0.294 C 
BRANCH  64  65
ATOM     65  C   UNL     1      16.555  30.955  23.964  1.00  0.00     0.120 A 
ATOM     66  C   UNL     1      15.400  31.120  23.251  1.00  0.00     0.138 A 
ATOM     67  N   UNL     1      16.974  29.698  23.725  1.00  0.00    -0.132 NA
ATOM     68  N   UNL     1      15.150  29.961  22.602  1.00  0.00    -0.248 N 
ATOM     69  N   UNL     1      16.118  29.117  22.906  1.00  0.00    -0.067 NA
BRANCH  68  70
ATOM     70  C   UNL     1      14.016  29.726  21.745  1.00  0.00     0.181 C 
BRANCH  70  71
ATOM     71  C   UNL     1      12.820  30.421  22.259  1.00  0.00    -0.026 A 
ATOM     72  C   UNL     1      12.192  29.960  23.396  1.00  0.00     0.006 A 
ATOM     73  C   UNL     1      12.309  31.530  21.590  1.00  0.00     0.006 A 
ATOM     74  C   UNL     1      11.065  30.646  23.813  1.00  0.00     0.016 A 
ATOM     75  C   UNL     1      11.186  32.207  22.010  1.00  0.00     0.016 A 
ATOM     76  C   UNL     1      10.562  31.745  23.146  1.00  0.00     0.059 A 
BRANCH  76  77
ATOM     77  C   UNL     1       9.369  32.419  23.634  1.00  0.00     0.335 C 
ATOM     78  O   UNL     1       8.443  32.689  22.857  1.00  0.00    -0.246 OA
BRANCH  77  79
ATOM     79  O   UNL     1       9.272  32.758  24.965  1.00  0.00    -0.478 OA
ATOM     80  H   UNL     1      10.016  33.252  25.455  1.00  0.00     0.297 HD
ENDBRANCH  77  79
ENDBRANCH  76  77
ENDBRANCH  70  71
ENDBRANCH  68  70
ENDBRANCH  64  65
ENDBRANCH  63  64
ENDBRANCH  60  63
ENDBRANCH  58  59
ENDBRANCH  55  58
ENDBRANCH   1  55
TORSDOF 33
