REMARK VINA RESULT:    -4.695     15.126     20.352
REMARK INTER + INTRA:         -20.498
REMARK INTER:                 -12.380
REMARK INTRA:                  -8.118
REMARK UNBOUND:                -8.118
REMARK SMILES CC(=O)N[C@@H]1[C@@H](O)C[C@](OC[C@H]2O[C@@H](O[C@H]3[C@H](O)[C@@H](O)[C@H](OCCN=[N+]=[N-])O[C@@H]3CO)[C@H](O)[C@@H](O)[C@H]2O)(C(=O)O)O[C@H]1C(O)[C@H](O)CNC(=O)OCc1cn(CCOC(C)=O)nn1
REMARK SMILES IDX 43 1 42 2 9 3 8 4 41 5 6 6 5 7 10 8 11 9 12 10 14 11 13 12
REMARK SMILES IDX 32 13 34 14 36 15 15 16 16 17 29 18 28 19 21 20 17 21 19 22
REMARK SMILES IDX 30 23 31 24 22 26 23 27 24 28 25 29 26 30 27 31 18 32 20 34
REMARK SMILES IDX 33 36 35 38 37 40 38 42 39 43 40 44 7 46 4 48 2 49 1 51 3 52
REMARK SMILES IDX 44 53 45 55 46 56 47 58 48 59 49 60 50 62 51 63 52 64 53 65
REMARK SMILES IDX 54 66 63 67 55 68 62 69 56 70 57 71 58 72 59 73 61 74 60 75
REMARK H PARENT 31 25 18 33 20 35 33 37 35 39 37 41 40 45 7 47 4 50 44 54
REMARK H PARENT 46 57 48 61
REMARK Flexibility Score: inf
ROOT
ATOM      1  C   UNL     1      19.007  28.880  20.480  1.00  0.00     0.176 C 
ENDROOT
BRANCH   1   2
ATOM      2  C   UNL     1      19.663  29.681  21.574  1.00  0.00     0.178 C 
ATOM      3  C   UNL     1      21.147  29.317  23.370  1.00  0.00     0.272 C 
ATOM      4  C   UNL     1      20.996  30.818  23.438  1.00  0.00     0.113 C 
ATOM      5  O   UNL     1      20.561  28.783  22.191  1.00  0.00    -0.332 OA
ATOM      6  C   UNL     1      19.580  31.268  23.378  1.00  0.00     0.145 C 
ATOM      7  C   UNL     1      18.761  30.150  22.673  1.00  0.00     0.142 C 
BRANCH   3   8
ATOM      8  O   UNL     1      20.672  28.612  24.367  1.00  0.00    -0.338 OA
BRANCH   8   9
ATOM      9  C   UNL     1      21.030  28.492  25.614  1.00  0.00     0.199 C 
BRANCH   9  10
ATOM     10  C   UNL     1      21.717  27.347  26.227  1.00  0.00     0.179 C 
ATOM     11  C   UNL     1      22.199  25.140  25.772  1.00  0.00     0.282 C 
ATOM     12  O   UNL     1      21.994  26.392  25.174  1.00  0.00    -0.341 OA
ATOM     13  C   UNL     1      23.013  25.175  26.997  1.00  0.00     0.202 C 
ATOM     14  C   UNL     1      23.661  26.464  27.362  1.00  0.00     0.179 C 
ATOM     15  C   UNL     1      23.157  27.680  26.665  1.00  0.00     0.177 C 
BRANCH  11  16
ATOM     16  O   UNL     1      22.628  24.287  24.769  1.00  0.00    -0.341 OA
BRANCH  16  17
ATOM     17  C   UNL     1      23.234  24.935  23.723  1.00  0.00     0.184 C 
ATOM     18  C   UNL     1      22.724  24.381  22.413  1.00  0.00     0.178 C 
ATOM     19  O   UNL     1      23.370  25.124  21.416  1.00  0.00    -0.341 OA
ATOM     20  C   UNL     1      24.655  24.691  21.280  1.00  0.00     0.281 C 
ATOM     21  C   UNL     1      24.748  24.813  23.779  1.00  0.00     0.180 C 
ATOM     22  C   UNL     1      25.309  24.186  22.545  1.00  0.00     0.202 C 
BRANCH  18  23
ATOM     23  C   UNL     1      21.230  24.616  22.295  1.00  0.00     0.191 C 
BRANCH  23  24
ATOM     24  O   UNL     1      20.945  25.948  22.531  1.00  0.00    -0.394 OA
ATOM     25  H   UNL     1      20.230  25.956  23.235  1.00  0.00     0.210 HD
ENDBRANCH  23  24
ENDBRANCH  18  23
BRANCH  20  26
ATOM     26  O   UNL     1      25.396  25.739  20.717  1.00  0.00    -0.350 OA
BRANCH  26  27
ATOM     27  C   UNL     1      25.470  25.620  19.334  1.00  0.00     0.169 C 
BRANCH  27  28
ATOM     28  C   UNL     1      25.376  27.052  18.794  1.00  0.00     0.119 C 
BRANCH  28  29
ATOM     29  N   UNL     1      24.078  27.588  19.164  1.00  0.00    -0.092 NA
ATOM     30  N   UNL     1      23.017  27.083  18.776  1.00  0.00     0.001 N 
ATOM     31  N   UNL     1      22.002  26.838  18.097  1.00  0.00    -0.003 NA
ENDBRANCH  28  29
ENDBRANCH  27  28
ENDBRANCH  26  27
ENDBRANCH  20  26
BRANCH  21  32
ATOM     32  O   UNL     1      25.381  26.016  24.066  1.00  0.00    -0.387 OA
ATOM     33  H   UNL     1      24.763  26.786  24.130  1.00  0.00     0.211 HD
ENDBRANCH  21  32
BRANCH  22  34
ATOM     34  O   UNL     1      25.314  22.809  22.647  1.00  0.00    -0.385 OA
ATOM     35  H   UNL     1      26.253  22.510  22.819  1.00  0.00     0.211 HD
ENDBRANCH  22  34
ENDBRANCH  16  17
ENDBRANCH  11  16
BRANCH  13  36
ATOM     36  O   UNL     1      22.320  24.620  28.106  1.00  0.00    -0.385 OA
ATOM     37  H   UNL     1      21.523  25.142  28.335  1.00  0.00     0.211 HD
ENDBRANCH  13  36
BRANCH  14  38
ATOM     38  O   UNL     1      25.052  26.413  27.180  1.00  0.00    -0.387 OA
ATOM     39  H   UNL     1      25.473  26.262  28.077  1.00  0.00     0.211 HD
ENDBRANCH  14  38
BRANCH  15  40
ATOM     40  O   UNL     1      23.931  27.823  25.480  1.00  0.00    -0.387 OA
ATOM     41  H   UNL     1      23.427  27.513  24.701  1.00  0.00     0.211 HD
ENDBRANCH  15  40
ENDBRANCH   9  10
ENDBRANCH   8   9
ENDBRANCH   3   8
BRANCH   3  42
ATOM     42  C   UNL     1      22.592  29.089  23.087  1.00  0.00     0.364 C 
ATOM     43  O   UNL     1      23.078  28.113  22.485  1.00  0.00    -0.246 OA
BRANCH  42  44
ATOM     44  O   UNL     1      23.545  30.035  23.521  1.00  0.00    -0.477 OA
ATOM     45  H   UNL     1      23.898  30.705  22.855  1.00  0.00     0.296 HD
ENDBRANCH  42  44
ENDBRANCH   3  42
BRANCH   6  46
ATOM     46  O   UNL     1      19.010  31.602  24.585  1.00  0.00    -0.391 OA
ATOM     47  H   UNL     1      18.189  32.150  24.497  1.00  0.00     0.211 HD
ENDBRANCH   6  46
BRANCH   7  48
ATOM     48  N   UNL     1      17.485  30.667  22.308  1.00  0.00    -0.348 N 
ATOM     49  C   UNL     1      16.338  30.496  23.126  1.00  0.00     0.217 C 
ATOM     50  H   UNL     1      17.387  31.206  21.433  1.00  0.00     0.163 HD
ATOM     51  C   UNL     1      15.001  31.041  22.736  1.00  0.00     0.114 C 
ATOM     52  O   UNL     1      16.393  29.872  24.230  1.00  0.00    -0.275 OA
ENDBRANCH   7  48
ENDBRANCH   1   2
BRANCH   1  53
ATOM     53  O   UNL     1      19.901  27.785  20.258  1.00  0.00    -0.388 OA
ATOM     54  H   UNL     1      20.070  27.678  19.299  1.00  0.00     0.211 HD
ENDBRANCH   1  53
BRANCH   1  55
ATOM     55  C   UNL     1      19.047  29.644  19.178  1.00  0.00     0.165 C 
BRANCH  55  56
ATOM     56  O   UNL     1      17.875  30.408  19.058  1.00  0.00    -0.388 OA
ATOM     57  H   UNL     1      18.122  31.298  18.733  1.00  0.00     0.211 HD
ENDBRANCH  55  56
BRANCH  55  58
ATOM     58  C   UNL     1      19.260  28.768  17.984  1.00  0.00     0.154 C 
BRANCH  58  59
ATOM     59  N   UNL     1      18.224  28.799  17.000  1.00  0.00    -0.319 N 
ATOM     60  C   UNL     1      18.466  28.792  15.613  1.00  0.00     0.407 C 
ATOM     61  H   UNL     1      17.193  28.827  17.275  1.00  0.00     0.167 HD
ATOM     62  O   UNL     1      19.616  28.748  15.127  1.00  0.00    -0.225 OA
BRANCH  60  63
ATOM     63  O   UNL     1      17.419  28.839  14.679  1.00  0.00    -0.443 OA
BRANCH  63  64
ATOM     64  C   UNL     1      16.990  30.032  14.086  1.00  0.00     0.294 C 
BRANCH  64  65
ATOM     65  C   UNL     1      15.915  30.691  14.878  1.00  0.00     0.120 A 
ATOM     66  C   UNL     1      15.087  30.018  15.760  1.00  0.00     0.138 A 
ATOM     67  N   UNL     1      15.536  31.964  14.926  1.00  0.00    -0.132 NA
ATOM     68  N   UNL     1      14.253  30.915  16.294  1.00  0.00    -0.249 N 
ATOM     69  N   UNL     1      14.543  32.093  15.773  1.00  0.00    -0.067 NA
BRANCH  68  70
ATOM     70  C   UNL     1      13.185  30.663  17.273  1.00  0.00     0.187 C 
BRANCH  70  71
ATOM     71  C   UNL     1      13.622  31.142  18.640  1.00  0.00     0.256 C 
BRANCH  71  72
ATOM     72  O   UNL     1      14.856  30.510  18.962  1.00  0.00    -0.464 OA
BRANCH  72  73
ATOM     73  C   UNL     1      14.876  29.206  19.447  1.00  0.00     0.302 C 
ATOM     74  O   UNL     1      15.674  28.394  18.922  1.00  0.00    -0.253 OA
ATOM     75  C   UNL     1      13.983  28.753  20.564  1.00  0.00     0.139 C 
ENDBRANCH  72  73
ENDBRANCH  71  72
ENDBRANCH  70  71
ENDBRANCH  68  70
ENDBRANCH  64  65
ENDBRANCH  63  64
ENDBRANCH  60  63
ENDBRANCH  58  59
ENDBRANCH  55  58
ENDBRANCH   1  55
TORSDOF 33
