REMARK VINA RESULT:    -6.471     11.806     18.118
REMARK INTER + INTRA:         -22.527
REMARK INTER:                 -15.228
REMARK INTRA:                  -7.299
REMARK UNBOUND:                -5.463
REMARK SMILES CC(=O)N[C@@H]1[C@@H](O)C[C@](OC[C@H]2O[C@@H](O[C@H]3[C@H](O)[C@@H](O)[C@H](OCCN=[N+]=[N-])O[C@@H]3CO)[C@H](O)[C@@H](O)[C@H]2O)(C(=O)O)O[C@H]1C(O)[C@H](O)CNC(=O)OCc1cn(COCc2ccccc2)nn1
REMARK SMILES IDX 43 1 42 2 9 3 8 4 41 5 6 6 5 7 10 8 11 9 12 10 14 11 13 12
REMARK SMILES IDX 32 13 34 14 36 15 15 16 16 17 29 18 28 19 21 20 17 21 19 22
REMARK SMILES IDX 30 23 31 24 22 26 23 27 24 28 25 29 26 30 27 31 18 32 20 34
REMARK SMILES IDX 33 36 35 38 37 40 38 42 39 43 40 44 7 46 4 48 2 49 1 51 3 52
REMARK SMILES IDX 44 53 45 55 46 56 47 58 48 59 49 60 50 62 51 63 52 64 53 65
REMARK SMILES IDX 54 66 66 67 55 68 65 69 56 70 57 71 58 72 59 73 60 74 64 75
REMARK SMILES IDX 61 76 63 77 62 78
REMARK H PARENT 31 25 18 33 20 35 33 37 35 39 37 41 40 45 7 47 4 50 44 54
REMARK H PARENT 46 57 48 61
REMARK Flexibility Score: inf
ROOT
ATOM      1  C   UNL     1      10.763  31.080  33.500  1.00  0.00     0.176 C 
ENDROOT
BRANCH   1   2
ATOM      2  C   UNL     1      11.406  29.679  33.613  1.00  0.00     0.178 C 
ATOM      3  C   UNL     1      11.029  27.745  34.845  1.00  0.00     0.272 C 
ATOM      4  C   UNL     1      12.534  27.585  35.033  1.00  0.00     0.113 C 
ATOM      5  O   UNL     1      10.811  29.083  34.726  1.00  0.00    -0.332 OA
ATOM      6  C   UNL     1      13.179  28.946  35.144  1.00  0.00     0.145 C 
ATOM      7  C   UNL     1      12.882  29.751  33.841  1.00  0.00     0.142 C 
BRANCH   3   8
ATOM      8  O   UNL     1      10.351  27.220  35.964  1.00  0.00    -0.338 OA
BRANCH   8   9
ATOM      9  C   UNL     1      11.099  26.781  36.988  1.00  0.00     0.199 C 
BRANCH   9  10
ATOM     10  C   UNL     1      10.586  25.452  37.489  1.00  0.00     0.179 C 
ATOM     11  C   UNL     1       9.089  23.769  37.232  1.00  0.00     0.282 C 
ATOM     12  O   UNL     1       9.535  24.988  36.671  1.00  0.00    -0.341 OA
ATOM     13  C   UNL     1      10.085  22.654  36.930  1.00  0.00     0.202 C 
ATOM     14  C   UNL     1      11.383  23.363  36.516  1.00  0.00     0.179 C 
ATOM     15  C   UNL     1      11.631  24.402  37.590  1.00  0.00     0.177 C 
BRANCH  11  16
ATOM     16  O   UNL     1       7.902  23.445  36.635  1.00  0.00    -0.341 OA
BRANCH  16  17
ATOM     17  C   UNL     1       7.627  24.179  35.490  1.00  0.00     0.184 C 
ATOM     18  C   UNL     1       6.209  24.617  35.391  1.00  0.00     0.178 C 
ATOM     19  O   UNL     1       5.414  23.550  35.103  1.00  0.00    -0.341 OA
ATOM     20  C   UNL     1       5.587  23.011  33.850  1.00  0.00     0.281 C 
ATOM     21  C   UNL     1       8.053  23.397  34.296  1.00  0.00     0.180 C 
ATOM     22  C   UNL     1       6.985  22.931  33.377  1.00  0.00     0.202 C 
BRANCH  18  23
ATOM     23  C   UNL     1       6.094  25.758  34.407  1.00  0.00     0.191 C 
BRANCH  23  24
ATOM     24  O   UNL     1       7.101  26.709  34.612  1.00  0.00    -0.394 OA
ATOM     25  H   UNL     1       7.986  26.272  34.535  1.00  0.00     0.210 HD
ENDBRANCH  23  24
ENDBRANCH  18  23
BRANCH  20  26
ATOM     26  O   UNL     1       4.851  23.804  32.962  1.00  0.00    -0.350 OA
BRANCH  26  27
ATOM     27  C   UNL     1       3.501  23.564  32.979  1.00  0.00     0.169 C 
BRANCH  27  28
ATOM     28  C   UNL     1       3.265  22.324  32.133  1.00  0.00     0.119 C 
BRANCH  28  29
ATOM     29  N   UNL     1       2.404  22.590  31.003  1.00  0.00    -0.092 NA
ATOM     30  N   UNL     1       2.223  21.718  30.135  1.00  0.00     0.001 N 
ATOM     31  N   UNL     1       2.502  21.098  29.090  1.00  0.00    -0.003 NA
ENDBRANCH  28  29
ENDBRANCH  27  28
ENDBRANCH  26  27
ENDBRANCH  20  26
BRANCH  21  32
ATOM     32  O   UNL     1       8.952  24.171  33.512  1.00  0.00    -0.387 OA
ATOM     33  H   UNL     1       8.818  25.123  33.638  1.00  0.00     0.211 HD
ENDBRANCH  21  32
BRANCH  22  34
ATOM     34  O   UNL     1       7.233  21.562  33.089  1.00  0.00    -0.385 OA
ATOM     35  H   UNL     1       8.219  21.456  33.127  1.00  0.00     0.211 HD
ENDBRANCH  22  34
ENDBRANCH  16  17
ENDBRANCH  11  16
BRANCH  13  36
ATOM     36  O   UNL     1      10.407  21.920  38.071  1.00  0.00    -0.385 OA
ATOM     37  H   UNL     1      10.017  22.397  38.846  1.00  0.00     0.211 HD
ENDBRANCH  13  36
BRANCH  14  38
ATOM     38  O   UNL     1      11.077  24.018  35.331  1.00  0.00    -0.387 OA
ATOM     39  H   UNL     1      10.196  23.768  34.955  1.00  0.00     0.211 HD
ENDBRANCH  14  38
BRANCH  15  40
ATOM     40  O   UNL     1      12.928  24.888  37.561  1.00  0.00    -0.387 OA
ATOM     41  H   UNL     1      13.240  25.122  36.649  1.00  0.00     0.211 HD
ENDBRANCH  15  40
ENDBRANCH   9  10
ENDBRANCH   8   9
ENDBRANCH   3   8
BRANCH   3  42
ATOM     42  C   UNL     1      10.514  27.003  33.695  1.00  0.00     0.364 C 
ATOM     43  O   UNL     1      11.058  26.035  33.102  1.00  0.00    -0.246 OA
BRANCH  42  44
ATOM     44  O   UNL     1       9.263  27.379  33.148  1.00  0.00    -0.477 OA
ATOM     45  H   UNL     1       8.774  26.761  32.502  1.00  0.00     0.296 HD
ENDBRANCH  42  44
ENDBRANCH   3  42
BRANCH   6  46
ATOM     46  O   UNL     1      12.809  29.725  36.182  1.00  0.00    -0.391 OA
ATOM     47  H   UNL     1      12.248  30.513  35.903  1.00  0.00     0.211 HD
ENDBRANCH   6  46
BRANCH   7  48
ATOM     48  N   UNL     1      13.644  29.060  32.829  1.00  0.00    -0.348 N 
ATOM     49  C   UNL     1      14.371  29.818  31.889  1.00  0.00     0.217 C 
ATOM     50  H   UNL     1      13.656  28.038  32.789  1.00  0.00     0.163 HD
ATOM     51  C   UNL     1      15.176  29.129  30.845  1.00  0.00     0.114 C 
ATOM     52  O   UNL     1      14.355  31.090  31.922  1.00  0.00    -0.275 OA
ENDBRANCH   7  48
ENDBRANCH   1   2
BRANCH   1  53
ATOM     53  O   UNL     1      11.873  31.993  33.328  1.00  0.00    -0.388 OA
ATOM     54  H   UNL     1      11.974  32.452  34.214  1.00  0.00     0.211 HD
ENDBRANCH   1  53
BRANCH   1  55
ATOM     55  C   UNL     1      10.047  31.543  34.719  1.00  0.00     0.165 C 
BRANCH  55  56
ATOM     56  O   UNL     1      10.732  31.532  35.900  1.00  0.00    -0.388 OA
ATOM     57  H   UNL     1      11.541  32.090  35.915  1.00  0.00     0.211 HD
ENDBRANCH  55  56
BRANCH  55  58
ATOM     58  C   UNL     1       8.611  31.230  34.895  1.00  0.00     0.154 C 
BRANCH  58  59
ATOM     59  N   UNL     1       8.080  30.087  34.207  1.00  0.00    -0.319 N 
ATOM     60  C   UNL     1       7.117  30.148  33.166  1.00  0.00     0.407 C 
ATOM     61  H   UNL     1       8.412  29.129  34.456  1.00  0.00     0.167 HD
ATOM     62  O   UNL     1       6.684  31.242  32.784  1.00  0.00    -0.225 OA
BRANCH  60  63
ATOM     63  O   UNL     1       6.604  29.022  32.513  1.00  0.00    -0.443 OA
BRANCH  63  64
ATOM     64  C   UNL     1       5.244  29.015  32.075  1.00  0.00     0.294 C 
BRANCH  64  65
ATOM     65  C   UNL     1       4.969  27.936  31.098  1.00  0.00     0.120 A 
ATOM     66  C   UNL     1       5.112  28.085  29.734  1.00  0.00     0.141 A 
ATOM     67  N   UNL     1       4.548  26.682  31.298  1.00  0.00    -0.132 NA
ATOM     68  N   UNL     1       4.769  26.910  29.152  1.00  0.00    -0.226 N 
ATOM     69  N   UNL     1       4.432  26.081  30.129  1.00  0.00    -0.065 NA
BRANCH  68  70
ATOM     70  C   UNL     1       4.762  26.575  27.746  1.00  0.00     0.307 C 
BRANCH  70  71
ATOM     71  O   UNL     1       5.142  27.630  26.962  1.00  0.00    -0.355 OA
BRANCH  71  72
ATOM     72  C   UNL     1       5.464  27.183  25.690  1.00  0.00     0.198 C 
BRANCH  72  73
ATOM     73  C   UNL     1       6.885  27.575  25.383  1.00  0.00    -0.022 A 
ATOM     74  C   UNL     1       7.866  26.617  25.539  1.00  0.00     0.006 A 
ATOM     75  C   UNL     1       7.190  28.845  24.965  1.00  0.00     0.006 A 
ATOM     76  C   UNL     1       9.179  26.937  25.269  1.00  0.00     0.000 A 
ATOM     77  C   UNL     1       8.496  29.139  24.704  1.00  0.00     0.000 A 
ATOM     78  C   UNL     1       9.512  28.207  24.847  1.00  0.00     0.000 A 
ENDBRANCH  72  73
ENDBRANCH  71  72
ENDBRANCH  70  71
ENDBRANCH  68  70
ENDBRANCH  64  65
ENDBRANCH  63  64
ENDBRANCH  60  63
ENDBRANCH  58  59
ENDBRANCH  55  58
ENDBRANCH   1  55
TORSDOF 33
