REMARK VINA RESULT:    -5.805      6.676     12.531
REMARK INTER + INTRA:         -21.888
REMARK INTER:                 -16.021
REMARK INTRA:                  -5.867
REMARK UNBOUND:                -7.600
REMARK SMILES CC(=O)N[C@@H]1[C@@H](O)C[C@](OC[C@H]2O[C@@H](O[C@H]3[C@H](O)[C@@H](O)[C@H](OCCN=[N+]=[N-])O[C@@H]3CO)[C@H](O)[C@@H](O)[C@H]2O)(C(=O)O)O[C@H]1C(O)[C@H](O)CNC(=O)OCc1cn(-c2ccc(Cl)cc2)nn1
REMARK SMILES IDX 9 1 8 2 6 3 5 4 42 5 41 6 10 7 11 8 12 9 14 10 13 11 32 12
REMARK SMILES IDX 34 13 36 14 15 15 16 16 29 17 28 18 21 19 17 20 19 21 30 22
REMARK SMILES IDX 31 23 22 25 23 26 24 27 25 28 26 29 27 30 18 31 20 33 33 35
REMARK SMILES IDX 35 37 37 39 38 41 39 42 40 43 7 45 43 47 44 48 45 50 46 51
REMARK SMILES IDX 47 53 48 54 49 55 50 57 51 58 52 59 53 60 54 61 64 62 55 63
REMARK SMILES IDX 63 64 56 65 57 66 62 67 58 68 61 69 59 70 60 71 4 72 2 73
REMARK SMILES IDX 1 75 3 76
REMARK H PARENT 31 24 18 32 20 34 33 36 35 38 37 40 40 44 7 46 44 49 46 52
REMARK H PARENT 48 56 4 74
REMARK Flexibility Score: inf
ROOT
ATOM      1  C   UNL     1      30.725  21.022  23.418  1.00  0.00     0.272 C 
ATOM      2  C   UNL     1      31.479  19.778  23.184  1.00  0.00     0.113 C 
ATOM      3  C   UNL     1      32.225  19.154  24.291  1.00  0.00     0.145 C 
ATOM      4  C   UNL     1      31.909  19.851  25.597  1.00  0.00     0.142 C 
ATOM      5  C   UNL     1      32.009  21.356  25.268  1.00  0.00     0.178 C 
ATOM      6  O   UNL     1      30.727  21.570  24.674  1.00  0.00    -0.332 OA
ENDROOT
BRANCH   1   7
ATOM      7  O   UNL     1      29.376  20.767  23.043  1.00  0.00    -0.338 OA
BRANCH   7   8
ATOM      8  C   UNL     1      29.228  19.646  22.274  1.00  0.00     0.199 C 
BRANCH   8   9
ATOM      9  C   UNL     1      28.425  19.927  21.007  1.00  0.00     0.179 C 
ATOM     10  C   UNL     1      28.536  21.726  19.495  1.00  0.00     0.282 C 
ATOM     11  O   UNL     1      28.268  21.257  20.782  1.00  0.00    -0.341 OA
ATOM     12  C   UNL     1      29.936  21.409  19.173  1.00  0.00     0.202 C 
ATOM     13  C   UNL     1      30.133  19.900  19.197  1.00  0.00     0.179 C 
ATOM     14  C   UNL     1      28.982  19.175  19.819  1.00  0.00     0.177 C 
BRANCH  10  15
ATOM     15  O   UNL     1      28.187  23.073  19.567  1.00  0.00    -0.341 OA
BRANCH  15  16
ATOM     16  C   UNL     1      27.128  23.399  20.300  1.00  0.00     0.184 C 
ATOM     17  C   UNL     1      26.141  24.265  19.602  1.00  0.00     0.178 C 
ATOM     18  O   UNL     1      24.934  24.310  20.291  1.00  0.00    -0.341 OA
ATOM     19  C   UNL     1      24.998  24.782  21.562  1.00  0.00     0.281 C 
ATOM     20  C   UNL     1      27.459  24.131  21.617  1.00  0.00     0.180 C 
ATOM     21  C   UNL     1      26.388  25.095  21.983  1.00  0.00     0.202 C 
BRANCH  17  22
ATOM     22  C   UNL     1      25.860  23.953  18.165  1.00  0.00     0.191 C 
BRANCH  22  23
ATOM     23  O   UNL     1      24.574  24.331  17.782  1.00  0.00    -0.394 OA
ATOM     24  H   UNL     1      24.178  24.894  18.489  1.00  0.00     0.210 HD
ENDBRANCH  22  23
ENDBRANCH  17  22
BRANCH  19  25
ATOM     25  O   UNL     1      24.482  23.837  22.457  1.00  0.00    -0.350 OA
BRANCH  25  26
ATOM     26  C   UNL     1      24.500  24.307  23.762  1.00  0.00     0.169 C 
BRANCH  26  27
ATOM     27  C   UNL     1      23.382  25.250  24.082  1.00  0.00     0.119 C 
BRANCH  27  28
ATOM     28  N   UNL     1      22.135  24.554  23.770  1.00  0.00    -0.092 NA
ATOM     29  N   UNL     1      21.355  25.170  23.022  1.00  0.00     0.001 N 
ATOM     30  N   UNL     1      20.727  25.580  22.023  1.00  0.00    -0.003 NA
ENDBRANCH  27  28
ENDBRANCH  26  27
ENDBRANCH  25  26
ENDBRANCH  19  25
BRANCH  20  31
ATOM     31  O   UNL     1      27.562  23.155  22.592  1.00  0.00    -0.387 OA
ATOM     32  H   UNL     1      27.132  22.326  22.208  1.00  0.00     0.211 HD
ENDBRANCH  20  31
BRANCH  21  33
ATOM     33  O   UNL     1      26.704  26.418  21.613  1.00  0.00    -0.385 OA
ATOM     34  H   UNL     1      27.184  26.792  22.385  1.00  0.00     0.211 HD
ENDBRANCH  21  33
ENDBRANCH  15  16
ENDBRANCH  10  15
BRANCH  12  35
ATOM     35  O   UNL     1      30.391  21.879  17.939  1.00  0.00    -0.385 OA
ATOM     36  H   UNL     1      29.750  22.556  17.548  1.00  0.00     0.211 HD
ENDBRANCH  12  35
BRANCH  13  37
ATOM     37  O   UNL     1      31.356  19.633  19.808  1.00  0.00    -0.387 OA
ATOM     38  H   UNL     1      31.435  18.747  20.194  1.00  0.00     0.211 HD
ENDBRANCH  13  37
BRANCH  14  39
ATOM     39  O   UNL     1      29.430  17.938  20.343  1.00  0.00    -0.387 OA
ATOM     40  H   UNL     1      29.784  17.430  19.591  1.00  0.00     0.211 HD
ENDBRANCH  14  39
ENDBRANCH   8   9
ENDBRANCH   7   8
ENDBRANCH   1   7
BRANCH   1  41
ATOM     41  C   UNL     1      31.208  22.066  22.445  1.00  0.00     0.364 C 
ATOM     42  O   UNL     1      30.627  23.167  22.316  1.00  0.00    -0.246 OA
BRANCH  41  43
ATOM     43  O   UNL     1      32.316  21.806  21.678  1.00  0.00    -0.477 OA
ATOM     44  H   UNL     1      33.197  22.307  21.767  1.00  0.00     0.296 HD
ENDBRANCH  41  43
ENDBRANCH   1  41
BRANCH   3  45
ATOM     45  O   UNL     1      31.866  17.816  24.454  1.00  0.00    -0.391 OA
ATOM     46  H   UNL     1      30.938  17.786  24.754  1.00  0.00     0.211 HD
ENDBRANCH   3  45
BRANCH   5  47
ATOM     47  C   UNL     1      32.114  22.213  26.478  1.00  0.00     0.176 C 
BRANCH  47  48
ATOM     48  O   UNL     1      31.272  21.686  27.448  1.00  0.00    -0.388 OA
ATOM     49  H   UNL     1      30.613  21.033  27.107  1.00  0.00     0.211 HD
ENDBRANCH  47  48
BRANCH  47  50
ATOM     50  C   UNL     1      33.435  22.541  27.029  1.00  0.00     0.165 C 
BRANCH  50  51
ATOM     51  O   UNL     1      33.467  21.894  28.318  1.00  0.00    -0.388 OA
ATOM     52  H   UNL     1      33.035  22.472  28.991  1.00  0.00     0.211 HD
ENDBRANCH  50  51
BRANCH  50  53
ATOM     53  C   UNL     1      33.586  24.007  27.411  1.00  0.00     0.154 C 
BRANCH  53  54
ATOM     54  N   UNL     1      32.341  24.691  27.626  1.00  0.00    -0.319 N 
ATOM     55  C   UNL     1      31.844  24.805  28.950  1.00  0.00     0.407 C 
ATOM     56  H   UNL     1      31.773  25.111  26.853  1.00  0.00     0.167 HD
ATOM     57  O   UNL     1      32.458  24.308  29.942  1.00  0.00    -0.225 OA
BRANCH  55  58
ATOM     58  O   UNL     1      30.660  25.470  29.207  1.00  0.00    -0.443 OA
BRANCH  58  59
ATOM     59  C   UNL     1      30.222  25.757  30.538  1.00  0.00     0.294 C 
BRANCH  59  60
ATOM     60  C   UNL     1      28.748  25.557  30.649  1.00  0.00     0.121 A 
ATOM     61  C   UNL     1      27.819  25.903  29.678  1.00  0.00     0.144 A 
ATOM     62  N   UNL     1      28.061  25.027  31.670  1.00  0.00    -0.131 NA
ATOM     63  N   UNL     1      26.605  25.574  30.137  1.00  0.00    -0.220 N 
ATOM     64  N   UNL     1      26.778  25.057  31.320  1.00  0.00    -0.062 NA
BRANCH  63  65
ATOM     65  C   UNL     1      25.410  25.794  29.384  1.00  0.00     0.066 A 
ATOM     66  C   UNL     1      25.456  26.254  28.092  1.00  0.00     0.030 A 
ATOM     67  C   UNL     1      24.186  25.548  29.941  1.00  0.00     0.030 A 
ATOM     68  C   UNL     1      24.307  26.478  27.331  1.00  0.00     0.023 A 
ATOM     69  C   UNL     1      23.027  25.763  29.208  1.00  0.00     0.023 A 
ATOM     70  C   UNL     1      23.084  26.231  27.895  1.00  0.00     0.041 A 
ATOM     71  Cl  UNL     1      21.602  26.500  26.974  1.00  0.00    -0.084 Cl
ENDBRANCH  63  65
ENDBRANCH  59  60
ENDBRANCH  58  59
ENDBRANCH  55  58
ENDBRANCH  53  54
ENDBRANCH  50  53
ENDBRANCH  47  50
ENDBRANCH   5  47
BRANCH   4  72
ATOM     72  N   UNL     1      32.758  19.414  26.640  1.00  0.00    -0.348 N 
ATOM     73  C   UNL     1      32.194  18.746  27.785  1.00  0.00     0.217 C 
ATOM     74  H   UNL     1      33.785  19.521  26.655  1.00  0.00     0.163 HD
ATOM     75  C   UNL     1      33.061  18.272  28.902  1.00  0.00     0.114 C 
ATOM     76  O   UNL     1      30.949  18.570  27.818  1.00  0.00    -0.275 OA
ENDBRANCH   4  72
TORSDOF 30
