REMARK VINA RESULT:    -5.781      5.916     12.953
REMARK INTER + INTRA:         -22.344
REMARK INTER:                 -18.844
REMARK INTRA:                  -3.500
REMARK UNBOUND:                -7.606
REMARK SMILES CC(=O)N[C@@H]1[C@@H](O)C[C@](OC[C@H]2O[C@@H](O[C@H]3[C@H](O)[C@@H](O)[C@H](OCCN=[N+]=[N-])O[C@@H]3CO)[C@H](O)[C@@H](O)[C@H]2O)(C(=O)O)O[C@H]1C(O)[C@H](O)CNC(=O)OCc1cn(-c2ccc(CO)cn2)nn1
REMARK SMILES IDX 9 1 8 2 6 3 5 4 42 5 41 6 10 7 11 8 12 9 14 10 13 11 32 12
REMARK SMILES IDX 34 13 36 14 15 15 16 16 29 17 28 18 21 19 17 20 19 21 30 22
REMARK SMILES IDX 31 23 22 25 23 26 24 27 25 28 26 29 27 30 18 31 20 33 33 35
REMARK SMILES IDX 35 37 37 39 38 41 39 42 40 43 7 45 43 47 44 48 45 50 46 51
REMARK SMILES IDX 47 53 48 54 49 55 50 57 51 58 52 59 53 60 54 61 65 62 55 63
REMARK SMILES IDX 64 64 56 65 57 66 63 67 58 68 62 69 59 70 60 71 61 72 4 74
REMARK SMILES IDX 2 75 1 77 3 78
REMARK H PARENT 31 24 18 32 20 34 33 36 35 38 37 40 40 44 7 46 44 49 46 52
REMARK H PARENT 48 56 61 73 4 76
REMARK Flexibility Score: inf
ROOT
ATOM      1  C   UNL     1      21.273  27.587  21.415  1.00  0.00     0.272 C 
ATOM      2  C   UNL     1      21.652  27.049  20.086  1.00  0.00     0.113 C 
ATOM      3  C   UNL     1      22.702  25.977  20.178  1.00  0.00     0.145 C 
ATOM      4  C   UNL     1      22.318  24.965  21.240  1.00  0.00     0.142 C 
ATOM      5  C   UNL     1      21.978  25.642  22.503  1.00  0.00     0.178 C 
ATOM      6  O   UNL     1      21.059  26.625  22.370  1.00  0.00    -0.332 OA
ENDROOT
BRANCH   1   7
ATOM      7  O   UNL     1      20.147  28.392  21.393  1.00  0.00    -0.338 OA
BRANCH   7   8
ATOM      8  C   UNL     1      19.951  29.020  20.181  1.00  0.00     0.199 C 
BRANCH   8   9
ATOM      9  C   UNL     1      18.549  28.782  19.709  1.00  0.00     0.179 C 
ATOM     10  C   UNL     1      16.480  28.238  20.440  1.00  0.00     0.282 C 
ATOM     11  O   UNL     1      17.604  29.057  20.717  1.00  0.00    -0.341 OA
ATOM     12  C   UNL     1      16.066  28.403  19.036  1.00  0.00     0.202 C 
ATOM     13  C   UNL     1      16.678  29.583  18.299  1.00  0.00     0.179 C 
ATOM     14  C   UNL     1      18.183  29.640  18.543  1.00  0.00     0.177 C 
BRANCH  10  15
ATOM     15  O   UNL     1      15.482  28.492  21.387  1.00  0.00    -0.341 OA
BRANCH  15  16
ATOM     16  C   UNL     1      15.625  29.719  21.997  1.00  0.00     0.184 C 
ATOM     17  C   UNL     1      15.712  29.697  23.490  1.00  0.00     0.178 C 
ATOM     18  O   UNL     1      14.607  30.262  24.121  1.00  0.00    -0.341 OA
ATOM     19  C   UNL     1      13.418  29.675  23.766  1.00  0.00     0.281 C 
ATOM     20  C   UNL     1      14.362  30.522  21.636  1.00  0.00     0.180 C 
ATOM     21  C   UNL     1      13.214  29.704  22.243  1.00  0.00     0.202 C 
BRANCH  17  22
ATOM     22  C   UNL     1      16.892  30.606  23.882  1.00  0.00     0.191 C 
BRANCH  22  23
ATOM     23  O   UNL     1      18.092  29.884  23.793  1.00  0.00    -0.394 OA
ATOM     24  H   UNL     1      17.965  29.058  23.235  1.00  0.00     0.210 HD
ENDBRANCH  22  23
ENDBRANCH  17  22
BRANCH  19  25
ATOM     25  O   UNL     1      12.382  30.382  24.370  1.00  0.00    -0.350 OA
BRANCH  25  26
ATOM     26  C   UNL     1      11.147  29.829  24.154  1.00  0.00     0.169 C 
BRANCH  26  27
ATOM     27  C   UNL     1      11.075  28.518  24.927  1.00  0.00     0.119 C 
BRANCH  27  28
ATOM     28  N   UNL     1       9.747  27.933  24.808  1.00  0.00    -0.092 NA
ATOM     29  N   UNL     1       9.409  26.900  25.360  1.00  0.00     0.001 N 
ATOM     30  N   UNL     1       8.879  26.124  26.156  1.00  0.00    -0.003 NA
ENDBRANCH  27  28
ENDBRANCH  26  27
ENDBRANCH  25  26
ENDBRANCH  19  25
BRANCH  20  31
ATOM     31  O   UNL     1      14.403  31.813  22.086  1.00  0.00    -0.387 OA
ATOM     32  H   UNL     1      13.568  32.034  22.524  1.00  0.00     0.211 HD
ENDBRANCH  20  31
BRANCH  21  33
ATOM     33  O   UNL     1      13.339  28.418  21.724  1.00  0.00    -0.385 OA
ATOM     34  H   UNL     1      13.142  28.470  20.754  1.00  0.00     0.211 HD
ENDBRANCH  21  33
ENDBRANCH  15  16
ENDBRANCH  10  15
BRANCH  12  35
ATOM     35  O   UNL     1      16.400  27.230  18.319  1.00  0.00    -0.385 OA
ATOM     36  H   UNL     1      15.634  26.601  18.276  1.00  0.00     0.211 HD
ENDBRANCH  12  35
BRANCH  13  37
ATOM     37  O   UNL     1      16.039  30.774  18.598  1.00  0.00    -0.387 OA
ATOM     38  H   UNL     1      15.609  30.789  19.466  1.00  0.00     0.211 HD
ENDBRANCH  13  37
BRANCH  14  39
ATOM     39  O   UNL     1      18.517  30.961  18.750  1.00  0.00    -0.387 OA
ATOM     40  H   UNL     1      18.264  31.490  17.969  1.00  0.00     0.211 HD
ENDBRANCH  14  39
ENDBRANCH   8   9
ENDBRANCH   7   8
ENDBRANCH   1   7
BRANCH   1  41
ATOM     41  C   UNL     1      22.365  28.465  21.988  1.00  0.00     0.364 C 
ATOM     42  O   UNL     1      23.293  28.942  21.292  1.00  0.00    -0.246 OA
BRANCH  41  43
ATOM     43  O   UNL     1      22.377  28.777  23.333  1.00  0.00    -0.477 OA
ATOM     44  H   UNL     1      23.275  28.884  23.822  1.00  0.00     0.296 HD
ENDBRANCH  41  43
ENDBRANCH   1  41
BRANCH   3  45
ATOM     45  O   UNL     1      22.663  25.281  18.953  1.00  0.00    -0.391 OA
ATOM     46  H   UNL     1      21.891  25.508  18.403  1.00  0.00     0.211 HD
ENDBRANCH   3  45
BRANCH   5  47
ATOM     47  C   UNL     1      21.576  24.689  23.613  1.00  0.00     0.176 C 
BRANCH  47  48
ATOM     48  O   UNL     1      20.228  24.362  23.483  1.00  0.00    -0.388 OA
ATOM     49  H   UNL     1      19.663  25.021  23.951  1.00  0.00     0.211 HD
ENDBRANCH  47  48
BRANCH  47  50
ATOM     50  C   UNL     1      21.806  25.181  24.992  1.00  0.00     0.165 C 
BRANCH  50  51
ATOM     51  O   UNL     1      21.398  26.509  25.176  1.00  0.00    -0.388 OA
ATOM     52  H   UNL     1      20.757  26.623  25.894  1.00  0.00     0.211 HD
ENDBRANCH  50  51
BRANCH  50  53
ATOM     53  C   UNL     1      23.182  24.962  25.552  1.00  0.00     0.154 C 
BRANCH  53  54
ATOM     54  N   UNL     1      23.323  25.597  26.836  1.00  0.00    -0.319 N 
ATOM     55  C   UNL     1      22.994  24.891  28.017  1.00  0.00     0.407 C 
ATOM     56  H   UNL     1      23.676  26.608  26.895  1.00  0.00     0.167 HD
ATOM     57  O   UNL     1      22.579  23.711  28.011  1.00  0.00    -0.225 OA
BRANCH  55  58
ATOM     58  O   UNL     1      23.121  25.491  29.275  1.00  0.00    -0.443 OA
BRANCH  58  59
ATOM     59  C   UNL     1      24.066  26.507  29.456  1.00  0.00     0.294 C 
BRANCH  59  60
ATOM     60  C   UNL     1      25.408  26.074  29.822  1.00  0.00     0.121 A 
ATOM     61  C   UNL     1      26.569  26.305  29.126  1.00  0.00     0.146 A 
ATOM     62  N   UNL     1      25.763  25.365  30.907  1.00  0.00    -0.131 NA
ATOM     63  N   UNL     1      27.590  25.735  29.797  1.00  0.00    -0.202 N 
ATOM     64  N   UNL     1      27.059  25.177  30.869  1.00  0.00    -0.061 NA
BRANCH  63  65
ATOM     65  C   UNL     1      28.946  25.761  29.381  1.00  0.00     0.155 A 
ATOM     66  C   UNL     1      29.499  26.873  28.757  1.00  0.00     0.049 A 
ATOM     67  N   UNL     1      29.750  24.700  29.569  1.00  0.00    -0.237 NA
ATOM     68  C   UNL     1      30.826  26.876  28.348  1.00  0.00     0.011 A 
ATOM     69  C   UNL     1      31.047  24.682  29.179  1.00  0.00     0.119 A 
ATOM     70  C   UNL     1      31.626  25.774  28.554  1.00  0.00    -0.004 A 
BRANCH  70  71
ATOM     71  C   UNL     1      33.046  25.783  28.112  1.00  0.00     0.193 C 
BRANCH  71  72
ATOM     72  O   UNL     1      33.796  24.850  28.828  1.00  0.00    -0.392 OA
ATOM     73  H   UNL     1      33.629  23.931  28.535  1.00  0.00     0.211 HD
ENDBRANCH  71  72
ENDBRANCH  70  71
ENDBRANCH  63  65
ENDBRANCH  59  60
ENDBRANCH  58  59
ENDBRANCH  55  58
ENDBRANCH  53  54
ENDBRANCH  50  53
ENDBRANCH  47  50
ENDBRANCH   5  47
BRANCH   4  74
ATOM     74  N   UNL     1      23.407  23.999  21.400  1.00  0.00    -0.348 N 
ATOM     75  C   UNL     1      24.665  24.359  21.877  1.00  0.00     0.217 C 
ATOM     76  H   UNL     1      23.214  23.008  21.152  1.00  0.00     0.163 HD
ATOM     77  C   UNL     1      25.700  23.262  21.987  1.00  0.00     0.114 C 
ATOM     78  O   UNL     1      24.980  25.509  22.210  1.00  0.00    -0.275 OA
ENDBRANCH   4  74
TORSDOF 32
