REMARK VINA RESULT:    -5.578     13.824     18.884
REMARK INTER + INTRA:         -21.470
REMARK INTER:                 -12.123
REMARK INTRA:                  -9.347
REMARK UNBOUND:                -6.761
REMARK SMILES CC(=O)N[C@@H]1[C@@H](O)C[C@](OC[C@H]2O[C@@H](O[C@H]3[C@H](O)[C@@H](O)[C@H](OCCN=[N+]=[N-])O[C@@H]3CO)[C@H](O)[C@@H](O)[C@H]2O)(C(=O)O)O[C@H]1C(O)[C@H](O)CNC(=O)OCc1cn(CCNS(C)(=O)=O)nn1
REMARK SMILES IDX 43 1 42 2 9 3 8 4 41 5 6 6 5 7 10 8 11 9 12 10 14 11 13 12
REMARK SMILES IDX 32 13 34 14 36 15 15 16 16 17 29 18 28 19 21 20 17 21 19 22
REMARK SMILES IDX 30 23 31 24 22 26 23 27 24 28 25 29 26 30 27 31 18 32 20 34
REMARK SMILES IDX 33 36 35 38 37 40 38 42 39 43 40 44 7 46 4 48 2 49 1 51 3 52
REMARK SMILES IDX 44 53 45 55 46 56 47 58 48 59 49 60 50 62 51 63 52 64 53 65
REMARK SMILES IDX 54 66 64 67 55 68 63 69 56 70 57 71 58 72 59 74 61 75 62 76
REMARK SMILES IDX 60 77
REMARK H PARENT 31 25 18 33 20 35 33 37 35 39 37 41 40 45 7 47 4 50 44 54
REMARK H PARENT 46 57 48 61 58 73
REMARK Flexibility Score: inf
ROOT
ATOM      1  C   UNL     1      24.662  16.974  11.473  1.00  0.00     0.176 C 
ENDROOT
BRANCH   1   2
ATOM      2  C   UNL     1      24.927  18.234  12.319  1.00  0.00     0.178 C 
ATOM      3  C   UNL     1      23.932  20.330  12.630  1.00  0.00     0.272 C 
ATOM      4  C   UNL     1      25.088  21.098  12.126  1.00  0.00     0.113 C 
ATOM      5  O   UNL     1      23.874  19.052  12.088  1.00  0.00    -0.332 OA
ATOM      6  C   UNL     1      26.240  20.277  11.617  1.00  0.00     0.145 C 
ATOM      7  C   UNL     1      26.232  18.826  11.955  1.00  0.00     0.142 C 
BRANCH   3   8
ATOM      8  O   UNL     1      22.671  20.869  12.359  1.00  0.00    -0.338 OA
BRANCH   8   9
ATOM      9  C   UNL     1      22.396  20.933  11.004  1.00  0.00     0.199 C 
BRANCH   9  10
ATOM     10  C   UNL     1      21.091  20.280  10.709  1.00  0.00     0.179 C 
ATOM     11  C   UNL     1      19.941  18.855   9.306  1.00  0.00     0.282 C 
ATOM     12  O   UNL     1      21.202  19.302   9.736  1.00  0.00    -0.341 OA
ATOM     13  C   UNL     1      19.183  18.203  10.409  1.00  0.00     0.202 C 
ATOM     14  C   UNL     1      18.956  19.250  11.478  1.00  0.00     0.179 C 
ATOM     15  C   UNL     1      20.254  19.870  11.873  1.00  0.00     0.177 C 
BRANCH  11  16
ATOM     16  O   UNL     1      20.157  18.012   8.258  1.00  0.00    -0.341 OA
BRANCH  16  17
ATOM     17  C   UNL     1      19.959  18.520   7.020  1.00  0.00     0.184 C 
ATOM     18  C   UNL     1      20.616  17.914   5.844  1.00  0.00     0.178 C 
ATOM     19  O   UNL     1      20.737  18.892   4.855  1.00  0.00    -0.341 OA
ATOM     20  C   UNL     1      21.732  19.786   5.126  1.00  0.00     0.281 C 
ATOM     21  C   UNL     1      20.230  20.049   6.992  1.00  0.00     0.180 C 
ATOM     22  C   UNL     1      21.688  20.149   6.596  1.00  0.00     0.202 C 
BRANCH  18  23
ATOM     23  C   UNL     1      19.718  16.853   5.217  1.00  0.00     0.191 C 
BRANCH  23  24
ATOM     24  O   UNL     1      18.407  16.976   5.733  1.00  0.00    -0.394 OA
ATOM     25  H   UNL     1      18.409  17.094   6.707  1.00  0.00     0.210 HD
ENDBRANCH  23  24
ENDBRANCH  18  23
BRANCH  20  26
ATOM     26  O   UNL     1      21.634  20.929   4.319  1.00  0.00    -0.350 OA
BRANCH  26  27
ATOM     27  C   UNL     1      22.524  21.924   4.634  1.00  0.00     0.169 C 
BRANCH  27  28
ATOM     28  C   UNL     1      21.915  23.239   4.266  1.00  0.00     0.119 C 
BRANCH  28  29
ATOM     29  N   UNL     1      20.547  23.367   4.753  1.00  0.00    -0.092 NA
ATOM     30  N   UNL     1      20.073  24.514   4.685  1.00  0.00     0.001 N 
ATOM     31  N   UNL     1      19.374  25.514   4.803  1.00  0.00    -0.003 NA
ENDBRANCH  28  29
ENDBRANCH  27  28
ENDBRANCH  26  27
ENDBRANCH  20  26
BRANCH  21  32
ATOM     32  O   UNL     1      19.473  20.643   5.978  1.00  0.00    -0.387 OA
ATOM     33  H   UNL     1      19.247  21.572   6.248  1.00  0.00     0.211 HD
ENDBRANCH  21  32
BRANCH  22  34
ATOM     34  O   UNL     1      22.533  19.378   7.362  1.00  0.00    -0.385 OA
ATOM     35  H   UNL     1      23.167  19.899   7.917  1.00  0.00     0.211 HD
ENDBRANCH  22  34
ENDBRANCH  16  17
ENDBRANCH  11  16
BRANCH  13  36
ATOM     36  O   UNL     1      17.899  17.828   9.985  1.00  0.00    -0.385 OA
ATOM     37  H   UNL     1      17.192  18.373  10.416  1.00  0.00     0.211 HD
ENDBRANCH  13  36
BRANCH  14  38
ATOM     38  O   UNL     1      18.200  18.777  12.522  1.00  0.00    -0.387 OA
ATOM     39  H   UNL     1      17.250  19.114  12.488  1.00  0.00     0.211 HD
ENDBRANCH  14  38
BRANCH  15  40
ATOM     40  O   UNL     1      20.973  18.951  12.632  1.00  0.00    -0.387 OA
ATOM     41  H   UNL     1      20.540  18.741  13.499  1.00  0.00     0.211 HD
ENDBRANCH  15  40
ENDBRANCH   9  10
ENDBRANCH   8   9
ENDBRANCH   3   8
BRANCH   3  42
ATOM     42  C   UNL     1      23.968  20.216  14.108  1.00  0.00     0.364 C 
ATOM     43  O   UNL     1      24.855  20.808  14.808  1.00  0.00    -0.246 OA
BRANCH  42  44
ATOM     44  O   UNL     1      23.070  19.477  14.852  1.00  0.00    -0.477 OA
ATOM     45  H   UNL     1      23.350  18.807  15.563  1.00  0.00     0.296 HD
ENDBRANCH  42  44
ENDBRANCH   3  42
BRANCH   6  46
ATOM     46  O   UNL     1      26.403  20.437  10.249  1.00  0.00    -0.391 OA
ATOM     47  H   UNL     1      26.524  21.357   9.941  1.00  0.00     0.211 HD
ENDBRANCH   6  46
BRANCH   7  48
ATOM     48  N   UNL     1      27.193  18.616  13.050  1.00  0.00    -0.348 N 
ATOM     49  C   UNL     1      28.551  18.314  12.910  1.00  0.00     0.217 C 
ATOM     50  H   UNL     1      26.843  18.732  14.066  1.00  0.00     0.163 HD
ATOM     51  C   UNL     1      29.434  18.107  14.112  1.00  0.00     0.114 C 
ATOM     52  O   UNL     1      29.095  18.200  11.779  1.00  0.00    -0.275 OA
ENDBRANCH   7  48
ENDBRANCH   1   2
BRANCH   1  53
ATOM     53  O   UNL     1      23.764  16.150  12.173  1.00  0.00    -0.388 OA
ATOM     54  H   UNL     1      24.278  15.683  12.857  1.00  0.00     0.211 HD
ENDBRANCH   1  53
BRANCH   1  55
ATOM     55  C   UNL     1      24.042  17.348  10.177  1.00  0.00     0.165 C 
BRANCH  55  56
ATOM     56  O   UNL     1      22.751  16.922   9.980  1.00  0.00    -0.388 OA
ATOM     57  H   UNL     1      22.164  17.054  10.770  1.00  0.00     0.211 HD
ENDBRANCH  55  56
BRANCH  55  58
ATOM     58  C   UNL     1      24.887  17.116   8.963  1.00  0.00     0.154 C 
BRANCH  58  59
ATOM     59  N   UNL     1      25.092  18.320   8.204  1.00  0.00    -0.319 N 
ATOM     60  C   UNL     1      25.662  18.189   6.881  1.00  0.00     0.407 C 
ATOM     61  H   UNL     1      24.861  19.269   8.540  1.00  0.00     0.167 HD
ATOM     62  O   UNL     1      25.913  17.020   6.489  1.00  0.00    -0.225 OA
BRANCH  60  63
ATOM     63  O   UNL     1      25.912  19.293   6.109  1.00  0.00    -0.443 OA
BRANCH  63  64
ATOM     64  C   UNL     1      26.631  20.383   6.636  1.00  0.00     0.294 C 
BRANCH  64  65
ATOM     65  C   UNL     1      25.722  21.466   7.052  1.00  0.00     0.120 A 
ATOM     66  C   UNL     1      25.662  22.755   6.548  1.00  0.00     0.138 A 
ATOM     67  N   UNL     1      24.762  21.401   7.965  1.00  0.00    -0.132 NA
ATOM     68  N   UNL     1      24.684  23.427   7.156  1.00  0.00    -0.251 N 
ATOM     69  N   UNL     1      24.135  22.583   8.031  1.00  0.00    -0.067 NA
BRANCH  68  70
ATOM     70  C   UNL     1      24.303  24.809   6.917  1.00  0.00     0.162 C 
BRANCH  70  71
ATOM     71  C   UNL     1      22.848  25.021   7.333  1.00  0.00     0.122 C 
BRANCH  71  72
ATOM     72  N   UNL     1      22.770  25.557   8.662  1.00  0.00    -0.214 NA
ATOM     73  H   UNL     1      22.602  26.597   8.602  1.00  0.00     0.141 HD
BRANCH  72  74
ATOM     74  S   UNL     1      21.475  24.894   9.578  1.00  0.00     0.208 S 
ATOM     75  O   UNL     1      21.982  24.427  10.933  1.00  0.00    -0.213 OA
ATOM     76  O   UNL     1      20.490  26.026   9.801  1.00  0.00    -0.213 OA
ATOM     77  C   UNL     1      20.693  23.569   8.710  1.00  0.00     0.176 C 
ENDBRANCH  72  74
ENDBRANCH  71  72
ENDBRANCH  70  71
ENDBRANCH  68  70
ENDBRANCH  64  65
ENDBRANCH  63  64
ENDBRANCH  60  63
ENDBRANCH  58  59
ENDBRANCH  55  58
ENDBRANCH   1  55
TORSDOF 33
