REMARK VINA RESULT:    -6.363      3.468     10.661
REMARK INTER + INTRA:         -21.521
REMARK INTER:                 -14.820
REMARK INTRA:                  -6.701
REMARK UNBOUND:                -5.485
REMARK SMILES CC(=O)N[C@@H]1[C@@H](O)C[C@](OC[C@H]2O[C@@H](O[C@H]3[C@H](O)[C@@H](O)[C@H](OCCN=[N+]=[N-])O[C@@H]3CO)[C@H](O)[C@@H](O)[C@H]2O)(C(=O)O)O[C@H]1C(O)[C@H](O)CNC(=O)OCc1cn(Cc2ccc(Br)cc2)nn1
REMARK SMILES IDX 9 1 8 2 6 3 5 4 42 5 41 6 10 7 11 8 12 9 14 10 13 11 32 12
REMARK SMILES IDX 34 13 36 14 15 15 16 16 29 17 28 18 21 19 17 20 19 21 30 22
REMARK SMILES IDX 31 23 22 25 23 26 24 27 25 28 26 29 27 30 18 31 20 33 33 35
REMARK SMILES IDX 35 37 37 39 38 41 39 42 40 43 7 45 43 47 44 48 45 50 46 51
REMARK SMILES IDX 47 53 48 54 49 55 50 57 51 58 52 59 53 60 54 61 65 62 55 63
REMARK SMILES IDX 64 64 56 65 57 66 58 67 63 68 59 69 62 70 60 71 61 72 4 73
REMARK SMILES IDX 2 74 1 76 3 77
REMARK H PARENT 31 24 18 32 20 34 33 36 35 38 37 40 40 44 7 46 44 49 46 52
REMARK H PARENT 48 56 4 75
REMARK Flexibility Score: inf
ROOT
ATOM      1  C   UNL     1      16.688  32.404  25.553  1.00  0.00     0.272 C 
ATOM      2  C   UNL     1      17.215  33.696  25.043  1.00  0.00     0.113 C 
ATOM      3  C   UNL     1      17.686  33.770  23.645  1.00  0.00     0.145 C 
ATOM      4  C   UNL     1      18.028  32.389  23.024  1.00  0.00     0.142 C 
ATOM      5  C   UNL     1      18.457  31.595  24.227  1.00  0.00     0.178 C 
ATOM      6  O   UNL     1      17.217  31.299  24.861  1.00  0.00    -0.332 OA
ENDROOT
BRANCH   1   7
ATOM      7  O   UNL     1      15.403  32.265  25.859  1.00  0.00    -0.338 OA
BRANCH   7   8
ATOM      8  C   UNL     1      14.575  31.307  26.033  1.00  0.00     0.199 C 
BRANCH   8   9
ATOM      9  C   UNL     1      13.505  31.138  24.980  1.00  0.00     0.179 C 
ATOM     10  C   UNL     1      13.079  30.965  22.759  1.00  0.00     0.282 C 
ATOM     11  O   UNL     1      13.973  31.321  23.706  1.00  0.00    -0.341 OA
ATOM     12  C   UNL     1      11.653  30.727  23.223  1.00  0.00     0.202 C 
ATOM     13  C   UNL     1      11.603  29.805  24.421  1.00  0.00     0.179 C 
ATOM     14  C   UNL     1      12.986  29.693  25.047  1.00  0.00     0.177 C 
BRANCH  10  15
ATOM     15  O   UNL     1      13.402  29.943  21.930  1.00  0.00    -0.341 OA
BRANCH  15  16
ATOM     16  C   UNL     1      14.373  29.996  21.009  1.00  0.00     0.184 C 
ATOM     17  C   UNL     1      13.967  29.798  19.584  1.00  0.00     0.178 C 
ATOM     18  O   UNL     1      14.488  28.674  19.006  1.00  0.00    -0.341 OA
ATOM     19  C   UNL     1      15.874  28.647  18.946  1.00  0.00     0.281 C 
ATOM     20  C   UNL     1      15.449  28.988  21.353  1.00  0.00     0.180 C 
ATOM     21  C   UNL     1      16.498  29.040  20.270  1.00  0.00     0.202 C 
BRANCH  17  22
ATOM     22  C   UNL     1      14.292  31.045  18.795  1.00  0.00     0.191 C 
BRANCH  22  23
ATOM     23  O   UNL     1      14.727  32.088  19.639  1.00  0.00    -0.394 OA
ATOM     24  H   UNL     1      14.376  31.982  20.541  1.00  0.00     0.210 HD
ENDBRANCH  22  23
ENDBRANCH  17  22
BRANCH  19  25
ATOM     25  O   UNL     1      16.411  29.383  17.902  1.00  0.00    -0.350 OA
BRANCH  25  26
ATOM     26  C   UNL     1      17.087  28.661  16.955  1.00  0.00     0.169 C 
BRANCH  26  27
ATOM     27  C   UNL     1      17.286  29.387  15.657  1.00  0.00     0.119 C 
BRANCH  27  28
ATOM     28  N   UNL     1      15.999  29.821  15.126  1.00  0.00    -0.092 NA
ATOM     29  N   UNL     1      15.184  28.989  14.736  1.00  0.00     0.001 N 
ATOM     30  N   UNL     1      14.364  28.278  14.110  1.00  0.00    -0.003 NA
ENDBRANCH  27  28
ENDBRANCH  26  27
ENDBRANCH  25  26
ENDBRANCH  19  25
BRANCH  20  31
ATOM     31  O   UNL     1      16.060  29.444  22.539  1.00  0.00    -0.387 OA
ATOM     32  H   UNL     1      16.506  30.320  22.373  1.00  0.00     0.211 HD
ENDBRANCH  20  31
BRANCH  21  33
ATOM     33  O   UNL     1      17.607  28.258  20.573  1.00  0.00    -0.385 OA
ATOM     34  H   UNL     1      17.556  27.447  20.006  1.00  0.00     0.211 HD
ENDBRANCH  21  33
ENDBRANCH  15  16
ENDBRANCH  10  15
BRANCH  12  35
ATOM     35  O   UNL     1      10.963  31.891  23.514  1.00  0.00    -0.385 OA
ATOM     36  H   UNL     1      10.260  32.126  22.866  1.00  0.00     0.211 HD
ENDBRANCH  12  35
BRANCH  13  37
ATOM     37  O   UNL     1      11.093  28.548  24.122  1.00  0.00    -0.387 OA
ATOM     38  H   UNL     1      11.826  28.029  23.710  1.00  0.00     0.211 HD
ENDBRANCH  13  37
BRANCH  14  39
ATOM     39  O   UNL     1      13.849  28.934  24.249  1.00  0.00    -0.387 OA
ATOM     40  H   UNL     1      14.752  29.306  24.292  1.00  0.00     0.211 HD
ENDBRANCH  14  39
ENDBRANCH   8   9
ENDBRANCH   7   8
ENDBRANCH   1   7
BRANCH   1  41
ATOM     41  C   UNL     1      17.349  32.230  26.930  1.00  0.00     0.364 C 
ATOM     42  O   UNL     1      17.664  33.244  27.550  1.00  0.00    -0.246 OA
BRANCH  41  43
ATOM     43  O   UNL     1      17.595  31.001  27.483  1.00  0.00    -0.477 OA
ATOM     44  H   UNL     1      18.550  30.611  27.449  1.00  0.00     0.296 HD
ENDBRANCH  41  43
ENDBRANCH   1  41
BRANCH   3  45
ATOM     45  O   UNL     1      16.920  34.527  22.773  1.00  0.00    -0.391 OA
ATOM     46  H   UNL     1      17.392  35.368  22.595  1.00  0.00     0.211 HD
ENDBRANCH   3  45
BRANCH   5  47
ATOM     47  C   UNL     1      19.204  30.336  23.995  1.00  0.00     0.176 C 
BRANCH  47  48
ATOM     48  O   UNL     1      18.731  29.615  22.949  1.00  0.00    -0.388 OA
ATOM     49  H   UNL     1      18.007  29.026  23.189  1.00  0.00     0.211 HD
ENDBRANCH  47  48
BRANCH  47  50
ATOM     50  C   UNL     1      20.668  30.321  24.135  1.00  0.00     0.165 C 
BRANCH  50  51
ATOM     51  O   UNL     1      21.329  30.600  22.928  1.00  0.00    -0.388 OA
ATOM     52  H   UNL     1      20.901  30.242  22.137  1.00  0.00     0.211 HD
ENDBRANCH  50  51
BRANCH  50  53
ATOM     53  C   UNL     1      21.331  29.228  24.871  1.00  0.00     0.154 C 
BRANCH  53  54
ATOM     54  N   UNL     1      22.016  29.624  26.089  1.00  0.00    -0.319 N 
ATOM     55  C   UNL     1      21.318  29.823  27.308  1.00  0.00     0.407 C 
ATOM     56  H   UNL     1      23.054  29.780  26.131  1.00  0.00     0.167 HD
ATOM     57  O   UNL     1      20.059  29.641  27.354  1.00  0.00    -0.225 OA
BRANCH  55  58
ATOM     58  O   UNL     1      21.935  30.219  28.491  1.00  0.00    -0.443 OA
BRANCH  58  59
ATOM     59  C   UNL     1      22.934  29.378  29.099  1.00  0.00     0.294 C 
BRANCH  59  60
ATOM     60  C   UNL     1      22.564  27.954  29.065  1.00  0.00     0.120 A 
ATOM     61  C   UNL     1      23.145  26.999  28.254  1.00  0.00     0.138 A 
ATOM     62  N   UNL     1      21.625  27.334  29.781  1.00  0.00    -0.132 NA
ATOM     63  N   UNL     1      22.543  25.829  28.501  1.00  0.00    -0.248 N 
ATOM     64  N   UNL     1      21.632  26.062  29.424  1.00  0.00    -0.067 NA
BRANCH  63  65
ATOM     65  C   UNL     1      22.817  24.532  27.916  1.00  0.00     0.181 C 
BRANCH  65  66
ATOM     66  C   UNL     1      22.990  24.564  26.446  1.00  0.00    -0.026 A 
ATOM     67  C   UNL     1      24.290  24.473  25.938  1.00  0.00     0.007 A 
ATOM     68  C   UNL     1      21.963  24.661  25.551  1.00  0.00     0.007 A 
ATOM     69  C   UNL     1      24.505  24.484  24.570  1.00  0.00     0.016 A 
ATOM     70  C   UNL     1      22.167  24.673  24.170  1.00  0.00     0.016 A 
ATOM     71  C   UNL     1      23.444  24.583  23.688  1.00  0.00     0.017 A 
ATOM     72  Br  UNL     1      23.783  24.591  21.794  1.00  0.00    -0.051 Br
ENDBRANCH  65  66
ENDBRANCH  63  65
ENDBRANCH  59  60
ENDBRANCH  58  59
ENDBRANCH  55  58
ENDBRANCH  53  54
ENDBRANCH  50  53
ENDBRANCH  47  50
ENDBRANCH   5  47
BRANCH   4  73
ATOM     73  N   UNL     1      18.979  32.557  21.986  1.00  0.00    -0.348 N 
ATOM     74  C   UNL     1      18.570  32.569  20.630  1.00  0.00     0.217 C 
ATOM     75  H   UNL     1      19.980  32.691  22.208  1.00  0.00     0.163 HD
ATOM     76  C   UNL     1      19.462  32.741  19.480  1.00  0.00     0.114 C 
ATOM     77  O   UNL     1      17.322  32.419  20.378  1.00  0.00    -0.275 OA
ENDBRANCH   4  73
TORSDOF 31
