REMARK VINA RESULT:    -5.137     17.485     23.315
REMARK INTER + INTRA:         -21.809
REMARK INTER:                 -14.538
REMARK INTRA:                  -7.271
REMARK UNBOUND:                -8.562
REMARK SMILES CC(=O)N[C@@H]1[C@@H](O)C[C@](OC[C@H]2O[C@@H](O[C@H]3[C@H](O)[C@@H](O)[C@H](OCCN=[N+]=[N-])O[C@@H]3CO)[C@H](O)[C@@H](O)[C@H]2O)(C(=O)O)O[C@H]1C(O)[C@H](O)CNC(=O)OCc1cn(Cc2ccc(C#N)cc2)nn1
REMARK SMILES IDX 9 1 8 2 6 3 5 4 42 5 41 6 10 7 11 8 12 9 14 10 13 11 32 12
REMARK SMILES IDX 34 13 36 14 15 15 16 16 29 17 28 18 21 19 17 20 19 21 30 22
REMARK SMILES IDX 31 23 22 25 23 26 24 27 25 28 26 29 27 30 18 31 20 33 33 35
REMARK SMILES IDX 35 37 37 39 38 41 39 42 40 43 7 45 43 47 44 48 45 50 46 51
REMARK SMILES IDX 47 53 48 54 49 55 50 57 51 58 52 59 53 60 54 61 66 62 55 63
REMARK SMILES IDX 65 64 56 65 57 66 58 67 64 68 59 69 63 70 60 71 61 72 62 73
REMARK SMILES IDX 4 74 2 75 1 77 3 78
REMARK H PARENT 31 24 18 32 20 34 33 36 35 38 37 40 40 44 7 46 44 49 46 52
REMARK H PARENT 48 56 4 76
REMARK Flexibility Score: inf
ROOT
ATOM      1  C   UNL     1       2.071  23.946  31.596  1.00  0.00     0.272 C 
ATOM      2  C   UNL     1       0.781  23.771  32.319  1.00  0.00     0.113 C 
ATOM      3  C   UNL     1       0.873  23.059  33.622  1.00  0.00     0.145 C 
ATOM      4  C   UNL     1       2.042  22.064  33.534  1.00  0.00     0.142 C 
ATOM      5  C   UNL     1       2.176  21.706  32.085  1.00  0.00     0.178 C 
ATOM      6  O   UNL     1       2.752  22.735  31.396  1.00  0.00    -0.332 OA
ENDROOT
BRANCH   1   7
ATOM      7  O   UNL     1       2.929  24.895  32.108  1.00  0.00    -0.338 OA
BRANCH   7   8
ATOM      8  C   UNL     1       2.353  26.074  32.440  1.00  0.00     0.199 C 
BRANCH   8   9
ATOM      9  C   UNL     1       3.394  27.142  32.819  1.00  0.00     0.179 C 
ATOM     10  C   UNL     1       5.564  27.280  33.591  1.00  0.00     0.282 C 
ATOM     11  O   UNL     1       4.464  26.448  33.386  1.00  0.00    -0.341 OA
ATOM     12  C   UNL     1       6.108  27.859  32.326  1.00  0.00     0.202 C 
ATOM     13  C   UNL     1       5.246  27.423  31.164  1.00  0.00     0.179 C 
ATOM     14  C   UNL     1       3.823  27.809  31.538  1.00  0.00     0.177 C 
BRANCH  10  15
ATOM     15  O   UNL     1       6.558  26.495  34.171  1.00  0.00    -0.341 OA
BRANCH  15  16
ATOM     16  C   UNL     1       6.073  25.313  34.726  1.00  0.00     0.184 C 
ATOM     17  C   UNL     1       6.591  25.160  36.111  1.00  0.00     0.178 C 
ATOM     18  O   UNL     1       7.700  24.377  36.262  1.00  0.00    -0.341 OA
ATOM     19  C   UNL     1       8.342  23.991  35.113  1.00  0.00     0.281 C 
ATOM     20  C   UNL     1       6.271  24.132  33.831  1.00  0.00     0.180 C 
ATOM     21  C   UNL     1       7.377  23.203  34.257  1.00  0.00     0.202 C 
BRANCH  17  22
ATOM     22  C   UNL     1       5.451  24.727  37.029  1.00  0.00     0.191 C 
BRANCH  22  23
ATOM     23  O   UNL     1       5.695  23.409  37.413  1.00  0.00    -0.394 OA
ATOM     24  H   UNL     1       6.000  23.362  38.369  1.00  0.00     0.210 HD
ENDBRANCH  22  23
ENDBRANCH  17  22
BRANCH  19  25
ATOM     25  O   UNL     1       9.371  23.114  35.513  1.00  0.00    -0.350 OA
BRANCH  25  26
ATOM     26  C   UNL     1      10.528  23.818  35.817  1.00  0.00     0.169 C 
BRANCH  26  27
ATOM     27  C   UNL     1      11.032  23.458  37.201  1.00  0.00     0.119 C 
BRANCH  27  28
ATOM     28  N   UNL     1      10.270  22.377  37.798  1.00  0.00    -0.092 NA
ATOM     29  N   UNL     1       9.424  22.617  38.644  1.00  0.00     0.001 N 
ATOM     30  N   UNL     1       8.300  22.676  39.165  1.00  0.00    -0.003 NA
ENDBRANCH  27  28
ENDBRANCH  26  27
ENDBRANCH  25  26
ENDBRANCH  19  25
BRANCH  20  31
ATOM     31  O   UNL     1       5.088  23.422  33.593  1.00  0.00    -0.387 OA
ATOM     32  H   UNL     1       4.451  23.987  33.065  1.00  0.00     0.211 HD
ENDBRANCH  20  31
BRANCH  21  33
ATOM     33  O   UNL     1       8.032  22.637  33.162  1.00  0.00    -0.385 OA
ATOM     34  H   UNL     1       7.591  22.997  32.349  1.00  0.00     0.211 HD
ENDBRANCH  21  33
ENDBRANCH  15  16
ENDBRANCH  10  15
BRANCH  12  35
ATOM     35  O   UNL     1       6.196  29.233  32.312  1.00  0.00    -0.385 OA
ATOM     36  H   UNL     1       6.841  29.535  33.012  1.00  0.00     0.211 HD
ENDBRANCH  12  35
BRANCH  13  37
ATOM     37  O   UNL     1       5.397  26.055  31.001  1.00  0.00    -0.387 OA
ATOM     38  H   UNL     1       5.309  25.737  30.076  1.00  0.00     0.211 HD
ENDBRANCH  13  37
BRANCH  14  39
ATOM     39  O   UNL     1       2.924  27.641  30.513  1.00  0.00    -0.387 OA
ATOM     40  H   UNL     1       3.003  26.736  30.143  1.00  0.00     0.211 HD
ENDBRANCH  14  39
ENDBRANCH   8   9
ENDBRANCH   7   8
ENDBRANCH   1   7
BRANCH   1  41
ATOM     41  C   UNL     1       1.715  24.364  30.198  1.00  0.00     0.364 C 
ATOM     42  O   UNL     1       0.565  24.205  29.776  1.00  0.00    -0.246 OA
BRANCH  41  43
ATOM     43  O   UNL     1       2.692  24.924  29.409  1.00  0.00    -0.477 OA
ATOM     44  H   UNL     1       3.276  24.397  28.773  1.00  0.00     0.296 HD
ENDBRANCH  41  43
ENDBRANCH   1  41
BRANCH   3  45
ATOM     45  O   UNL     1       0.923  23.839  34.742  1.00  0.00    -0.391 OA
ATOM     46  H   UNL     1       0.029  23.994  35.110  1.00  0.00     0.211 HD
ENDBRANCH   3  45
BRANCH   5  47
ATOM     47  C   UNL     1       2.931  20.390  31.858  1.00  0.00     0.176 C 
BRANCH  47  48
ATOM     48  O   UNL     1       1.983  19.382  32.154  1.00  0.00    -0.388 OA
ATOM     49  H   UNL     1       2.176  18.604  31.575  1.00  0.00     0.211 HD
ENDBRANCH  47  48
BRANCH  47  50
ATOM     50  C   UNL     1       3.369  20.242  30.469  1.00  0.00     0.165 C 
BRANCH  50  51
ATOM     51  O   UNL     1       4.630  20.878  30.259  1.00  0.00    -0.388 OA
ATOM     52  H   UNL     1       5.122  20.719  31.125  1.00  0.00     0.211 HD
ENDBRANCH  50  51
BRANCH  50  53
ATOM     53  C   UNL     1       2.431  20.654  29.405  1.00  0.00     0.154 C 
BRANCH  53  54
ATOM     54  N   UNL     1       2.647  21.774  28.599  1.00  0.00    -0.319 N 
ATOM     55  C   UNL     1       2.058  22.139  27.375  1.00  0.00     0.407 C 
ATOM     56  H   UNL     1       3.377  22.488  28.949  1.00  0.00     0.167 HD
ATOM     57  O   UNL     1       1.179  21.470  26.814  1.00  0.00    -0.225 OA
BRANCH  55  58
ATOM     58  O   UNL     1       2.443  23.314  26.710  1.00  0.00    -0.443 OA
BRANCH  58  59
ATOM     59  C   UNL     1       1.458  24.178  26.170  1.00  0.00     0.294 C 
BRANCH  59  60
ATOM     60  C   UNL     1       2.142  25.442  25.720  1.00  0.00     0.120 A 
ATOM     61  C   UNL     1       2.701  26.366  26.579  1.00  0.00     0.138 A 
ATOM     62  N   UNL     1       2.334  25.918  24.476  1.00  0.00    -0.132 NA
ATOM     63  N   UNL     1       3.215  27.375  25.828  1.00  0.00    -0.248 N 
ATOM     64  N   UNL     1       2.971  27.061  24.599  1.00  0.00    -0.067 NA
BRANCH  63  65
ATOM     65  C   UNL     1       3.866  28.533  26.420  1.00  0.00     0.181 C 
BRANCH  65  66
ATOM     66  C   UNL     1       5.310  28.417  26.000  1.00  0.00    -0.026 A 
ATOM     67  C   UNL     1       6.020  27.315  26.409  1.00  0.00     0.007 A 
ATOM     68  C   UNL     1       5.892  29.417  25.216  1.00  0.00     0.007 A 
ATOM     69  C   UNL     1       7.342  27.127  26.078  1.00  0.00     0.020 A 
ATOM     70  C   UNL     1       7.210  29.228  24.886  1.00  0.00     0.020 A 
ATOM     71  C   UNL     1       7.908  28.138  25.294  1.00  0.00     0.052 A 
BRANCH  71  72
ATOM     72  C   UNL     1       9.314  27.972  24.946  1.00  0.00     0.099 C 
ATOM     73  N   UNL     1      10.440  27.858  24.674  1.00  0.00    -0.192 NA
ENDBRANCH  71  72
ENDBRANCH  65  66
ENDBRANCH  63  65
ENDBRANCH  59  60
ENDBRANCH  58  59
ENDBRANCH  55  58
ENDBRANCH  53  54
ENDBRANCH  50  53
ENDBRANCH  47  50
ENDBRANCH   5  47
BRANCH   4  74
ATOM     74  N   UNL     1       1.809  20.947  34.414  1.00  0.00    -0.348 N 
ATOM     75  C   UNL     1       2.588  20.837  35.595  1.00  0.00     0.217 C 
ATOM     76  H   UNL     1       1.097  20.226  34.222  1.00  0.00     0.163 HD
ATOM     77  C   UNL     1       2.406  19.723  36.543  1.00  0.00     0.114 C 
ATOM     78  O   UNL     1       3.480  21.706  35.876  1.00  0.00    -0.275 OA
ENDBRANCH   4  74
TORSDOF 32
