REMARK VINA RESULT:    -5.537      7.768     12.762
REMARK INTER + INTRA:         -22.191
REMARK INTER:                 -15.451
REMARK INTRA:                  -6.740
REMARK UNBOUND:                -8.561
REMARK SMILES CC(=O)N[C@@H]1[C@@H](O)C[C@](OC[C@H]2O[C@@H](O[C@H]3[C@H](O)[C@@H](O)[C@H](OCCN=[N+]=[N-])O[C@@H]3CO)[C@H](O)[C@@H](O)[C@H]2O)(C(=O)O)O[C@H]1C(O)[C@H](O)CNC(=O)OCc1cn(-c2cnc3ccccc3c2)nn1
REMARK SMILES IDX 9 1 8 2 6 3 5 4 42 5 41 6 10 7 11 8 12 9 14 10 13 11 32 12
REMARK SMILES IDX 34 13 36 14 15 15 16 16 29 17 28 18 21 19 17 20 19 21 30 22
REMARK SMILES IDX 31 23 22 25 23 26 24 27 25 28 26 29 27 30 18 31 20 33 33 35
REMARK SMILES IDX 35 37 37 39 38 41 39 42 40 43 7 45 43 47 44 48 45 50 46 51
REMARK SMILES IDX 47 53 48 54 49 55 50 57 51 58 52 59 53 60 54 61 67 62 55 63
REMARK SMILES IDX 66 64 56 65 57 66 65 67 58 68 64 69 59 70 63 71 60 72 62 73
REMARK SMILES IDX 61 74 4 75 2 76 1 78 3 79
REMARK H PARENT 31 24 18 32 20 34 33 36 35 38 37 40 40 44 7 46 44 49 46 52
REMARK H PARENT 48 56 4 77
REMARK Flexibility Score: inf
ROOT
ATOM      1  C   UNL     1      14.815  29.148  19.586  1.00  0.00     0.272 C 
ATOM      2  C   UNL     1      14.035  28.826  20.809  1.00  0.00     0.113 C 
ATOM      3  C   UNL     1      14.756  29.239  22.077  1.00  0.00     0.145 C 
ATOM      4  C   UNL     1      15.195  30.684  21.837  1.00  0.00     0.142 C 
ATOM      5  C   UNL     1      16.260  30.618  20.732  1.00  0.00     0.178 C 
ATOM      6  O   UNL     1      15.493  30.332  19.583  1.00  0.00    -0.332 OA
ENDROOT
BRANCH   1   7
ATOM      7  O   UNL     1      13.980  29.208  18.450  1.00  0.00    -0.338 OA
BRANCH   7   8
ATOM      8  C   UNL     1      13.943  30.430  17.838  1.00  0.00     0.199 C 
BRANCH   8   9
ATOM      9  C   UNL     1      14.460  30.274  16.423  1.00  0.00     0.179 C 
ATOM     10  C   UNL     1      16.304  29.832  15.130  1.00  0.00     0.282 C 
ATOM     11  O   UNL     1      15.672  29.619  16.345  1.00  0.00    -0.341 OA
ATOM     12  C   UNL     1      15.338  30.131  14.021  1.00  0.00     0.202 C 
ATOM     13  C   UNL     1      14.012  29.475  14.175  1.00  0.00     0.179 C 
ATOM     14  C   UNL     1      13.401  29.857  15.492  1.00  0.00     0.177 C 
BRANCH  10  15
ATOM     15  O   UNL     1      17.130  28.764  14.853  1.00  0.00    -0.341 OA
BRANCH  15  16
ATOM     16  C   UNL     1      18.482  29.107  14.864  1.00  0.00     0.184 C 
ATOM     17  C   UNL     1      18.981  29.493  16.235  1.00  0.00     0.178 C 
ATOM     18  O   UNL     1      19.704  30.643  16.299  1.00  0.00    -0.341 OA
ATOM     19  C   UNL     1      20.657  30.855  15.342  1.00  0.00     0.281 C 
ATOM     20  C   UNL     1      18.829  30.101  13.791  1.00  0.00     0.180 C 
ATOM     21  C   UNL     1      20.256  30.525  13.937  1.00  0.00     0.202 C 
BRANCH  17  22
ATOM     22  C   UNL     1      19.649  28.300  16.922  1.00  0.00     0.191 C 
BRANCH  22  23
ATOM     23  O   UNL     1      19.061  28.005  18.149  1.00  0.00    -0.394 OA
ATOM     24  H   UNL     1      18.087  27.930  18.097  1.00  0.00     0.210 HD
ENDBRANCH  22  23
ENDBRANCH  17  22
BRANCH  19  25
ATOM     25  O   UNL     1      21.897  30.302  15.669  1.00  0.00    -0.350 OA
BRANCH  25  26
ATOM     26  C   UNL     1      22.399  29.493  14.671  1.00  0.00     0.169 C 
BRANCH  26  27
ATOM     27  C   UNL     1      23.079  28.263  15.226  1.00  0.00     0.119 C 
BRANCH  27  28
ATOM     28  N   UNL     1      22.402  27.059  14.789  1.00  0.00    -0.092 NA
ATOM     29  N   UNL     1      22.381  26.033  15.468  1.00  0.00     0.001 N 
ATOM     30  N   UNL     1      22.024  25.183  16.285  1.00  0.00    -0.003 NA
ENDBRANCH  27  28
ENDBRANCH  26  27
ENDBRANCH  25  26
ENDBRANCH  19  25
BRANCH  20  31
ATOM     31  O   UNL     1      18.705  29.450  12.544  1.00  0.00    -0.387 OA
ATOM     32  H   UNL     1      18.400  28.513  12.678  1.00  0.00     0.211 HD
ENDBRANCH  20  31
BRANCH  21  33
ATOM     33  O   UNL     1      20.450  31.617  13.059  1.00  0.00    -0.385 OA
ATOM     34  H   UNL     1      19.901  32.396  13.370  1.00  0.00     0.211 HD
ENDBRANCH  21  33
ENDBRANCH  15  16
ENDBRANCH  10  15
BRANCH  12  35
ATOM     35  O   UNL     1      15.143  31.492  13.805  1.00  0.00    -0.385 OA
ATOM     36  H   UNL     1      14.241  31.784  14.079  1.00  0.00     0.211 HD
ENDBRANCH  12  35
BRANCH  13  37
ATOM     37  O   UNL     1      14.123  28.089  14.038  1.00  0.00    -0.387 OA
ATOM     38  H   UNL     1      13.495  27.648  14.633  1.00  0.00     0.211 HD
ENDBRANCH  13  37
BRANCH  14  39
ATOM     39  O   UNL     1      12.648  28.770  15.923  1.00  0.00    -0.387 OA
ATOM     40  H   UNL     1      12.310  28.218  15.192  1.00  0.00     0.211 HD
ENDBRANCH  14  39
ENDBRANCH   8   9
ENDBRANCH   7   8
ENDBRANCH   1   7
BRANCH   1  41
ATOM     41  C   UNL     1      15.836  28.063  19.379  1.00  0.00     0.364 C 
ATOM     42  O   UNL     1      16.318  27.427  20.372  1.00  0.00    -0.246 OA
BRANCH  41  43
ATOM     43  O   UNL     1      16.321  27.678  18.152  1.00  0.00    -0.477 OA
ATOM     44  H   UNL     1      16.389  26.692  17.858  1.00  0.00     0.296 HD
ENDBRANCH  41  43
ENDBRANCH   1  41
BRANCH   3  45
ATOM     45  O   UNL     1      13.965  29.123  23.195  1.00  0.00    -0.391 OA
ATOM     46  H   UNL     1      14.364  29.660  23.910  1.00  0.00     0.211 HD
ENDBRANCH   3  45
BRANCH   5  47
ATOM     47  C   UNL     1      16.873  31.967  20.477  1.00  0.00     0.176 C 
BRANCH  47  48
ATOM     48  O   UNL     1      15.808  32.906  20.444  1.00  0.00    -0.388 OA
ATOM     49  H   UNL     1      15.964  33.593  19.746  1.00  0.00     0.211 HD
ENDBRANCH  47  48
BRANCH  47  50
ATOM     50  C   UNL     1      17.574  32.101  19.132  1.00  0.00     0.165 C 
BRANCH  50  51
ATOM     51  O   UNL     1      18.012  30.752  18.883  1.00  0.00    -0.388 OA
ATOM     52  H   UNL     1      18.511  30.768  18.033  1.00  0.00     0.211 HD
ENDBRANCH  50  51
BRANCH  50  53
ATOM     53  C   UNL     1      18.882  32.845  19.293  1.00  0.00     0.154 C 
BRANCH  53  54
ATOM     54  N   UNL     1      20.065  32.077  19.189  1.00  0.00    -0.319 N 
ATOM     55  C   UNL     1      20.791  31.565  20.286  1.00  0.00     0.407 C 
ATOM     56  H   UNL     1      20.427  31.877  18.203  1.00  0.00     0.167 HD
ATOM     57  O   UNL     1      20.390  31.802  21.442  1.00  0.00    -0.225 OA
BRANCH  55  58
ATOM     58  O   UNL     1      21.920  30.823  20.027  1.00  0.00    -0.443 OA
BRANCH  58  59
ATOM     59  C   UNL     1      21.870  29.511  19.534  1.00  0.00     0.294 C 
BRANCH  59  60
ATOM     60  C   UNL     1      21.554  28.561  20.647  1.00  0.00     0.121 A 
ATOM     61  C   UNL     1      21.888  28.655  21.957  1.00  0.00     0.144 A 
ATOM     62  N   UNL     1      20.859  27.411  20.483  1.00  0.00    -0.131 NA
ATOM     63  N   UNL     1      21.387  27.558  22.556  1.00  0.00    -0.219 N 
ATOM     64  N   UNL     1      20.760  26.806  21.648  1.00  0.00    -0.062 NA
BRANCH  63  65
ATOM     65  C   UNL     1      21.520  27.269  23.945  1.00  0.00     0.085 A 
ATOM     66  C   UNL     1      21.155  28.196  24.867  1.00  0.00     0.140 A 
ATOM     67  C   UNL     1      22.017  26.032  24.321  1.00  0.00     0.040 A 
ATOM     68  N   UNL     1      21.281  27.904  26.177  1.00  0.00    -0.254 NA
ATOM     69  C   UNL     1      22.137  25.754  25.652  1.00  0.00     0.002 A 
ATOM     70  C   UNL     1      21.761  26.712  26.550  1.00  0.00     0.070 A 
ATOM     71  C   UNL     1      22.629  24.529  26.052  1.00  0.00     0.010 A 
ATOM     72  C   UNL     1      21.886  26.420  27.909  1.00  0.00     0.029 A 
ATOM     73  C   UNL     1      22.745  24.261  27.406  1.00  0.00     0.001 A 
ATOM     74  C   UNL     1      22.368  25.220  28.348  1.00  0.00     0.002 A 
ENDBRANCH  63  65
ENDBRANCH  59  60
ENDBRANCH  58  59
ENDBRANCH  55  58
ENDBRANCH  53  54
ENDBRANCH  50  53
ENDBRANCH  47  50
ENDBRANCH   5  47
BRANCH   4  75
ATOM     75  N   UNL     1      15.593  31.325  23.031  1.00  0.00    -0.348 N 
ATOM     76  C   UNL     1      14.672  32.170  23.756  1.00  0.00     0.217 C 
ATOM     77  H   UNL     1      16.532  31.230  23.470  1.00  0.00     0.163 HD
ATOM     78  C   UNL     1      15.070  32.842  24.994  1.00  0.00     0.114 C 
ATOM     79  O   UNL     1      13.511  32.297  23.264  1.00  0.00    -0.275 OA
ENDBRANCH   4  75
TORSDOF 30
