REMARK VINA RESULT:    -6.352     11.992     17.813
REMARK INTER + INTRA:         -23.967
REMARK INTER:                 -16.075
REMARK INTRA:                  -7.892
REMARK UNBOUND:                -7.402
REMARK SMILES CC(=O)N[C@@H]1[C@@H](O)C[C@](OC[C@H]2O[C@@H](O[C@H]3[C@H](O)[C@@H](O)[C@H](OCCN=[N+]=[N-])O[C@@H]3CO)[C@H](O)[C@@H](O)[C@H]2O)(C(=O)O)O[C@H]1C(O)[C@H](O)CNC(=O)OCc1cn(-c2ccc(S(=O)(=O)c3ccc(N)cc3)cc2)nn1
REMARK SMILES IDX 43 1 42 2 9 3 8 4 41 5 6 6 5 7 10 8 11 9 12 10 14 11 13 12
REMARK SMILES IDX 32 13 34 14 36 15 15 16 16 17 29 18 28 19 21 20 17 21 19 22
REMARK SMILES IDX 30 23 31 24 22 26 23 27 24 28 25 29 26 30 27 31 18 32 20 34
REMARK SMILES IDX 33 36 35 38 37 40 38 42 39 43 40 44 7 46 4 48 2 49 1 51 3 52
REMARK SMILES IDX 44 53 45 55 46 56 47 58 48 59 49 60 50 62 51 63 52 64 53 65
REMARK SMILES IDX 54 66 73 67 55 68 72 69 56 70 57 71 71 72 58 73 70 74 59 75
REMARK SMILES IDX 60 76 61 77 62 78 63 79 64 80 69 81 65 82 68 83 66 84 67 85
REMARK H PARENT 31 25 18 33 20 35 33 37 35 39 37 41 40 45 7 47 4 50 44 54
REMARK H PARENT 46 57 48 61 67 86 67 87
REMARK Flexibility Score: inf
ROOT
ATOM      1  C   UNL     1       2.940  20.290  31.173  1.00  0.00     0.176 C 
ENDROOT
BRANCH   1   2
ATOM      2  C   UNL     1       1.909  20.892  30.218  1.00  0.00     0.178 C 
ATOM      3  C   UNL     1       1.523  22.629  28.740  1.00  0.00     0.272 C 
ATOM      4  C   UNL     1       0.159  22.836  29.314  1.00  0.00     0.113 C 
ATOM      5  O   UNL     1       2.383  22.057  29.695  1.00  0.00    -0.332 OA
ATOM      6  C   UNL     1       0.210  22.531  30.802  1.00  0.00     0.145 C 
ATOM      7  C   UNL     1       0.590  21.100  30.979  1.00  0.00     0.142 C 
BRANCH   3   8
ATOM      8  O   UNL     1       2.182  23.797  28.348  1.00  0.00    -0.338 OA
BRANCH   8   9
ATOM      9  C   UNL     1       1.681  24.438  27.255  1.00  0.00     0.199 C 
BRANCH   9  10
ATOM     10  C   UNL     1       2.586  25.592  26.889  1.00  0.00     0.179 C 
ATOM     11  C   UNL     1       3.820  27.312  27.747  1.00  0.00     0.282 C 
ATOM     12  O   UNL     1       3.095  26.135  28.075  1.00  0.00    -0.341 OA
ATOM     13  C   UNL     1       5.080  26.830  27.086  1.00  0.00     0.202 C 
ATOM     14  C   UNL     1       4.725  26.198  25.759  1.00  0.00     0.179 C 
ATOM     15  C   UNL     1       3.672  25.125  25.982  1.00  0.00     0.177 C 
BRANCH  11  16
ATOM     16  O   UNL     1       3.995  28.028  28.902  1.00  0.00    -0.341 OA
BRANCH  16  17
ATOM     17  C   UNL     1       3.794  27.209  30.037  1.00  0.00     0.184 C 
ATOM     18  C   UNL     1       2.898  27.946  30.981  1.00  0.00     0.178 C 
ATOM     19  O   UNL     1       3.368  28.073  32.261  1.00  0.00    -0.341 OA
ATOM     20  C   UNL     1       4.638  28.543  32.424  1.00  0.00     0.281 C 
ATOM     21  C   UNL     1       5.189  27.017  30.618  1.00  0.00     0.180 C 
ATOM     22  C   UNL     1       5.551  28.353  31.234  1.00  0.00     0.202 C 
BRANCH  18  23
ATOM     23  C   UNL     1       1.619  27.094  31.091  1.00  0.00     0.191 C 
BRANCH  23  24
ATOM     24  O   UNL     1       1.767  25.840  30.553  1.00  0.00    -0.394 OA
ATOM     25  H   UNL     1       2.689  25.614  30.277  1.00  0.00     0.210 HD
ENDBRANCH  23  24
ENDBRANCH  18  23
BRANCH  20  26
ATOM     26  O   UNL     1       5.213  27.845  33.481  1.00  0.00    -0.350 OA
BRANCH  26  27
ATOM     27  C   UNL     1       4.414  27.681  34.580  1.00  0.00     0.169 C 
BRANCH  27  28
ATOM     28  C   UNL     1       4.796  26.460  35.347  1.00  0.00     0.119 C 
BRANCH  28  29
ATOM     29  N   UNL     1       3.737  25.445  35.212  1.00  0.00    -0.092 NA
ATOM     30  N   UNL     1       3.297  25.130  34.108  1.00  0.00     0.001 N 
ATOM     31  N   UNL     1       3.165  24.500  33.044  1.00  0.00    -0.003 NA
ENDBRANCH  28  29
ENDBRANCH  27  28
ENDBRANCH  26  27
ENDBRANCH  20  26
BRANCH  21  32
ATOM     32  O   UNL     1       5.169  26.058  31.603  1.00  0.00    -0.387 OA
ATOM     33  H   UNL     1       5.574  25.210  31.275  1.00  0.00     0.211 HD
ENDBRANCH  21  32
BRANCH  22  34
ATOM     34  O   UNL     1       5.498  29.388  30.330  1.00  0.00    -0.385 OA
ATOM     35  H   UNL     1       5.068  29.132  29.472  1.00  0.00     0.211 HD
ENDBRANCH  22  34
ENDBRANCH  16  17
ENDBRANCH  11  16
BRANCH  13  36
ATOM     36  O   UNL     1       6.026  27.841  26.936  1.00  0.00    -0.385 OA
ATOM     37  H   UNL     1       6.865  27.513  27.393  1.00  0.00     0.211 HD
ENDBRANCH  13  36
BRANCH  14  38
ATOM     38  O   UNL     1       5.854  25.522  25.276  1.00  0.00    -0.387 OA
ATOM     39  H   UNL     1       6.662  25.869  25.698  1.00  0.00     0.211 HD
ENDBRANCH  14  38
BRANCH  15  40
ATOM     40  O   UNL     1       4.253  23.947  26.428  1.00  0.00    -0.387 OA
ATOM     41  H   UNL     1       5.161  24.121  26.769  1.00  0.00     0.211 HD
ENDBRANCH  15  40
ENDBRANCH   9  10
ENDBRANCH   8   9
ENDBRANCH   3   8
BRANCH   3  42
ATOM     42  C   UNL     1       1.537  21.730  27.554  1.00  0.00     0.364 C 
ATOM     43  O   UNL     1       0.572  21.038  27.156  1.00  0.00    -0.246 OA
BRANCH  42  44
ATOM     44  O   UNL     1       2.699  21.626  26.809  1.00  0.00    -0.477 OA
ATOM     45  H   UNL     1       3.350  20.834  26.929  1.00  0.00     0.296 HD
ENDBRANCH  42  44
ENDBRANCH   3  42
BRANCH   6  46
ATOM     46  O   UNL     1       1.249  23.312  31.318  1.00  0.00    -0.391 OA
ATOM     47  H   UNL     1       1.054  24.285  31.240  1.00  0.00     0.211 HD
ENDBRANCH   6  46
BRANCH   7  48
ATOM     48  N   UNL     1      -0.380  20.145  30.546  1.00  0.00    -0.348 N 
ATOM     49  C   UNL     1      -0.542  18.849  31.113  1.00  0.00     0.217 C 
ATOM     50  H   UNL     1      -1.028  20.400  29.761  1.00  0.00     0.163 HD
ATOM     51  C   UNL     1      -1.589  17.946  30.575  1.00  0.00     0.114 C 
ATOM     52  O   UNL     1       0.207  18.525  32.044  1.00  0.00    -0.275 OA
ENDBRANCH   7  48
ENDBRANCH   1   2
BRANCH   1  53
ATOM     53  O   UNL     1       3.148  18.948  30.900  1.00  0.00    -0.388 OA
ATOM     54  H   UNL     1       4.088  18.689  31.136  1.00  0.00     0.211 HD
ENDBRANCH   1  53
BRANCH   1  55
ATOM     55  C   UNL     1       4.179  21.096  31.258  1.00  0.00     0.165 C 
BRANCH  55  56
ATOM     56  O   UNL     1       5.217  20.501  30.536  1.00  0.00    -0.388 OA
ATOM     57  H   UNL     1       5.069  20.472  29.577  1.00  0.00     0.211 HD
ENDBRANCH  55  56
BRANCH  55  58
ATOM     58  C   UNL     1       4.674  21.194  32.685  1.00  0.00     0.154 C 
BRANCH  58  59
ATOM     59  N   UNL     1       5.599  22.271  32.901  1.00  0.00    -0.319 N 
ATOM     60  C   UNL     1       6.975  21.967  33.054  1.00  0.00     0.407 C 
ATOM     61  H   UNL     1       5.287  23.253  32.946  1.00  0.00     0.167 HD
ATOM     62  O   UNL     1       7.339  20.758  32.984  1.00  0.00    -0.225 OA
BRANCH  60  63
ATOM     63  O   UNL     1       7.960  22.901  33.279  1.00  0.00    -0.443 OA
BRANCH  63  64
ATOM     64  C   UNL     1       8.414  23.291  34.557  1.00  0.00     0.294 C 
BRANCH  64  65
ATOM     65  C   UNL     1       8.858  24.705  34.490  1.00  0.00     0.121 A 
ATOM     66  C   UNL     1       9.995  25.259  33.939  1.00  0.00     0.144 A 
ATOM     67  N   UNL     1       8.157  25.776  34.979  1.00  0.00    -0.131 NA
ATOM     68  N   UNL     1       9.953  26.617  34.104  1.00  0.00    -0.220 N 
ATOM     69  N   UNL     1       8.833  26.876  34.732  1.00  0.00    -0.062 NA
BRANCH  68  70
ATOM     70  C   UNL     1      10.900  27.574  33.680  1.00  0.00     0.066 A 
ATOM     71  C   UNL     1      12.262  27.386  33.932  1.00  0.00     0.030 A 
ATOM     72  C   UNL     1      10.560  28.724  33.013  1.00  0.00     0.030 A 
ATOM     73  C   UNL     1      13.222  28.286  33.540  1.00  0.00     0.023 A 
ATOM     74  C   UNL     1      11.530  29.644  32.612  1.00  0.00     0.023 A 
ATOM     75  C   UNL     1      12.867  29.436  32.871  1.00  0.00     0.072 A 
BRANCH  75  76
ATOM     76  S   UNL     1      14.082  30.589  32.364  1.00  0.00     0.206 S 
ATOM     77  O   UNL     1      14.175  31.680  33.419  1.00  0.00    -0.219 OA
ATOM     78  O   UNL     1      13.822  31.158  31.010  1.00  0.00    -0.219 OA
BRANCH  76  79
ATOM     79  C   UNL     1      15.656  29.792  32.376  1.00  0.00     0.072 A 
ATOM     80  C   UNL     1      16.074  29.069  31.292  1.00  0.00     0.023 A 
ATOM     81  C   UNL     1      16.482  29.885  33.473  1.00  0.00     0.023 A 
ATOM     82  C   UNL     1      17.293  28.455  31.314  1.00  0.00     0.027 A 
ATOM     83  C   UNL     1      17.703  29.262  33.480  1.00  0.00     0.027 A 
ATOM     84  C   UNL     1      18.147  28.533  32.413  1.00  0.00     0.031 A 
BRANCH  84  85
ATOM     85  N   UNL     1      19.398  27.881  32.393  1.00  0.00    -0.399 N 
ATOM     86  H   UNL     1      20.192  28.230  32.947  1.00  0.00     0.156 HD
ATOM     87  H   UNL     1      19.523  27.034  31.812  1.00  0.00     0.156 HD
ENDBRANCH  84  85
ENDBRANCH  76  79
ENDBRANCH  75  76
ENDBRANCH  68  70
ENDBRANCH  64  65
ENDBRANCH  63  64
ENDBRANCH  60  63
ENDBRANCH  58  59
ENDBRANCH  55  58
ENDBRANCH   1  55
TORSDOF 33
