REMARK VINA RESULT:    -6.261     13.081     18.909
REMARK INTER + INTRA:         -23.393
REMARK INTER:                 -13.787
REMARK INTRA:                  -9.607
REMARK UNBOUND:                -6.885
REMARK SMILES CCOC(=O)c1cccc(-n2cc(COC(=O)NC[C@@H](O)C(O)[C@@H]3O[C@@](OC[C@H]4O[C@@H](O[C@H]5[C@H](O)[C@@H](O)[C@H](OCCN=[N+]=[N-])O[C@@H]5CO)[C@H](O)[C@@H](O)[C@H]4O)(C(=O)O)C[C@H](O)[C@H]3NC(C)=O)nn2)c1
REMARK SMILES IDX 22 1 24 2 26 3 58 4 25 5 59 6 61 7 27 8 28 9 29 10 31 11
REMARK SMILES IDX 30 12 49 13 51 14 53 15 32 16 33 17 46 18 45 19 38 20 34 21
REMARK SMILES IDX 36 22 47 23 48 24 39 26 40 27 41 28 42 29 43 30 44 31 35 32
REMARK SMILES IDX 37 34 50 36 52 38 54 40 55 42 56 43 57 44 60 46 62 48 63 49
REMARK SMILES IDX 64 51 65 52 23 53 20 55 21 56 19 58 18 59 16 60 17 62 15 63
REMARK SMILES IDX 14 64 13 65 12 66 66 67 11 68 67 69 10 70 68 71 9 72 6 73
REMARK SMILES IDX 8 74 7 75 4 76 5 77 3 78 2 79 1 80
REMARK H PARENT 48 25 35 33 37 35 50 37 52 39 54 41 57 45 60 47 62 50 23 54
REMARK H PARENT 21 57 18 61
REMARK Flexibility Score: inf
ROOT
ATOM      1  C   UNL     1      22.585  29.394  22.300  1.00  0.00     0.176 C 
ENDROOT
BRANCH   1   2
ATOM      2  C   UNL     1      22.268  30.444  23.279  1.00  0.00     0.178 C 
ATOM      3  C   UNL     1      20.291  31.259  24.288  1.00  0.00     0.272 C 
ATOM      4  C   UNL     1      21.334  32.105  24.944  1.00  0.00     0.113 C 
ATOM      5  O   UNL     1      20.942  30.833  23.074  1.00  0.00    -0.332 OA
ATOM      6  C   UNL     1      22.265  32.791  23.958  1.00  0.00     0.145 C 
ATOM      7  C   UNL     1      23.114  31.668  23.274  1.00  0.00     0.142 C 
BRANCH   3   8
ATOM      8  O   UNL     1      19.243  32.023  23.879  1.00  0.00    -0.338 OA
BRANCH   8   9
ATOM      9  C   UNL     1      18.326  32.573  24.635  1.00  0.00     0.199 C 
BRANCH   9  10
ATOM     10  C   UNL     1      16.874  32.601  24.413  1.00  0.00     0.179 C 
ATOM     11  C   UNL     1      15.173  31.977  22.933  1.00  0.00     0.282 C 
ATOM     12  O   UNL     1      16.518  32.367  23.133  1.00  0.00    -0.341 OA
ATOM     13  C   UNL     1      14.331  32.290  24.130  1.00  0.00     0.202 C 
ATOM     14  C   UNL     1      14.849  31.691  25.398  1.00  0.00     0.179 C 
ATOM     15  C   UNL     1      16.308  31.420  25.266  1.00  0.00     0.177 C 
BRANCH  11  16
ATOM     16  O   UNL     1      15.233  30.667  22.556  1.00  0.00    -0.341 OA
BRANCH  16  17
ATOM     17  C   UNL     1      15.766  30.342  21.357  1.00  0.00     0.184 C 
ATOM     18  C   UNL     1      14.724  29.612  20.552  1.00  0.00     0.178 C 
ATOM     19  O   UNL     1      15.196  29.293  19.277  1.00  0.00    -0.341 OA
ATOM     20  C   UNL     1      16.203  28.300  19.432  1.00  0.00     0.281 C 
ATOM     21  C   UNL     1      16.968  29.391  21.482  1.00  0.00     0.180 C 
ATOM     22  C   UNL     1      17.368  29.015  20.057  1.00  0.00     0.202 C 
BRANCH  18  23
ATOM     23  C   UNL     1      13.479  30.439  20.399  1.00  0.00     0.191 C 
BRANCH  23  24
ATOM     24  O   UNL     1      12.587  30.183  21.473  1.00  0.00    -0.394 OA
ATOM     25  H   UNL     1      11.802  30.784  21.417  1.00  0.00     0.210 HD
ENDBRANCH  23  24
ENDBRANCH  18  23
BRANCH  20  26
ATOM     26  O   UNL     1      16.457  27.768  18.201  1.00  0.00    -0.350 OA
BRANCH  26  27
ATOM     27  C   UNL     1      16.416  28.719  17.192  1.00  0.00     0.169 C 
BRANCH  27  28
ATOM     28  C   UNL     1      17.697  28.835  16.422  1.00  0.00     0.119 C 
BRANCH  28  29
ATOM     29  N   UNL     1      17.460  29.637  15.216  1.00  0.00    -0.092 NA
ATOM     30  N   UNL     1      17.809  29.155  14.130  1.00  0.00     0.001 N 
ATOM     31  N   UNL     1      17.876  28.713  12.965  1.00  0.00    -0.003 NA
ENDBRANCH  28  29
ENDBRANCH  27  28
ENDBRANCH  26  27
ENDBRANCH  20  26
BRANCH  21  32
ATOM     32  O   UNL     1      18.072  30.044  22.010  1.00  0.00    -0.387 OA
ATOM     33  H   UNL     1      17.852  30.286  22.942  1.00  0.00     0.211 HD
ENDBRANCH  21  32
BRANCH  22  34
ATOM     34  O   UNL     1      18.524  28.240  20.054  1.00  0.00    -0.385 OA
ATOM     35  H   UNL     1      18.720  27.830  19.158  1.00  0.00     0.211 HD
ENDBRANCH  22  34
ENDBRANCH  16  17
ENDBRANCH  11  16
BRANCH  13  36
ATOM     36  O   UNL     1      14.167  33.686  24.223  1.00  0.00    -0.385 OA
ATOM     37  H   UNL     1      14.964  34.131  24.589  1.00  0.00     0.211 HD
ENDBRANCH  13  36
BRANCH  14  38
ATOM     38  O   UNL     1      14.088  30.645  25.868  1.00  0.00    -0.387 OA
ATOM     39  H   UNL     1      14.719  29.928  26.148  1.00  0.00     0.211 HD
ENDBRANCH  14  38
BRANCH  15  40
ATOM     40  O   UNL     1      16.581  30.211  24.707  1.00  0.00    -0.387 OA
ATOM     41  H   UNL     1      15.770  29.645  24.724  1.00  0.00     0.211 HD
ENDBRANCH  15  40
ENDBRANCH   9  10
ENDBRANCH   8   9
ENDBRANCH   3   8
BRANCH   3  42
ATOM     42  C   UNL     1      19.900  30.052  25.003  1.00  0.00     0.364 C 
ATOM     43  O   UNL     1      19.375  29.080  24.437  1.00  0.00    -0.246 OA
BRANCH  42  44
ATOM     44  O   UNL     1      20.107  29.946  26.379  1.00  0.00    -0.477 OA
ATOM     45  H   UNL     1      20.939  29.577  26.789  1.00  0.00     0.296 HD
ENDBRANCH  42  44
ENDBRANCH   3  42
BRANCH   6  46
ATOM     46  O   UNL     1      21.508  33.352  22.961  1.00  0.00    -0.391 OA
ATOM     47  H   UNL     1      20.595  33.521  23.296  1.00  0.00     0.211 HD
ENDBRANCH   6  46
BRANCH   7  48
ATOM     48  N   UNL     1      24.313  31.540  24.070  1.00  0.00    -0.348 N 
ATOM     49  C   UNL     1      25.601  31.220  23.528  1.00  0.00     0.217 C 
ATOM     50  H   UNL     1      24.305  31.683  25.125  1.00  0.00     0.163 HD
ATOM     51  C   UNL     1      26.814  31.096  24.378  1.00  0.00     0.114 C 
ATOM     52  O   UNL     1      25.725  31.036  22.300  1.00  0.00    -0.275 OA
ENDBRANCH   7  48
ENDBRANCH   1   2
BRANCH   1  53
ATOM     53  O   UNL     1      23.190  28.265  22.784  1.00  0.00    -0.388 OA
ATOM     54  H   UNL     1      22.999  28.109  23.738  1.00  0.00     0.211 HD
ENDBRANCH   1  53
BRANCH   1  55
ATOM     55  C   UNL     1      21.517  29.056  21.291  1.00  0.00     0.165 C 
BRANCH  55  56
ATOM     56  O   UNL     1      20.539  28.239  21.866  1.00  0.00    -0.388 OA
ATOM     57  H   UNL     1      19.734  28.774  22.091  1.00  0.00     0.211 HD
ENDBRANCH  55  56
BRANCH  55  58
ATOM     58  C   UNL     1      22.030  28.589  19.963  1.00  0.00     0.154 C 
BRANCH  58  59
ATOM     59  N   UNL     1      21.961  27.152  19.824  1.00  0.00    -0.319 N 
ATOM     60  C   UNL     1      23.092  26.335  20.044  1.00  0.00     0.407 C 
ATOM     61  H   UNL     1      21.044  26.680  19.552  1.00  0.00     0.167 HD
ATOM     62  O   UNL     1      24.226  26.745  20.376  1.00  0.00    -0.225 OA
BRANCH  60  63
ATOM     63  O   UNL     1      22.997  24.938  19.883  1.00  0.00    -0.443 OA
BRANCH  63  64
ATOM     64  C   UNL     1      22.443  24.063  20.816  1.00  0.00     0.294 C 
BRANCH  64  65
ATOM     65  C   UNL     1      21.973  24.670  22.069  1.00  0.00     0.121 A 
ATOM     66  C   UNL     1      22.617  24.613  23.300  1.00  0.00     0.144 A 
ATOM     67  N   UNL     1      20.866  25.376  22.263  1.00  0.00    -0.131 NA
ATOM     68  N   UNL     1      21.870  25.282  24.177  1.00  0.00    -0.220 N 
ATOM     69  N   UNL     1      20.815  25.741  23.544  1.00  0.00    -0.062 NA
BRANCH  68  70
ATOM     70  C   UNL     1      22.171  25.465  25.544  1.00  0.00     0.067 A 
ATOM     71  C   UNL     1      21.929  26.676  26.188  1.00  0.00     0.044 A 
ATOM     72  C   UNL     1      22.703  24.461  26.308  1.00  0.00     0.028 A 
ATOM     73  C   UNL     1      22.192  26.898  27.513  1.00  0.00     0.062 A 
ATOM     74  C   UNL     1      22.983  24.646  27.654  1.00  0.00     0.003 A 
ATOM     75  C   UNL     1      22.732  25.856  28.258  1.00  0.00     0.016 A 
BRANCH  73  76
ATOM     76  C   UNL     1      21.919  28.183  28.120  1.00  0.00     0.338 C 
ATOM     77  O   UNL     1      22.723  29.122  27.958  1.00  0.00    -0.246 OA
BRANCH  76  78
ATOM     78  O   UNL     1      20.783  28.366  28.865  1.00  0.00    -0.462 OA
BRANCH  78  79
ATOM     79  C   UNL     1      20.706  28.159  30.256  1.00  0.00     0.230 C 
ATOM     80  C   UNL     1      19.629  27.143  30.567  1.00  0.00     0.049 C 
ENDBRANCH  78  79
ENDBRANCH  76  78
ENDBRANCH  73  76
ENDBRANCH  68  70
ENDBRANCH  64  65
ENDBRANCH  63  64
ENDBRANCH  60  63
ENDBRANCH  58  59
ENDBRANCH  55  58
ENDBRANCH   1  55
TORSDOF 33
