REMARK VINA RESULT:    -5.830      9.872     16.874
REMARK INTER + INTRA:         -24.184
REMARK INTER:                 -18.146
REMARK INTRA:                  -6.038
REMARK UNBOUND:                -8.981
REMARK SMILES CC(=O)N[C@@H]1[C@@H](O)C[C@](OC[C@H]2O[C@@H](O[C@H]3[C@H](O)[C@@H](O)[C@H](OCCN=[N+]=[N-])O[C@@H]3CO)[C@H](O)[C@@H](O)[C@H]2O)(C(=O)O)O[C@H]1C(O)[C@H](O)CNC(=O)OCc1cn(-c2cc(C(=O)O)nc(-c3ccccc3)c2)nn1
REMARK SMILES IDX 9 1 8 2 6 3 5 4 42 5 41 6 10 7 11 8 12 9 14 10 13 11 32 12
REMARK SMILES IDX 34 13 36 14 15 15 16 16 29 17 28 18 21 19 17 20 19 21 30 22
REMARK SMILES IDX 31 23 22 25 23 26 24 27 25 28 26 29 27 30 18 31 20 33 33 35
REMARK SMILES IDX 35 37 37 39 38 41 39 42 40 43 7 45 43 47 44 48 45 50 46 51
REMARK SMILES IDX 47 53 48 54 49 55 50 57 51 58 52 59 53 60 54 61 72 62 55 63
REMARK SMILES IDX 71 64 56 65 57 66 70 67 58 68 63 69 62 70 59 71 60 72 61 73
REMARK SMILES IDX 64 75 65 76 69 77 66 78 68 79 67 80 4 81 2 82 1 84 3 85
REMARK H PARENT 31 24 18 32 20 34 33 36 35 38 37 40 40 44 7 46 44 49 46 52
REMARK H PARENT 48 56 61 74 4 83
REMARK Flexibility Score: inf
ROOT
ATOM      1  C   UNL     1      19.563  28.891  20.439  1.00  0.00     0.272 C 
ATOM      2  C   UNL     1      19.689  30.338  20.957  1.00  0.00     0.113 C 
ATOM      3  C   UNL     1      18.902  30.613  22.186  1.00  0.00     0.145 C 
ATOM      4  C   UNL     1      17.522  29.967  22.176  1.00  0.00     0.142 C 
ATOM      5  C   UNL     1      17.386  29.392  20.763  1.00  0.00     0.178 C 
ATOM      6  O   UNL     1      18.299  28.363  20.696  1.00  0.00    -0.332 OA
ENDROOT
BRANCH   1   7
ATOM      7  O   UNL     1      20.497  28.184  21.125  1.00  0.00    -0.338 OA
BRANCH   7   8
ATOM      8  C   UNL     1      21.397  27.424  20.449  1.00  0.00     0.199 C 
BRANCH   8   9
ATOM      9  C   UNL     1      22.381  26.744  21.434  1.00  0.00     0.179 C 
ATOM     10  C   UNL     1      23.099  26.970  23.648  1.00  0.00     0.282 C 
ATOM     11  O   UNL     1      22.346  27.437  22.601  1.00  0.00    -0.341 OA
ATOM     12  C   UNL     1      23.572  25.566  23.323  1.00  0.00     0.202 C 
ATOM     13  C   UNL     1      22.473  24.677  22.793  1.00  0.00     0.179 C 
ATOM     14  C   UNL     1      21.798  25.357  21.656  1.00  0.00     0.177 C 
BRANCH  10  15
ATOM     15  O   UNL     1      22.306  26.988  24.780  1.00  0.00    -0.341 OA
BRANCH  15  16
ATOM     16  C   UNL     1      22.973  26.729  25.966  1.00  0.00     0.184 C 
ATOM     17  C   UNL     1      22.279  25.750  26.839  1.00  0.00     0.178 C 
ATOM     18  O   UNL     1      21.918  26.303  28.056  1.00  0.00    -0.341 OA
ATOM     19  C   UNL     1      21.205  27.491  27.907  1.00  0.00     0.281 C 
ATOM     20  C   UNL     1      23.261  28.050  26.618  1.00  0.00     0.180 C 
ATOM     21  C   UNL     1      22.218  28.557  27.549  1.00  0.00     0.202 C 
BRANCH  17  22
ATOM     22  C   UNL     1      23.210  24.594  27.141  1.00  0.00     0.191 C 
BRANCH  22  23
ATOM     23  O   UNL     1      24.120  24.900  28.137  1.00  0.00    -0.394 OA
ATOM     24  H   UNL     1      23.645  25.325  28.898  1.00  0.00     0.210 HD
ENDBRANCH  22  23
ENDBRANCH  17  22
BRANCH  19  25
ATOM     25  O   UNL     1      20.652  27.787  29.144  1.00  0.00    -0.350 OA
BRANCH  25  26
ATOM     26  C   UNL     1      21.247  27.051  30.171  1.00  0.00     0.169 C 
BRANCH  26  27
ATOM     27  C   UNL     1      21.779  27.972  31.240  1.00  0.00     0.119 C 
BRANCH  27  28
ATOM     28  N   UNL     1      23.104  27.541  31.625  1.00  0.00    -0.092 NA
ATOM     29  N   UNL     1      23.864  27.138  30.756  1.00  0.00     0.001 N 
ATOM     30  N   UNL     1      24.902  26.940  30.102  1.00  0.00    -0.003 NA
ENDBRANCH  27  28
ENDBRANCH  26  27
ENDBRANCH  25  26
ENDBRANCH  19  25
BRANCH  20  31
ATOM     31  O   UNL     1      24.441  27.882  27.380  1.00  0.00    -0.387 OA
ATOM     32  H   UNL     1      25.102  28.583  27.154  1.00  0.00     0.211 HD
ENDBRANCH  20  31
BRANCH  21  33
ATOM     33  O   UNL     1      21.597  29.675  26.953  1.00  0.00    -0.385 OA
ATOM     34  H   UNL     1      21.147  29.429  26.099  1.00  0.00     0.211 HD
ENDBRANCH  21  33
ENDBRANCH  15  16
ENDBRANCH  10  15
BRANCH  12  35
ATOM     35  O   UNL     1      24.627  25.536  22.420  1.00  0.00    -0.385 OA
ATOM     36  H   UNL     1      25.098  24.674  22.597  1.00  0.00     0.211 HD
ENDBRANCH  12  35
BRANCH  13  37
ATOM     37  O   UNL     1      21.614  24.420  23.862  1.00  0.00    -0.387 OA
ATOM     38  H   UNL     1      22.119  24.622  24.692  1.00  0.00     0.211 HD
ENDBRANCH  13  37
BRANCH  14  39
ATOM     39  O   UNL     1      20.444  25.510  22.017  1.00  0.00    -0.387 OA
ATOM     40  H   UNL     1      20.333  25.862  22.915  1.00  0.00     0.211 HD
ENDBRANCH  14  39
ENDBRANCH   8   9
ENDBRANCH   7   8
ENDBRANCH   1   7
BRANCH   1  41
ATOM     41  C   UNL     1      19.731  28.910  18.964  1.00  0.00     0.364 C 
ATOM     42  O   UNL     1      20.304  29.858  18.363  1.00  0.00    -0.246 OA
BRANCH  41  43
ATOM     43  O   UNL     1      19.258  27.871  18.195  1.00  0.00    -0.477 OA
ATOM     44  H   UNL     1      18.277  27.566  18.189  1.00  0.00     0.296 HD
ENDBRANCH  41  43
ENDBRANCH   1  41
BRANCH   3  45
ATOM     45  O   UNL     1      19.593  30.373  23.354  1.00  0.00    -0.391 OA
ATOM     46  H   UNL     1      19.741  31.220  23.820  1.00  0.00     0.211 HD
ENDBRANCH   3  45
BRANCH   5  47
ATOM     47  C   UNL     1      15.993  29.066  20.378  1.00  0.00     0.176 C 
BRANCH  47  48
ATOM     48  O   UNL     1      15.420  28.266  21.393  1.00  0.00    -0.388 OA
ATOM     49  H   UNL     1      16.146  27.925  22.005  1.00  0.00     0.211 HD
ENDBRANCH  47  48
BRANCH  47  50
ATOM     50  C   UNL     1      15.813  28.405  19.040  1.00  0.00     0.165 C 
BRANCH  50  51
ATOM     51  O   UNL     1      16.586  27.263  18.977  1.00  0.00    -0.388 OA
ATOM     52  H   UNL     1      16.102  26.457  19.300  1.00  0.00     0.211 HD
ENDBRANCH  50  51
BRANCH  50  53
ATOM     53  C   UNL     1      16.213  29.420  17.997  1.00  0.00     0.154 C 
BRANCH  53  54
ATOM     54  N   UNL     1      15.723  29.198  16.685  1.00  0.00    -0.319 N 
ATOM     55  C   UNL     1      16.583  28.838  15.615  1.00  0.00     0.407 C 
ATOM     56  H   UNL     1      14.701  29.294  16.467  1.00  0.00     0.167 HD
ATOM     57  O   UNL     1      17.806  28.733  15.823  1.00  0.00    -0.225 OA
BRANCH  55  58
ATOM     58  O   UNL     1      16.072  28.599  14.324  1.00  0.00    -0.443 OA
BRANCH  58  59
ATOM     59  C   UNL     1      15.266  29.583  13.727  1.00  0.00     0.294 C 
BRANCH  59  60
ATOM     60  C   UNL     1      13.827  29.248  13.846  1.00  0.00     0.121 A 
ATOM     61  C   UNL     1      12.739  30.067  14.037  1.00  0.00     0.144 A 
ATOM     62  N   UNL     1      13.286  27.996  13.816  1.00  0.00    -0.131 NA
ATOM     63  N   UNL     1      11.603  29.342  14.119  1.00  0.00    -0.220 N 
ATOM     64  N   UNL     1      11.981  28.072  13.978  1.00  0.00    -0.062 NA
BRANCH  63  65
ATOM     65  C   UNL     1      10.294  29.837  14.343  1.00  0.00     0.071 A 
ATOM     66  C   UNL     1       9.396  29.766  13.289  1.00  0.00     0.064 A 
ATOM     67  C   UNL     1       9.834  30.370  15.529  1.00  0.00     0.057 A 
ATOM     68  C   UNL     1       8.104  30.223  13.470  1.00  0.00     0.151 A 
ATOM     69  C   UNL     1       8.562  30.817  15.700  1.00  0.00     0.073 A 
ATOM     70  N   UNL     1       7.714  30.734  14.656  1.00  0.00    -0.241 NA
BRANCH  68  71
ATOM     71  C   UNL     1       7.137  30.158  12.384  1.00  0.00     0.354 C 
ATOM     72  O   UNL     1       7.403  30.770  11.319  1.00  0.00    -0.245 OA
BRANCH  71  73
ATOM     73  O   UNL     1       5.950  29.468  12.453  1.00  0.00    -0.477 OA
ATOM     74  H   UNL     1       5.290  29.570  13.234  1.00  0.00     0.297 HD
ENDBRANCH  71  73
ENDBRANCH  68  71
BRANCH  69  75
ATOM     75  C   UNL     1       8.096  31.370  16.966  1.00  0.00     0.000 A 
ATOM     76  C   UNL     1       8.847  32.390  17.548  1.00  0.00     0.010 A 
ATOM     77  C   UNL     1       6.970  30.950  17.613  1.00  0.00     0.010 A 
ATOM     78  C   UNL     1       8.483  32.970  18.734  1.00  0.00     0.001 A 
ATOM     79  C   UNL     1       6.613  31.543  18.811  1.00  0.00     0.001 A 
ATOM     80  C   UNL     1       7.342  32.542  19.388  1.00  0.00     0.000 A 
ENDBRANCH  69  75
ENDBRANCH  63  65
ENDBRANCH  59  60
ENDBRANCH  58  59
ENDBRANCH  55  58
ENDBRANCH  53  54
ENDBRANCH  50  53
ENDBRANCH  47  50
ENDBRANCH   5  47
BRANCH   4  81
ATOM     81  N   UNL     1      16.490  30.893  22.512  1.00  0.00    -0.348 N 
ATOM     82  C   UNL     1      15.645  30.643  23.624  1.00  0.00     0.217 C 
ATOM     83  H   UNL     1      16.370  31.752  21.928  1.00  0.00     0.163 HD
ATOM     84  C   UNL     1      14.555  31.571  24.023  1.00  0.00     0.114 C 
ATOM     85  O   UNL     1      15.797  29.592  24.334  1.00  0.00    -0.275 OA
ENDBRANCH   4  81
TORSDOF 33
