REMARK VINA RESULT:    -5.893      4.374      6.423
REMARK INTER + INTRA:         -22.051
REMARK INTER:                 -13.938
REMARK INTRA:                  -8.113
REMARK UNBOUND:                -7.546
REMARK SMILES CC(=O)N[C@@H]1[C@@H](O)C[C@](OC[C@H]2O[C@@H](O[C@H]3[C@H](O)[C@@H](O)[C@H](OCCN=[N+]=[N-])O[C@@H]3CO)[C@H](O)[C@@H](O)[C@H]2O)(C(=O)O)O[C@H]1C(O)[C@H](O)CNC(=O)OCc1cn(-c2ccc3[nH]ncc3c2)nn1
REMARK SMILES IDX 9 1 8 2 6 3 5 4 42 5 41 6 10 7 11 8 12 9 14 10 13 11 32 12
REMARK SMILES IDX 34 13 36 14 15 15 16 16 29 17 28 18 21 19 17 20 19 21 30 22
REMARK SMILES IDX 31 23 22 25 23 26 24 27 25 28 26 29 27 30 18 31 20 33 33 35
REMARK SMILES IDX 35 37 37 39 38 41 39 42 40 43 7 45 43 47 44 48 45 50 46 51
REMARK SMILES IDX 47 53 48 54 49 55 50 57 51 58 52 59 53 60 54 61 66 62 55 63
REMARK SMILES IDX 65 64 56 65 57 66 64 67 58 68 63 69 59 70 62 71 60 72 61 73
REMARK SMILES IDX 4 75 2 76 1 78 3 79
REMARK H PARENT 31 24 18 32 20 34 33 36 35 38 37 40 40 44 7 46 44 49 46 52
REMARK H PARENT 48 56 60 74 4 77
REMARK Flexibility Score: inf
ROOT
ATOM      1  C   UNL     1      20.907  29.853  24.497  1.00  0.00     0.272 C 
ATOM      2  C   UNL     1      22.242  30.456  24.742  1.00  0.00     0.113 C 
ATOM      3  C   UNL     1      23.421  29.594  24.371  1.00  0.00     0.145 C 
ATOM      4  C   UNL     1      23.229  29.301  22.859  1.00  0.00     0.142 C 
ATOM      5  C   UNL     1      21.884  28.693  22.754  1.00  0.00     0.178 C 
ATOM      6  O   UNL     1      20.813  29.396  23.185  1.00  0.00    -0.332 OA
ENDROOT
BRANCH   1   7
ATOM      7  O   UNL     1      19.930  30.855  24.684  1.00  0.00    -0.338 OA
BRANCH   7   8
ATOM      8  C   UNL     1      18.653  30.411  24.796  1.00  0.00     0.199 C 
BRANCH   8   9
ATOM      9  C   UNL     1      17.774  30.883  23.616  1.00  0.00     0.179 C 
ATOM     10  C   UNL     1      15.960  29.761  22.711  1.00  0.00     0.282 C 
ATOM     11  O   UNL     1      17.356  29.830  22.859  1.00  0.00    -0.341 OA
ATOM     12  C   UNL     1      15.402  29.553  24.082  1.00  0.00     0.202 C 
ATOM     13  C   UNL     1      15.588  30.881  24.831  1.00  0.00     0.179 C 
ATOM     14  C   UNL     1      16.633  31.726  24.153  1.00  0.00     0.177 C 
BRANCH  10  15
ATOM     15  O   UNL     1      15.643  28.785  21.784  1.00  0.00    -0.341 OA
BRANCH  15  16
ATOM     16  C   UNL     1      15.809  29.288  20.501  1.00  0.00     0.184 C 
ATOM     17  C   UNL     1      14.555  29.346  19.683  1.00  0.00     0.178 C 
ATOM     18  O   UNL     1      14.774  29.924  18.490  1.00  0.00    -0.341 OA
ATOM     19  C   UNL     1      16.025  30.034  17.971  1.00  0.00     0.281 C 
ATOM     20  C   UNL     1      16.711  28.334  19.694  1.00  0.00     0.180 C 
ATOM     21  C   UNL     1      17.022  29.016  18.406  1.00  0.00     0.202 C 
BRANCH  17  22
ATOM     22  C   UNL     1      13.394  30.034  20.370  1.00  0.00     0.191 C 
BRANCH  22  23
ATOM     23  O   UNL     1      12.937  29.319  21.462  1.00  0.00    -0.394 OA
ATOM     24  H   UNL     1      13.743  28.838  21.824  1.00  0.00     0.210 HD
ENDBRANCH  22  23
ENDBRANCH  17  22
BRANCH  19  25
ATOM     25  O   UNL     1      16.475  31.303  18.238  1.00  0.00    -0.350 OA
BRANCH  25  26
ATOM     26  C   UNL     1      17.760  31.584  17.928  1.00  0.00     0.169 C 
BRANCH  26  27
ATOM     27  C   UNL     1      18.481  32.402  18.951  1.00  0.00     0.119 C 
BRANCH  27  28
ATOM     28  N   UNL     1      19.873  32.105  19.112  1.00  0.00    -0.092 NA
ATOM     29  N   UNL     1      20.653  31.986  18.187  1.00  0.00     0.001 N 
ATOM     30  N   UNL     1      21.365  31.516  17.272  1.00  0.00    -0.003 NA
ENDBRANCH  27  28
ENDBRANCH  26  27
ENDBRANCH  25  26
ENDBRANCH  19  25
BRANCH  20  31
ATOM     31  O   UNL     1      17.834  27.981  20.392  1.00  0.00    -0.387 OA
ATOM     32  H   UNL     1      17.737  27.143  20.913  1.00  0.00     0.211 HD
ENDBRANCH  20  31
BRANCH  21  33
ATOM     33  O   UNL     1      17.186  28.013  17.433  1.00  0.00    -0.385 OA
ATOM     34  H   UNL     1      16.386  27.431  17.373  1.00  0.00     0.211 HD
ENDBRANCH  21  33
ENDBRANCH  15  16
ENDBRANCH  10  15
BRANCH  12  35
ATOM     35  O   UNL     1      14.098  29.131  24.144  1.00  0.00    -0.385 OA
ATOM     36  H   UNL     1      13.551  29.689  24.777  1.00  0.00     0.211 HD
ENDBRANCH  12  35
BRANCH  13  37
ATOM     37  O   UNL     1      15.794  30.687  26.180  1.00  0.00    -0.387 OA
ATOM     38  H   UNL     1      16.674  31.116  26.406  1.00  0.00     0.211 HD
ENDBRANCH  13  37
BRANCH  14  39
ATOM     39  O   UNL     1      17.179  32.565  25.157  1.00  0.00    -0.387 OA
ATOM     40  H   UNL     1      17.041  33.506  24.974  1.00  0.00     0.211 HD
ENDBRANCH  14  39
ENDBRANCH   8   9
ENDBRANCH   7   8
ENDBRANCH   1   7
BRANCH   1  41
ATOM     41  C   UNL     1      20.597  28.674  25.350  1.00  0.00     0.364 C 
ATOM     42  O   UNL     1      20.796  28.805  26.603  1.00  0.00    -0.246 OA
BRANCH  41  43
ATOM     43  O   UNL     1      20.125  27.464  24.946  1.00  0.00    -0.477 OA
ATOM     44  H   UNL     1      19.935  27.227  23.971  1.00  0.00     0.296 HD
ENDBRANCH  41  43
ENDBRANCH   1  41
BRANCH   3  45
ATOM     45  O   UNL     1      24.576  30.327  24.568  1.00  0.00    -0.391 OA
ATOM     46  H   UNL     1      25.110  29.980  25.344  1.00  0.00     0.211 HD
ENDBRANCH   3  45
BRANCH   5  47
ATOM     47  C   UNL     1      21.682  28.018  21.431  1.00  0.00     0.176 C 
BRANCH  47  48
ATOM     48  O   UNL     1      20.442  27.301  21.603  1.00  0.00    -0.388 OA
ATOM     49  H   UNL     1      20.439  26.829  22.460  1.00  0.00     0.211 HD
ENDBRANCH  47  48
BRANCH  47  50
ATOM     50  C   UNL     1      21.425  28.935  20.261  1.00  0.00     0.165 C 
BRANCH  50  51
ATOM     51  O   UNL     1      20.110  29.438  20.469  1.00  0.00    -0.388 OA
ATOM     52  H   UNL     1      19.894  30.166  19.861  1.00  0.00     0.211 HD
ENDBRANCH  50  51
BRANCH  50  53
ATOM     53  C   UNL     1      21.487  28.308  18.920  1.00  0.00     0.154 C 
BRANCH  53  54
ATOM     54  N   UNL     1      22.017  26.994  18.822  1.00  0.00    -0.319 N 
ATOM     55  C   UNL     1      23.380  26.619  18.771  1.00  0.00     0.407 C 
ATOM     56  H   UNL     1      21.336  26.169  18.783  1.00  0.00     0.167 HD
ATOM     57  O   UNL     1      24.282  27.460  18.824  1.00  0.00    -0.225 OA
BRANCH  55  58
ATOM     58  O   UNL     1      23.727  25.275  18.660  1.00  0.00    -0.443 OA
BRANCH  58  59
ATOM     59  C   UNL     1      23.068  24.208  19.271  1.00  0.00     0.294 C 
BRANCH  59  60
ATOM     60  C   UNL     1      22.729  24.415  20.685  1.00  0.00     0.121 A 
ATOM     61  C   UNL     1      23.615  24.524  21.733  1.00  0.00     0.144 A 
ATOM     62  N   UNL     1      21.486  24.521  21.200  1.00  0.00    -0.131 NA
ATOM     63  N   UNL     1      22.865  24.691  22.825  1.00  0.00    -0.220 N 
ATOM     64  N   UNL     1      21.590  24.687  22.484  1.00  0.00    -0.062 NA
BRANCH  63  65
ATOM     65  C   UNL     1      23.379  24.846  24.148  1.00  0.00     0.067 A 
ATOM     66  C   UNL     1      24.687  25.219  24.363  1.00  0.00     0.030 A 
ATOM     67  C   UNL     1      22.570  24.619  25.238  1.00  0.00     0.040 A 
ATOM     68  C   UNL     1      25.180  25.363  25.636  1.00  0.00     0.030 A 
ATOM     69  C   UNL     1      23.087  24.771  26.523  1.00  0.00     0.022 A 
ATOM     70  C   UNL     1      24.399  25.144  26.754  1.00  0.00     0.065 A 
ATOM     71  C   UNL     1      22.486  24.606  27.749  1.00  0.00     0.143 A 
ATOM     72  N   UNL     1      24.579  25.202  28.085  1.00  0.00    -0.278 N 
ATOM     73  N   UNL     1      23.440  24.882  28.655  1.00  0.00    -0.183 NA
ATOM     74  H   UNL     1      25.483  25.460  28.551  1.00  0.00     0.190 HD
ENDBRANCH  63  65
ENDBRANCH  59  60
ENDBRANCH  58  59
ENDBRANCH  55  58
ENDBRANCH  53  54
ENDBRANCH  50  53
ENDBRANCH  47  50
ENDBRANCH   5  47
BRANCH   4  75
ATOM     75  N   UNL     1      24.243  28.272  22.609  1.00  0.00    -0.348 N 
ATOM     76  C   UNL     1      25.412  28.623  21.928  1.00  0.00     0.217 C 
ATOM     77  H   UNL     1      24.119  27.294  22.919  1.00  0.00     0.163 HD
ATOM     78  C   UNL     1      26.495  27.629  21.627  1.00  0.00     0.114 C 
ATOM     79  O   UNL     1      25.577  29.828  21.548  1.00  0.00    -0.275 OA
ENDBRANCH   4  75
TORSDOF 30
