REMARK VINA RESULT:    -6.401      3.018      7.781
REMARK INTER + INTRA:         -21.591
REMARK INTER:                 -13.330
REMARK INTRA:                  -8.261
REMARK UNBOUND:                -5.087
REMARK SMILES CC(=O)N[C@@H]1[C@@H](O)C[C@](OC[C@H]2O[C@@H](O[C@H]3[C@H](O)[C@@H](O)[C@H](OCCN=[N+]=[N-])O[C@@H]3CO)[C@H](O)[C@@H](O)[C@H]2O)(C(=O)O)O[C@H]1C(O)[C@H](O)CNC(=O)OCc1cn(CS(=O)(=O)c2ccccc2)nn1
REMARK SMILES IDX 9 1 8 2 6 3 5 4 42 5 41 6 10 7 11 8 12 9 14 10 13 11 32 12
REMARK SMILES IDX 34 13 36 14 15 15 16 16 29 17 28 18 21 19 17 20 19 21 30 22
REMARK SMILES IDX 31 23 22 25 23 26 24 27 25 28 26 29 27 30 18 31 20 33 33 35
REMARK SMILES IDX 35 37 37 39 38 41 39 42 40 43 7 45 43 47 44 48 45 50 46 51
REMARK SMILES IDX 47 53 48 54 49 55 50 57 51 58 52 59 53 60 54 61 67 62 55 63
REMARK SMILES IDX 66 64 56 65 57 66 58 67 59 68 60 69 61 70 65 71 62 72 64 73
REMARK SMILES IDX 63 74 4 75 2 76 1 78 3 79
REMARK H PARENT 31 24 18 32 20 34 33 36 35 38 37 40 40 44 7 46 44 49 46 52
REMARK H PARENT 48 56 4 77
REMARK Flexibility Score: inf
ROOT
ATOM      1  C   UNL     1      22.868  25.831  22.405  1.00  0.00     0.272 C 
ATOM      2  C   UNL     1      23.723  24.633  22.321  1.00  0.00     0.113 C 
ATOM      3  C   UNL     1      25.086  24.859  21.698  1.00  0.00     0.145 C 
ATOM      4  C   UNL     1      24.855  25.578  20.415  1.00  0.00     0.142 C 
ATOM      5  C   UNL     1      23.966  26.782  20.557  1.00  0.00     0.178 C 
ATOM      6  O   UNL     1      22.840  26.642  21.282  1.00  0.00    -0.332 OA
ENDROOT
BRANCH   1   7
ATOM      7  O   UNL     1      23.029  26.546  23.573  1.00  0.00    -0.338 OA
BRANCH   7   8
ATOM      8  C   UNL     1      23.288  25.843  24.704  1.00  0.00     0.199 C 
BRANCH   8   9
ATOM      9  C   UNL     1      23.683  26.789  25.858  1.00  0.00     0.179 C 
ATOM     10  C   UNL     1      21.890  27.830  26.998  1.00  0.00     0.282 C 
ATOM     11  O   UNL     1      22.746  27.741  25.937  1.00  0.00    -0.341 OA
ATOM     12  C   UNL     1      21.596  26.504  27.589  1.00  0.00     0.202 C 
ATOM     13  C   UNL     1      22.845  25.743  27.918  1.00  0.00     0.179 C 
ATOM     14  C   UNL     1      24.028  26.104  27.116  1.00  0.00     0.177 C 
BRANCH  10  15
ATOM     15  O   UNL     1      20.743  28.460  26.485  1.00  0.00    -0.341 OA
BRANCH  15  16
ATOM     16  C   UNL     1      20.949  29.524  25.675  1.00  0.00     0.184 C 
ATOM     17  C   UNL     1      20.373  30.795  26.225  1.00  0.00     0.178 C 
ATOM     18  O   UNL     1      21.002  31.849  25.569  1.00  0.00    -0.341 OA
ATOM     19  C   UNL     1      21.071  31.730  24.209  1.00  0.00     0.281 C 
ATOM     20  C   UNL     1      20.205  29.355  24.327  1.00  0.00     0.180 C 
ATOM     21  C   UNL     1      20.266  30.644  23.606  1.00  0.00     0.202 C 
BRANCH  17  22
ATOM     22  C   UNL     1      20.512  30.993  27.693  1.00  0.00     0.191 C 
BRANCH  22  23
ATOM     23  O   UNL     1      19.537  30.253  28.352  1.00  0.00    -0.394 OA
ATOM     24  H   UNL     1      19.826  29.315  28.435  1.00  0.00     0.210 HD
ENDBRANCH  22  23
ENDBRANCH  17  22
BRANCH  19  25
ATOM     25  O   UNL     1      22.412  31.529  23.893  1.00  0.00    -0.350 OA
BRANCH  25  26
ATOM     26  C   UNL     1      23.241  32.477  24.537  1.00  0.00     0.169 C 
BRANCH  26  27
ATOM     27  C   UNL     1      24.618  31.879  24.730  1.00  0.00     0.119 C 
BRANCH  27  28
ATOM     28  N   UNL     1      24.494  30.431  24.582  1.00  0.00    -0.092 NA
ATOM     29  N   UNL     1      25.479  29.733  24.896  1.00  0.00     0.001 N 
ATOM     30  N   UNL     1      26.563  29.125  24.971  1.00  0.00    -0.003 NA
ENDBRANCH  27  28
ENDBRANCH  26  27
ENDBRANCH  25  26
ENDBRANCH  19  25
BRANCH  20  31
ATOM     31  O   UNL     1      20.791  28.348  23.579  1.00  0.00    -0.387 OA
ATOM     32  H   UNL     1      20.806  28.639  22.631  1.00  0.00     0.211 HD
ENDBRANCH  20  31
BRANCH  21  33
ATOM     33  O   UNL     1      18.941  31.132  23.488  1.00  0.00    -0.385 OA
ATOM     34  H   UNL     1      18.273  30.417  23.541  1.00  0.00     0.211 HD
ENDBRANCH  21  33
ENDBRANCH  15  16
ENDBRANCH  10  15
BRANCH  12  35
ATOM     35  O   UNL     1      20.933  26.641  28.850  1.00  0.00    -0.385 OA
ATOM     36  H   UNL     1      21.660  26.759  29.506  1.00  0.00     0.211 HD
ENDBRANCH  12  35
BRANCH  13  37
ATOM     37  O   UNL     1      22.606  24.347  27.873  1.00  0.00    -0.387 OA
ATOM     38  H   UNL     1      23.309  23.912  27.312  1.00  0.00     0.211 HD
ENDBRANCH  13  37
BRANCH  14  39
ATOM     39  O   UNL     1      24.814  24.954  26.907  1.00  0.00    -0.387 OA
ATOM     40  H   UNL     1      25.452  25.157  26.175  1.00  0.00     0.211 HD
ENDBRANCH  14  39
ENDBRANCH   8   9
ENDBRANCH   7   8
ENDBRANCH   1   7
BRANCH   1  41
ATOM     41  C   UNL     1      21.444  25.299  22.428  1.00  0.00     0.364 C 
ATOM     42  O   UNL     1      20.563  25.971  21.867  1.00  0.00    -0.246 OA
BRANCH  41  43
ATOM     43  O   UNL     1      21.154  24.099  23.057  1.00  0.00    -0.477 OA
ATOM     44  H   UNL     1      21.861  23.644  23.654  1.00  0.00     0.296 HD
ENDBRANCH  41  43
ENDBRANCH   1  41
BRANCH   3  45
ATOM     45  O   UNL     1      25.885  25.510  22.595  1.00  0.00    -0.391 OA
ATOM     46  H   UNL     1      25.818  25.030  23.466  1.00  0.00     0.211 HD
ENDBRANCH   3  45
BRANCH   5  47
ATOM     47  C   UNL     1      24.738  28.045  20.859  1.00  0.00     0.176 C 
BRANCH  47  48
ATOM     48  O   UNL     1      25.727  28.334  19.921  1.00  0.00    -0.388 OA
ATOM     49  H   UNL     1      25.729  29.248  19.601  1.00  0.00     0.211 HD
ENDBRANCH  47  48
BRANCH  47  50
ATOM     50  C   UNL     1      23.838  29.260  21.029  1.00  0.00     0.165 C 
BRANCH  50  51
ATOM     51  O   UNL     1      23.180  29.274  22.237  1.00  0.00    -0.388 OA
ATOM     52  H   UNL     1      23.095  30.142  22.660  1.00  0.00     0.211 HD
ENDBRANCH  50  51
BRANCH  50  53
ATOM     53  C   UNL     1      22.924  29.511  19.891  1.00  0.00     0.154 C 
BRANCH  53  54
ATOM     54  N   UNL     1      21.547  29.156  20.058  1.00  0.00    -0.319 N 
ATOM     55  C   UNL     1      20.809  28.257  19.257  1.00  0.00     0.407 C 
ATOM     56  H   UNL     1      21.022  29.614  20.865  1.00  0.00     0.167 HD
ATOM     57  O   UNL     1      21.338  27.664  18.298  1.00  0.00    -0.225 OA
BRANCH  55  58
ATOM     58  O   UNL     1      19.474  28.041  19.558  1.00  0.00    -0.443 OA
BRANCH  58  59
ATOM     59  C   UNL     1      18.406  28.708  18.952  1.00  0.00     0.294 C 
BRANCH  59  60
ATOM     60  C   UNL     1      17.268  28.776  19.889  1.00  0.00     0.120 A 
ATOM     61  C   UNL     1      16.877  29.929  20.548  1.00  0.00     0.139 A 
ATOM     62  N   UNL     1      16.407  27.829  20.291  1.00  0.00    -0.132 NA
ATOM     63  N   UNL     1      15.808  29.655  21.318  1.00  0.00    -0.237 N 
ATOM     64  N   UNL     1      15.551  28.364  21.136  1.00  0.00    -0.066 NA
BRANCH  63  65
ATOM     65  C   UNL     1      15.091  30.573  22.158  1.00  0.00     0.287 C 
BRANCH  65  66
ATOM     66  S   UNL     1      15.304  30.001  23.844  1.00  0.00     0.198 S 
ATOM     67  O   UNL     1      16.658  29.434  24.040  1.00  0.00    -0.222 OA
ATOM     68  O   UNL     1      14.221  28.964  24.093  1.00  0.00    -0.222 OA
BRANCH  66  69
ATOM     69  C   UNL     1      15.043  31.370  24.893  1.00  0.00     0.069 A 
ATOM     70  C   UNL     1      14.048  31.382  25.846  1.00  0.00     0.020 A 
ATOM     71  C   UNL     1      15.833  32.495  24.800  1.00  0.00     0.020 A 
ATOM     72  C   UNL     1      13.841  32.458  26.670  1.00  0.00     0.001 A 
ATOM     73  C   UNL     1      15.638  33.579  25.616  1.00  0.00     0.001 A 
ATOM     74  C   UNL     1      14.637  33.557  26.555  1.00  0.00     0.000 A 
ENDBRANCH  66  69
ENDBRANCH  65  66
ENDBRANCH  63  65
ENDBRANCH  59  60
ENDBRANCH  58  59
ENDBRANCH  55  58
ENDBRANCH  53  54
ENDBRANCH  50  53
ENDBRANCH  47  50
ENDBRANCH   5  47
BRANCH   4  75
ATOM     75  N   UNL     1      24.195  24.668  19.486  1.00  0.00    -0.348 N 
ATOM     76  C   UNL     1      24.258  24.861  18.078  1.00  0.00     0.217 C 
ATOM     77  H   UNL     1      23.637  23.824  19.819  1.00  0.00     0.163 HD
ATOM     78  C   UNL     1      23.557  23.892  17.163  1.00  0.00     0.114 C 
ATOM     79  O   UNL     1      24.895  25.837  17.586  1.00  0.00    -0.275 OA
ENDBRANCH   4  75
TORSDOF 32
