REMARK VINA RESULT:    -4.781      5.720     15.507
REMARK INTER + INTRA:         -21.387
REMARK INTER:                 -15.028
REMARK INTRA:                  -6.359
REMARK UNBOUND:                -8.780
REMARK SMILES COc1ccc(Cn2cc(COC(=O)NC[C@@H](O)C(O)[C@@H]3O[C@@](OC[C@H]4O[C@@H](O[C@H]5[C@H](O)[C@@H](O)[C@H](OCCN=[N+]=[N-])O[C@@H]5CO)[C@H](O)[C@@H](O)[C@H]4O)(C(=O)O)C[C@H](O)[C@H]3NC(C)=O)nn2)cc1OC
REMARK SMILES IDX 23 1 55 2 56 3 58 4 21 5 22 6 24 7 25 8 26 9 28 10 27 11
REMARK SMILES IDX 46 12 48 13 50 14 29 15 30 16 43 17 42 18 35 19 31 20 33 21
REMARK SMILES IDX 44 22 45 23 36 25 37 26 38 27 39 28 40 29 41 30 32 31 34 33
REMARK SMILES IDX 47 35 49 37 51 39 52 41 53 42 54 43 57 45 19 47 20 48 17 50
REMARK SMILES IDX 18 51 16 53 15 54 13 55 14 57 12 58 11 59 10 60 9 61 63 62
REMARK SMILES IDX 8 63 64 64 7 65 6 66 65 67 5 68 66 69 4 70 3 71 67 72 68 73
REMARK SMILES IDX 2 74 1 75 59 76 60 77 61 79 62 80
REMARK H PARENT 45 24 32 32 34 34 47 36 49 38 51 40 54 44 57 46 20 49 18 52
REMARK H PARENT 15 56 59 78
REMARK Flexibility Score: inf
ROOT
ATOM      1  C   UNL     1      23.018  26.654  28.401  1.00  0.00     0.272 C 
ATOM      2  C   UNL     1      22.663  25.194  28.188  1.00  0.00     0.113 C 
ATOM      3  C   UNL     1      22.918  24.587  26.856  1.00  0.00     0.145 C 
ATOM      4  C   UNL     1      23.002  25.685  25.800  1.00  0.00     0.142 C 
ATOM      5  C   UNL     1      22.098  26.753  26.273  1.00  0.00     0.178 C 
ATOM      6  O   UNL     1      22.715  27.462  27.286  1.00  0.00    -0.332 OA
ENDROOT
BRANCH   1   7
ATOM      7  O   UNL     1      24.397  26.654  28.566  1.00  0.00    -0.338 OA
BRANCH   7   8
ATOM      8  C   UNL     1      24.998  27.844  28.841  1.00  0.00     0.199 C 
BRANCH   8   9
ATOM      9  C   UNL     1      26.204  27.652  29.718  1.00  0.00     0.179 C 
ATOM     10  C   UNL     1      27.062  26.645  31.566  1.00  0.00     0.282 C 
ATOM     11  O   UNL     1      26.071  26.503  30.519  1.00  0.00    -0.341 OA
ATOM     12  C   UNL     1      28.392  26.420  31.015  1.00  0.00     0.202 C 
ATOM     13  C   UNL     1      28.613  27.146  29.699  1.00  0.00     0.179 C 
ATOM     14  C   UNL     1      27.419  27.312  28.842  1.00  0.00     0.177 C 
BRANCH  10  15
ATOM     15  O   UNL     1      26.680  25.778  32.570  1.00  0.00    -0.341 OA
BRANCH  15  16
ATOM     16  C   UNL     1      26.103  26.484  33.626  1.00  0.00     0.184 C 
ATOM     17  C   UNL     1      26.604  26.075  34.954  1.00  0.00     0.178 C 
ATOM     18  O   UNL     1      26.178  27.019  35.884  1.00  0.00    -0.341 OA
ATOM     19  C   UNL     1      24.933  27.483  35.649  1.00  0.00     0.281 C 
ATOM     20  C   UNL     1      24.591  26.244  33.546  1.00  0.00     0.180 C 
ATOM     21  C   UNL     1      23.999  26.534  34.932  1.00  0.00     0.202 C 
BRANCH  17  22
ATOM     22  C   UNL     1      28.104  25.894  34.995  1.00  0.00     0.191 C 
BRANCH  22  23
ATOM     23  O   UNL     1      28.350  24.564  34.657  1.00  0.00    -0.394 OA
ATOM     24  H   UNL     1      28.138  24.433  33.685  1.00  0.00     0.210 HD
ENDBRANCH  22  23
ENDBRANCH  17  22
BRANCH  19  25
ATOM     25  O   UNL     1      25.042  28.634  34.788  1.00  0.00    -0.350 OA
BRANCH  25  26
ATOM     26  C   UNL     1      24.261  29.650  35.375  1.00  0.00     0.169 C 
BRANCH  26  27
ATOM     27  C   UNL     1      23.001  29.953  34.585  1.00  0.00     0.119 C 
BRANCH  27  28
ATOM     28  N   UNL     1      23.292  29.836  33.183  1.00  0.00    -0.092 NA
ATOM     29  N   UNL     1      22.491  30.190  32.313  1.00  0.00     0.001 N 
ATOM     30  N   UNL     1      21.440  30.456  31.696  1.00  0.00    -0.003 NA
ENDBRANCH  27  28
ENDBRANCH  26  27
ENDBRANCH  25  26
ENDBRANCH  19  25
BRANCH  20  31
ATOM     31  O   UNL     1      24.070  27.188  32.675  1.00  0.00    -0.387 OA
ATOM     32  H   UNL     1      24.512  28.068  32.872  1.00  0.00     0.211 HD
ENDBRANCH  20  31
BRANCH  21  33
ATOM     33  O   UNL     1      23.922  25.348  35.622  1.00  0.00    -0.385 OA
ATOM     34  H   UNL     1      23.953  24.555  35.020  1.00  0.00     0.211 HD
ENDBRANCH  21  33
ENDBRANCH  15  16
ENDBRANCH  10  15
BRANCH  12  35
ATOM     35  O   UNL     1      29.386  26.869  31.869  1.00  0.00    -0.385 OA
ATOM     36  H   UNL     1      30.206  27.157  31.372  1.00  0.00     0.211 HD
ENDBRANCH  12  35
BRANCH  13  37
ATOM     37  O   UNL     1      29.648  26.462  29.007  1.00  0.00    -0.387 OA
ATOM     38  H   UNL     1      29.670  26.841  28.090  1.00  0.00     0.211 HD
ENDBRANCH  13  37
BRANCH  14  39
ATOM     39  O   UNL     1      27.079  26.107  28.189  1.00  0.00    -0.387 OA
ATOM     40  H   UNL     1      27.740  25.371  28.426  1.00  0.00     0.211 HD
ENDBRANCH  14  39
ENDBRANCH   8   9
ENDBRANCH   7   8
ENDBRANCH   1   7
BRANCH   1  41
ATOM     41  C   UNL     1      22.238  27.154  29.562  1.00  0.00     0.364 C 
ATOM     42  O   UNL     1      22.256  26.575  30.652  1.00  0.00    -0.246 OA
BRANCH  41  43
ATOM     43  O   UNL     1      21.419  28.314  29.514  1.00  0.00    -0.477 OA
ATOM     44  H   UNL     1      20.389  28.132  29.558  1.00  0.00     0.296 HD
ENDBRANCH  41  43
ENDBRANCH   1  41
BRANCH   3  45
ATOM     45  O   UNL     1      24.094  23.875  26.835  1.00  0.00    -0.391 OA
ATOM     46  H   UNL     1      24.711  24.204  27.552  1.00  0.00     0.211 HD
ENDBRANCH   3  45
BRANCH   5  47
ATOM     47  C   UNL     1      21.458  27.522  25.212  1.00  0.00     0.176 C 
BRANCH  47  48
ATOM     48  O   UNL     1      20.111  27.266  24.985  1.00  0.00    -0.388 OA
ATOM     49  H   UNL     1      19.810  26.379  25.213  1.00  0.00     0.211 HD
ENDBRANCH  47  48
BRANCH  47  50
ATOM     50  C   UNL     1      21.294  29.044  25.751  1.00  0.00     0.165 C 
BRANCH  50  51
ATOM     51  O   UNL     1      20.483  29.000  26.817  1.00  0.00    -0.388 OA
ATOM     52  H   UNL     1      20.700  29.690  27.511  1.00  0.00     0.211 HD
ENDBRANCH  50  51
BRANCH  50  53
ATOM     53  C   UNL     1      21.105  29.949  24.642  1.00  0.00     0.154 C 
BRANCH  53  54
ATOM     54  N   UNL     1      19.874  30.148  23.953  1.00  0.00    -0.319 N 
ATOM     55  C   UNL     1      19.845  29.758  22.591  1.00  0.00     0.407 C 
ATOM     56  H   UNL     1      19.022  30.553  24.331  1.00  0.00     0.167 HD
ATOM     57  O   UNL     1      20.883  29.269  22.035  1.00  0.00    -0.225 OA
BRANCH  55  58
ATOM     58  O   UNL     1      18.744  29.858  21.748  1.00  0.00    -0.443 OA
BRANCH  58  59
ATOM     59  C   UNL     1      18.870  29.204  20.439  1.00  0.00     0.294 C 
BRANCH  59  60
ATOM     60  C   UNL     1      17.452  28.891  20.097  1.00  0.00     0.120 A 
ATOM     61  C   UNL     1      16.525  29.823  19.574  1.00  0.00     0.138 A 
ATOM     62  N   UNL     1      16.844  27.713  20.142  1.00  0.00    -0.132 NA
ATOM     63  N   UNL     1      15.398  29.112  19.333  1.00  0.00    -0.248 N 
ATOM     64  N   UNL     1      15.591  27.884  19.668  1.00  0.00    -0.067 NA
BRANCH  63  65
ATOM     65  C   UNL     1      14.172  29.683  18.713  1.00  0.00     0.181 C 
BRANCH  65  66
ATOM     66  C   UNL     1      13.438  30.286  19.912  1.00  0.00    -0.023 A 
ATOM     67  C   UNL     1      13.368  29.643  21.129  1.00  0.00     0.056 A 
ATOM     68  C   UNL     1      12.957  31.548  19.773  1.00  0.00     0.010 A 
ATOM     69  C   UNL     1      12.775  30.396  22.182  1.00  0.00     0.161 A 
ATOM     70  C   UNL     1      12.365  32.286  20.844  1.00  0.00     0.051 A 
ATOM     71  C   UNL     1      12.307  31.640  22.050  1.00  0.00     0.160 A 
BRANCH  69  72
ATOM     72  O   UNL     1      12.668  29.799  23.440  1.00  0.00    -0.493 OA
ATOM     73  C   UNL     1      13.806  29.618  24.289  1.00  0.00     0.278 C 
ENDBRANCH  69  72
BRANCH  71  74
ATOM     74  O   UNL     1      11.761  32.303  23.185  1.00  0.00    -0.493 OA
ATOM     75  C   UNL     1      10.335  32.519  23.223  1.00  0.00     0.278 C 
ENDBRANCH  71  74
ENDBRANCH  65  66
ENDBRANCH  63  65
ENDBRANCH  59  60
ENDBRANCH  58  59
ENDBRANCH  55  58
ENDBRANCH  53  54
ENDBRANCH  50  53
ENDBRANCH  47  50
ENDBRANCH   5  47
BRANCH   4  76
ATOM     76  N   UNL     1      22.662  25.116  24.523  1.00  0.00    -0.348 N 
ATOM     77  C   UNL     1      23.683  24.721  23.652  1.00  0.00     0.217 C 
ATOM     78  H   UNL     1      21.668  24.955  24.201  1.00  0.00     0.163 HD
ATOM     79  C   UNL     1      23.500  24.140  22.286  1.00  0.00     0.114 C 
ATOM     80  O   UNL     1      24.939  24.829  23.957  1.00  0.00    -0.275 OA
ENDBRANCH   4  76
TORSDOF 33
