REMARK VINA RESULT:    -5.802      3.773      7.147
REMARK INTER + INTRA:         -21.431
REMARK INTER:                 -14.684
REMARK INTRA:                  -6.747
REMARK UNBOUND:                -6.131
REMARK SMILES COCC(C(N)=O)n1cc(COC(=O)NC[C@@H](O)C(O)[C@@H]2O[C@@](OC[C@H]3O[C@@H](O[C@H]4[C@H](O)[C@@H](O)[C@H](OCCN=[N+]=[N-])O[C@@H]4CO)[C@H](O)[C@@H](O)[C@H]3O)(C(=O)O)C[C@H](O)[C@H]2NC(C)=O)nn1
REMARK SMILES IDX 23 1 55 2 56 3 58 4 21 5 22 6 24 7 25 8 26 9 28 10 27 11
REMARK SMILES IDX 46 12 48 13 50 14 29 15 30 16 43 17 42 18 35 19 31 20 33 21
REMARK SMILES IDX 44 22 45 23 36 25 37 26 38 27 39 28 40 29 41 30 32 31 34 33
REMARK SMILES IDX 47 35 49 37 51 39 52 41 53 42 54 43 57 45 19 47 20 48 17 50
REMARK SMILES IDX 18 51 16 53 15 54 13 55 14 57 12 58 11 59 10 60 9 61 63 62
REMARK SMILES IDX 8 63 64 64 4 65 3 66 2 67 1 68 5 69 7 70 6 71 59 74 60 75
REMARK SMILES IDX 61 77 62 78
REMARK H PARENT 45 24 32 32 34 34 47 36 49 38 51 40 54 44 57 46 20 49 18 52
REMARK H PARENT 15 56 6 72 6 73 59 76
REMARK Flexibility Score: inf
ROOT
ATOM      1  C   UNL     1      22.400  25.503  22.895  1.00  0.00     0.272 C 
ATOM      2  C   UNL     1      22.817  24.260  22.209  1.00  0.00     0.113 C 
ATOM      3  C   UNL     1      23.898  24.372  21.199  1.00  0.00     0.145 C 
ATOM      4  C   UNL     1      23.747  25.650  20.418  1.00  0.00     0.142 C 
ATOM      5  C   UNL     1      22.330  26.151  20.653  1.00  0.00     0.178 C 
ATOM      6  O   UNL     1      22.190  26.520  21.965  1.00  0.00    -0.332 OA
ENDROOT
BRANCH   1   7
ATOM      7  O   UNL     1      23.232  26.000  23.860  1.00  0.00    -0.338 OA
BRANCH   7   8
ATOM      8  C   UNL     1      23.426  25.262  24.981  1.00  0.00     0.199 C 
BRANCH   8   9
ATOM      9  C   UNL     1      24.529  25.839  25.879  1.00  0.00     0.179 C 
ATOM     10  C   UNL     1      23.739  27.838  26.758  1.00  0.00     0.282 C 
ATOM     11  O   UNL     1      24.559  27.203  25.835  1.00  0.00    -0.341 OA
ATOM     12  C   UNL     1      23.965  27.382  28.157  1.00  0.00     0.202 C 
ATOM     13  C   UNL     1      23.812  25.905  28.304  1.00  0.00     0.179 C 
ATOM     14  C   UNL     1      24.569  25.214  27.227  1.00  0.00     0.177 C 
BRANCH  10  15
ATOM     15  O   UNL     1      22.402  27.779  26.411  1.00  0.00    -0.341 OA
BRANCH  15  16
ATOM     16  C   UNL     1      21.939  29.027  25.998  1.00  0.00     0.184 C 
ATOM     17  C   UNL     1      20.731  29.520  26.699  1.00  0.00     0.178 C 
ATOM     18  O   UNL     1      20.444  30.822  26.371  1.00  0.00    -0.341 OA
ATOM     19  C   UNL     1      20.799  31.185  25.070  1.00  0.00     0.281 C 
ATOM     20  C   UNL     1      21.554  28.853  24.518  1.00  0.00     0.180 C 
ATOM     21  C   UNL     1      20.683  29.998  24.126  1.00  0.00     0.202 C 
BRANCH  17  22
ATOM     22  C   UNL     1      20.808  29.460  28.213  1.00  0.00     0.191 C 
BRANCH  22  23
ATOM     23  O   UNL     1      20.710  28.138  28.640  1.00  0.00    -0.394 OA
ATOM     24  H   UNL     1      20.851  27.498  27.904  1.00  0.00     0.210 HD
ENDBRANCH  22  23
ENDBRANCH  17  22
BRANCH  19  25
ATOM     25  O   UNL     1      22.023  31.754  25.073  1.00  0.00    -0.350 OA
BRANCH  25  26
ATOM     26  C   UNL     1      22.447  32.492  24.022  1.00  0.00     0.169 C 
BRANCH  26  27
ATOM     27  C   UNL     1      23.731  32.116  23.371  1.00  0.00     0.119 C 
BRANCH  27  28
ATOM     28  N   UNL     1      24.449  31.103  24.077  1.00  0.00    -0.092 NA
ATOM     29  N   UNL     1      25.636  30.904  23.834  1.00  0.00     0.001 N 
ATOM     30  N   UNL     1      26.866  30.966  23.996  1.00  0.00    -0.003 NA
ENDBRANCH  27  28
ENDBRANCH  26  27
ENDBRANCH  25  26
ENDBRANCH  19  25
BRANCH  20  31
ATOM     31  O   UNL     1      22.709  28.796  23.740  1.00  0.00    -0.387 OA
ATOM     32  H   UNL     1      23.291  29.524  24.057  1.00  0.00     0.211 HD
ENDBRANCH  20  31
BRANCH  21  33
ATOM     33  O   UNL     1      19.323  29.621  24.133  1.00  0.00    -0.385 OA
ATOM     34  H   UNL     1      19.251  28.661  23.859  1.00  0.00     0.211 HD
ENDBRANCH  21  33
ENDBRANCH  15  16
ENDBRANCH  10  15
BRANCH  12  35
ATOM     35  O   UNL     1      25.304  27.683  28.473  1.00  0.00    -0.385 OA
ATOM     36  H   UNL     1      25.754  26.904  28.862  1.00  0.00     0.211 HD
ENDBRANCH  12  35
BRANCH  13  37
ATOM     37  O   UNL     1      22.480  25.508  28.414  1.00  0.00    -0.387 OA
ATOM     38  H   UNL     1      22.251  25.054  27.558  1.00  0.00     0.211 HD
ENDBRANCH  13  37
BRANCH  14  39
ATOM     39  O   UNL     1      24.171  23.880  27.113  1.00  0.00    -0.387 OA
ATOM     40  H   UNL     1      23.398  23.692  27.709  1.00  0.00     0.211 HD
ENDBRANCH  14  39
ENDBRANCH   8   9
ENDBRANCH   7   8
ENDBRANCH   1   7
BRANCH   1  41
ATOM     41  C   UNL     1      21.032  25.247  23.475  1.00  0.00     0.364 C 
ATOM     42  O   UNL     1      20.492  26.057  24.252  1.00  0.00    -0.246 OA
BRANCH  41  43
ATOM     43  O   UNL     1      20.383  24.091  23.129  1.00  0.00    -0.477 OA
ATOM     44  H   UNL     1      19.562  24.076  22.544  1.00  0.00     0.296 HD
ENDBRANCH  41  43
ENDBRANCH   1  41
BRANCH   3  45
ATOM     45  O   UNL     1      25.181  24.220  21.717  1.00  0.00    -0.391 OA
ATOM     46  H   UNL     1      25.529  23.320  21.497  1.00  0.00     0.211 HD
ENDBRANCH   3  45
BRANCH   5  47
ATOM     47  C   UNL     1      22.058  27.345  19.759  1.00  0.00     0.176 C 
BRANCH  47  48
ATOM     48  O   UNL     1      21.516  27.008  18.556  1.00  0.00    -0.388 OA
ATOM     49  H   UNL     1      20.877  26.284  18.525  1.00  0.00     0.211 HD
ENDBRANCH  47  48
BRANCH  47  50
ATOM     50  C   UNL     1      21.181  28.338  20.472  1.00  0.00     0.165 C 
BRANCH  50  51
ATOM     51  O   UNL     1      20.018  27.629  20.863  1.00  0.00    -0.388 OA
ATOM     52  H   UNL     1      19.301  28.282  21.089  1.00  0.00     0.211 HD
ENDBRANCH  50  51
BRANCH  50  53
ATOM     53  C   UNL     1      20.711  29.474  19.628  1.00  0.00     0.154 C 
BRANCH  53  54
ATOM     54  N   UNL     1      19.299  29.651  19.546  1.00  0.00    -0.319 N 
ATOM     55  C   UNL     1      18.484  28.953  18.615  1.00  0.00     0.407 C 
ATOM     56  H   UNL     1      18.802  30.324  20.191  1.00  0.00     0.167 HD
ATOM     57  O   UNL     1      19.012  28.153  17.829  1.00  0.00    -0.225 OA
BRANCH  55  58
ATOM     58  O   UNL     1      17.099  29.144  18.556  1.00  0.00    -0.443 OA
BRANCH  58  59
ATOM     59  C   UNL     1      16.187  28.161  18.944  1.00  0.00     0.294 C 
BRANCH  59  60
ATOM     60  C   UNL     1      15.387  28.490  20.131  1.00  0.00     0.120 A 
ATOM     61  C   UNL     1      15.913  28.917  21.324  1.00  0.00     0.139 A 
ATOM     62  N   UNL     1      14.054  28.428  20.231  1.00  0.00    -0.132 NA
ATOM     63  N   UNL     1      14.871  29.108  22.136  1.00  0.00    -0.237 N 
ATOM     64  N   UNL     1      13.757  28.809  21.463  1.00  0.00    -0.066 NA
BRANCH  63  65
ATOM     65  C   UNL     1      14.952  29.562  23.512  1.00  0.00     0.223 C 
BRANCH  65  66
ATOM     66  C   UNL     1      15.980  30.642  23.596  1.00  0.00     0.197 C 
BRANCH  66  67
ATOM     67  O   UNL     1      16.782  30.505  24.701  1.00  0.00    -0.382 OA
ATOM     68  C   UNL     1      16.638  31.560  25.563  1.00  0.00     0.195 C 
ENDBRANCH  66  67
ENDBRANCH  65  66
BRANCH  65  69
ATOM     69  C   UNL     1      13.593  30.095  23.863  1.00  0.00     0.244 C 
ATOM     70  O   UNL     1      13.427  31.331  23.904  1.00  0.00    -0.273 OA
ATOM     71  N   UNL     1      12.545  29.180  24.135  1.00  0.00    -0.368 N 
ATOM     72  H   UNL     1      12.168  28.992  25.078  1.00  0.00     0.159 HD
ATOM     73  H   UNL     1      12.135  28.664  23.327  1.00  0.00     0.159 HD
ENDBRANCH  65  69
ENDBRANCH  63  65
ENDBRANCH  59  60
ENDBRANCH  58  59
ENDBRANCH  55  58
ENDBRANCH  53  54
ENDBRANCH  50  53
ENDBRANCH  47  50
ENDBRANCH   5  47
BRANCH   4  74
ATOM     74  N   UNL     1      24.018  25.437  18.998  1.00  0.00    -0.348 N 
ATOM     75  C   UNL     1      23.290  24.521  18.191  1.00  0.00     0.217 C 
ATOM     76  H   UNL     1      24.781  25.975  18.516  1.00  0.00     0.163 HD
ATOM     77  C   UNL     1      23.543  24.291  16.760  1.00  0.00     0.114 C 
ATOM     78  O   UNL     1      22.356  23.862  18.762  1.00  0.00    -0.275 OA
ENDBRANCH   4  74
TORSDOF 33
