REMARK VINA RESULT:    -4.880      3.780     10.792
REMARK INTER + INTRA:         -20.985
REMARK INTER:                 -16.523
REMARK INTRA:                  -4.462
REMARK UNBOUND:                -8.118
REMARK SMILES CC(=O)N[C@@H]1[C@@H](O)C[C@](OC[C@H]2O[C@@H](O[C@H]3[C@H](O)[C@@H](O)[C@H](OCCN=[N+]=[N-])O[C@@H]3CO)[C@H](O)[C@@H](O)[C@H]2O)(C(=O)O)O[C@H]1C(O)[C@H](O)CNC(=O)OCc1cn(CCOC(C)=O)nn1
REMARK SMILES IDX 43 1 42 2 9 3 8 4 41 5 6 6 5 7 10 8 11 9 12 10 14 11 13 12
REMARK SMILES IDX 32 13 34 14 36 15 15 16 16 17 29 18 28 19 21 20 17 21 19 22
REMARK SMILES IDX 30 23 31 24 22 26 23 27 24 28 25 29 26 30 27 31 18 32 20 34
REMARK SMILES IDX 33 36 35 38 37 40 38 42 39 43 40 44 7 46 4 48 2 49 1 51 3 52
REMARK SMILES IDX 44 53 45 55 46 56 47 58 48 59 49 60 50 62 51 63 52 64 53 65
REMARK SMILES IDX 54 66 63 67 55 68 62 69 56 70 57 71 58 72 59 73 61 74 60 75
REMARK H PARENT 31 25 18 33 20 35 33 37 35 39 37 41 40 45 7 47 4 50 44 54
REMARK H PARENT 46 57 48 61
REMARK Flexibility Score: inf
ROOT
ATOM      1  C   UNL     1       3.366  20.958  32.338  1.00  0.00     0.176 C 
ENDROOT
BRANCH   1   2
ATOM      2  C   UNL     1       4.120  22.263  32.360  1.00  0.00     0.178 C 
ATOM      3  C   UNL     1       5.834  23.280  33.618  1.00  0.00     0.272 C 
ATOM      4  C   UNL     1       5.626  24.321  32.544  1.00  0.00     0.113 C 
ATOM      5  O   UNL     1       5.127  22.081  33.331  1.00  0.00    -0.332 OA
ATOM      6  C   UNL     1       4.195  24.665  32.331  1.00  0.00     0.145 C 
ATOM      7  C   UNL     1       3.344  23.458  32.818  1.00  0.00     0.142 C 
BRANCH   3   8
ATOM      8  O   UNL     1       5.521  23.604  34.849  1.00  0.00    -0.338 OA
BRANCH   8   9
ATOM      9  C   UNL     1       5.224  24.740  35.415  1.00  0.00     0.199 C 
BRANCH   9  10
ATOM     10  C   UNL     1       6.163  25.700  36.011  1.00  0.00     0.179 C 
ATOM     11  C   UNL     1       8.252  25.739  36.983  1.00  0.00     0.282 C 
ATOM     12  O   UNL     1       7.471  25.077  36.025  1.00  0.00    -0.341 OA
ATOM     13  C   UNL     1       8.109  27.203  36.981  1.00  0.00     0.202 C 
ATOM     14  C   UNL     1       7.316  27.820  35.883  1.00  0.00     0.179 C 
ATOM     15  C   UNL     1       6.453  26.901  35.091  1.00  0.00     0.177 C 
BRANCH  11  16
ATOM     16  O   UNL     1       9.539  25.243  36.856  1.00  0.00    -0.341 OA
BRANCH  16  17
ATOM     17  C   UNL     1       9.937  24.477  37.920  1.00  0.00     0.184 C 
ATOM     18  C   UNL     1      10.011  23.024  37.507  1.00  0.00     0.178 C 
ATOM     19  O   UNL     1      10.457  22.335  38.642  1.00  0.00    -0.341 OA
ATOM     20  C   UNL     1       9.429  22.194  39.526  1.00  0.00     0.281 C 
ATOM     21  C   UNL     1       9.003  24.625  39.110  1.00  0.00     0.180 C 
ATOM     22  C   UNL     1       8.420  23.318  39.537  1.00  0.00     0.202 C 
BRANCH  18  23
ATOM     23  C   UNL     1      11.039  22.850  36.404  1.00  0.00     0.191 C 
BRANCH  23  24
ATOM     24  O   UNL     1      11.362  21.512  36.272  1.00  0.00    -0.394 OA
ATOM     25  H   UNL     1      11.634  21.388  35.314  1.00  0.00     0.210 HD
ENDBRANCH  23  24
ENDBRANCH  18  23
BRANCH  20  26
ATOM     26  O   UNL     1       9.989  22.012  40.798  1.00  0.00    -0.350 OA
BRANCH  26  27
ATOM     27  C   UNL     1       9.035  21.591  41.717  1.00  0.00     0.169 C 
BRANCH  27  28
ATOM     28  C   UNL     1       9.596  21.967  43.092  1.00  0.00     0.119 C 
BRANCH  28  29
ATOM     29  N   UNL     1       9.909  20.738  43.801  1.00  0.00    -0.092 NA
ATOM     30  N   UNL     1      10.766  19.941  43.399  1.00  0.00     0.001 N 
ATOM     31  N   UNL     1      11.311  18.983  42.820  1.00  0.00    -0.003 NA
ENDBRANCH  28  29
ENDBRANCH  27  28
ENDBRANCH  26  27
ENDBRANCH  20  26
BRANCH  21  32
ATOM     32  O   UNL     1       9.587  25.290  40.180  1.00  0.00    -0.387 OA
ATOM     33  H   UNL     1      10.570  25.371  40.112  1.00  0.00     0.211 HD
ENDBRANCH  21  32
BRANCH  22  34
ATOM     34  O   UNL     1       7.273  23.031  38.823  1.00  0.00    -0.385 OA
ATOM     35  H   UNL     1       6.483  23.267  39.391  1.00  0.00     0.211 HD
ENDBRANCH  22  34
ENDBRANCH  16  17
ENDBRANCH  11  16
BRANCH  13  36
ATOM     36  O   UNL     1       7.696  27.694  38.248  1.00  0.00    -0.385 OA
ATOM     37  H   UNL     1       6.721  27.679  38.343  1.00  0.00     0.211 HD
ENDBRANCH  13  36
BRANCH  14  38
ATOM     38  O   UNL     1       8.135  28.519  34.982  1.00  0.00    -0.387 OA
ATOM     39  H   UNL     1       8.163  29.478  35.273  1.00  0.00     0.211 HD
ENDBRANCH  14  38
BRANCH  15  40
ATOM     40  O   UNL     1       7.248  26.419  34.014  1.00  0.00    -0.387 OA
ATOM     41  H   UNL     1       7.484  27.149  33.407  1.00  0.00     0.211 HD
ENDBRANCH  15  40
ENDBRANCH   9  10
ENDBRANCH   8   9
ENDBRANCH   3   8
BRANCH   3  42
ATOM     42  C   UNL     1       7.240  22.820  33.440  1.00  0.00     0.364 C 
ATOM     43  O   UNL     1       7.608  21.655  33.203  1.00  0.00    -0.246 OA
BRANCH  42  44
ATOM     44  O   UNL     1       8.296  23.752  33.541  1.00  0.00    -0.477 OA
ATOM     45  H   UNL     1       9.177  23.533  33.099  1.00  0.00     0.296 HD
ENDBRANCH  42  44
ENDBRANCH   3  42
BRANCH   6  46
ATOM     46  O   UNL     1       3.769  25.832  32.921  1.00  0.00    -0.391 OA
ATOM     47  H   UNL     1       3.486  26.524  32.271  1.00  0.00     0.211 HD
ENDBRANCH   6  46
BRANCH   7  48
ATOM     48  N   UNL     1       2.010  23.607  32.341  1.00  0.00    -0.348 N 
ATOM     49  C   UNL     1       0.902  23.722  33.220  1.00  0.00     0.217 C 
ATOM     50  H   UNL     1       1.838  23.657  31.324  1.00  0.00     0.163 HD
ATOM     51  C   UNL     1      -0.496  23.876  32.711  1.00  0.00     0.114 C 
ATOM     52  O   UNL     1       1.045  23.700  34.480  1.00  0.00    -0.275 OA
ENDBRANCH   7  48
ENDBRANCH   1   2
BRANCH   1  53
ATOM     53  O   UNL     1       4.038  20.144  33.304  1.00  0.00    -0.388 OA
ATOM     54  H   UNL     1       3.445  19.428  33.612  1.00  0.00     0.211 HD
ENDBRANCH   1  53
BRANCH   1  55
ATOM     55  C   UNL     1       3.606  20.238  31.033  1.00  0.00     0.165 C 
BRANCH  55  56
ATOM     56  O   UNL     1       4.924  20.478  30.612  1.00  0.00    -0.388 OA
ATOM     57  H   UNL     1       5.348  19.615  30.429  1.00  0.00     0.211 HD
ENDBRANCH  55  56
BRANCH  55  58
ATOM     58  C   UNL     1       2.613  20.592  29.970  1.00  0.00     0.154 C 
BRANCH  58  59
ATOM     59  N   UNL     1       3.051  21.556  29.010  1.00  0.00    -0.319 N 
ATOM     60  C   UNL     1       2.471  22.831  28.866  1.00  0.00     0.407 C 
ATOM     61  H   UNL     1       3.858  21.353  28.342  1.00  0.00     0.167 HD
ATOM     62  O   UNL     1       1.526  23.228  29.580  1.00  0.00    -0.225 OA
BRANCH  60  63
ATOM     63  O   UNL     1       2.921  23.744  27.900  1.00  0.00    -0.443 OA
BRANCH  63  64
ATOM     64  C   UNL     1       3.126  25.099  28.180  1.00  0.00     0.294 C 
BRANCH  64  65
ATOM     65  C   UNL     1       3.769  25.811  27.041  1.00  0.00     0.120 A 
ATOM     66  C   UNL     1       4.353  27.062  27.148  1.00  0.00     0.138 A 
ATOM     67  N   UNL     1       3.927  25.446  25.773  1.00  0.00    -0.132 NA
ATOM     68  N   UNL     1       4.832  27.387  25.944  1.00  0.00    -0.249 N 
ATOM     69  N   UNL     1       4.562  26.390  25.122  1.00  0.00    -0.067 NA
BRANCH  68  70
ATOM     70  C   UNL     1       5.523  28.629  25.568  1.00  0.00     0.187 C 
BRANCH  70  71
ATOM     71  C   UNL     1       6.959  28.579  26.042  1.00  0.00     0.256 C 
BRANCH  71  72
ATOM     72  O   UNL     1       7.744  27.962  25.028  1.00  0.00    -0.464 OA
BRANCH  72  73
ATOM     73  C   UNL     1       8.407  26.765  25.279  1.00  0.00     0.302 C 
ATOM     74  O   UNL     1       9.464  26.808  25.951  1.00  0.00    -0.253 OA
ATOM     75  C   UNL     1       7.899  25.446  24.775  1.00  0.00     0.139 C 
ENDBRANCH  72  73
ENDBRANCH  71  72
ENDBRANCH  70  71
ENDBRANCH  68  70
ENDBRANCH  64  65
ENDBRANCH  63  64
ENDBRANCH  60  63
ENDBRANCH  58  59
ENDBRANCH  55  58
ENDBRANCH   1  55
TORSDOF 33
