REMARK VINA RESULT:    -6.150      6.734     13.208
REMARK INTER + INTRA:         -21.864
REMARK INTER:                 -13.115
REMARK INTRA:                  -8.749
REMARK UNBOUND:                -6.367
REMARK SMILES CC(=O)N[C@@H]1[C@@H](O)C[C@](OC[C@H]2O[C@@H](O[C@H]3[C@H](O)[C@@H](O)[C@H](OCCN=[N+]=[N-])O[C@@H]3CO)[C@H](O)[C@@H](O)[C@H]2O)(C(=O)O)O[C@H]1C(O)[C@H](O)CNC(=O)OCc1cn(-c2ncn3c2c(=O)n(C(C)C)c2ccccc23)nn1
REMARK SMILES IDX 9 1 8 2 6 3 5 4 42 5 41 6 10 7 11 8 12 9 14 10 13 11 32 12
REMARK SMILES IDX 34 13 36 14 15 15 16 16 29 17 28 18 21 19 17 20 19 21 30 22
REMARK SMILES IDX 31 23 22 25 23 26 24 27 25 28 26 29 27 30 18 31 20 33 33 35
REMARK SMILES IDX 35 37 37 39 38 41 39 42 40 43 7 45 43 47 44 48 45 50 46 51
REMARK SMILES IDX 47 53 48 54 49 55 50 57 51 58 52 59 53 60 54 61 74 62 55 63
REMARK SMILES IDX 73 64 56 65 57 66 60 67 58 68 59 69 61 70 72 71 63 72 62 73
REMARK SMILES IDX 71 74 67 75 70 76 68 77 69 78 64 79 65 80 66 81 4 82 2 83
REMARK SMILES IDX 1 85 3 86
REMARK H PARENT 31 24 18 32 20 34 33 36 35 38 37 40 40 44 7 46 44 49 46 52
REMARK H PARENT 48 56 4 84
REMARK Flexibility Score: inf
ROOT
ATOM      1  C   UNL     1      22.637  25.489  20.436  1.00  0.00     0.272 C 
ATOM      2  C   UNL     1      22.068  24.537  21.453  1.00  0.00     0.113 C 
ATOM      3  C   UNL     1      22.030  25.101  22.811  1.00  0.00     0.145 C 
ATOM      4  C   UNL     1      21.530  26.515  22.892  1.00  0.00     0.142 C 
ATOM      5  C   UNL     1      21.780  27.312  21.663  1.00  0.00     0.178 C 
ATOM      6  O   UNL     1      21.840  26.676  20.495  1.00  0.00    -0.332 OA
ENDROOT
BRANCH   1   7
ATOM      7  O   UNL     1      22.288  24.991  19.211  1.00  0.00    -0.338 OA
BRANCH   7   8
ATOM      8  C   UNL     1      23.000  24.224  18.436  1.00  0.00     0.199 C 
BRANCH   8   9
ATOM      9  C   UNL     1      23.689  24.631  17.179  1.00  0.00     0.179 C 
ATOM     10  C   UNL     1      24.476  26.612  16.241  1.00  0.00     0.282 C 
ATOM     11  O   UNL     1      23.846  26.049  17.320  1.00  0.00    -0.341 OA
ATOM     12  C   UNL     1      25.902  26.115  16.080  1.00  0.00     0.202 C 
ATOM     13  C   UNL     1      25.944  24.598  16.073  1.00  0.00     0.179 C 
ATOM     14  C   UNL     1      25.120  24.094  17.226  1.00  0.00     0.177 C 
BRANCH  10  15
ATOM     15  O   UNL     1      24.528  27.982  16.470  1.00  0.00    -0.341 OA
BRANCH  15  16
ATOM     16  C   UNL     1      23.363  28.436  17.030  1.00  0.00     0.184 C 
ATOM     17  C   UNL     1      22.301  28.563  15.998  1.00  0.00     0.178 C 
ATOM     18  O   UNL     1      22.097  29.820  15.488  1.00  0.00    -0.341 OA
ATOM     19  C   UNL     1      23.169  30.672  15.531  1.00  0.00     0.281 C 
ATOM     20  C   UNL     1      23.551  29.707  17.831  1.00  0.00     0.180 C 
ATOM     21  C   UNL     1      23.714  30.871  16.924  1.00  0.00     0.202 C 
BRANCH  17  22
ATOM     22  C   UNL     1      20.991  28.004  16.511  1.00  0.00     0.191 C 
BRANCH  22  23
ATOM     23  O   UNL     1      21.313  27.340  17.719  1.00  0.00    -0.394 OA
ATOM     24  H   UNL     1      20.670  27.667  18.389  1.00  0.00     0.210 HD
ENDBRANCH  22  23
ENDBRANCH  17  22
BRANCH  19  25
ATOM     25  O   UNL     1      22.711  31.936  15.119  1.00  0.00    -0.350 OA
BRANCH  25  26
ATOM     26  C   UNL     1      21.901  32.561  16.027  1.00  0.00     0.169 C 
BRANCH  26  27
ATOM     27  C   UNL     1      20.513  32.869  15.562  1.00  0.00     0.119 C 
BRANCH  27  28
ATOM     28  N   UNL     1      19.637  32.630  16.721  1.00  0.00    -0.092 NA
ATOM     29  N   UNL     1      19.879  31.823  17.592  1.00  0.00     0.001 N 
ATOM     30  N   UNL     1      19.885  30.855  18.360  1.00  0.00    -0.003 NA
ENDBRANCH  27  28
ENDBRANCH  26  27
ENDBRANCH  25  26
ENDBRANCH  19  25
BRANCH  20  31
ATOM     31  O   UNL     1      22.480  29.837  18.725  1.00  0.00    -0.387 OA
ATOM     32  H   UNL     1      22.400  28.939  19.161  1.00  0.00     0.211 HD
ENDBRANCH  20  31
BRANCH  21  33
ATOM     33  O   UNL     1      25.093  31.126  16.814  1.00  0.00    -0.385 OA
ATOM     34  H   UNL     1      25.351  31.958  17.289  1.00  0.00     0.211 HD
ENDBRANCH  21  33
ENDBRANCH  15  16
ENDBRANCH  10  15
BRANCH  12  35
ATOM     35  O   UNL     1      26.343  26.520  14.823  1.00  0.00    -0.385 OA
ATOM     36  H   UNL     1      25.603  26.622  14.179  1.00  0.00     0.211 HD
ENDBRANCH  12  35
BRANCH  13  37
ATOM     37  O   UNL     1      27.276  24.237  16.350  1.00  0.00    -0.387 OA
ATOM     38  H   UNL     1      27.900  24.799  15.813  1.00  0.00     0.211 HD
ENDBRANCH  13  37
BRANCH  14  39
ATOM     39  O   UNL     1      25.731  24.619  18.395  1.00  0.00    -0.387 OA
ATOM     40  H   UNL     1      26.248  23.914  18.853  1.00  0.00     0.211 HD
ENDBRANCH  14  39
ENDBRANCH   8   9
ENDBRANCH   7   8
ENDBRANCH   1   7
BRANCH   1  41
ATOM     41  C   UNL     1      24.018  25.885  20.672  1.00  0.00     0.364 C 
ATOM     42  O   UNL     1      24.802  25.291  21.412  1.00  0.00    -0.246 OA
BRANCH  41  43
ATOM     43  O   UNL     1      24.550  27.022  20.035  1.00  0.00    -0.477 OA
ATOM     44  H   UNL     1      25.270  26.909  19.333  1.00  0.00     0.296 HD
ENDBRANCH  41  43
ENDBRANCH   1  41
BRANCH   3  45
ATOM     45  O   UNL     1      21.177  24.264  23.576  1.00  0.00    -0.391 OA
ATOM     46  H   UNL     1      20.493  23.847  23.004  1.00  0.00     0.211 HD
ENDBRANCH   3  45
BRANCH   5  47
ATOM     47  C   UNL     1      20.829  28.488  21.537  1.00  0.00     0.176 C 
BRANCH  47  48
ATOM     48  O   UNL     1      20.273  28.506  20.277  1.00  0.00    -0.388 OA
ATOM     49  H   UNL     1      19.377  28.926  20.245  1.00  0.00     0.211 HD
ENDBRANCH  47  48
BRANCH  47  50
ATOM     50  C   UNL     1      21.428  29.809  21.871  1.00  0.00     0.165 C 
BRANCH  50  51
ATOM     51  O   UNL     1      22.728  29.801  22.300  1.00  0.00    -0.388 OA
ATOM     52  H   UNL     1      22.885  30.301  23.133  1.00  0.00     0.211 HD
ENDBRANCH  50  51
BRANCH  50  53
ATOM     53  C   UNL     1      20.583  30.643  22.786  1.00  0.00     0.154 C 
BRANCH  53  54
ATOM     54  N   UNL     1      19.346  29.935  23.136  1.00  0.00    -0.319 N 
ATOM     55  C   UNL     1      18.315  30.532  23.879  1.00  0.00     0.407 C 
ATOM     56  H   UNL     1      19.214  28.928  22.817  1.00  0.00     0.167 HD
ATOM     57  O   UNL     1      18.415  31.714  24.296  1.00  0.00    -0.225 OA
BRANCH  55  58
ATOM     58  O   UNL     1      17.167  29.772  24.146  1.00  0.00    -0.443 OA
BRANCH  58  59
ATOM     59  C   UNL     1      15.927  30.144  23.614  1.00  0.00     0.294 C 
BRANCH  59  60
ATOM     60  C   UNL     1      15.662  29.502  22.271  1.00  0.00     0.121 A 
ATOM     61  C   UNL     1      16.452  29.605  21.148  1.00  0.00     0.146 A 
ATOM     62  N   UNL     1      14.631  28.718  21.916  1.00  0.00    -0.131 NA
ATOM     63  N   UNL     1      15.891  28.884  20.134  1.00  0.00    -0.200 N 
ATOM     64  N   UNL     1      14.791  28.365  20.643  1.00  0.00    -0.060 NA
BRANCH  63  65
ATOM     65  C   UNL     1      16.424  28.747  18.817  1.00  0.00     0.186 A 
ATOM     66  N   UNL     1      17.571  28.116  18.514  1.00  0.00    -0.216 NA
ATOM     67  C   UNL     1      15.945  29.204  17.614  1.00  0.00     0.158 A 
ATOM     68  C   UNL     1      17.791  28.180  17.187  1.00  0.00     0.207 A 
ATOM     69  N   UNL     1      16.781  28.860  16.602  1.00  0.00    -0.291 N 
ATOM     70  C   UNL     1      14.807  29.916  17.338  1.00  0.00     0.279 A 
ATOM     71  C   UNL     1      16.520  29.202  15.328  1.00  0.00     0.071 A 
ATOM     72  N   UNL     1      14.517  30.276  16.061  1.00  0.00    -0.302 N 
ATOM     73  O   UNL     1      14.006  30.251  18.265  1.00  0.00    -0.267 OA
ATOM     74  C   UNL     1      17.365  28.861  14.307  1.00  0.00     0.029 A 
ATOM     75  C   UNL     1      15.371  29.918  15.077  1.00  0.00     0.068 A 
ATOM     76  C   UNL     1      17.096  29.223  12.977  1.00  0.00     0.002 A 
ATOM     77  C   UNL     1      15.110  30.272  13.767  1.00  0.00     0.028 A 
ATOM     78  C   UNL     1      15.951  29.938  12.713  1.00  0.00     0.002 A 
BRANCH  72  79
ATOM     79  C   UNL     1      13.297  31.029  15.764  1.00  0.00     0.085 C 
ATOM     80  C   UNL     1      12.046  30.235  15.947  1.00  0.00     0.031 C 
ATOM     81  C   UNL     1      13.285  32.381  16.431  1.00  0.00     0.031 C 
ENDBRANCH  72  79
ENDBRANCH  63  65
ENDBRANCH  59  60
ENDBRANCH  58  59
ENDBRANCH  55  58
ENDBRANCH  53  54
ENDBRANCH  50  53
ENDBRANCH  47  50
ENDBRANCH   5  47
BRANCH   4  82
ATOM     82  N   UNL     1      22.084  27.127  24.082  1.00  0.00    -0.348 N 
ATOM     83  C   UNL     1      21.292  27.645  25.132  1.00  0.00     0.217 C 
ATOM     84  H   UNL     1      23.125  27.200  24.191  1.00  0.00     0.163 HD
ATOM     85  C   UNL     1      21.877  28.275  26.352  1.00  0.00     0.114 C 
ATOM     86  O   UNL     1      20.034  27.565  25.015  1.00  0.00    -0.275 OA
ENDBRANCH   4  82
TORSDOF 31
