REMARK VINA RESULT:    -6.147      2.761      8.142
REMARK INTER + INTRA:         -22.046
REMARK INTER:                 -14.603
REMARK INTRA:                  -7.444
REMARK UNBOUND:                -6.197
REMARK SMILES CC(=O)N[C@@H]1[C@@H](O)C[C@](OC[C@H]2O[C@@H](O[C@H]3[C@H](O)[C@@H](O)[C@H](OCCN=[N+]=[N-])O[C@@H]3CO)[C@H](O)[C@@H](O)[C@H]2O)(C(=O)O)O[C@H]1C(O)[C@H](O)CNC(=O)OCc1cn(Cc2cccc(C#N)c2)nn1
REMARK SMILES IDX 9 1 8 2 6 3 5 4 42 5 41 6 10 7 11 8 12 9 14 10 13 11 32 12
REMARK SMILES IDX 34 13 36 14 15 15 16 16 29 17 28 18 21 19 17 20 19 21 30 22
REMARK SMILES IDX 31 23 22 25 23 26 24 27 25 28 26 29 27 30 18 31 20 33 33 35
REMARK SMILES IDX 35 37 37 39 38 41 39 42 40 43 7 45 43 47 44 48 45 50 46 51
REMARK SMILES IDX 47 53 48 54 49 55 50 57 51 58 52 59 53 60 54 61 66 62 55 63
REMARK SMILES IDX 65 64 56 65 57 66 58 67 64 68 59 69 61 70 60 71 62 72 63 73
REMARK SMILES IDX 4 74 2 75 1 77 3 78
REMARK H PARENT 31 24 18 32 20 34 33 36 35 38 37 40 40 44 7 46 44 49 46 52
REMARK H PARENT 48 56 4 76
REMARK Flexibility Score: inf
ROOT
ATOM      1  C   UNL     1      15.764  29.737  22.096  1.00  0.00     0.272 C 
ATOM      2  C   UNL     1      14.287  29.618  22.385  1.00  0.00     0.113 C 
ATOM      3  C   UNL     1      13.429  30.751  22.008  1.00  0.00     0.145 C 
ATOM      4  C   UNL     1      14.168  32.089  22.107  1.00  0.00     0.142 C 
ATOM      5  C   UNL     1      15.501  32.055  21.506  1.00  0.00     0.178 C 
ATOM      6  O   UNL     1      16.182  30.882  21.499  1.00  0.00    -0.332 OA
ENDROOT
BRANCH   1   7
ATOM      7  O   UNL     1      16.132  28.716  21.344  1.00  0.00    -0.338 OA
BRANCH   7   8
ATOM      8  C   UNL     1      15.959  28.012  20.331  1.00  0.00     0.199 C 
BRANCH   8   9
ATOM      9  C   UNL     1      16.581  28.172  18.973  1.00  0.00     0.179 C 
ATOM     10  C   UNL     1      16.380  29.345  17.059  1.00  0.00     0.282 C 
ATOM     11  O   UNL     1      16.134  29.438  18.435  1.00  0.00    -0.341 OA
ATOM     12  C   UNL     1      17.840  29.373  16.756  1.00  0.00     0.202 C 
ATOM     13  C   UNL     1      18.649  28.523  17.717  1.00  0.00     0.179 C 
ATOM     14  C   UNL     1      18.089  28.468  19.097  1.00  0.00     0.177 C 
BRANCH  10  15
ATOM     15  O   UNL     1      15.741  30.399  16.412  1.00  0.00    -0.341 OA
BRANCH  15  16
ATOM     16  C   UNL     1      14.482  30.072  15.978  1.00  0.00     0.184 C 
ATOM     17  C   UNL     1      14.316  30.228  14.511  1.00  0.00     0.178 C 
ATOM     18  O   UNL     1      13.037  29.985  14.066  1.00  0.00    -0.341 OA
ATOM     19  C   UNL     1      12.031  30.654  14.727  1.00  0.00     0.281 C 
ATOM     20  C   UNL     1      13.550  31.169  16.588  1.00  0.00     0.180 C 
ATOM     21  C   UNL     1      12.158  30.702  16.216  1.00  0.00     0.202 C 
BRANCH  17  22
ATOM     22  C   UNL     1      15.224  29.275  13.768  1.00  0.00     0.191 C 
BRANCH  22  23
ATOM     23  O   UNL     1      14.866  27.956  14.060  1.00  0.00    -0.394 OA
ATOM     24  H   UNL     1      14.689  27.421  13.268  1.00  0.00     0.210 HD
ENDBRANCH  22  23
ENDBRANCH  17  22
BRANCH  19  25
ATOM     25  O   UNL     1      10.839  29.947  14.459  1.00  0.00    -0.350 OA
BRANCH  25  26
ATOM     26  C   UNL     1      10.752  29.670  13.120  1.00  0.00     0.169 C 
BRANCH  26  27
ATOM     27  C   UNL     1       9.572  30.331  12.465  1.00  0.00     0.119 C 
BRANCH  27  28
ATOM     28  N   UNL     1       8.509  29.408  12.143  1.00  0.00    -0.092 NA
ATOM     29  N   UNL     1       8.793  28.215  11.968  1.00  0.00     0.001 N 
ATOM     30  N   UNL     1       8.958  27.008  11.680  1.00  0.00    -0.003 NA
ENDBRANCH  27  28
ENDBRANCH  26  27
ENDBRANCH  25  26
ENDBRANCH  19  25
BRANCH  20  31
ATOM     31  O   UNL     1      13.785  31.208  17.937  1.00  0.00    -0.387 OA
ATOM     32  H   UNL     1      14.762  31.199  18.148  1.00  0.00     0.211 HD
ENDBRANCH  20  31
BRANCH  21  33
ATOM     33  O   UNL     1      11.257  31.640  16.712  1.00  0.00    -0.385 OA
ATOM     34  H   UNL     1      11.158  31.451  17.691  1.00  0.00     0.211 HD
ENDBRANCH  21  33
ENDBRANCH  15  16
ENDBRANCH  10  15
BRANCH  12  35
ATOM     35  O   UNL     1      18.031  28.768  15.493  1.00  0.00    -0.385 OA
ATOM     36  H   UNL     1      19.002  28.823  15.312  1.00  0.00     0.211 HD
ENDBRANCH  12  35
BRANCH  13  37
ATOM     37  O   UNL     1      19.908  29.137  17.802  1.00  0.00    -0.387 OA
ATOM     38  H   UNL     1      19.862  30.112  17.808  1.00  0.00     0.211 HD
ENDBRANCH  13  37
BRANCH  14  39
ATOM     39  O   UNL     1      18.216  29.755  19.643  1.00  0.00    -0.387 OA
ATOM     40  H   UNL     1      18.279  30.445  18.954  1.00  0.00     0.211 HD
ENDBRANCH  14  39
ENDBRANCH   8   9
ENDBRANCH   7   8
ENDBRANCH   1   7
BRANCH   1  41
ATOM     41  C   UNL     1      16.445  29.728  23.440  1.00  0.00     0.364 C 
ATOM     42  O   UNL     1      17.704  29.536  23.531  1.00  0.00    -0.246 OA
BRANCH  41  43
ATOM     43  O   UNL     1      15.750  29.923  24.603  1.00  0.00    -0.477 OA
ATOM     44  H   UNL     1      14.928  30.547  24.559  1.00  0.00     0.296 HD
ENDBRANCH  41  43
ENDBRANCH   1  41
BRANCH   3  45
ATOM     45  O   UNL     1      12.966  30.591  20.710  1.00  0.00    -0.391 OA
ATOM     46  H   UNL     1      11.985  30.664  20.633  1.00  0.00     0.211 HD
ENDBRANCH   3  45
BRANCH   5  47
ATOM     47  C   UNL     1      15.567  32.494  20.057  1.00  0.00     0.176 C 
BRANCH  47  48
ATOM     48  O   UNL     1      14.490  33.434  19.934  1.00  0.00    -0.388 OA
ATOM     49  H   UNL     1      13.818  33.185  20.609  1.00  0.00     0.211 HD
ENDBRANCH  47  48
BRANCH  47  50
ATOM     50  C   UNL     1      16.760  33.215  19.586  1.00  0.00     0.165 C 
BRANCH  50  51
ATOM     51  O   UNL     1      17.246  32.341  18.518  1.00  0.00    -0.388 OA
ATOM     52  H   UNL     1      17.253  31.409  18.891  1.00  0.00     0.211 HD
ENDBRANCH  50  51
BRANCH  50  53
ATOM     53  C   UNL     1      17.931  33.323  20.490  1.00  0.00     0.154 C 
BRANCH  53  54
ATOM     54  N   UNL     1      18.986  32.380  20.305  1.00  0.00    -0.319 N 
ATOM     55  C   UNL     1      19.681  31.855  21.447  1.00  0.00     0.407 C 
ATOM     56  H   UNL     1      19.287  32.039  19.385  1.00  0.00     0.167 HD
ATOM     57  O   UNL     1      19.314  32.261  22.573  1.00  0.00    -0.225 OA
BRANCH  55  58
ATOM     58  O   UNL     1      20.698  30.950  21.354  1.00  0.00    -0.443 OA
BRANCH  58  59
ATOM     59  C   UNL     1      21.044  30.081  22.453  1.00  0.00     0.294 C 
BRANCH  59  60
ATOM     60  C   UNL     1      21.072  28.674  21.964  1.00  0.00     0.120 A 
ATOM     61  C   UNL     1      21.147  27.532  22.729  1.00  0.00     0.138 A 
ATOM     62  N   UNL     1      21.036  28.259  20.693  1.00  0.00    -0.132 NA
ATOM     63  N   UNL     1      21.154  26.442  21.911  1.00  0.00    -0.248 N 
ATOM     64  N   UNL     1      21.085  26.919  20.678  1.00  0.00    -0.067 NA
BRANCH  63  65
ATOM     65  C   UNL     1      21.234  25.071  22.325  1.00  0.00     0.181 C 
BRANCH  65  66
ATOM     66  C   UNL     1      22.358  24.910  23.275  1.00  0.00    -0.025 A 
ATOM     67  C   UNL     1      23.672  24.892  22.888  1.00  0.00     0.006 A 
ATOM     68  C   UNL     1      22.084  24.764  24.631  1.00  0.00     0.025 A 
ATOM     69  C   UNL     1      24.706  24.737  23.773  1.00  0.00     0.002 A 
ATOM     70  C   UNL     1      23.120  24.609  25.518  1.00  0.00     0.052 A 
ATOM     71  C   UNL     1      24.460  24.589  25.132  1.00  0.00     0.019 A 
BRANCH  70  72
ATOM     72  C   UNL     1      22.828  24.464  26.920  1.00  0.00     0.099 C 
ATOM     73  N   UNL     1      22.585  24.361  28.059  1.00  0.00    -0.192 NA
ENDBRANCH  70  72
ENDBRANCH  65  66
ENDBRANCH  63  65
ENDBRANCH  59  60
ENDBRANCH  58  59
ENDBRANCH  55  58
ENDBRANCH  53  54
ENDBRANCH  50  53
ENDBRANCH  47  50
ENDBRANCH   5  47
BRANCH   4  74
ATOM     74  N   UNL     1      14.095  32.556  23.490  1.00  0.00    -0.348 N 
ATOM     75  C   UNL     1      13.986  33.939  23.748  1.00  0.00     0.217 C 
ATOM     76  H   UNL     1      14.114  31.934  24.322  1.00  0.00     0.163 HD
ATOM     77  C   UNL     1      13.906  34.504  25.124  1.00  0.00     0.114 C 
ATOM     78  O   UNL     1      13.956  34.724  22.786  1.00  0.00    -0.275 OA
ENDBRANCH   4  74
TORSDOF 32
