REMARK VINA RESULT:    -6.022      7.222     12.271
REMARK INTER + INTRA:         -20.867
REMARK INTER:                 -13.688
REMARK INTRA:                  -7.179
REMARK UNBOUND:                -6.043
REMARK SMILES CC(=O)N[C@@H]1[C@@H](O)C[C@](OC[C@H]2O[C@@H](O[C@H]3[C@H](O)[C@@H](O)[C@H](OCCN=[N+]=[N-])O[C@@H]3CO)[C@H](O)[C@@H](O)[C@H]2O)(C(=O)O)O[C@H]1C(O)[C@H](O)CNC(=O)OCc1cn(-c2ccccc2I)nn1
REMARK SMILES IDX 9 1 8 2 6 3 5 4 42 5 41 6 10 7 11 8 12 9 14 10 13 11 32 12
REMARK SMILES IDX 34 13 36 14 15 15 16 16 29 17 28 18 21 19 17 20 19 21 30 22
REMARK SMILES IDX 31 23 22 25 23 26 24 27 25 28 26 29 27 30 18 31 20 33 33 35
REMARK SMILES IDX 35 37 37 39 38 41 39 42 40 43 7 45 43 47 44 48 45 50 46 51
REMARK SMILES IDX 47 53 48 54 49 55 50 57 51 58 52 59 53 60 54 61 64 62 55 63
REMARK SMILES IDX 63 64 56 65 57 66 61 67 58 68 60 69 62 70 59 71 4 72 2 73
REMARK SMILES IDX 1 75 3 76
REMARK H PARENT 31 24 18 32 20 34 33 36 35 38 37 40 40 44 7 46 44 49 46 52
REMARK H PARENT 48 56 4 74
REMARK Flexibility Score: inf
ROOT
ATOM      1  C   UNL     1      25.228  26.161  11.978  1.00  0.00     0.272 C 
ATOM      2  C   UNL     1      26.657  26.492  12.304  1.00  0.00     0.113 C 
ATOM      3  C   UNL     1      27.337  25.340  13.063  1.00  0.00     0.145 C 
ATOM      4  C   UNL     1      26.565  25.245  14.411  1.00  0.00     0.142 C 
ATOM      5  C   UNL     1      25.094  25.169  14.112  1.00  0.00     0.178 C 
ATOM      6  O   UNL     1      24.945  24.973  12.733  1.00  0.00    -0.332 OA
ENDROOT
BRANCH   1   7
ATOM      7  O   UNL     1      24.932  25.789  10.705  1.00  0.00    -0.338 OA
BRANCH   7   8
ATOM      8  C   UNL     1      24.579  24.620  10.259  1.00  0.00     0.199 C 
BRANCH   8   9
ATOM      9  C   UNL     1      23.377  24.436   9.421  1.00  0.00     0.179 C 
ATOM     10  C   UNL     1      22.406  22.406   9.815  1.00  0.00     0.282 C 
ATOM     11  O   UNL     1      23.105  23.197   8.945  1.00  0.00    -0.341 OA
ATOM     12  C   UNL     1      20.939  22.816   9.858  1.00  0.00     0.202 C 
ATOM     13  C   UNL     1      20.868  24.338   9.588  1.00  0.00     0.179 C 
ATOM     14  C   UNL     1      22.118  24.964  10.174  1.00  0.00     0.177 C 
BRANCH  10  15
ATOM     15  O   UNL     1      22.973  22.100  11.010  1.00  0.00    -0.341 OA
BRANCH  15  16
ATOM     16  C   UNL     1      23.095  20.759  11.297  1.00  0.00     0.184 C 
ATOM     17  C   UNL     1      22.769  19.815  10.170  1.00  0.00     0.178 C 
ATOM     18  O   UNL     1      22.402  18.570  10.673  1.00  0.00    -0.341 OA
ATOM     19  C   UNL     1      22.991  18.264  11.905  1.00  0.00     0.281 C 
ATOM     20  C   UNL     1      22.005  20.445  12.345  1.00  0.00     0.180 C 
ATOM     21  C   UNL     1      22.475  19.155  13.005  1.00  0.00     0.202 C 
BRANCH  17  22
ATOM     22  C   UNL     1      23.808  19.721   9.101  1.00  0.00     0.191 C 
BRANCH  22  23
ATOM     23  O   UNL     1      25.022  20.117   9.676  1.00  0.00    -0.394 OA
ATOM     24  H   UNL     1      25.355  19.362  10.231  1.00  0.00     0.210 HD
ENDBRANCH  22  23
ENDBRANCH  17  22
BRANCH  19  25
ATOM     25  O   UNL     1      24.348  18.183  11.840  1.00  0.00    -0.350 OA
BRANCH  25  26
ATOM     26  C   UNL     1      24.934  18.069  13.062  1.00  0.00     0.169 C 
BRANCH  26  27
ATOM     27  C   UNL     1      26.303  18.650  13.222  1.00  0.00     0.119 C 
BRANCH  27  28
ATOM     28  N   UNL     1      26.535  19.421  14.410  1.00  0.00    -0.092 NA
ATOM     29  N   UNL     1      26.842  20.616  14.247  1.00  0.00     0.001 N 
ATOM     30  N   UNL     1      27.225  21.785  14.317  1.00  0.00    -0.003 NA
ENDBRANCH  27  28
ENDBRANCH  26  27
ENDBRANCH  25  26
ENDBRANCH  19  25
BRANCH  20  31
ATOM     31  O   UNL     1      21.896  21.473  13.262  1.00  0.00    -0.387 OA
ATOM     32  H   UNL     1      21.318  22.167  12.847  1.00  0.00     0.211 HD
ENDBRANCH  20  31
BRANCH  21  33
ATOM     33  O   UNL     1      21.452  18.574  13.752  1.00  0.00    -0.385 OA
ATOM     34  H   UNL     1      21.430  19.031  14.655  1.00  0.00     0.211 HD
ENDBRANCH  21  33
ENDBRANCH  15  16
ENDBRANCH  10  15
BRANCH  12  35
ATOM     35  O   UNL     1      20.185  22.228   8.852  1.00  0.00    -0.385 OA
ATOM     36  H   UNL     1      20.787  22.120   8.070  1.00  0.00     0.211 HD
ENDBRANCH  12  35
BRANCH  13  37
ATOM     37  O   UNL     1      19.733  24.923  10.053  1.00  0.00    -0.387 OA
ATOM     38  H   UNL     1      19.572  24.839  11.041  1.00  0.00     0.211 HD
ENDBRANCH  13  37
BRANCH  14  39
ATOM     39  O   UNL     1      22.260  24.544  11.485  1.00  0.00    -0.387 OA
ATOM     40  H   UNL     1      21.464  24.849  12.024  1.00  0.00     0.211 HD
ENDBRANCH  14  39
ENDBRANCH   8   9
ENDBRANCH   7   8
ENDBRANCH   1   7
BRANCH   1  41
ATOM     41  C   UNL     1      24.337  27.225  12.473  1.00  0.00     0.364 C 
ATOM     42  O   UNL     1      23.101  27.133  12.574  1.00  0.00    -0.246 OA
BRANCH  41  43
ATOM     43  O   UNL     1      24.865  28.471  12.877  1.00  0.00    -0.477 OA
ATOM     44  H   UNL     1      24.303  29.074  13.495  1.00  0.00     0.296 HD
ENDBRANCH  41  43
ENDBRANCH   1  41
BRANCH   3  45
ATOM     45  O   UNL     1      27.269  24.147  12.377  1.00  0.00    -0.391 OA
ATOM     46  H   UNL     1      27.823  23.462  12.822  1.00  0.00     0.211 HD
ENDBRANCH   3  45
BRANCH   5  47
ATOM     47  C   UNL     1      24.519  23.854  14.705  1.00  0.00     0.176 C 
BRANCH  47  48
ATOM     48  O   UNL     1      24.275  23.004  13.558  1.00  0.00    -0.388 OA
ATOM     49  H   UNL     1      23.364  22.613  13.724  1.00  0.00     0.211 HD
ENDBRANCH  47  48
BRANCH  47  50
ATOM     50  C   UNL     1      23.136  24.046  15.250  1.00  0.00     0.165 C 
BRANCH  50  51
ATOM     51  O   UNL     1      22.295  24.530  14.214  1.00  0.00    -0.388 OA
ATOM     52  H   UNL     1      22.048  25.475  14.373  1.00  0.00     0.211 HD
ENDBRANCH  50  51
BRANCH  50  53
ATOM     53  C   UNL     1      22.952  24.899  16.432  1.00  0.00     0.154 C 
BRANCH  53  54
ATOM     54  N   UNL     1      23.464  24.366  17.680  1.00  0.00    -0.319 N 
ATOM     55  C   UNL     1      23.040  24.958  18.908  1.00  0.00     0.407 C 
ATOM     56  H   UNL     1      24.129  23.570  17.745  1.00  0.00     0.167 HD
ATOM     57  O   UNL     1      22.233  25.943  18.875  1.00  0.00    -0.225 OA
BRANCH  55  58
ATOM     58  O   UNL     1      23.439  24.546  20.163  1.00  0.00    -0.443 OA
BRANCH  58  59
ATOM     59  C   UNL     1      22.496  24.077  21.116  1.00  0.00     0.294 C 
BRANCH  59  60
ATOM     60  C   UNL     1      22.915  24.589  22.470  1.00  0.00     0.121 A 
ATOM     61  C   UNL     1      22.201  24.567  23.646  1.00  0.00     0.144 A 
ATOM     62  N   UNL     1      24.091  25.174  22.754  1.00  0.00    -0.131 NA
ATOM     63  N   UNL     1      22.996  25.143  24.569  1.00  0.00    -0.219 N 
ATOM     64  N   UNL     1      24.140  25.508  24.022  1.00  0.00    -0.062 NA
BRANCH  63  65
ATOM     65  C   UNL     1      22.686  25.356  25.941  1.00  0.00     0.080 A 
ATOM     66  C   UNL     1      23.061  24.431  26.907  1.00  0.00     0.029 A 
ATOM     67  C   UNL     1      22.001  26.478  26.347  1.00  0.00     0.039 A 
ATOM     68  C   UNL     1      22.729  24.679  28.244  1.00  0.00     0.002 A 
ATOM     69  C   UNL     1      21.676  26.710  27.690  1.00  0.00     0.017 A 
ATOM     70  I   UNL     1      21.413  27.902  24.899  1.00  0.00    -0.042 I 
ATOM     71  C   UNL     1      22.045  25.801  28.649  1.00  0.00     0.001 A 
ENDBRANCH  63  65
ENDBRANCH  59  60
ENDBRANCH  58  59
ENDBRANCH  55  58
ENDBRANCH  53  54
ENDBRANCH  50  53
ENDBRANCH  47  50
ENDBRANCH   5  47
BRANCH   4  72
ATOM     72  N   UNL     1      26.995  26.359  15.175  1.00  0.00    -0.348 N 
ATOM     73  C   UNL     1      26.933  26.390  16.613  1.00  0.00     0.217 C 
ATOM     74  H   UNL     1      27.383  27.220  14.749  1.00  0.00     0.163 HD
ATOM     75  C   UNL     1      27.377  27.545  17.417  1.00  0.00     0.114 C 
ATOM     76  O   UNL     1      26.468  25.361  17.170  1.00  0.00    -0.275 OA
ENDBRANCH   4  72
TORSDOF 30
