REMARK VINA RESULT:    -4.864      4.489     10.045
REMARK INTER + INTRA:         -21.335
REMARK INTER:                 -14.081
REMARK INTRA:                  -7.254
REMARK UNBOUND:                -8.936
REMARK SMILES CC(=O)N[C@@H]1[C@@H](O)C[C@](OC[C@H]2O[C@@H](O[C@H]3[C@H](O)[C@@H](O)[C@H](OCCN=[N+]=[N-])O[C@@H]3CO)[C@H](O)[C@@H](O)[C@H]2O)(C(=O)O)O[C@H]1C(O)[C@H](O)CNC(=O)OCc1cn(-c2ccc(S(N)(=O)=O)cc2)nn1
REMARK SMILES IDX 9 1 8 2 6 3 5 4 42 5 41 6 10 7 11 8 12 9 14 10 13 11 32 12
REMARK SMILES IDX 34 13 36 14 15 15 16 16 29 17 28 18 21 19 17 20 19 21 30 22
REMARK SMILES IDX 31 23 22 25 23 26 24 27 25 28 26 29 27 30 18 31 20 33 33 35
REMARK SMILES IDX 35 37 37 39 38 41 39 42 40 43 7 45 43 47 44 48 45 50 46 51
REMARK SMILES IDX 47 53 48 54 49 55 50 57 51 58 52 59 53 60 54 61 67 62 55 63
REMARK SMILES IDX 66 64 56 65 57 66 65 67 58 68 64 69 59 70 60 71 62 72 63 73
REMARK SMILES IDX 61 74 4 77 2 78 1 80 3 81
REMARK H PARENT 31 24 18 32 20 34 33 36 35 38 37 40 40 44 7 46 44 49 46 52
REMARK H PARENT 48 56 61 75 61 76 4 79
REMARK Flexibility Score: inf
ROOT
ATOM      1  C   UNL     1      15.985  30.578  22.358  1.00  0.00     0.272 C 
ATOM      2  C   UNL     1      16.060  31.951  21.670  1.00  0.00     0.113 C 
ATOM      3  C   UNL     1      14.760  32.348  21.067  1.00  0.00     0.145 C 
ATOM      4  C   UNL     1      14.115  31.139  20.440  1.00  0.00     0.142 C 
ATOM      5  C   UNL     1      15.264  30.153  20.196  1.00  0.00     0.178 C 
ATOM      6  O   UNL     1      15.578  29.631  21.449  1.00  0.00    -0.332 OA
ENDROOT
BRANCH   1   7
ATOM      7  O   UNL     1      15.125  30.750  23.435  1.00  0.00    -0.338 OA
BRANCH   7   8
ATOM      8  C   UNL     1      14.489  29.611  23.841  1.00  0.00     0.199 C 
BRANCH   8   9
ATOM      9  C   UNL     1      13.491  30.008  24.943  1.00  0.00     0.179 C 
ATOM     10  C   UNL     1      13.281  31.752  26.488  1.00  0.00     0.282 C 
ATOM     11  O   UNL     1      14.144  30.868  25.769  1.00  0.00    -0.341 OA
ATOM     12  C   UNL     1      12.695  32.619  25.411  1.00  0.00     0.202 C 
ATOM     13  C   UNL     1      11.736  31.800  24.557  1.00  0.00     0.179 C 
ATOM     14  C   UNL     1      12.165  30.385  24.420  1.00  0.00     0.177 C 
BRANCH  10  15
ATOM     15  O   UNL     1      14.057  32.460  27.338  1.00  0.00    -0.341 OA
BRANCH  15  16
ATOM     16  C   UNL     1      15.450  32.205  27.232  1.00  0.00     0.184 C 
ATOM     17  C   UNL     1      15.982  32.016  28.579  1.00  0.00     0.178 C 
ATOM     18  O   UNL     1      17.213  32.576  28.853  1.00  0.00    -0.341 OA
ATOM     19  C   UNL     1      18.044  32.789  27.790  1.00  0.00     0.281 C 
ATOM     20  C   UNL     1      16.094  33.301  26.415  1.00  0.00     0.180 C 
ATOM     21  C   UNL     1      17.392  33.815  26.902  1.00  0.00     0.202 C 
BRANCH  17  22
ATOM     22  C   UNL     1      16.067  30.569  29.017  1.00  0.00     0.191 C 
BRANCH  22  23
ATOM     23  O   UNL     1      17.261  30.329  29.682  1.00  0.00    -0.394 OA
ATOM     24  H   UNL     1      17.293  29.421  30.074  1.00  0.00     0.210 HD
ENDBRANCH  22  23
ENDBRANCH  17  22
BRANCH  19  25
ATOM     25  O   UNL     1      18.448  31.669  27.104  1.00  0.00    -0.350 OA
BRANCH  25  26
ATOM     26  C   UNL     1      19.830  31.667  26.958  1.00  0.00     0.169 C 
BRANCH  26  27
ATOM     27  C   UNL     1      20.346  30.304  27.410  1.00  0.00     0.119 C 
BRANCH  27  28
ATOM     28  N   UNL     1      21.113  29.736  26.336  1.00  0.00    -0.092 NA
ATOM     29  N   UNL     1      20.586  29.385  25.257  1.00  0.00     0.001 N 
ATOM     30  N   UNL     1      20.117  28.532  24.484  1.00  0.00    -0.003 NA
ENDBRANCH  27  28
ENDBRANCH  26  27
ENDBRANCH  25  26
ENDBRANCH  19  25
BRANCH  20  31
ATOM     31  O   UNL     1      16.264  32.903  25.086  1.00  0.00    -0.387 OA
ATOM     32  H   UNL     1      15.462  32.414  24.791  1.00  0.00     0.211 HD
ENDBRANCH  20  31
BRANCH  21  33
ATOM     33  O   UNL     1      17.312  35.031  27.571  1.00  0.00    -0.385 OA
ATOM     34  H   UNL     1      18.275  35.309  27.704  1.00  0.00     0.211 HD
ENDBRANCH  21  33
ENDBRANCH  15  16
ENDBRANCH  10  15
BRANCH  12  35
ATOM     35  O   UNL     1      12.162  33.802  25.832  1.00  0.00    -0.385 OA
ATOM     36  H   UNL     1      12.452  34.106  26.714  1.00  0.00     0.211 HD
ENDBRANCH  12  35
BRANCH  13  37
ATOM     37  O   UNL     1      11.439  32.445  23.368  1.00  0.00    -0.387 OA
ATOM     38  H   UNL     1      11.774  32.009  22.558  1.00  0.00     0.211 HD
ENDBRANCH  13  37
BRANCH  14  39
ATOM     39  O   UNL     1      12.155  30.080  23.036  1.00  0.00    -0.387 OA
ATOM     40  H   UNL     1      12.736  30.779  22.616  1.00  0.00     0.211 HD
ENDBRANCH  14  39
ENDBRANCH   8   9
ENDBRANCH   7   8
ENDBRANCH   1   7
BRANCH   1  41
ATOM     41  C   UNL     1      17.396  30.340  22.841  1.00  0.00     0.364 C 
ATOM     42  O   UNL     1      17.832  30.910  23.871  1.00  0.00    -0.246 OA
BRANCH  41  43
ATOM     43  O   UNL     1      18.250  29.488  22.169  1.00  0.00    -0.477 OA
ATOM     44  H   UNL     1      19.150  29.844  21.884  1.00  0.00     0.296 HD
ENDBRANCH  41  43
ENDBRANCH   1  41
BRANCH   3  45
ATOM     45  O   UNL     1      13.974  32.944  22.052  1.00  0.00    -0.391 OA
ATOM     46  H   UNL     1      14.337  32.712  22.938  1.00  0.00     0.211 HD
ENDBRANCH   3  45
BRANCH   5  47
ATOM     47  C   UNL     1      14.827  29.031  19.292  1.00  0.00     0.176 C 
BRANCH  47  48
ATOM     48  O   UNL     1      14.172  29.447  18.151  1.00  0.00    -0.388 OA
ATOM     49  H   UNL     1      13.805  30.363  18.228  1.00  0.00     0.211 HD
ENDBRANCH  47  48
BRANCH  47  50
ATOM     50  C   UNL     1      16.010  28.169  18.916  1.00  0.00     0.165 C 
BRANCH  50  51
ATOM     51  O   UNL     1      16.606  27.627  20.074  1.00  0.00    -0.388 OA
ATOM     52  H   UNL     1      16.567  28.289  20.822  1.00  0.00     0.211 HD
ENDBRANCH  50  51
BRANCH  50  53
ATOM     53  C   UNL     1      17.039  28.936  18.124  1.00  0.00     0.154 C 
BRANCH  53  54
ATOM     54  N   UNL     1      18.385  28.533  18.455  1.00  0.00    -0.319 N 
ATOM     55  C   UNL     1      19.251  29.443  19.115  1.00  0.00     0.407 C 
ATOM     56  H   UNL     1      18.756  27.590  18.227  1.00  0.00     0.167 HD
ATOM     57  O   UNL     1      18.815  30.598  19.397  1.00  0.00    -0.225 OA
BRANCH  55  58
ATOM     58  O   UNL     1      20.555  29.153  19.479  1.00  0.00    -0.443 OA
BRANCH  58  59
ATOM     59  C   UNL     1      21.316  28.156  18.841  1.00  0.00     0.294 C 
BRANCH  59  60
ATOM     60  C   UNL     1      21.684  27.116  19.838  1.00  0.00     0.121 A 
ATOM     61  C   UNL     1      21.800  27.308  21.220  1.00  0.00     0.144 A 
ATOM     62  N   UNL     1      21.979  25.817  19.659  1.00  0.00    -0.131 NA
ATOM     63  N   UNL     1      22.155  26.136  21.802  1.00  0.00    -0.220 N 
ATOM     64  N   UNL     1      22.256  25.260  20.848  1.00  0.00    -0.062 NA
BRANCH  63  65
ATOM     65  C   UNL     1      22.379  25.909  23.198  1.00  0.00     0.066 A 
ATOM     66  C   UNL     1      23.166  26.759  23.942  1.00  0.00     0.030 A 
ATOM     67  C   UNL     1      21.812  24.832  23.842  1.00  0.00     0.030 A 
ATOM     68  C   UNL     1      23.379  26.536  25.301  1.00  0.00     0.024 A 
ATOM     69  C   UNL     1      22.019  24.600  25.200  1.00  0.00     0.024 A 
ATOM     70  C   UNL     1      22.809  25.456  25.942  1.00  0.00     0.082 A 
BRANCH  70  71
ATOM     71  S   UNL     1      23.098  25.203  27.663  1.00  0.00     0.238 S 
ATOM     72  O   UNL     1      22.378  26.239  28.490  1.00  0.00    -0.207 OA
ATOM     73  O   UNL     1      22.584  23.861  28.088  1.00  0.00    -0.207 OA
BRANCH  71  74
ATOM     74  N   UNL     1      24.795  25.276  28.023  1.00  0.00    -0.225 NA
ATOM     75  H   UNL     1      25.084  24.319  28.374  1.00  0.00     0.137 HD
ATOM     76  H   UNL     1      25.017  26.009  28.737  1.00  0.00     0.137 HD
ENDBRANCH  71  74
ENDBRANCH  70  71
ENDBRANCH  63  65
ENDBRANCH  59  60
ENDBRANCH  58  59
ENDBRANCH  55  58
ENDBRANCH  53  54
ENDBRANCH  50  53
ENDBRANCH  47  50
ENDBRANCH   5  47
BRANCH   4  77
ATOM     77  N   UNL     1      13.404  31.409  19.219  1.00  0.00    -0.348 N 
ATOM     78  C   UNL     1      12.158  32.070  19.253  1.00  0.00     0.217 C 
ATOM     79  H   UNL     1      13.794  31.127  18.301  1.00  0.00     0.163 HD
ATOM     80  C   UNL     1      11.455  32.330  17.973  1.00  0.00     0.114 C 
ATOM     81  O   UNL     1      11.618  32.448  20.318  1.00  0.00    -0.275 OA
ENDBRANCH   4  77
TORSDOF 32
