REMARK VINA RESULT:    -5.926      3.315      8.341
REMARK INTER + INTRA:         -21.184
REMARK INTER:                 -13.756
REMARK INTRA:                  -7.428
REMARK UNBOUND:                -6.597
REMARK SMILES CC(=O)N[C@@H]1[C@@H](O)C[C@](OC[C@H]2O[C@@H](O[C@H]3[C@H](O)[C@@H](O)[C@H](OCCN=[N+]=[N-])O[C@@H]3CO)[C@H](O)[C@@H](O)[C@H]2O)(C(=O)O)O[C@H]1C(O)[C@H](O)CNC(=O)OCc1cn(-c2ccccc2)nn1
REMARK SMILES IDX 9 1 8 2 6 3 5 4 42 5 41 6 10 7 11 8 12 9 14 10 13 11 32 12
REMARK SMILES IDX 34 13 36 14 15 15 16 16 29 17 28 18 21 19 17 20 19 21 30 22
REMARK SMILES IDX 31 23 22 25 23 26 24 27 25 28 26 29 27 30 18 31 20 33 33 35
REMARK SMILES IDX 35 37 37 39 38 41 39 42 40 43 7 45 43 47 44 48 45 50 46 51
REMARK SMILES IDX 47 53 48 54 49 55 50 57 51 58 52 59 53 60 54 61 63 62 55 63
REMARK SMILES IDX 62 64 56 65 57 66 61 67 58 68 60 69 59 70 4 71 2 72 1 74
REMARK SMILES IDX 3 75
REMARK H PARENT 31 24 18 32 20 34 33 36 35 38 37 40 40 44 7 46 44 49 46 52
REMARK H PARENT 48 56 4 73
REMARK Flexibility Score: inf
ROOT
ATOM      1  C   UNL     1      24.222  26.519  17.475  1.00  0.00     0.272 C 
ATOM      2  C   UNL     1      23.433  25.265  17.399  1.00  0.00     0.113 C 
ATOM      3  C   UNL     1      23.244  24.557  18.689  1.00  0.00     0.145 C 
ATOM      4  C   UNL     1      22.949  25.546  19.801  1.00  0.00     0.142 C 
ATOM      5  C   UNL     1      24.122  26.500  19.835  1.00  0.00     0.178 C 
ATOM      6  O   UNL     1      24.025  27.245  18.689  1.00  0.00    -0.332 OA
ENDROOT
BRANCH   1   7
ATOM      7  O   UNL     1      23.918  27.460  16.536  1.00  0.00    -0.338 OA
BRANCH   7   8
ATOM      8  C   UNL     1      23.003  27.314  15.595  1.00  0.00     0.199 C 
BRANCH   8   9
ATOM      9  C   UNL     1      21.762  28.116  15.534  1.00  0.00     0.179 C 
ATOM     10  C   UNL     1      19.842  28.482  16.809  1.00  0.00     0.282 C 
ATOM     11  O   UNL     1      20.967  27.648  16.629  1.00  0.00    -0.341 OA
ATOM     12  C   UNL     1      19.654  29.500  15.734  1.00  0.00     0.202 C 
ATOM     13  C   UNL     1      20.865  30.398  15.609  1.00  0.00     0.179 C 
ATOM     14  C   UNL     1      22.091  29.574  15.877  1.00  0.00     0.177 C 
BRANCH  10  15
ATOM     15  O   UNL     1      19.981  29.109  17.992  1.00  0.00    -0.341 OA
BRANCH  15  16
ATOM     16  C   UNL     1      19.246  28.780  19.071  1.00  0.00     0.184 C 
ATOM     17  C   UNL     1      17.757  28.987  18.926  1.00  0.00     0.178 C 
ATOM     18  O   UNL     1      17.267  29.140  20.238  1.00  0.00    -0.341 OA
ATOM     19  C   UNL     1      17.491  30.498  20.555  1.00  0.00     0.281 C 
ATOM     20  C   UNL     1      19.703  29.492  20.345  1.00  0.00     0.180 C 
ATOM     21  C   UNL     1      18.972  30.811  20.494  1.00  0.00     0.202 C 
BRANCH  17  22
ATOM     22  C   UNL     1      17.060  27.779  18.339  1.00  0.00     0.191 C 
BRANCH  22  23
ATOM     23  O   UNL     1      16.336  27.150  19.355  1.00  0.00    -0.394 OA
ATOM     24  H   UNL     1      16.716  27.369  20.264  1.00  0.00     0.210 HD
ENDBRANCH  22  23
ENDBRANCH  17  22
BRANCH  19  25
ATOM     25  O   UNL     1      17.024  30.823  21.791  1.00  0.00    -0.350 OA
BRANCH  25  26
ATOM     26  C   UNL     1      16.090  30.002  22.359  1.00  0.00     0.169 C 
BRANCH  26  27
ATOM     27  C   UNL     1      14.679  30.495  22.290  1.00  0.00     0.119 C 
BRANCH  27  28
ATOM     28  N   UNL     1      13.814  29.557  21.675  1.00  0.00    -0.092 NA
ATOM     29  N   UNL     1      13.935  29.233  20.479  1.00  0.00     0.001 N 
ATOM     30  N   UNL     1      13.985  29.288  19.240  1.00  0.00    -0.003 NA
ENDBRANCH  27  28
ENDBRANCH  26  27
ENDBRANCH  25  26
ENDBRANCH  19  25
BRANCH  20  31
ATOM     31  O   UNL     1      19.458  28.757  21.496  1.00  0.00    -0.387 OA
ATOM     32  H   UNL     1      18.860  27.991  21.318  1.00  0.00     0.211 HD
ENDBRANCH  20  31
BRANCH  21  33
ATOM     33  O   UNL     1      19.249  31.690  19.467  1.00  0.00    -0.385 OA
ATOM     34  H   UNL     1      18.531  31.754  18.797  1.00  0.00     0.211 HD
ENDBRANCH  21  33
ENDBRANCH  15  16
ENDBRANCH  10  15
BRANCH  12  35
ATOM     35  O   UNL     1      19.208  28.992  14.520  1.00  0.00    -0.385 OA
ATOM     36  H   UNL     1      19.831  29.312  13.818  1.00  0.00     0.211 HD
ENDBRANCH  12  35
BRANCH  13  37
ATOM     37  O   UNL     1      20.781  31.392  16.566  1.00  0.00    -0.387 OA
ATOM     38  H   UNL     1      21.229  31.172  17.421  1.00  0.00     0.211 HD
ENDBRANCH  13  37
BRANCH  14  39
ATOM     39  O   UNL     1      22.410  29.574  17.254  1.00  0.00    -0.387 OA
ATOM     40  H   UNL     1      23.168  30.165  17.444  1.00  0.00     0.211 HD
ENDBRANCH  14  39
ENDBRANCH   8   9
ENDBRANCH   7   8
ENDBRANCH   1   7
BRANCH   1  41
ATOM     41  C   UNL     1      25.667  26.201  17.543  1.00  0.00     0.364 C 
ATOM     42  O   UNL     1      26.102  25.086  17.257  1.00  0.00    -0.246 OA
BRANCH  41  43
ATOM     43  O   UNL     1      26.590  27.187  17.949  1.00  0.00    -0.477 OA
ATOM     44  H   UNL     1      26.808  27.261  18.940  1.00  0.00     0.296 HD
ENDBRANCH  41  43
ENDBRANCH   1  41
BRANCH   3  45
ATOM     45  O   UNL     1      22.227  23.614  18.561  1.00  0.00    -0.391 OA
ATOM     46  H   UNL     1      22.184  23.364  17.621  1.00  0.00     0.211 HD
ENDBRANCH   3  45
BRANCH   5  47
ATOM     47  C   UNL     1      24.001  27.478  20.999  1.00  0.00     0.176 C 
BRANCH  47  48
ATOM     48  O   UNL     1      24.605  26.910  22.089  1.00  0.00    -0.388 OA
ATOM     49  H   UNL     1      24.058  26.244  22.560  1.00  0.00     0.211 HD
ENDBRANCH  47  48
BRANCH  47  50
ATOM     50  C   UNL     1      24.468  28.848  20.736  1.00  0.00     0.165 C 
BRANCH  50  51
ATOM     51  O   UNL     1      25.855  28.739  20.401  1.00  0.00    -0.388 OA
ATOM     52  H   UNL     1      25.896  28.738  19.428  1.00  0.00     0.211 HD
ENDBRANCH  50  51
BRANCH  50  53
ATOM     53  C   UNL     1      24.484  29.706  22.013  1.00  0.00     0.154 C 
BRANCH  53  54
ATOM     54  N   UNL     1      23.194  29.740  22.656  1.00  0.00    -0.319 N 
ATOM     55  C   UNL     1      22.300  30.855  22.493  1.00  0.00     0.407 C 
ATOM     56  H   UNL     1      22.839  28.973  23.263  1.00  0.00     0.167 HD
ATOM     57  O   UNL     1      22.614  31.829  21.772  1.00  0.00    -0.225 OA
BRANCH  55  58
ATOM     58  O   UNL     1      21.070  30.877  23.125  1.00  0.00    -0.443 OA
BRANCH  58  59
ATOM     59  C   UNL     1      20.967  30.859  24.544  1.00  0.00     0.294 C 
BRANCH  59  60
ATOM     60  C   UNL     1      20.817  29.421  24.917  1.00  0.00     0.121 A 
ATOM     61  C   UNL     1      21.610  28.793  25.868  1.00  0.00     0.144 A 
ATOM     62  N   UNL     1      19.975  28.484  24.475  1.00  0.00    -0.131 NA
ATOM     63  N   UNL     1      21.226  27.495  25.975  1.00  0.00    -0.220 N 
ATOM     64  N   UNL     1      20.239  27.344  25.121  1.00  0.00    -0.062 NA
BRANCH  63  65
ATOM     65  C   UNL     1      21.784  26.511  26.831  1.00  0.00     0.066 A 
ATOM     66  C   UNL     1      21.730  26.626  28.201  1.00  0.00     0.028 A 
ATOM     67  C   UNL     1      22.395  25.399  26.295  1.00  0.00     0.028 A 
ATOM     68  C   UNL     1      22.265  25.671  29.040  1.00  0.00     0.002 A 
ATOM     69  C   UNL     1      22.931  24.440  27.142  1.00  0.00     0.002 A 
ATOM     70  C   UNL     1      22.887  24.539  28.511  1.00  0.00     0.000 A 
ENDBRANCH  63  65
ENDBRANCH  59  60
ENDBRANCH  58  59
ENDBRANCH  55  58
ENDBRANCH  53  54
ENDBRANCH  50  53
ENDBRANCH  47  50
ENDBRANCH   5  47
BRANCH   4  71
ATOM     71  N   UNL     1      22.626  24.897  21.021  1.00  0.00    -0.348 N 
ATOM     72  C   UNL     1      21.488  25.327  21.753  1.00  0.00     0.217 C 
ATOM     73  H   UNL     1      23.181  24.106  21.396  1.00  0.00     0.163 HD
ATOM     74  C   UNL     1      21.124  24.661  23.040  1.00  0.00     0.114 C 
ATOM     75  O   UNL     1      20.744  26.276  21.359  1.00  0.00    -0.275 OA
ENDBRANCH   4  71
TORSDOF 30
