REMARK VINA RESULT:    -6.568     23.151     26.973
REMARK INTER + INTRA:         -21.373
REMARK INTER:                 -13.588
REMARK INTRA:                  -7.784
REMARK UNBOUND:                -4.822
REMARK SMILES CC(=O)N[C@@H]1[C@@H](O)C[C@](OC[C@H]2O[C@@H](O[C@H]3[C@H](O)[C@@H](O)[C@H](OCCN=[N+]=[N-])O[C@@H]3CO)[C@H](O)[C@@H](O)[C@H]2O)(C(=O)O)O[C@H]1C(O)[C@H](O)CNC(=O)OCc1cn(Cc2ccccc2Br)nn1
REMARK SMILES IDX 9 1 8 2 6 3 5 4 42 5 41 6 10 7 11 8 12 9 14 10 13 11 32 12
REMARK SMILES IDX 34 13 36 14 15 15 16 16 29 17 28 18 21 19 17 20 19 21 30 22
REMARK SMILES IDX 31 23 22 25 23 26 24 27 25 28 26 29 27 30 18 31 20 33 33 35
REMARK SMILES IDX 35 37 37 39 38 41 39 42 40 43 7 45 43 47 44 48 45 50 46 51
REMARK SMILES IDX 47 53 48 54 49 55 50 57 51 58 52 59 53 60 54 61 65 62 55 63
REMARK SMILES IDX 64 64 56 65 57 66 58 67 62 68 59 69 61 70 63 71 60 72 4 73
REMARK SMILES IDX 2 74 1 76 3 77
REMARK H PARENT 31 24 18 32 20 34 33 36 35 38 37 40 40 44 7 46 44 49 46 52
REMARK H PARENT 48 56 4 75
REMARK Flexibility Score: inf
ROOT
ATOM      1  C   UNL     1       4.641  23.183  33.787  1.00  0.00     0.272 C 
ATOM      2  C   UNL     1       5.774  22.282  33.490  1.00  0.00     0.113 C 
ATOM      3  C   UNL     1       7.046  23.035  33.332  1.00  0.00     0.145 C 
ATOM      4  C   UNL     1       7.306  23.839  34.575  1.00  0.00     0.142 C 
ATOM      5  C   UNL     1       6.086  24.370  35.222  1.00  0.00     0.178 C 
ATOM      6  O   UNL     1       4.946  23.650  35.151  1.00  0.00    -0.332 OA
ENDROOT
BRANCH   1   7
ATOM      7  O   UNL     1       3.439  22.591  33.920  1.00  0.00    -0.338 OA
BRANCH   7   8
ATOM      8  C   UNL     1       2.390  22.627  33.163  1.00  0.00     0.199 C 
BRANCH   8   9
ATOM      9  C   UNL     1       2.202  22.204  31.774  1.00  0.00     0.179 C 
ATOM     10  C   UNL     1       1.887  22.705  29.557  1.00  0.00     0.282 C 
ATOM     11  O   UNL     1       2.463  23.147  30.773  1.00  0.00    -0.341 OA
ATOM     12  C   UNL     1       2.812  21.651  29.015  1.00  0.00     0.202 C 
ATOM     13  C   UNL     1       3.130  20.619  30.041  1.00  0.00     0.179 C 
ATOM     14  C   UNL     1       2.504  20.800  31.396  1.00  0.00     0.177 C 
BRANCH  10  15
ATOM     15  O   UNL     1       1.783  23.801  28.756  1.00  0.00    -0.341 OA
BRANCH  15  16
ATOM     16  C   UNL     1       2.469  24.924  29.108  1.00  0.00     0.184 C 
ATOM     17  C   UNL     1       1.702  26.199  29.097  1.00  0.00     0.178 C 
ATOM     18  O   UNL     1       2.436  27.146  28.388  1.00  0.00    -0.341 OA
ATOM     19  C   UNL     1       2.490  26.672  27.053  1.00  0.00     0.281 C 
ATOM     20  C   UNL     1       3.779  25.085  28.350  1.00  0.00     0.180 C 
ATOM     21  C   UNL     1       3.534  25.593  26.943  1.00  0.00     0.202 C 
BRANCH  17  22
ATOM     22  C   UNL     1       1.507  26.770  30.500  1.00  0.00     0.191 C 
BRANCH  22  23
ATOM     23  O   UNL     1       2.544  26.364  31.341  1.00  0.00    -0.394 OA
ATOM     24  H   UNL     1       2.660  25.387  31.353  1.00  0.00     0.210 HD
ENDBRANCH  22  23
ENDBRANCH  17  22
BRANCH  19  25
ATOM     25  O   UNL     1       2.766  27.788  26.268  1.00  0.00    -0.350 OA
BRANCH  25  26
ATOM     26  C   UNL     1       4.122  27.875  25.950  1.00  0.00     0.169 C 
BRANCH  26  27
ATOM     27  C   UNL     1       4.234  28.061  24.447  1.00  0.00     0.119 C 
BRANCH  27  28
ATOM     28  N   UNL     1       5.377  28.898  24.185  1.00  0.00    -0.092 NA
ATOM     29  N   UNL     1       6.522  28.439  24.141  1.00  0.00     0.001 N 
ATOM     30  N   UNL     1       7.603  27.962  24.546  1.00  0.00    -0.003 NA
ENDBRANCH  27  28
ENDBRANCH  26  27
ENDBRANCH  25  26
ENDBRANCH  19  25
BRANCH  20  31
ATOM     31  O   UNL     1       4.596  26.033  28.969  1.00  0.00    -0.387 OA
ATOM     32  H   UNL     1       3.999  26.579  29.552  1.00  0.00     0.211 HD
ENDBRANCH  20  31
BRANCH  21  33
ATOM     33  O   UNL     1       3.225  24.597  26.054  1.00  0.00    -0.385 OA
ATOM     34  H   UNL     1       2.827  24.990  25.242  1.00  0.00     0.211 HD
ENDBRANCH  21  33
ENDBRANCH  15  16
ENDBRANCH  10  15
BRANCH  12  35
ATOM     35  O   UNL     1       2.228  20.967  27.937  1.00  0.00    -0.385 OA
ATOM     36  H   UNL     1       2.910  20.346  27.595  1.00  0.00     0.211 HD
ENDBRANCH  12  35
BRANCH  13  37
ATOM     37  O   UNL     1       4.521  20.562  30.212  1.00  0.00    -0.387 OA
ATOM     38  H   UNL     1       4.874  21.362  30.651  1.00  0.00     0.211 HD
ENDBRANCH  13  37
BRANCH  14  39
ATOM     39  O   UNL     1       3.330  20.157  32.305  1.00  0.00    -0.387 OA
ATOM     40  H   UNL     1       4.092  19.688  31.935  1.00  0.00     0.211 HD
ENDBRANCH  14  39
ENDBRANCH   8   9
ENDBRANCH   7   8
ENDBRANCH   1   7
BRANCH   1  41
ATOM     41  C   UNL     1       4.582  24.477  33.076  1.00  0.00     0.364 C 
ATOM     42  O   UNL     1       4.184  25.567  33.547  1.00  0.00    -0.246 OA
BRANCH  41  43
ATOM     43  O   UNL     1       4.995  24.526  31.755  1.00  0.00    -0.477 OA
ATOM     44  H   UNL     1       5.392  23.713  31.284  1.00  0.00     0.296 HD
ENDBRANCH  41  43
ENDBRANCH   1  41
BRANCH   3  45
ATOM     45  O   UNL     1       8.065  22.033  33.234  1.00  0.00    -0.391 OA
ATOM     46  H   UNL     1       8.064  21.626  32.346  1.00  0.00     0.211 HD
ENDBRANCH   3  45
BRANCH   5  47
ATOM     47  C   UNL     1       6.361  24.601  36.711  1.00  0.00     0.176 C 
BRANCH  47  48
ATOM     48  O   UNL     1       6.196  23.383  37.354  1.00  0.00    -0.388 OA
ATOM     49  H   UNL     1       5.667  22.742  36.848  1.00  0.00     0.211 HD
ENDBRANCH  47  48
BRANCH  47  50
ATOM     50  C   UNL     1       5.449  25.610  37.316  1.00  0.00     0.165 C 
BRANCH  50  51
ATOM     51  O   UNL     1       4.349  25.890  36.487  1.00  0.00    -0.388 OA
ATOM     52  H   UNL     1       4.658  26.284  35.631  1.00  0.00     0.211 HD
ENDBRANCH  50  51
BRANCH  50  53
ATOM     53  C   UNL     1       6.160  26.925  37.501  1.00  0.00     0.154 C 
BRANCH  53  54
ATOM     54  N   UNL     1       6.104  27.700  36.313  1.00  0.00    -0.319 N 
ATOM     55  C   UNL     1       7.230  28.052  35.540  1.00  0.00     0.407 C 
ATOM     56  H   UNL     1       5.149  28.035  35.991  1.00  0.00     0.167 HD
ATOM     57  O   UNL     1       8.388  27.687  35.864  1.00  0.00    -0.225 OA
BRANCH  55  58
ATOM     58  O   UNL     1       7.105  28.823  34.377  1.00  0.00    -0.443 OA
BRANCH  58  59
ATOM     59  C   UNL     1       7.345  28.285  33.104  1.00  0.00     0.294 C 
BRANCH  59  60
ATOM     60  C   UNL     1       6.263  28.533  32.124  1.00  0.00     0.120 A 
ATOM     61  C   UNL     1       5.868  29.813  31.704  1.00  0.00     0.138 A 
ATOM     62  N   UNL     1       5.473  27.681  31.465  1.00  0.00    -0.132 NA
ATOM     63  N   UNL     1       4.879  29.673  30.829  1.00  0.00    -0.248 N 
ATOM     64  N   UNL     1       4.651  28.362  30.696  1.00  0.00    -0.067 NA
BRANCH  63  65
ATOM     65  C   UNL     1       4.138  30.699  30.095  1.00  0.00     0.182 C 
BRANCH  65  66
ATOM     66  C   UNL     1       4.892  31.273  28.961  1.00  0.00    -0.012 A 
ATOM     67  C   UNL     1       5.639  30.382  28.172  1.00  0.00     0.007 A 
ATOM     68  C   UNL     1       4.928  32.605  28.651  1.00  0.00     0.023 A 
ATOM     69  C   UNL     1       6.372  30.873  27.135  1.00  0.00     0.000 A 
ATOM     70  C   UNL     1       5.679  33.089  27.593  1.00  0.00     0.016 A 
ATOM     71  Br  UNL     1       3.892  33.854  29.640  1.00  0.00    -0.050 Br
ATOM     72  C   UNL     1       6.403  32.207  26.834  1.00  0.00     0.001 A 
ENDBRANCH  65  66
ENDBRANCH  63  65
ENDBRANCH  59  60
ENDBRANCH  58  59
ENDBRANCH  55  58
ENDBRANCH  53  54
ENDBRANCH  50  53
ENDBRANCH  47  50
ENDBRANCH   5  47
BRANCH   4  73
ATOM     73  N   UNL     1       8.212  24.912  34.257  1.00  0.00    -0.348 N 
ATOM     74  C   UNL     1       9.632  24.789  34.329  1.00  0.00     0.217 C 
ATOM     75  H   UNL     1       7.871  25.849  33.955  1.00  0.00     0.163 HD
ATOM     76  C   UNL     1      10.514  25.948  33.985  1.00  0.00     0.114 C 
ATOM     77  O   UNL     1      10.107  23.701  34.682  1.00  0.00    -0.275 OA
ENDBRANCH   4  73
TORSDOF 31
