REMARK VINA RESULT:    -5.946     15.638     20.536
REMARK INTER + INTRA:         -21.117
REMARK INTER:                 -15.138
REMARK INTRA:                  -5.979
REMARK UNBOUND:                -5.091
REMARK SMILES C=CCCCCn1cc(COC(=O)NC[C@@H](O)C(O)[C@@H]2O[C@@](OC[C@H]3O[C@@H](O[C@H]4[C@H](O)[C@@H](O)[C@H](OCCN=[N+]=[N-])O[C@@H]4CO)[C@H](O)[C@@H](O)[C@H]3O)(C(=O)O)C[C@H](O)[C@H]2NC(C)=O)nn1
REMARK SMILES IDX 18 1 20 2 22 3 54 4 21 5 55 6 57 7 23 8 24 9 25 10 27 11
REMARK SMILES IDX 26 12 45 13 47 14 49 15 28 16 29 17 42 18 41 19 34 20 30 21
REMARK SMILES IDX 32 22 43 23 44 24 35 26 36 27 37 28 38 29 39 30 40 31 31 32
REMARK SMILES IDX 33 34 46 36 48 38 50 40 51 42 52 43 53 44 56 46 58 48 59 49
REMARK SMILES IDX 60 51 61 52 19 53 16 55 17 56 15 58 14 59 12 60 13 62 11 63
REMARK SMILES IDX 10 64 9 65 8 66 62 67 7 68 63 69 6 70 5 71 4 72 3 73 2 74
REMARK SMILES IDX 1 75
REMARK H PARENT 44 25 31 33 33 35 46 37 48 39 50 41 53 45 56 47 58 50 19 54
REMARK H PARENT 17 57 14 61
REMARK Flexibility Score: inf
ROOT
ATOM      1  C   UNL     1       4.619  21.633  32.022  1.00  0.00     0.176 C 
ENDROOT
BRANCH   1   2
ATOM      2  C   UNL     1       3.387  21.990  32.859  1.00  0.00     0.178 C 
ATOM      3  C   UNL     1       1.940  23.728  33.274  1.00  0.00     0.272 C 
ATOM      4  C   UNL     1       1.911  23.381  34.704  1.00  0.00     0.113 C 
ATOM      5  O   UNL     1       3.241  23.330  32.783  1.00  0.00    -0.332 OA
ATOM      6  C   UNL     1       2.180  21.976  35.027  1.00  0.00     0.145 C 
ATOM      7  C   UNL     1       3.183  21.289  34.115  1.00  0.00     0.142 C 
BRANCH   3   8
ATOM      8  O   UNL     1       2.014  25.091  33.026  1.00  0.00    -0.338 OA
BRANCH   8   9
ATOM      9  C   UNL     1       2.452  25.967  33.908  1.00  0.00     0.199 C 
BRANCH   9  10
ATOM     10  C   UNL     1       3.473  26.982  33.565  1.00  0.00     0.179 C 
ATOM     11  C   UNL     1       5.705  27.506  34.046  1.00  0.00     0.282 C 
ATOM     12  O   UNL     1       4.543  26.941  34.491  1.00  0.00    -0.341 OA
ATOM     13  C   UNL     1       5.545  28.401  32.880  1.00  0.00     0.202 C 
ATOM     14  C   UNL     1       4.810  27.792  31.717  1.00  0.00     0.179 C 
ATOM     15  C   UNL     1       4.056  26.595  32.211  1.00  0.00     0.177 C 
BRANCH  11  16
ATOM     16  O   UNL     1       6.654  26.521  33.981  1.00  0.00    -0.341 OA
BRANCH  16  17
ATOM     17  C   UNL     1       7.183  26.087  35.159  1.00  0.00     0.184 C 
ATOM     18  C   UNL     1       8.690  26.076  35.048  1.00  0.00     0.178 C 
ATOM     19  O   UNL     1       9.235  24.952  35.690  1.00  0.00    -0.341 OA
ATOM     20  C   UNL     1       9.032  23.863  34.848  1.00  0.00     0.281 C 
ATOM     21  C   UNL     1       6.781  24.623  35.450  1.00  0.00     0.180 C 
ATOM     22  C   UNL     1       7.570  23.690  34.561  1.00  0.00     0.202 C 
BRANCH  18  23
ATOM     23  C   UNL     1       9.333  27.350  35.569  1.00  0.00     0.191 C 
BRANCH  23  24
ATOM     24  O   UNL     1       8.884  28.454  34.865  1.00  0.00    -0.394 OA
ATOM     25  H   UNL     1       9.601  29.131  34.842  1.00  0.00     0.210 HD
ENDBRANCH  23  24
ENDBRANCH  18  23
BRANCH  20  26
ATOM     26  O   UNL     1       9.538  22.745  35.513  1.00  0.00    -0.350 OA
BRANCH  26  27
ATOM     27  C   UNL     1      10.318  23.059  36.611  1.00  0.00     0.169 C 
BRANCH  27  28
ATOM     28  C   UNL     1      11.766  23.041  36.157  1.00  0.00     0.119 C 
BRANCH  28  29
ATOM     29  N   UNL     1      12.536  24.085  36.779  1.00  0.00    -0.092 NA
ATOM     30  N   UNL     1      12.533  24.249  37.993  1.00  0.00     0.001 N 
ATOM     31  N   UNL     1      12.584  24.192  39.221  1.00  0.00    -0.003 NA
ENDBRANCH  28  29
ENDBRANCH  27  28
ENDBRANCH  26  27
ENDBRANCH  20  26
BRANCH  21  32
ATOM     32  O   UNL     1       7.175  24.378  36.764  1.00  0.00    -0.387 OA
ATOM     33  H   UNL     1       6.435  24.197  37.379  1.00  0.00     0.211 HD
ENDBRANCH  21  32
BRANCH  22  34
ATOM     34  O   UNL     1       7.239  23.891  33.224  1.00  0.00    -0.385 OA
ATOM     35  H   UNL     1       7.929  24.498  32.840  1.00  0.00     0.211 HD
ENDBRANCH  22  34
ENDBRANCH  16  17
ENDBRANCH  11  16
BRANCH  13  36
ATOM     36  O   UNL     1       4.818  29.523  33.303  1.00  0.00    -0.385 OA
ATOM     37  H   UNL     1       5.010  30.315  32.770  1.00  0.00     0.211 HD
ENDBRANCH  13  36
BRANCH  14  38
ATOM     38  O   UNL     1       5.666  27.459  30.666  1.00  0.00    -0.387 OA
ATOM     39  H   UNL     1       6.433  26.993  31.057  1.00  0.00     0.211 HD
ENDBRANCH  14  38
BRANCH  15  40
ATOM     40  O   UNL     1       4.875  25.465  32.331  1.00  0.00    -0.387 OA
ATOM     41  H   UNL     1       5.359  25.253  31.512  1.00  0.00     0.211 HD
ENDBRANCH  15  40
ENDBRANCH   9  10
ENDBRANCH   8   9
ENDBRANCH   3   8
BRANCH   3  42
ATOM     42  C   UNL     1       0.995  22.951  32.483  1.00  0.00     0.364 C 
ATOM     43  O   UNL     1       0.094  22.278  33.028  1.00  0.00    -0.246 OA
BRANCH  42  44
ATOM     44  O   UNL     1       1.046  22.906  31.121  1.00  0.00    -0.477 OA
ATOM     45  H   UNL     1       0.662  22.142  30.594  1.00  0.00     0.296 HD
ENDBRANCH  42  44
ENDBRANCH   3  42
BRANCH   6  46
ATOM     46  O   UNL     1       2.625  21.897  36.370  1.00  0.00    -0.391 OA
ATOM     47  H   UNL     1       3.467  22.399  36.508  1.00  0.00     0.211 HD
ENDBRANCH   6  46
BRANCH   7  48
ATOM     48  N   UNL     1       2.714  19.916  33.849  1.00  0.00    -0.348 N 
ATOM     49  C   UNL     1       3.092  18.803  34.636  1.00  0.00     0.217 C 
ATOM     50  H   UNL     1       2.067  19.698  33.043  1.00  0.00     0.163 HD
ATOM     51  C   UNL     1       2.586  17.419  34.307  1.00  0.00     0.114 C 
ATOM     52  O   UNL     1       3.858  18.986  35.615  1.00  0.00    -0.275 OA
ENDBRANCH   7  48
ENDBRANCH   1   2
BRANCH   1  53
ATOM     53  O   UNL     1       5.461  20.861  32.984  1.00  0.00    -0.388 OA
ATOM     54  H   UNL     1       5.167  19.925  32.742  1.00  0.00     0.211 HD
ENDBRANCH   1  53
BRANCH   1  55
ATOM     55  C   UNL     1       4.407  20.629  30.980  1.00  0.00     0.165 C 
BRANCH  55  56
ATOM     56  O   UNL     1       5.533  20.336  30.178  1.00  0.00    -0.388 OA
ATOM     57  H   UNL     1       6.305  20.389  30.793  1.00  0.00     0.211 HD
ENDBRANCH  55  56
BRANCH  55  58
ATOM     58  C   UNL     1       3.207  20.695  30.131  1.00  0.00     0.154 C 
BRANCH  58  59
ATOM     59  N   UNL     1       3.155  21.763  29.209  1.00  0.00    -0.319 N 
ATOM     60  C   UNL     1       2.405  21.949  28.042  1.00  0.00     0.407 C 
ATOM     61  H   UNL     1       3.814  22.599  29.442  1.00  0.00     0.167 HD
ATOM     62  O   UNL     1       1.611  21.083  27.641  1.00  0.00    -0.225 OA
BRANCH  60  63
ATOM     63  O   UNL     1       2.519  23.121  27.281  1.00  0.00    -0.443 OA
BRANCH  63  64
ATOM     64  C   UNL     1       2.264  24.368  27.928  1.00  0.00     0.294 C 
BRANCH  64  65
ATOM     65  C   UNL     1       3.365  25.330  27.663  1.00  0.00     0.120 A 
ATOM     66  C   UNL     1       3.906  25.587  26.405  1.00  0.00     0.138 A 
ATOM     67  N   UNL     1       4.040  26.112  28.519  1.00  0.00    -0.132 NA
ATOM     68  N   UNL     1       4.870  26.500  26.563  1.00  0.00    -0.252 N 
ATOM     69  N   UNL     1       4.947  26.812  27.831  1.00  0.00    -0.067 NA
BRANCH  68  70
ATOM     70  C   UNL     1       5.675  27.029  25.454  1.00  0.00     0.146 C 
BRANCH  70  71
ATOM     71  C   UNL     1       6.911  27.678  26.017  1.00  0.00     0.024 C 
BRANCH  71  72
ATOM     72  C   UNL     1       6.892  29.144  25.643  1.00  0.00     0.006 C 
BRANCH  72  73
ATOM     73  C   UNL     1       6.100  29.925  26.667  1.00  0.00     0.027 C 
BRANCH  73  74
ATOM     74  C   UNL     1       6.580  31.321  26.769  1.00  0.00    -0.035 C 
ATOM     75  C   UNL     1       7.141  31.912  25.733  1.00  0.00     0.004 C 
ENDBRANCH  73  74
ENDBRANCH  72  73
ENDBRANCH  71  72
ENDBRANCH  70  71
ENDBRANCH  68  70
ENDBRANCH  64  65
ENDBRANCH  63  64
ENDBRANCH  60  63
ENDBRANCH  58  59
ENDBRANCH  55  58
ENDBRANCH   1  55
TORSDOF 34
