REMARK VINA RESULT:    -5.897      3.925     10.423
REMARK INTER + INTRA:         -20.987
REMARK INTER:                 -13.498
REMARK INTRA:                  -7.489
REMARK UNBOUND:                -5.091
REMARK SMILES C=CCCCCn1cc(COC(=O)NC[C@@H](O)C(O)[C@@H]2O[C@@](OC[C@H]3O[C@@H](O[C@H]4[C@H](O)[C@@H](O)[C@H](OCCN=[N+]=[N-])O[C@@H]4CO)[C@H](O)[C@@H](O)[C@H]3O)(C(=O)O)C[C@H](O)[C@H]2NC(C)=O)nn1
REMARK SMILES IDX 18 1 20 2 22 3 54 4 21 5 55 6 57 7 23 8 24 9 25 10 27 11
REMARK SMILES IDX 26 12 45 13 47 14 49 15 28 16 29 17 42 18 41 19 34 20 30 21
REMARK SMILES IDX 32 22 43 23 44 24 35 26 36 27 37 28 38 29 39 30 40 31 31 32
REMARK SMILES IDX 33 34 46 36 48 38 50 40 51 42 52 43 53 44 56 46 58 48 59 49
REMARK SMILES IDX 60 51 61 52 19 53 16 55 17 56 15 58 14 59 12 60 13 62 11 63
REMARK SMILES IDX 10 64 9 65 8 66 62 67 7 68 63 69 6 70 5 71 4 72 3 73 2 74
REMARK SMILES IDX 1 75
REMARK H PARENT 44 25 31 33 33 35 46 37 48 39 50 41 53 45 56 47 58 50 19 54
REMARK H PARENT 17 57 14 61
REMARK Flexibility Score: inf
ROOT
ATOM      1  C   UNL     1      17.985  30.765  22.294  1.00  0.00     0.176 C 
ENDROOT
BRANCH   1   2
ATOM      2  C   UNL     1      17.750  30.470  20.810  1.00  0.00     0.178 C 
ATOM      3  C   UNL     1      18.831  29.672  18.943  1.00  0.00     0.272 C 
ATOM      4  C   UNL     1      18.152  30.674  18.105  1.00  0.00     0.113 C 
ATOM      5  O   UNL     1      18.964  30.262  20.258  1.00  0.00    -0.332 OA
ATOM      6  C   UNL     1      16.854  31.146  18.597  1.00  0.00     0.145 C 
ATOM      7  C   UNL     1      16.736  31.239  20.109  1.00  0.00     0.142 C 
BRANCH   3   8
ATOM      8  O   UNL     1      20.173  29.497  18.639  1.00  0.00    -0.338 OA
BRANCH   8   9
ATOM      9  C   UNL     1      21.149  29.773  19.481  1.00  0.00     0.199 C 
BRANCH   9  10
ATOM     10  C   UNL     1      22.151  28.758  19.878  1.00  0.00     0.179 C 
ATOM     11  C   UNL     1      23.088  27.834  21.816  1.00  0.00     0.282 C 
ATOM     12  O   UNL     1      22.523  28.934  21.232  1.00  0.00    -0.341 OA
ATOM     13  C   UNL     1      23.580  26.818  20.862  1.00  0.00     0.202 C 
ATOM     14  C   UNL     1      22.568  26.375  19.840  1.00  0.00     0.179 C 
ATOM     15  C   UNL     1      21.474  27.396  19.787  1.00  0.00     0.177 C 
BRANCH  11  16
ATOM     16  O   UNL     1      22.263  27.426  22.830  1.00  0.00    -0.341 OA
BRANCH  16  17
ATOM     17  C   UNL     1      22.699  26.397  23.611  1.00  0.00     0.184 C 
ATOM     18  C   UNL     1      21.518  25.796  24.337  1.00  0.00     0.178 C 
ATOM     19  O   UNL     1      21.860  25.451  25.655  1.00  0.00    -0.341 OA
ATOM     20  C   UNL     1      21.883  26.630  26.393  1.00  0.00     0.281 C 
ATOM     21  C   UNL     1      23.653  26.898  24.719  1.00  0.00     0.180 C 
ATOM     22  C   UNL     1      22.860  27.600  25.798  1.00  0.00     0.202 C 
BRANCH  18  23
ATOM     23  C   UNL     1      20.920  24.603  23.612  1.00  0.00     0.191 C 
BRANCH  23  24
ATOM     24  O   UNL     1      20.484  24.959  22.348  1.00  0.00    -0.394 OA
ATOM     25  H   UNL     1      19.597  24.558  22.191  1.00  0.00     0.210 HD
ENDBRANCH  23  24
ENDBRANCH  18  23
BRANCH  20  26
ATOM     26  O   UNL     1      22.265  26.282  27.690  1.00  0.00    -0.350 OA
BRANCH  26  27
ATOM     27  C   UNL     1      22.788  27.336  28.416  1.00  0.00     0.169 C 
BRANCH  27  28
ATOM     28  C   UNL     1      21.650  27.946  29.213  1.00  0.00     0.119 C 
BRANCH  28  29
ATOM     29  N   UNL     1      20.694  26.955  29.629  1.00  0.00    -0.092 NA
ATOM     30  N   UNL     1      19.935  27.150  30.570  1.00  0.00     0.001 N 
ATOM     31  N   UNL     1      19.117  27.539  31.404  1.00  0.00    -0.003 NA
ENDBRANCH  28  29
ENDBRANCH  27  28
ENDBRANCH  26  27
ENDBRANCH  20  26
BRANCH  21  32
ATOM     32  O   UNL     1      24.205  25.753  25.288  1.00  0.00    -0.387 OA
ATOM     33  H   UNL     1      23.557  25.172  25.735  1.00  0.00     0.211 HD
ENDBRANCH  21  32
BRANCH  22  34
ATOM     34  O   UNL     1      22.262  28.752  25.294  1.00  0.00    -0.385 OA
ATOM     35  H   UNL     1      21.779  28.492  24.463  1.00  0.00     0.211 HD
ENDBRANCH  22  34
ENDBRANCH  16  17
ENDBRANCH  11  16
BRANCH  13  36
ATOM     36  O   UNL     1      24.667  27.374  20.173  1.00  0.00    -0.385 OA
ATOM     37  H   UNL     1      24.639  27.187  19.217  1.00  0.00     0.211 HD
ENDBRANCH  13  36
BRANCH  14  38
ATOM     38  O   UNL     1      22.066  25.100  20.110  1.00  0.00    -0.387 OA
ATOM     39  H   UNL     1      21.622  24.788  19.296  1.00  0.00     0.211 HD
ENDBRANCH  14  38
BRANCH  15  40
ATOM     40  O   UNL     1      20.548  27.235  20.825  1.00  0.00    -0.387 OA
ATOM     41  H   UNL     1      20.471  26.313  21.133  1.00  0.00     0.211 HD
ENDBRANCH  15  40
ENDBRANCH   9  10
ENDBRANCH   8   9
ENDBRANCH   3   8
BRANCH   3  42
ATOM     42  C   UNL     1      18.028  28.475  19.158  1.00  0.00     0.364 C 
ATOM     43  O   UNL     1      17.539  27.843  18.196  1.00  0.00    -0.246 OA
BRANCH  42  44
ATOM     44  O   UNL     1      17.761  27.988  20.402  1.00  0.00    -0.477 OA
ATOM     45  H   UNL     1      16.859  27.624  20.655  1.00  0.00     0.296 HD
ENDBRANCH  42  44
ENDBRANCH   3  42
BRANCH   6  46
ATOM     46  O   UNL     1      16.584  32.412  18.019  1.00  0.00    -0.391 OA
ATOM     47  H   UNL     1      15.727  32.787  18.344  1.00  0.00     0.211 HD
ENDBRANCH   6  46
BRANCH   7  48
ATOM     48  N   UNL     1      15.393  30.772  20.506  1.00  0.00    -0.348 N 
ATOM     49  C   UNL     1      14.250  31.604  20.492  1.00  0.00     0.217 C 
ATOM     50  H   UNL     1      15.224  29.780  20.827  1.00  0.00     0.163 HD
ATOM     51  C   UNL     1      12.903  31.070  20.920  1.00  0.00     0.114 C 
ATOM     52  O   UNL     1      14.373  32.797  20.118  1.00  0.00    -0.275 OA
ENDBRANCH   7  48
ENDBRANCH   1   2
BRANCH   1  53
ATOM     53  O   UNL     1      17.175  29.711  22.975  1.00  0.00    -0.388 OA
ATOM     54  H   UNL     1      16.408  29.649  22.320  1.00  0.00     0.211 HD
ENDBRANCH   1  53
BRANCH   1  55
ATOM     55  C   UNL     1      19.321  30.450  22.799  1.00  0.00     0.165 C 
BRANCH  55  56
ATOM     56  O   UNL     1      19.707  29.095  22.697  1.00  0.00    -0.388 OA
ATOM     57  H   UNL     1      19.450  28.825  21.781  1.00  0.00     0.211 HD
ENDBRANCH  55  56
BRANCH  55  58
ATOM     58  C   UNL     1      19.759  30.986  24.097  1.00  0.00     0.154 C 
BRANCH  58  59
ATOM     59  N   UNL     1      18.749  31.531  24.919  1.00  0.00    -0.319 N 
ATOM     60  C   UNL     1      18.532  31.457  26.300  1.00  0.00     0.407 C 
ATOM     61  H   UNL     1      17.998  32.118  24.391  1.00  0.00     0.167 HD
ATOM     62  O   UNL     1      19.299  30.820  27.040  1.00  0.00    -0.225 OA
BRANCH  60  63
ATOM     63  O   UNL     1      17.442  32.101  26.903  1.00  0.00    -0.443 OA
BRANCH  63  64
ATOM     64  C   UNL     1      16.322  31.303  27.289  1.00  0.00     0.294 C 
BRANCH  64  65
ATOM     65  C   UNL     1      15.365  31.162  26.162  1.00  0.00     0.120 A 
ATOM     66  C   UNL     1      14.166  31.864  26.048  1.00  0.00     0.138 A 
ATOM     67  N   UNL     1      15.434  30.378  25.076  1.00  0.00    -0.132 NA
ATOM     68  N   UNL     1      13.579  31.473  24.913  1.00  0.00    -0.252 N 
ATOM     69  N   UNL     1      14.342  30.582  24.333  1.00  0.00    -0.067 NA
BRANCH  68  70
ATOM     70  C   UNL     1      12.288  31.996  24.446  1.00  0.00     0.146 C 
BRANCH  70  71
ATOM     71  C   UNL     1      11.340  30.843  24.248  1.00  0.00     0.024 C 
BRANCH  71  72
ATOM     72  C   UNL     1      10.109  31.357  23.534  1.00  0.00     0.006 C 
BRANCH  72  73
ATOM     73  C   UNL     1       8.865  30.801  24.190  1.00  0.00     0.027 C 
BRANCH  73  74
ATOM     74  C   UNL     1       8.151  31.843  24.960  1.00  0.00    -0.035 C 
ATOM     75  C   UNL     1       8.426  33.119  24.774  1.00  0.00     0.004 C 
ENDBRANCH  73  74
ENDBRANCH  72  73
ENDBRANCH  71  72
ENDBRANCH  70  71
ENDBRANCH  68  70
ENDBRANCH  64  65
ENDBRANCH  63  64
ENDBRANCH  60  63
ENDBRANCH  58  59
ENDBRANCH  55  58
ENDBRANCH   1  55
TORSDOF 34
