REMARK VINA RESULT:    -5.244     22.049     26.273
REMARK INTER + INTRA:         -21.468
REMARK INTER:                 -13.349
REMARK INTRA:                  -8.119
REMARK UNBOUND:                -8.561
REMARK SMILES CC(=O)N[C@@H]1[C@@H](O)C[C@](OC[C@H]2O[C@@H](O[C@H]3[C@H](O)[C@@H](O)[C@H](OCCN=[N+]=[N-])O[C@@H]3CO)[C@H](O)[C@@H](O)[C@H]2O)(C(=O)O)O[C@H]1C(O)[C@H](O)CNC(=O)OCc1cn(-c2cnc3ccccc3c2)nn1
REMARK SMILES IDX 9 1 8 2 6 3 5 4 42 5 41 6 10 7 11 8 12 9 14 10 13 11 32 12
REMARK SMILES IDX 34 13 36 14 15 15 16 16 29 17 28 18 21 19 17 20 19 21 30 22
REMARK SMILES IDX 31 23 22 25 23 26 24 27 25 28 26 29 27 30 18 31 20 33 33 35
REMARK SMILES IDX 35 37 37 39 38 41 39 42 40 43 7 45 43 47 44 48 45 50 46 51
REMARK SMILES IDX 47 53 48 54 49 55 50 57 51 58 52 59 53 60 54 61 67 62 55 63
REMARK SMILES IDX 66 64 56 65 57 66 65 67 58 68 64 69 59 70 63 71 60 72 62 73
REMARK SMILES IDX 61 74 4 75 2 76 1 78 3 79
REMARK H PARENT 31 24 18 32 20 34 33 36 35 38 37 40 40 44 7 46 44 49 46 52
REMARK H PARENT 48 56 4 77
REMARK Flexibility Score: inf
ROOT
ATOM      1  C   UNL     1       1.126  23.301  33.296  1.00  0.00     0.272 C 
ATOM      2  C   UNL     1       0.231  22.744  34.343  1.00  0.00     0.113 C 
ATOM      3  C   UNL     1       0.276  21.229  34.393  1.00  0.00     0.145 C 
ATOM      4  C   UNL     1       1.764  20.873  34.423  1.00  0.00     0.142 C 
ATOM      5  C   UNL     1       2.317  21.280  33.049  1.00  0.00     0.178 C 
ATOM      6  O   UNL     1       2.334  22.689  33.130  1.00  0.00    -0.332 OA
ENDROOT
BRANCH   1   7
ATOM      7  O   UNL     1       1.439  24.652  33.560  1.00  0.00    -0.338 OA
BRANCH   7   8
ATOM      8  C   UNL     1       2.518  24.833  34.380  1.00  0.00     0.199 C 
BRANCH   8   9
ATOM      9  C   UNL     1       3.373  25.945  33.811  1.00  0.00     0.179 C 
ATOM     10  C   UNL     1       5.279  27.191  34.098  1.00  0.00     0.282 C 
ATOM     11  O   UNL     1       4.656  25.973  34.316  1.00  0.00    -0.341 OA
ATOM     12  C   UNL     1       4.741  27.907  32.894  1.00  0.00     0.202 C 
ATOM     13  C   UNL     1       4.260  27.004  31.814  1.00  0.00     0.179 C 
ATOM     14  C   UNL     1       3.214  26.072  32.354  1.00  0.00     0.177 C 
BRANCH  10  15
ATOM     15  O   UNL     1       6.643  27.004  34.051  1.00  0.00    -0.341 OA
BRANCH  15  16
ATOM     16  C   UNL     1       7.068  25.907  34.802  1.00  0.00     0.184 C 
ATOM     17  C   UNL     1       8.031  26.282  35.901  1.00  0.00     0.178 C 
ATOM     18  O   UNL     1       9.157  25.524  35.985  1.00  0.00    -0.341 OA
ATOM     19  C   UNL     1       9.024  24.167  35.877  1.00  0.00     0.281 C 
ATOM     20  C   UNL     1       7.545  24.773  33.938  1.00  0.00     0.180 C 
ATOM     21  C   UNL     1       8.105  23.685  34.797  1.00  0.00     0.202 C 
BRANCH  17  22
ATOM     22  C   UNL     1       7.293  26.450  37.231  1.00  0.00     0.191 C 
BRANCH  22  23
ATOM     23  O   UNL     1       5.973  26.018  37.156  1.00  0.00    -0.394 OA
ATOM     24  H   UNL     1       5.580  25.835  38.033  1.00  0.00     0.210 HD
ENDBRANCH  22  23
ENDBRANCH  17  22
BRANCH  19  25
ATOM     25  O   UNL     1       8.761  23.541  37.098  1.00  0.00    -0.350 OA
BRANCH  25  26
ATOM     26  C   UNL     1       9.833  23.595  37.964  1.00  0.00     0.169 C 
BRANCH  26  27
ATOM     27  C   UNL     1       9.475  23.087  39.341  1.00  0.00     0.119 C 
BRANCH  27  28
ATOM     28  N   UNL     1       9.350  21.644  39.342  1.00  0.00    -0.092 NA
ATOM     29  N   UNL     1       8.814  21.030  40.264  1.00  0.00     0.001 N 
ATOM     30  N   UNL     1       7.956  20.475  40.950  1.00  0.00    -0.003 NA
ENDBRANCH  27  28
ENDBRANCH  26  27
ENDBRANCH  25  26
ENDBRANCH  19  25
BRANCH  20  31
ATOM     31  O   UNL     1       6.424  24.245  33.260  1.00  0.00    -0.387 OA
ATOM     32  H   UNL     1       5.950  24.970  32.770  1.00  0.00     0.211 HD
ENDBRANCH  20  31
BRANCH  21  33
ATOM     33  O   UNL     1       8.740  22.765  33.930  1.00  0.00    -0.385 OA
ATOM     34  H   UNL     1       8.097  22.033  33.693  1.00  0.00     0.211 HD
ENDBRANCH  21  33
ENDBRANCH  15  16
ENDBRANCH  10  15
BRANCH  12  35
ATOM     35  O   UNL     1       3.739  28.825  33.193  1.00  0.00    -0.385 OA
ATOM     36  H   UNL     1       4.073  29.568  33.750  1.00  0.00     0.211 HD
ENDBRANCH  12  35
BRANCH  13  37
ATOM     37  O   UNL     1       5.323  26.310  31.233  1.00  0.00    -0.387 OA
ATOM     38  H   UNL     1       5.822  25.836  31.920  1.00  0.00     0.211 HD
ENDBRANCH  13  37
BRANCH  14  39
ATOM     39  O   UNL     1       3.333  24.877  31.653  1.00  0.00    -0.387 OA
ATOM     40  H   UNL     1       2.533  24.642  31.147  1.00  0.00     0.211 HD
ENDBRANCH  14  39
ENDBRANCH   8   9
ENDBRANCH   7   8
ENDBRANCH   1   7
BRANCH   1  41
ATOM     41  C   UNL     1       0.413  23.219  31.974  1.00  0.00     0.364 C 
ATOM     42  O   UNL     1      -0.850  23.067  31.926  1.00  0.00    -0.246 OA
BRANCH  41  43
ATOM     43  O   UNL     1       1.037  23.296  30.751  1.00  0.00    -0.477 OA
ATOM     44  H   UNL     1       1.993  22.947  30.584  1.00  0.00     0.296 HD
ENDBRANCH  41  43
ENDBRANCH   1  41
BRANCH   3  45
ATOM     45  O   UNL     1      -0.395  20.716  35.477  1.00  0.00    -0.391 OA
ATOM     46  H   UNL     1      -1.304  20.486  35.194  1.00  0.00     0.211 HD
ENDBRANCH   3  45
BRANCH   5  47
ATOM     47  C   UNL     1       3.756  20.873  32.893  1.00  0.00     0.176 C 
BRANCH  47  48
ATOM     48  O   UNL     1       4.533  21.801  33.635  1.00  0.00    -0.388 OA
ATOM     49  H   UNL     1       3.952  22.415  34.152  1.00  0.00     0.211 HD
ENDBRANCH  47  48
BRANCH  47  50
ATOM     50  C   UNL     1       4.286  20.949  31.468  1.00  0.00     0.165 C 
BRANCH  50  51
ATOM     51  O   UNL     1       4.147  22.351  31.167  1.00  0.00    -0.388 OA
ATOM     52  H   UNL     1       4.042  22.422  30.190  1.00  0.00     0.211 HD
ENDBRANCH  50  51
BRANCH  50  53
ATOM     53  C   UNL     1       3.306  20.310  30.507  1.00  0.00     0.154 C 
BRANCH  53  54
ATOM     54  N   UNL     1       2.916  21.086  29.391  1.00  0.00    -0.319 N 
ATOM     55  C   UNL     1       1.600  21.171  28.891  1.00  0.00     0.407 C 
ATOM     56  H   UNL     1       3.684  21.642  28.896  1.00  0.00     0.167 HD
ATOM     57  O   UNL     1       0.696  20.517  29.446  1.00  0.00    -0.225 OA
BRANCH  55  58
ATOM     58  O   UNL     1       1.371  21.979  27.800  1.00  0.00    -0.443 OA
BRANCH  58  59
ATOM     59  C   UNL     1       2.392  22.387  26.931  1.00  0.00     0.294 C 
BRANCH  59  60
ATOM     60  C   UNL     1       2.940  23.708  27.374  1.00  0.00     0.121 A 
ATOM     61  C   UNL     1       3.585  24.644  26.637  1.00  0.00     0.144 A 
ATOM     62  N   UNL     1       2.866  24.167  28.645  1.00  0.00    -0.131 NA
ATOM     63  N   UNL     1       3.887  25.649  27.481  1.00  0.00    -0.219 N 
ATOM     64  N   UNL     1       3.443  25.348  28.704  1.00  0.00    -0.062 NA
BRANCH  63  65
ATOM     65  C   UNL     1       4.575  26.838  27.102  1.00  0.00     0.085 A 
ATOM     66  C   UNL     1       4.225  28.028  27.654  1.00  0.00     0.140 A 
ATOM     67  C   UNL     1       5.600  26.745  26.174  1.00  0.00     0.040 A 
ATOM     68  N   UNL     1       4.891  29.142  27.289  1.00  0.00    -0.254 NA
ATOM     69  C   UNL     1       6.262  27.884  25.817  1.00  0.00     0.002 A 
ATOM     70  C   UNL     1       5.881  29.062  26.394  1.00  0.00     0.070 A 
ATOM     71  C   UNL     1       7.287  27.818  24.895  1.00  0.00     0.010 A 
ATOM     72  C   UNL     1       6.564  30.222  26.025  1.00  0.00     0.029 A 
ATOM     73  C   UNL     1       7.950  28.982  24.544  1.00  0.00     0.001 A 
ATOM     74  C   UNL     1       7.584  30.201  25.116  1.00  0.00     0.002 A 
ENDBRANCH  63  65
ENDBRANCH  59  60
ENDBRANCH  58  59
ENDBRANCH  55  58
ENDBRANCH  53  54
ENDBRANCH  50  53
ENDBRANCH  47  50
ENDBRANCH   5  47
BRANCH   4  75
ATOM     75  N   UNL     1       1.982  19.527  34.793  1.00  0.00    -0.348 N 
ATOM     76  C   UNL     1       2.829  19.202  35.918  1.00  0.00     0.217 C 
ATOM     77  H   UNL     1       1.556  18.705  34.318  1.00  0.00     0.163 HD
ATOM     78  C   UNL     1       3.065  17.813  36.314  1.00  0.00     0.114 C 
ATOM     79  O   UNL     1       3.351  20.177  36.536  1.00  0.00    -0.275 OA
ENDBRANCH   4  75
TORSDOF 30
