REMARK VINA RESULT:    -6.493      8.466     11.359
REMARK INTER + INTRA:         -22.224
REMARK INTER:                 -16.537
REMARK INTRA:                  -5.687
REMARK UNBOUND:                -5.863
REMARK SMILES CC(=O)N[C@@H]1[C@@H](O)C[C@](OC[C@H]2O[C@@H](O[C@H]3[C@H](O)[C@@H](O)[C@H](OCCN=[N+]=[N-])O[C@@H]3CO)[C@H](O)[C@@H](O)[C@H]2O)(C(=O)O)O[C@H]1C(O)[C@H](O)CNC(=O)OCc1cn(-c2ncccc2C#N)nn1
REMARK SMILES IDX 9 1 8 2 6 3 5 4 42 5 41 6 10 7 11 8 12 9 14 10 13 11 32 12
REMARK SMILES IDX 34 13 36 14 15 15 16 16 29 17 28 18 21 19 17 20 19 21 30 22
REMARK SMILES IDX 31 23 22 25 23 26 24 27 25 28 26 29 27 30 18 31 20 33 33 35
REMARK SMILES IDX 35 37 37 39 38 41 39 42 40 43 7 45 43 47 44 48 45 50 46 51
REMARK SMILES IDX 47 53 48 54 49 55 50 57 51 58 52 59 53 60 54 61 65 62 55 63
REMARK SMILES IDX 64 64 56 65 57 66 61 67 58 68 60 69 59 70 62 71 63 72 4 73
REMARK SMILES IDX 2 74 1 76 3 77
REMARK H PARENT 31 24 18 32 20 34 33 36 35 38 37 40 40 44 7 46 44 49 46 52
REMARK H PARENT 48 56 4 75
REMARK Flexibility Score: inf
ROOT
ATOM      1  C   UNL     1      29.315  19.968  19.193  1.00  0.00     0.272 C 
ATOM      2  C   UNL     1      28.364  19.865  20.308  1.00  0.00     0.113 C 
ATOM      3  C   UNL     1      28.897  20.367  21.592  1.00  0.00     0.145 C 
ATOM      4  C   UNL     1      29.924  21.448  21.514  1.00  0.00     0.142 C 
ATOM      5  C   UNL     1      30.239  21.971  20.142  1.00  0.00     0.178 C 
ATOM      6  O   UNL     1      30.067  21.119  19.157  1.00  0.00    -0.332 OA
ENDROOT
BRANCH   1   7
ATOM      7  O   UNL     1      28.920  19.799  17.927  1.00  0.00    -0.338 OA
BRANCH   7   8
ATOM      8  C   UNL     1      28.690  18.783  17.155  1.00  0.00     0.199 C 
BRANCH   8   9
ATOM      9  C   UNL     1      28.466  19.328  15.740  1.00  0.00     0.179 C 
ATOM     10  C   UNL     1      27.385  20.900  14.516  1.00  0.00     0.282 C 
ATOM     11  O   UNL     1      27.311  20.059  15.686  1.00  0.00    -0.341 OA
ATOM     12  C   UNL     1      28.361  21.995  14.753  1.00  0.00     0.202 C 
ATOM     13  C   UNL     1      29.708  21.437  15.223  1.00  0.00     0.179 C 
ATOM     14  C   UNL     1      29.659  19.959  15.123  1.00  0.00     0.177 C 
BRANCH  10  15
ATOM     15  O   UNL     1      26.158  21.359  14.185  1.00  0.00    -0.341 OA
BRANCH  15  16
ATOM     16  C   UNL     1      25.174  20.415  14.097  1.00  0.00     0.184 C 
ATOM     17  C   UNL     1      24.963  20.013  12.608  1.00  0.00     0.178 C 
ATOM     18  O   UNL     1      23.723  20.504  12.201  1.00  0.00    -0.341 OA
ATOM     19  C   UNL     1      23.633  21.882  12.445  1.00  0.00     0.281 C 
ATOM     20  C   UNL     1      23.839  20.840  14.651  1.00  0.00     0.180 C 
ATOM     21  C   UNL     1      23.352  22.089  13.907  1.00  0.00     0.202 C 
BRANCH  17  22
ATOM     22  C   UNL     1      25.057  18.525  12.498  1.00  0.00     0.191 C 
BRANCH  22  23
ATOM     23  O   UNL     1      25.048  17.904  13.760  1.00  0.00    -0.394 OA
ATOM     24  H   UNL     1      24.158  17.544  13.988  1.00  0.00     0.210 HD
ENDBRANCH  22  23
ENDBRANCH  17  22
BRANCH  19  25
ATOM     25  O   UNL     1      22.632  22.362  11.632  1.00  0.00    -0.350 OA
BRANCH  25  26
ATOM     26  C   UNL     1      22.012  21.325  10.910  1.00  0.00     0.169 C 
BRANCH  26  27
ATOM     27  C   UNL     1      20.632  21.046  11.467  1.00  0.00     0.119 C 
BRANCH  27  28
ATOM     28  N   UNL     1      20.447  19.591  11.396  1.00  0.00    -0.092 NA
ATOM     29  N   UNL     1      19.254  19.196  11.471  1.00  0.00     0.001 N 
ATOM     30  N   UNL     1      18.188  18.720  11.889  1.00  0.00    -0.003 NA
ENDBRANCH  27  28
ENDBRANCH  26  27
ENDBRANCH  25  26
ENDBRANCH  19  25
BRANCH  20  31
ATOM     31  O   UNL     1      22.884  19.854  14.574  1.00  0.00    -0.387 OA
ATOM     32  H   UNL     1      22.994  19.076  15.145  1.00  0.00     0.211 HD
ENDBRANCH  20  31
BRANCH  21  33
ATOM     33  O   UNL     1      23.992  23.216  14.412  1.00  0.00    -0.385 OA
ATOM     34  H   UNL     1      23.318  23.713  14.953  1.00  0.00     0.211 HD
ENDBRANCH  21  33
ENDBRANCH  15  16
ENDBRANCH  10  15
BRANCH  12  35
ATOM     35  O   UNL     1      28.561  22.737  13.603  1.00  0.00    -0.385 OA
ATOM     36  H   UNL     1      28.296  23.693  13.813  1.00  0.00     0.211 HD
ENDBRANCH  12  35
BRANCH  13  37
ATOM     37  O   UNL     1      29.943  21.863  16.551  1.00  0.00    -0.387 OA
ATOM     38  H   UNL     1      29.139  21.681  17.115  1.00  0.00     0.211 HD
ENDBRANCH  13  37
BRANCH  14  39
ATOM     39  O   UNL     1      30.819  19.327  15.581  1.00  0.00    -0.387 OA
ATOM     40  H   UNL     1      30.584  18.442  16.007  1.00  0.00     0.211 HD
ENDBRANCH  14  39
ENDBRANCH   8   9
ENDBRANCH   7   8
ENDBRANCH   1   7
BRANCH   1  41
ATOM     41  C   UNL     1      30.333  18.853  19.434  1.00  0.00     0.364 C 
ATOM     42  O   UNL     1      30.140  17.875  20.135  1.00  0.00    -0.246 OA
BRANCH  41  43
ATOM     43  O   UNL     1      31.593  18.941  18.809  1.00  0.00    -0.477 OA
ATOM     44  H   UNL     1      32.449  18.679  19.274  1.00  0.00     0.296 HD
ENDBRANCH  41  43
ENDBRANCH   1  41
BRANCH   3  45
ATOM     45  O   UNL     1      27.847  20.718  22.462  1.00  0.00    -0.391 OA
ATOM     46  H   UNL     1      27.359  21.461  21.977  1.00  0.00     0.211 HD
ENDBRANCH   3  45
BRANCH   5  47
ATOM     47  C   UNL     1      29.550  23.343  19.894  1.00  0.00     0.176 C 
BRANCH  47  48
ATOM     48  O   UNL     1      28.596  23.490  20.944  1.00  0.00    -0.388 OA
ATOM     49  H   UNL     1      27.808  22.945  20.776  1.00  0.00     0.211 HD
ENDBRANCH  47  48
BRANCH  47  50
ATOM     50  C   UNL     1      28.828  23.484  18.656  1.00  0.00     0.165 C 
BRANCH  50  51
ATOM     51  O   UNL     1      29.079  24.648  17.888  1.00  0.00    -0.388 OA
ATOM     52  H   UNL     1      28.817  25.455  18.434  1.00  0.00     0.211 HD
ENDBRANCH  50  51
BRANCH  50  53
ATOM     53  C   UNL     1      27.338  23.473  18.786  1.00  0.00     0.154 C 
BRANCH  53  54
ATOM     54  N   UNL     1      26.593  24.651  18.576  1.00  0.00    -0.319 N 
ATOM     55  C   UNL     1      25.814  25.032  17.485  1.00  0.00     0.407 C 
ATOM     56  H   UNL     1      26.622  25.395  19.375  1.00  0.00     0.167 HD
ATOM     57  O   UNL     1      25.721  24.233  16.522  1.00  0.00    -0.225 OA
BRANCH  55  58
ATOM     58  O   UNL     1      25.157  26.279  17.499  1.00  0.00    -0.443 OA
BRANCH  58  59
ATOM     59  C   UNL     1      23.761  26.304  17.523  1.00  0.00     0.294 C 
BRANCH  59  60
ATOM     60  C   UNL     1      23.202  25.485  18.581  1.00  0.00     0.121 A 
ATOM     61  C   UNL     1      23.270  25.734  19.900  1.00  0.00     0.146 A 
ATOM     62  N   UNL     1      22.546  24.254  18.428  1.00  0.00    -0.131 NA
ATOM     63  N   UNL     1      22.706  24.745  20.580  1.00  0.00    -0.201 N 
ATOM     64  N   UNL     1      22.305  23.918  19.661  1.00  0.00    -0.060 NA
BRANCH  63  65
ATOM     65  C   UNL     1      22.483  24.581  21.964  1.00  0.00     0.173 A 
ATOM     66  N   UNL     1      21.188  24.672  22.366  1.00  0.00    -0.236 NA
ATOM     67  C   UNL     1      23.536  24.481  22.883  1.00  0.00     0.097 A 
ATOM     68  C   UNL     1      20.926  24.674  23.787  1.00  0.00     0.113 A 
ATOM     69  C   UNL     1      23.210  24.497  24.221  1.00  0.00     0.025 A 
ATOM     70  C   UNL     1      21.940  24.593  24.613  1.00  0.00     0.022 A 
BRANCH  67  71
ATOM     71  C   UNL     1      24.906  24.275  22.535  1.00  0.00     0.103 C 
ATOM     72  N   UNL     1      26.065  24.116  22.226  1.00  0.00    -0.192 NA
ENDBRANCH  67  71
ENDBRANCH  63  65
ENDBRANCH  59  60
ENDBRANCH  58  59
ENDBRANCH  55  58
ENDBRANCH  53  54
ENDBRANCH  50  53
ENDBRANCH  47  50
ENDBRANCH   5  47
BRANCH   4  73
ATOM     73  N   UNL     1      31.039  20.993  22.316  1.00  0.00    -0.348 N 
ATOM     74  C   UNL     1      31.118  20.903  23.709  1.00  0.00     0.217 C 
ATOM     75  H   UNL     1      31.940  20.691  21.795  1.00  0.00     0.163 HD
ATOM     76  C   UNL     1      32.362  20.349  24.378  1.00  0.00     0.114 C 
ATOM     77  O   UNL     1      30.216  21.248  24.504  1.00  0.00    -0.275 OA
ENDBRANCH   4  73
TORSDOF 31
