REMARK VINA RESULT:    -5.993      1.792      2.369
REMARK INTER + INTRA:         -22.862
REMARK INTER:                 -13.987
REMARK INTRA:                  -8.875
REMARK UNBOUND:                -7.759
REMARK SMILES CC(=O)N[C@@H]1[C@@H](O)C[C@](OC[C@H]2O[C@@H](O[C@H]3[C@H](O)[C@@H](O)[C@H](OCCN=[N+]=[N-])O[C@@H]3CO)[C@H](O)[C@@H](O)[C@H]2O)(C(=O)O)O[C@H]1C(O)[C@H](O)CNC(=O)OCc1cn(-c2cc(Cl)ccc2C(=O)N(C)C)nn1
REMARK SMILES IDX 9 1 8 2 6 3 5 4 42 5 41 6 10 7 11 8 12 9 14 10 13 11 32 12
REMARK SMILES IDX 34 13 36 14 15 15 16 16 29 17 28 18 21 19 17 20 19 21 30 22
REMARK SMILES IDX 31 23 22 25 23 26 24 27 25 28 26 29 27 30 18 31 20 33 33 35
REMARK SMILES IDX 35 37 37 39 38 41 39 42 40 43 7 45 43 47 44 48 45 50 46 51
REMARK SMILES IDX 47 53 48 54 49 55 50 57 51 58 52 59 53 60 54 61 69 62 55 63
REMARK SMILES IDX 68 64 56 65 57 66 62 67 58 68 61 69 59 70 60 71 63 72 64 73
REMARK SMILES IDX 65 74 66 75 67 76 4 77 2 78 1 80 3 81
REMARK H PARENT 31 24 18 32 20 34 33 36 35 38 37 40 40 44 7 46 44 49 46 52
REMARK H PARENT 48 56 4 79
REMARK Flexibility Score: inf
ROOT
ATOM      1  C   UNL     1      14.534  29.946  19.172  1.00  0.00     0.272 C 
ATOM      2  C   UNL     1      15.165  28.624  18.944  1.00  0.00     0.113 C 
ATOM      3  C   UNL     1      16.333  28.436  19.878  1.00  0.00     0.145 C 
ATOM      4  C   UNL     1      17.306  29.554  19.585  1.00  0.00     0.142 C 
ATOM      5  C   UNL     1      16.667  30.873  19.704  1.00  0.00     0.178 C 
ATOM      6  O   UNL     1      15.324  30.989  19.540  1.00  0.00    -0.332 OA
ENDROOT
BRANCH   1   7
ATOM      7  O   UNL     1      13.509  29.872  20.102  1.00  0.00    -0.338 OA
BRANCH   7   8
ATOM      8  C   UNL     1      13.330  30.901  20.957  1.00  0.00     0.199 C 
BRANCH   8   9
ATOM      9  C   UNL     1      12.635  30.396  22.231  1.00  0.00     0.179 C 
ATOM     10  C   UNL     1      13.276  29.862  24.381  1.00  0.00     0.282 C 
ATOM     11  O   UNL     1      13.545  29.701  22.972  1.00  0.00    -0.341 OA
ATOM     12  C   UNL     1      11.782  29.706  24.557  1.00  0.00     0.202 C 
ATOM     13  C   UNL     1      11.032  30.883  23.969  1.00  0.00     0.179 C 
ATOM     14  C   UNL     1      11.878  31.487  22.862  1.00  0.00     0.177 C 
BRANCH  10  15
ATOM     15  O   UNL     1      13.786  31.043  24.713  1.00  0.00    -0.341 OA
BRANCH  15  16
ATOM     16  C   UNL     1      14.930  31.167  25.482  1.00  0.00     0.184 C 
ATOM     17  C   UNL     1      14.792  32.449  26.236  1.00  0.00     0.178 C 
ATOM     18  O   UNL     1      15.929  32.665  27.034  1.00  0.00    -0.341 OA
ATOM     19  C   UNL     1      16.887  33.090  26.050  1.00  0.00     0.281 C 
ATOM     20  C   UNL     1      16.155  31.199  24.605  1.00  0.00     0.180 C 
ATOM     21  C   UNL     1      17.301  31.897  25.271  1.00  0.00     0.202 C 
BRANCH  17  22
ATOM     22  C   UNL     1      13.552  32.447  27.106  1.00  0.00     0.191 C 
BRANCH  22  23
ATOM     23  O   UNL     1      12.543  33.102  26.433  1.00  0.00    -0.394 OA
ATOM     24  H   UNL     1      11.673  32.926  26.872  1.00  0.00     0.210 HD
ENDBRANCH  22  23
ENDBRANCH  17  22
BRANCH  19  25
ATOM     25  O   UNL     1      17.886  33.713  26.690  1.00  0.00    -0.350 OA
BRANCH  25  26
ATOM     26  C   UNL     1      17.797  35.094  26.742  1.00  0.00     0.169 C 
BRANCH  26  27
ATOM     27  C   UNL     1      18.610  35.797  25.675  1.00  0.00     0.119 C 
BRANCH  27  28
ATOM     28  N   UNL     1      19.705  34.963  25.229  1.00  0.00    -0.092 NA
ATOM     29  N   UNL     1      20.070  34.986  24.059  1.00  0.00     0.001 N 
ATOM     30  N   UNL     1      20.356  35.210  22.864  1.00  0.00    -0.003 NA
ENDBRANCH  27  28
ENDBRANCH  26  27
ENDBRANCH  25  26
ENDBRANCH  19  25
BRANCH  20  31
ATOM     31  O   UNL     1      16.594  29.909  24.287  1.00  0.00    -0.387 OA
ATOM     32  H   UNL     1      15.813  29.307  24.110  1.00  0.00     0.211 HD
ENDBRANCH  20  31
BRANCH  21  33
ATOM     33  O   UNL     1      18.227  32.267  24.298  1.00  0.00    -0.385 OA
ATOM     34  H   UNL     1      17.982  33.082  23.811  1.00  0.00     0.211 HD
ENDBRANCH  21  33
ENDBRANCH  15  16
ENDBRANCH  10  15
BRANCH  12  35
ATOM     35  O   UNL     1      11.411  28.573  23.806  1.00  0.00    -0.385 OA
ATOM     36  H   UNL     1      11.586  28.715  22.822  1.00  0.00     0.211 HD
ENDBRANCH  12  35
BRANCH  13  37
ATOM     37  O   UNL     1      10.717  31.867  24.867  1.00  0.00    -0.387 OA
ATOM     38  H   UNL     1      11.049  32.761  24.610  1.00  0.00     0.211 HD
ENDBRANCH  13  37
BRANCH  14  39
ATOM     39  O   UNL     1      12.547  32.625  23.213  1.00  0.00    -0.387 OA
ATOM     40  H   UNL     1      13.060  32.568  24.049  1.00  0.00     0.211 HD
ENDBRANCH  14  39
ENDBRANCH   8   9
ENDBRANCH   7   8
ENDBRANCH   1   7
BRANCH   1  41
ATOM     41  C   UNL     1      13.810  30.352  17.875  1.00  0.00     0.364 C 
ATOM     42  O   UNL     1      13.392  31.531  17.830  1.00  0.00    -0.246 OA
BRANCH  41  43
ATOM     43  O   UNL     1      13.618  29.509  16.826  1.00  0.00    -0.477 OA
ATOM     44  H   UNL     1      13.046  28.694  16.831  1.00  0.00     0.296 HD
ENDBRANCH  41  43
ENDBRANCH   1  41
BRANCH   3  45
ATOM     45  O   UNL     1      15.894  28.374  21.169  1.00  0.00    -0.391 OA
ATOM     46  H   UNL     1      14.948  28.280  21.323  1.00  0.00     0.211 HD
ENDBRANCH   3  45
BRANCH   5  47
ATOM     47  C   UNL     1      17.008  31.652  20.968  1.00  0.00     0.176 C 
BRANCH  47  48
ATOM     48  O   UNL     1      17.881  31.024  21.811  1.00  0.00    -0.388 OA
ATOM     49  H   UNL     1      17.471  30.639  22.630  1.00  0.00     0.211 HD
ENDBRANCH  47  48
BRANCH  47  50
ATOM     50  C   UNL     1      17.397  33.070  20.770  1.00  0.00     0.165 C 
BRANCH  50  51
ATOM     51  O   UNL     1      16.567  33.733  19.835  1.00  0.00    -0.388 OA
ATOM     52  H   UNL     1      16.735  34.705  19.837  1.00  0.00     0.211 HD
ENDBRANCH  50  51
BRANCH  50  53
ATOM     53  C   UNL     1      18.761  33.039  20.043  1.00  0.00     0.154 C 
BRANCH  53  54
ATOM     54  N   UNL     1      19.830  32.927  20.996  1.00  0.00    -0.319 N 
ATOM     55  C   UNL     1      20.705  31.822  20.992  1.00  0.00     0.407 C 
ATOM     56  H   UNL     1      19.996  33.671  21.736  1.00  0.00     0.167 HD
ATOM     57  O   UNL     1      20.592  30.912  20.139  1.00  0.00    -0.225 OA
BRANCH  55  58
ATOM     58  O   UNL     1      21.727  31.706  21.942  1.00  0.00    -0.443 OA
BRANCH  58  59
ATOM     59  C   UNL     1      21.458  31.659  23.315  1.00  0.00     0.294 C 
BRANCH  59  60
ATOM     60  C   UNL     1      21.054  30.284  23.738  1.00  0.00     0.121 A 
ATOM     61  C   UNL     1      21.958  29.294  24.176  1.00  0.00     0.144 A 
ATOM     62  N   UNL     1      19.858  29.719  23.800  1.00  0.00    -0.131 NA
ATOM     63  N   UNL     1      21.277  28.198  24.477  1.00  0.00    -0.219 N 
ATOM     64  N   UNL     1      19.992  28.492  24.234  1.00  0.00    -0.062 NA
BRANCH  63  65
ATOM     65  C   UNL     1      21.674  26.929  24.960  1.00  0.00     0.081 A 
ATOM     66  C   UNL     1      21.873  26.752  26.335  1.00  0.00     0.049 A 
ATOM     67  C   UNL     1      21.919  25.836  24.178  1.00  0.00     0.065 A 
ATOM     68  C   UNL     1      22.285  25.565  26.847  1.00  0.00     0.043 A 
ATOM     69  C   UNL     1      22.348  24.605  24.708  1.00  0.00     0.017 A 
ATOM     70  Cl  UNL     1      22.515  25.412  28.583  1.00  0.00    -0.084 Cl
ATOM     71  C   UNL     1      22.532  24.472  26.062  1.00  0.00     0.021 A 
BRANCH  67  72
ATOM     72  C   UNL     1      21.703  25.864  22.729  1.00  0.00     0.255 C 
ATOM     73  O   UNL     1      20.589  25.519  22.284  1.00  0.00    -0.269 OA
ATOM     74  N   UNL     1      22.728  26.270  21.869  1.00  0.00    -0.345 N 
ATOM     75  C   UNL     1      24.026  26.669  22.404  1.00  0.00     0.146 C 
ATOM     76  C   UNL     1      22.536  26.316  20.422  1.00  0.00     0.146 C 
ENDBRANCH  67  72
ENDBRANCH  63  65
ENDBRANCH  59  60
ENDBRANCH  58  59
ENDBRANCH  55  58
ENDBRANCH  53  54
ENDBRANCH  50  53
ENDBRANCH  47  50
ENDBRANCH   5  47
BRANCH   4  77
ATOM     77  N   UNL     1      17.842  29.290  18.247  1.00  0.00    -0.348 N 
ATOM     78  C   UNL     1      19.010  28.527  18.034  1.00  0.00     0.217 C 
ATOM     79  H   UNL     1      17.358  29.677  17.413  1.00  0.00     0.163 HD
ATOM     80  C   UNL     1      19.560  28.258  16.684  1.00  0.00     0.114 C 
ATOM     81  O   UNL     1      19.612  28.053  19.034  1.00  0.00    -0.275 OA
ENDBRANCH   4  77
TORSDOF 31
