REMARK VINA RESULT:    -5.478      3.301     10.459
REMARK INTER + INTRA:         -20.903
REMARK INTER:                 -16.119
REMARK INTRA:                  -4.784
REMARK UNBOUND:                -7.419
REMARK SMILES CC(=O)N[C@@H]1[C@@H](O)C[C@](OC[C@H]2O[C@@H](O[C@H]3[C@H](O)[C@@H](O)[C@H](OCCN=[N+]=[N-])O[C@@H]3CO)[C@H](O)[C@@H](O)[C@H]2O)(C(=O)O)O[C@H]1C(O)[C@H](O)CNC(=O)OCc1cn(-c2ccc(C)cc2)nn1
REMARK SMILES IDX 9 1 8 2 6 3 5 4 42 5 41 6 10 7 11 8 12 9 14 10 13 11 32 12
REMARK SMILES IDX 34 13 36 14 15 15 16 16 29 17 28 18 21 19 17 20 19 21 30 22
REMARK SMILES IDX 31 23 22 25 23 26 24 27 25 28 26 29 27 30 18 31 20 33 33 35
REMARK SMILES IDX 35 37 37 39 38 41 39 42 40 43 7 45 43 47 44 48 45 50 46 51
REMARK SMILES IDX 47 53 48 54 49 55 50 57 51 58 52 59 53 60 54 61 64 62 55 63
REMARK SMILES IDX 63 64 56 65 57 66 62 67 58 68 61 69 59 70 60 71 4 72 2 73
REMARK SMILES IDX 1 75 3 76
REMARK H PARENT 31 24 18 32 20 34 33 36 35 38 37 40 40 44 7 46 44 49 46 52
REMARK H PARENT 48 56 4 74
REMARK Flexibility Score: inf
ROOT
ATOM      1  C   UNL     1      29.272  20.070  20.013  1.00  0.00     0.272 C 
ATOM      2  C   UNL     1      28.111  20.525  20.890  1.00  0.00     0.113 C 
ATOM      3  C   UNL     1      28.499  21.636  21.791  1.00  0.00     0.145 C 
ATOM      4  C   UNL     1      29.526  22.569  21.254  1.00  0.00     0.142 C 
ATOM      5  C   UNL     1      29.927  22.357  19.798  1.00  0.00     0.178 C 
ATOM      6  O   UNL     1      29.970  21.043  19.476  1.00  0.00    -0.332 OA
ENDROOT
BRANCH   1   7
ATOM      7  O   UNL     1      28.631  19.363  18.949  1.00  0.00    -0.338 OA
BRANCH   7   8
ATOM      8  C   UNL     1      28.299  20.285  17.954  1.00  0.00     0.199 C 
BRANCH   8   9
ATOM      9  C   UNL     1      28.224  19.667  16.609  1.00  0.00     0.179 C 
ATOM     10  C   UNL     1      27.112  19.687  14.605  1.00  0.00     0.282 C 
ATOM     11  O   UNL     1      27.363  20.388  15.780  1.00  0.00    -0.341 OA
ATOM     12  C   UNL     1      28.325  19.654  13.755  1.00  0.00     0.202 C 
ATOM     13  C   UNL     1      29.536  20.061  14.548  1.00  0.00     0.179 C 
ATOM     14  C   UNL     1      29.562  19.482  15.947  1.00  0.00     0.177 C 
BRANCH  10  15
ATOM     15  O   UNL     1      26.076  20.308  13.912  1.00  0.00    -0.341 OA
BRANCH  15  16
ATOM     16  C   UNL     1      25.027  19.423  13.660  1.00  0.00     0.184 C 
ATOM     17  C   UNL     1      24.659  19.293  12.208  1.00  0.00     0.178 C 
ATOM     18  O   UNL     1      23.349  19.736  11.997  1.00  0.00    -0.341 OA
ATOM     19  C   UNL     1      23.279  21.090  12.272  1.00  0.00     0.281 C 
ATOM     20  C   UNL     1      23.829  19.990  14.391  1.00  0.00     0.180 C 
ATOM     21  C   UNL     1      23.557  21.353  13.739  1.00  0.00     0.202 C 
BRANCH  17  22
ATOM     22  C   UNL     1      24.628  17.810  11.801  1.00  0.00     0.191 C 
BRANCH  22  23
ATOM     23  O   UNL     1      24.577  16.995  12.929  1.00  0.00    -0.394 OA
ATOM     24  H   UNL     1      23.812  17.327  13.488  1.00  0.00     0.210 HD
ENDBRANCH  22  23
ENDBRANCH  17  22
BRANCH  19  25
ATOM     25  O   UNL     1      22.061  21.646  11.913  1.00  0.00    -0.350 OA
BRANCH  25  26
ATOM     26  C   UNL     1      21.628  21.270  10.667  1.00  0.00     0.169 C 
BRANCH  26  27
ATOM     27  C   UNL     1      20.162  20.956  10.565  1.00  0.00     0.119 C 
BRANCH  27  28
ATOM     28  N   UNL     1      19.787  19.850  11.411  1.00  0.00    -0.092 NA
ATOM     29  N   UNL     1      18.991  19.017  11.013  1.00  0.00     0.001 N 
ATOM     30  N   UNL     1      18.260  18.119  10.592  1.00  0.00    -0.003 NA
ENDBRANCH  27  28
ENDBRANCH  26  27
ENDBRANCH  25  26
ENDBRANCH  19  25
BRANCH  20  31
ATOM     31  O   UNL     1      22.703  19.185  14.290  1.00  0.00    -0.387 OA
ATOM     32  H   UNL     1      21.979  19.746  13.920  1.00  0.00     0.211 HD
ENDBRANCH  20  31
BRANCH  21  33
ATOM     33  O   UNL     1      24.790  22.033  13.805  1.00  0.00    -0.385 OA
ATOM     34  H   UNL     1      25.559  21.431  13.684  1.00  0.00     0.211 HD
ENDBRANCH  21  33
ENDBRANCH  15  16
ENDBRANCH  10  15
BRANCH  12  35
ATOM     35  O   UNL     1      28.523  18.394  13.161  1.00  0.00    -0.385 OA
ATOM     36  H   UNL     1      27.611  18.144  12.800  1.00  0.00     0.211 HD
ENDBRANCH  12  35
BRANCH  13  37
ATOM     37  O   UNL     1      29.673  21.426  14.501  1.00  0.00    -0.387 OA
ATOM     38  H   UNL     1      28.800  21.931  14.560  1.00  0.00     0.211 HD
ENDBRANCH  13  37
BRANCH  14  39
ATOM     39  O   UNL     1      30.509  20.155  16.694  1.00  0.00    -0.387 OA
ATOM     40  H   UNL     1      30.183  20.961  17.145  1.00  0.00     0.211 HD
ENDBRANCH  14  39
ENDBRANCH   8   9
ENDBRANCH   7   8
ENDBRANCH   1   7
BRANCH   1  41
ATOM     41  C   UNL     1      30.041  19.128  20.851  1.00  0.00     0.364 C 
ATOM     42  O   UNL     1      31.213  19.341  21.236  1.00  0.00    -0.246 OA
BRANCH  41  43
ATOM     43  O   UNL     1      29.406  17.931  21.233  1.00  0.00    -0.477 OA
ATOM     44  H   UNL     1      29.707  17.475  22.096  1.00  0.00     0.296 HD
ENDBRANCH  41  43
ENDBRANCH   1  41
BRANCH   3  45
ATOM     45  O   UNL     1      27.354  22.307  22.276  1.00  0.00    -0.391 OA
ATOM     46  H   UNL     1      27.048  21.754  23.065  1.00  0.00     0.211 HD
ENDBRANCH   3  45
BRANCH   5  47
ATOM     47  C   UNL     1      29.001  23.170  18.916  1.00  0.00     0.176 C 
BRANCH  47  48
ATOM     48  O   UNL     1      28.415  24.253  19.555  1.00  0.00    -0.388 OA
ATOM     49  H   UNL     1      28.608  24.131  20.522  1.00  0.00     0.211 HD
ENDBRANCH  47  48
BRANCH  47  50
ATOM     50  C   UNL     1      29.363  23.447  17.535  1.00  0.00     0.165 C 
BRANCH  50  51
ATOM     51  O   UNL     1      30.490  24.273  17.341  1.00  0.00    -0.388 OA
ATOM     52  H   UNL     1      30.539  24.955  18.062  1.00  0.00     0.211 HD
ENDBRANCH  50  51
BRANCH  50  53
ATOM     53  C   UNL     1      28.350  23.841  16.518  1.00  0.00     0.154 C 
BRANCH  53  54
ATOM     54  N   UNL     1      27.266  24.639  17.028  1.00  0.00    -0.319 N 
ATOM     55  C   UNL     1      25.909  24.318  16.730  1.00  0.00     0.407 C 
ATOM     56  H   UNL     1      27.463  25.473  17.628  1.00  0.00     0.167 HD
ATOM     57  O   UNL     1      25.666  23.310  16.023  1.00  0.00    -0.225 OA
BRANCH  55  58
ATOM     58  O   UNL     1      24.894  25.115  17.213  1.00  0.00    -0.443 OA
BRANCH  58  59
ATOM     59  C   UNL     1      23.909  24.669  18.080  1.00  0.00     0.294 C 
BRANCH  59  60
ATOM     60  C   UNL     1      24.401  24.576  19.456  1.00  0.00     0.121 A 
ATOM     61  C   UNL     1      23.620  24.647  20.625  1.00  0.00     0.144 A 
ATOM     62  N   UNL     1      25.642  24.416  19.892  1.00  0.00    -0.131 NA
ATOM     63  N   UNL     1      24.430  24.526  21.676  1.00  0.00    -0.220 N 
ATOM     64  N   UNL     1      25.653  24.387  21.210  1.00  0.00    -0.062 NA
BRANCH  63  65
ATOM     65  C   UNL     1      23.983  24.557  23.044  1.00  0.00     0.066 A 
ATOM     66  C   UNL     1      22.636  24.605  23.327  1.00  0.00     0.029 A 
ATOM     67  C   UNL     1      24.866  24.525  24.103  1.00  0.00     0.029 A 
ATOM     68  C   UNL     1      22.191  24.620  24.652  1.00  0.00     0.005 A 
ATOM     69  C   UNL     1      24.421  24.540  25.430  1.00  0.00     0.005 A 
ATOM     70  C   UNL     1      23.074  24.588  25.707  1.00  0.00    -0.051 A 
ATOM     71  C   UNL     1      22.597  24.592  27.128  1.00  0.00     0.044 C 
ENDBRANCH  63  65
ENDBRANCH  59  60
ENDBRANCH  58  59
ENDBRANCH  55  58
ENDBRANCH  53  54
ENDBRANCH  50  53
ENDBRANCH  47  50
ENDBRANCH   5  47
BRANCH   4  72
ATOM     72  N   UNL     1      30.674  22.705  22.129  1.00  0.00    -0.348 N 
ATOM     73  C   UNL     1      30.756  22.116  23.427  1.00  0.00     0.217 C 
ATOM     74  H   UNL     1      31.502  23.261  21.838  1.00  0.00     0.163 HD
ATOM     75  C   UNL     1      31.961  22.297  24.294  1.00  0.00     0.114 C 
ATOM     76  O   UNL     1      29.754  21.444  23.777  1.00  0.00    -0.275 OA
ENDBRANCH   4  72
TORSDOF 30
