REMARK VINA RESULT:    -7.010      6.882     13.794
REMARK INTER + INTRA:         -24.910
REMARK INTER:                 -19.361
REMARK INTRA:                  -5.549
REMARK UNBOUND:                -6.425
REMARK SMILES CC(=O)N[C@@H]1[C@@H](O)C[C@](OC[C@H]2O[C@@H](O[C@H]3[C@H](O)[C@@H](O)[C@H](OCCN=[N+]=[N-])O[C@@H]3CO)[C@H](O)[C@@H](O)[C@H]2O)(C(=O)O)O[C@H]1C(O)[C@H](O)CNC(=O)OCc1cn(-c2ccc(S(=O)(=O)Nc3nccs3)cc2)nn1
REMARK SMILES IDX 43 1 42 2 9 3 8 4 41 5 6 6 5 7 10 8 11 9 12 10 14 11 13 12
REMARK SMILES IDX 32 13 34 14 36 15 15 16 16 17 29 18 28 19 21 20 17 21 19 22
REMARK SMILES IDX 30 23 31 24 22 26 23 27 24 28 25 29 26 30 27 31 18 32 20 34
REMARK SMILES IDX 33 36 35 38 37 40 38 42 39 43 40 44 7 46 4 48 2 49 1 51 3 52
REMARK SMILES IDX 44 53 45 55 46 56 47 58 48 59 49 60 50 62 51 63 52 64 53 65
REMARK SMILES IDX 54 66 72 67 55 68 71 69 56 70 57 71 70 72 58 73 69 74 59 75
REMARK SMILES IDX 60 76 61 77 62 78 63 79 64 81 65 82 68 83 66 84 67 85
REMARK H PARENT 31 25 18 33 20 35 33 37 35 39 37 41 40 45 7 47 4 50 44 54
REMARK H PARENT 46 57 48 61 63 80
REMARK Flexibility Score: inf
ROOT
ATOM      1  C   UNL     1      15.792  29.134  20.098  1.00  0.00     0.176 C 
ENDROOT
BRANCH   1   2
ATOM      2  C   UNL     1      17.191  29.535  20.427  1.00  0.00     0.178 C 
ATOM      3  C   UNL     1      19.300  28.593  20.069  1.00  0.00     0.272 C 
ATOM      4  C   UNL     1      19.641  29.935  20.752  1.00  0.00     0.113 C 
ATOM      5  O   UNL     1      17.955  28.362  20.133  1.00  0.00    -0.332 OA
ATOM      6  C   UNL     1      18.929  30.137  22.036  1.00  0.00     0.145 C 
ATOM      7  C   UNL     1      17.452  29.764  21.896  1.00  0.00     0.142 C 
BRANCH   3   8
ATOM      8  O   UNL     1      19.949  27.565  20.706  1.00  0.00    -0.338 OA
BRANCH   8   9
ATOM      9  C   UNL     1      21.285  27.775  20.938  1.00  0.00     0.199 C 
BRANCH   9  10
ATOM     10  C   UNL     1      21.819  26.991  22.114  1.00  0.00     0.179 C 
ATOM     11  C   UNL     1      21.621  26.424  24.264  1.00  0.00     0.282 C 
ATOM     12  O   UNL     1      20.883  26.842  23.131  1.00  0.00    -0.341 OA
ATOM     13  C   UNL     1      21.874  24.947  24.081  1.00  0.00     0.202 C 
ATOM     14  C   UNL     1      21.611  24.550  22.625  1.00  0.00     0.179 C 
ATOM     15  C   UNL     1      22.218  25.585  21.696  1.00  0.00     0.177 C 
BRANCH  11  16
ATOM     16  O   UNL     1      20.978  26.663  25.430  1.00  0.00    -0.341 OA
BRANCH  16  17
ATOM     17  C   UNL     1      21.680  27.400  26.367  1.00  0.00     0.184 C 
ATOM     18  C   UNL     1      23.062  27.791  26.034  1.00  0.00     0.178 C 
ATOM     19  O   UNL     1      23.787  27.909  27.253  1.00  0.00    -0.341 OA
ATOM     20  C   UNL     1      24.112  26.644  27.760  1.00  0.00     0.281 C 
ATOM     21  C   UNL     1      21.625  26.735  27.736  1.00  0.00     0.180 C 
ATOM     22  C   UNL     1      22.843  25.843  27.985  1.00  0.00     0.202 C 
BRANCH  18  23
ATOM     23  C   UNL     1      23.207  29.181  25.416  1.00  0.00     0.191 C 
BRANCH  23  24
ATOM     24  O   UNL     1      22.120  29.986  25.577  1.00  0.00    -0.394 OA
ATOM     25  H   UNL     1      21.528  29.623  26.274  1.00  0.00     0.210 HD
ENDBRANCH  23  24
ENDBRANCH  18  23
BRANCH  20  26
ATOM     26  O   UNL     1      24.791  26.823  28.944  1.00  0.00    -0.350 OA
BRANCH  26  27
ATOM     27  C   UNL     1      25.379  25.700  29.467  1.00  0.00     0.169 C 
BRANCH  27  28
ATOM     28  C   UNL     1      24.915  25.368  30.866  1.00  0.00     0.119 C 
BRANCH  28  29
ATOM     29  N   UNL     1      25.877  25.929  31.780  1.00  0.00    -0.092 NA
ATOM     30  N   UNL     1      27.029  25.503  31.780  1.00  0.00     0.001 N 
ATOM     31  N   UNL     1      28.042  24.899  32.140  1.00  0.00    -0.003 NA
ENDBRANCH  28  29
ENDBRANCH  27  28
ENDBRANCH  26  27
ENDBRANCH  20  26
BRANCH  21  32
ATOM     32  O   UNL     1      21.617  27.689  28.753  1.00  0.00    -0.387 OA
ATOM     33  H   UNL     1      20.960  28.400  28.573  1.00  0.00     0.211 HD
ENDBRANCH  21  32
BRANCH  22  34
ATOM     34  O   UNL     1      22.786  24.684  27.223  1.00  0.00    -0.385 OA
ATOM     35  H   UNL     1      22.801  23.927  27.850  1.00  0.00     0.211 HD
ENDBRANCH  22  34
ENDBRANCH  16  17
ENDBRANCH  11  16
BRANCH  13  36
ATOM     36  O   UNL     1      23.238  24.613  24.271  1.00  0.00    -0.385 OA
ATOM     37  H   UNL     1      23.762  25.379  24.546  1.00  0.00     0.211 HD
ENDBRANCH  13  36
BRANCH  14  38
ATOM     38  O   UNL     1      20.254  24.359  22.407  1.00  0.00    -0.387 OA
ATOM     39  H   UNL     1      19.722  25.165  22.634  1.00  0.00     0.211 HD
ENDBRANCH  14  38
BRANCH  15  40
ATOM     40  O   UNL     1      21.802  25.294  20.407  1.00  0.00    -0.387 OA
ATOM     41  H   UNL     1      21.010  25.775  20.116  1.00  0.00     0.211 HD
ENDBRANCH  15  40
ENDBRANCH   9  10
ENDBRANCH   8   9
ENDBRANCH   3   8
BRANCH   3  42
ATOM     42  C   UNL     1      19.750  28.740  18.683  1.00  0.00     0.364 C 
ATOM     43  O   UNL     1      19.226  28.081  17.728  1.00  0.00    -0.246 OA
BRANCH  42  44
ATOM     44  O   UNL     1      20.768  29.602  18.313  1.00  0.00    -0.477 OA
ATOM     45  H   UNL     1      20.846  30.522  18.766  1.00  0.00     0.296 HD
ENDBRANCH  42  44
ENDBRANCH   3  42
BRANCH   6  46
ATOM     46  O   UNL     1      19.513  29.453  23.103  1.00  0.00    -0.391 OA
ATOM     47  H   UNL     1      18.837  28.876  23.532  1.00  0.00     0.211 HD
ENDBRANCH   6  46
BRANCH   7  48
ATOM     48  N   UNL     1      16.639  30.741  22.528  1.00  0.00    -0.348 N 
ATOM     49  C   UNL     1      15.920  30.415  23.713  1.00  0.00     0.217 C 
ATOM     50  H   UNL     1      16.545  31.707  22.159  1.00  0.00     0.163 HD
ATOM     51  C   UNL     1      15.058  31.368  24.431  1.00  0.00     0.114 C 
ATOM     52  O   UNL     1      16.020  29.233  24.190  1.00  0.00    -0.275 OA
ENDBRANCH   7  48
ENDBRANCH   1   2
BRANCH   1  53
ATOM     53  O   UNL     1      15.701  27.710  20.200  1.00  0.00    -0.388 OA
ATOM     54  H   UNL     1      15.065  27.356  19.551  1.00  0.00     0.211 HD
ENDBRANCH   1  53
BRANCH   1  55
ATOM     55  C   UNL     1      15.267  29.552  18.754  1.00  0.00     0.165 C 
BRANCH  55  56
ATOM     56  O   UNL     1      15.983  28.711  17.836  1.00  0.00    -0.388 OA
ATOM     57  H   UNL     1      16.871  28.500  18.225  1.00  0.00     0.211 HD
ENDBRANCH  55  56
BRANCH  55  58
ATOM     58  C   UNL     1      15.739  30.950  18.375  1.00  0.00     0.154 C 
BRANCH  58  59
ATOM     59  N   UNL     1      14.958  31.879  19.147  1.00  0.00    -0.319 N 
ATOM     60  C   UNL     1      15.524  32.830  20.037  1.00  0.00     0.407 C 
ATOM     61  H   UNL     1      13.888  31.887  19.073  1.00  0.00     0.167 HD
ATOM     62  O   UNL     1      16.750  32.915  20.177  1.00  0.00    -0.225 OA
BRANCH  60  63
ATOM     63  O   UNL     1      14.725  33.691  20.780  1.00  0.00    -0.443 OA
BRANCH  63  64
ATOM     64  C   UNL     1      13.326  33.751  20.749  1.00  0.00     0.294 C 
BRANCH  64  65
ATOM     65  C   UNL     1      12.651  33.250  21.958  1.00  0.00     0.121 A 
ATOM     66  C   UNL     1      12.008  32.016  22.095  1.00  0.00     0.144 A 
ATOM     67  N   UNL     1      12.511  33.831  23.149  1.00  0.00    -0.131 NA
ATOM     68  N   UNL     1      11.507  31.892  23.350  1.00  0.00    -0.220 N 
ATOM     69  N   UNL     1      11.829  33.014  23.968  1.00  0.00    -0.062 NA
BRANCH  68  70
ATOM     70  C   UNL     1      10.787  30.750  23.846  1.00  0.00     0.066 A 
ATOM     71  C   UNL     1      11.409  29.579  24.175  1.00  0.00     0.030 A 
ATOM     72  C   UNL     1       9.414  30.849  23.979  1.00  0.00     0.030 A 
ATOM     73  C   UNL     1      10.664  28.496  24.639  1.00  0.00     0.024 A 
ATOM     74  C   UNL     1       8.637  29.811  24.431  1.00  0.00     0.024 A 
ATOM     75  C   UNL     1       9.301  28.635  24.757  1.00  0.00     0.088 A 
BRANCH  75  76
ATOM     76  S   UNL     1       8.340  27.294  25.329  1.00  0.00     0.263 S 
ATOM     77  O   UNL     1       9.170  26.534  26.345  1.00  0.00    -0.201 OA
ATOM     78  O   UNL     1       8.118  26.383  24.154  1.00  0.00    -0.201 OA
BRANCH  76  79
ATOM     79  N   UNL     1       6.875  27.863  25.985  1.00  0.00    -0.255 N 
ATOM     80  H   UNL     1       6.808  28.864  26.242  1.00  0.00     0.182 HD
BRANCH  79  81
ATOM     81  C   UNL     1       5.814  26.992  26.163  1.00  0.00     0.196 A 
ATOM     82  N   UNL     1       5.189  26.072  25.537  1.00  0.00    -0.228 NA
ATOM     83  S   UNL     1       4.838  26.990  27.744  1.00  0.00    -0.105 S 
ATOM     84  C   UNL     1       4.186  25.405  25.974  1.00  0.00     0.125 A 
ATOM     85  C   UNL     1       3.697  25.662  27.226  1.00  0.00     0.089 A 
ENDBRANCH  79  81
ENDBRANCH  76  79
ENDBRANCH  75  76
ENDBRANCH  68  70
ENDBRANCH  64  65
ENDBRANCH  63  64
ENDBRANCH  60  63
ENDBRANCH  58  59
ENDBRANCH  55  58
ENDBRANCH   1  55
TORSDOF 33
