REMARK VINA RESULT:    -6.314      7.711     11.033
REMARK INTER + INTRA:         -22.182
REMARK INTER:                 -15.042
REMARK INTRA:                  -7.139
REMARK UNBOUND:                -6.272
REMARK SMILES CC(=O)N[C@@H]1[C@@H](O)C[C@](OC[C@H]2O[C@@H](O[C@H]3[C@H](O)[C@@H](O)[C@H](OCCN=[N+]=[N-])O[C@@H]3CO)[C@H](O)[C@@H](O)[C@H]2O)(C(=O)O)O[C@H]1C(O)[C@H](O)CNC(=O)OCc1cn(Cc2cccc(Br)c2)nn1
REMARK SMILES IDX 9 1 8 2 6 3 5 4 42 5 41 6 10 7 11 8 12 9 14 10 13 11 32 12
REMARK SMILES IDX 34 13 36 14 15 15 16 16 29 17 28 18 21 19 17 20 19 21 30 22
REMARK SMILES IDX 31 23 22 25 23 26 24 27 25 28 26 29 27 30 18 31 20 33 33 35
REMARK SMILES IDX 35 37 37 39 38 41 39 42 40 43 7 45 43 47 44 48 45 50 46 51
REMARK SMILES IDX 47 53 48 54 49 55 50 57 51 58 52 59 53 60 54 61 65 62 55 63
REMARK SMILES IDX 64 64 56 65 57 66 58 67 63 68 59 69 61 70 60 71 62 72 4 73
REMARK SMILES IDX 2 74 1 76 3 77
REMARK H PARENT 31 24 18 32 20 34 33 36 35 38 37 40 40 44 7 46 44 49 46 52
REMARK H PARENT 48 56 4 75
REMARK Flexibility Score: inf
ROOT
ATOM      1  C   UNL     1      23.140  22.451  11.422  1.00  0.00     0.272 C 
ATOM      2  C   UNL     1      21.713  22.817  11.260  1.00  0.00     0.113 C 
ATOM      3  C   UNL     1      20.751  21.966  12.026  1.00  0.00     0.145 C 
ATOM      4  C   UNL     1      21.213  20.534  12.167  1.00  0.00     0.142 C 
ATOM      5  C   UNL     1      22.665  20.356  12.177  1.00  0.00     0.178 C 
ATOM      6  O   UNL     1      23.427  21.472  12.332  1.00  0.00    -0.332 OA
ENDROOT
BRANCH   1   7
ATOM      7  O   UNL     1      23.882  23.630  11.747  1.00  0.00    -0.338 OA
BRANCH   7   8
ATOM      8  C   UNL     1      23.427  24.735  11.088  1.00  0.00     0.199 C 
BRANCH   8   9
ATOM      9  C   UNL     1      23.461  25.970  12.013  1.00  0.00     0.179 C 
ATOM     10  C   UNL     1      23.434  26.373  14.320  1.00  0.00     0.282 C 
ATOM     11  O   UNL     1      23.100  25.522  13.241  1.00  0.00    -0.341 OA
ATOM     12  C   UNL     1      23.819  27.726  13.868  1.00  0.00     0.202 C 
ATOM     13  C   UNL     1      24.936  27.716  12.840  1.00  0.00     0.179 C 
ATOM     14  C   UNL     1      24.904  26.426  12.040  1.00  0.00     0.177 C 
BRANCH  10  15
ATOM     15  O   UNL     1      24.355  25.652  15.039  1.00  0.00    -0.341 OA
BRANCH  15  16
ATOM     16  C   UNL     1      24.205  25.614  16.378  1.00  0.00     0.184 C 
ATOM     17  C   UNL     1      25.538  25.319  17.018  1.00  0.00     0.178 C 
ATOM     18  O   UNL     1      25.411  25.454  18.398  1.00  0.00    -0.341 OA
ATOM     19  C   UNL     1      24.560  24.507  18.971  1.00  0.00     0.281 C 
ATOM     20  C   UNL     1      23.300  24.489  16.870  1.00  0.00     0.180 C 
ATOM     21  C   UNL     1      23.187  24.727  18.384  1.00  0.00     0.202 C 
BRANCH  17  22
ATOM     22  C   UNL     1      26.543  26.317  16.550  1.00  0.00     0.191 C 
BRANCH  22  23
ATOM     23  O   UNL     1      27.098  25.934  15.343  1.00  0.00    -0.394 OA
ATOM     24  H   UNL     1      28.025  26.285  15.312  1.00  0.00     0.210 HD
ENDBRANCH  22  23
ENDBRANCH  17  22
BRANCH  19  25
ATOM     25  O   UNL     1      24.609  24.722  20.332  1.00  0.00    -0.350 OA
BRANCH  25  26
ATOM     26  C   UNL     1      24.291  25.988  20.738  1.00  0.00     0.169 C 
BRANCH  26  27
ATOM     27  C   UNL     1      23.274  26.050  21.855  1.00  0.00     0.119 C 
BRANCH  27  28
ATOM     28  N   UNL     1      23.282  24.762  22.511  1.00  0.00    -0.092 NA
ATOM     29  N   UNL     1      23.706  24.566  23.640  1.00  0.00     0.001 N 
ATOM     30  N   UNL     1      24.026  24.500  24.825  1.00  0.00    -0.003 NA
ENDBRANCH  27  28
ENDBRANCH  26  27
ENDBRANCH  25  26
ENDBRANCH  19  25
BRANCH  20  31
ATOM     31  O   UNL     1      22.038  24.523  16.352  1.00  0.00    -0.387 OA
ATOM     32  H   UNL     1      21.979  24.760  15.400  1.00  0.00     0.211 HD
ENDBRANCH  20  31
BRANCH  21  33
ATOM     33  O   UNL     1      22.226  23.872  18.853  1.00  0.00    -0.385 OA
ATOM     34  H   UNL     1      22.520  23.375  19.683  1.00  0.00     0.211 HD
ENDBRANCH  21  33
ENDBRANCH  15  16
ENDBRANCH  10  15
BRANCH  12  35
ATOM     35  O   UNL     1      22.676  28.308  13.261  1.00  0.00    -0.385 OA
ATOM     36  H   UNL     1      22.047  28.602  13.970  1.00  0.00     0.211 HD
ENDBRANCH  12  35
BRANCH  13  37
ATOM     37  O   UNL     1      26.182  27.968  13.406  1.00  0.00    -0.387 OA
ATOM     38  H   UNL     1      26.232  27.482  14.291  1.00  0.00     0.211 HD
ENDBRANCH  13  37
BRANCH  14  39
ATOM     39  O   UNL     1      25.668  25.418  12.581  1.00  0.00    -0.387 OA
ATOM     40  H   UNL     1      25.090  24.775  13.094  1.00  0.00     0.211 HD
ENDBRANCH  14  39
ENDBRANCH   8   9
ENDBRANCH   7   8
ENDBRANCH   1   7
BRANCH   1  41
ATOM     41  C   UNL     1      23.693  22.049  10.094  1.00  0.00     0.364 C 
ATOM     42  O   UNL     1      22.891  21.915   9.104  1.00  0.00    -0.246 OA
BRANCH  41  43
ATOM     43  O   UNL     1      25.007  21.796   9.815  1.00  0.00    -0.477 OA
ATOM     44  H   UNL     1      25.439  20.971  10.252  1.00  0.00     0.296 HD
ENDBRANCH  41  43
ENDBRANCH   1  41
BRANCH   3  45
ATOM     45  O   UNL     1      20.403  22.547  13.236  1.00  0.00    -0.391 OA
ATOM     46  H   UNL     1      20.258  21.901  13.962  1.00  0.00     0.211 HD
ENDBRANCH   3  45
BRANCH   5  47
ATOM     47  C   UNL     1      23.125  19.291  13.186  1.00  0.00     0.176 C 
BRANCH  47  48
ATOM     48  O   UNL     1      21.899  18.659  13.642  1.00  0.00    -0.388 OA
ATOM     49  H   UNL     1      21.280  19.400  13.867  1.00  0.00     0.211 HD
ENDBRANCH  47  48
BRANCH  47  50
ATOM     50  C   UNL     1      23.964  18.206  12.618  1.00  0.00     0.165 C 
BRANCH  50  51
ATOM     51  O   UNL     1      24.776  17.762  13.728  1.00  0.00    -0.388 OA
ATOM     52  H   UNL     1      25.709  18.101  13.566  1.00  0.00     0.211 HD
ENDBRANCH  50  51
BRANCH  50  53
ATOM     53  C   UNL     1      24.969  18.571  11.578  1.00  0.00     0.154 C 
BRANCH  53  54
ATOM     54  N   UNL     1      25.664  19.821  11.844  1.00  0.00    -0.319 N 
ATOM     55  C   UNL     1      26.974  19.778  12.381  1.00  0.00     0.407 C 
ATOM     56  H   UNL     1      25.228  20.739  11.649  1.00  0.00     0.167 HD
ATOM     57  O   UNL     1      27.523  18.668  12.629  1.00  0.00    -0.225 OA
BRANCH  55  58
ATOM     58  O   UNL     1      27.685  20.949  12.646  1.00  0.00    -0.443 OA
BRANCH  58  59
ATOM     59  C   UNL     1      26.955  22.096  13.104  1.00  0.00     0.294 C 
BRANCH  59  60
ATOM     60  C   UNL     1      27.411  22.417  14.477  1.00  0.00     0.120 A 
ATOM     61  C   UNL     1      26.882  21.999  15.672  1.00  0.00     0.138 A 
ATOM     62  N   UNL     1      28.458  23.201  14.763  1.00  0.00    -0.132 NA
ATOM     63  N   UNL     1      27.630  22.547  16.649  1.00  0.00    -0.248 N 
ATOM     64  N   UNL     1      28.578  23.272  16.074  1.00  0.00    -0.067 NA
BRANCH  63  65
ATOM     65  C   UNL     1      27.410  22.356  18.080  1.00  0.00     0.181 C 
BRANCH  65  66
ATOM     66  C   UNL     1      28.022  21.089  18.556  1.00  0.00    -0.025 A 
ATOM     67  C   UNL     1      28.327  20.079  17.667  1.00  0.00     0.006 A 
ATOM     68  C   UNL     1      28.309  20.852  19.878  1.00  0.00     0.021 A 
ATOM     69  C   UNL     1      28.892  18.881  18.045  1.00  0.00     0.002 A 
ATOM     70  C   UNL     1      28.874  19.666  20.290  1.00  0.00     0.018 A 
ATOM     71  C   UNL     1      29.175  18.667  19.401  1.00  0.00     0.016 A 
ATOM     72  Br  UNL     1      29.277  19.332  22.131  1.00  0.00    -0.051 Br
ENDBRANCH  65  66
ENDBRANCH  63  65
ENDBRANCH  59  60
ENDBRANCH  58  59
ENDBRANCH  55  58
ENDBRANCH  53  54
ENDBRANCH  50  53
ENDBRANCH  47  50
ENDBRANCH   5  47
BRANCH   4  73
ATOM     73  N   UNL     1      20.599  19.718  11.088  1.00  0.00    -0.348 N 
ATOM     74  C   UNL     1      19.431  18.956  11.338  1.00  0.00     0.217 C 
ATOM     75  H   UNL     1      21.018  19.691  10.124  1.00  0.00     0.163 HD
ATOM     76  C   UNL     1      18.791  18.122  10.261  1.00  0.00     0.114 C 
ATOM     77  O   UNL     1      18.927  18.987  12.492  1.00  0.00    -0.275 OA
ENDBRANCH   4  73
TORSDOF 31
