REMARK VINA RESULT:    -5.252      2.310      6.959
REMARK INTER + INTRA:         -23.318
REMARK INTER:                 -14.697
REMARK INTRA:                  -8.621
REMARK UNBOUND:                -9.623
REMARK SMILES CC(=O)N[C@@H]1[C@@H](O)C[C@](OC[C@H]2O[C@@H](O[C@H]3[C@H](O)[C@@H](O)[C@H](OCCN=[N+]=[N-])O[C@@H]3CO)[C@H](O)[C@@H](O)[C@H]2O)(C(=O)O)O[C@H]1C(O)[C@H](O)CNC(=O)OCc1cn(Cc2ccc(C(=O)O)cc2)nn1
REMARK SMILES IDX 43 1 42 2 9 3 8 4 41 5 6 6 5 7 10 8 11 9 12 10 14 11 13 12
REMARK SMILES IDX 32 13 34 14 36 15 15 16 16 17 29 18 28 19 21 20 17 21 19 22
REMARK SMILES IDX 30 23 31 24 22 26 23 27 24 28 25 29 26 30 27 31 18 32 20 34
REMARK SMILES IDX 33 36 35 38 37 40 38 42 39 43 40 44 7 46 4 48 2 49 1 51 3 52
REMARK SMILES IDX 44 53 45 55 46 56 47 58 48 59 49 60 50 62 51 63 52 64 53 65
REMARK SMILES IDX 54 66 67 67 55 68 66 69 56 70 57 71 58 72 65 73 59 74 64 75
REMARK SMILES IDX 60 76 61 77 62 78 63 79
REMARK H PARENT 31 25 18 33 20 35 33 37 35 39 37 41 40 45 7 47 4 50 44 54
REMARK H PARENT 46 57 48 61 63 80
REMARK Flexibility Score: inf
ROOT
ATOM      1  C   UNL     1      16.977  31.015  23.990  1.00  0.00     0.176 C 
ENDROOT
BRANCH   1   2
ATOM      2  C   UNL     1      15.959  30.449  22.976  1.00  0.00     0.178 C 
ATOM      3  C   UNL     1      16.166  29.968  20.668  1.00  0.00     0.272 C 
ATOM      4  C   UNL     1      15.041  30.890  20.415  1.00  0.00     0.113 C 
ATOM      5  O   UNL     1      16.691  30.028  21.933  1.00  0.00    -0.332 OA
ATOM      6  C   UNL     1      14.998  32.062  21.374  1.00  0.00     0.145 C 
ATOM      7  C   UNL     1      14.933  31.484  22.757  1.00  0.00     0.142 C 
BRANCH   3   8
ATOM      8  O   UNL     1      17.217  30.211  19.824  1.00  0.00    -0.338 OA
BRANCH   8   9
ATOM      9  C   UNL     1      17.005  30.353  18.499  1.00  0.00     0.199 C 
BRANCH   9  10
ATOM     10  C   UNL     1      18.343  30.235  17.731  1.00  0.00     0.179 C 
ATOM     11  C   UNL     1      20.644  30.264  18.098  1.00  0.00     0.282 C 
ATOM     12  O   UNL     1      19.365  30.521  18.588  1.00  0.00    -0.341 OA
ATOM     13  C   UNL     1      20.688  29.938  16.647  1.00  0.00     0.202 C 
ATOM     14  C   UNL     1      19.769  28.761  16.398  1.00  0.00     0.179 C 
ATOM     15  C   UNL     1      18.459  28.864  17.115  1.00  0.00     0.177 C 
BRANCH  11  16
ATOM     16  O   UNL     1      21.195  29.234  18.859  1.00  0.00    -0.341 OA
BRANCH  16  17
ATOM     17  C   UNL     1      21.877  29.706  19.942  1.00  0.00     0.184 C 
ATOM     18  C   UNL     1      21.084  29.647  21.196  1.00  0.00     0.178 C 
ATOM     19  O   UNL     1      21.895  29.881  22.316  1.00  0.00    -0.341 OA
ATOM     20  C   UNL     1      22.789  30.927  22.077  1.00  0.00     0.281 C 
ATOM     21  C   UNL     1      22.226  31.174  19.630  1.00  0.00     0.180 C 
ATOM     22  C   UNL     1      22.364  31.853  20.977  1.00  0.00     0.202 C 
BRANCH  18  23
ATOM     23  C   UNL     1      20.449  28.296  21.363  1.00  0.00     0.191 C 
BRANCH  23  24
ATOM     24  O   UNL     1      19.155  28.409  20.803  1.00  0.00    -0.394 OA
ATOM     25  H   UNL     1      19.206  28.792  19.906  1.00  0.00     0.210 HD
ENDBRANCH  23  24
ENDBRANCH  18  23
BRANCH  20  26
ATOM     26  O   UNL     1      24.044  30.405  21.867  1.00  0.00    -0.350 OA
BRANCH  26  27
ATOM     27  C   UNL     1      24.545  29.650  22.902  1.00  0.00     0.169 C 
BRANCH  27  28
ATOM     28  C   UNL     1      24.377  28.174  22.764  1.00  0.00     0.119 C 
BRANCH  28  29
ATOM     29  N   UNL     1      24.664  27.850  21.357  1.00  0.00    -0.092 NA
ATOM     30  N   UNL     1      25.784  27.536  20.968  1.00  0.00     0.001 N 
ATOM     31  N   UNL     1      26.989  27.379  20.804  1.00  0.00    -0.003 NA
ENDBRANCH  28  29
ENDBRANCH  27  28
ENDBRANCH  26  27
ENDBRANCH  20  26
BRANCH  21  32
ATOM     32  O   UNL     1      23.391  31.245  18.899  1.00  0.00    -0.387 OA
ATOM     33  H   UNL     1      23.876  30.357  18.887  1.00  0.00     0.211 HD
ENDBRANCH  21  32
BRANCH  22  34
ATOM     34  O   UNL     1      21.200  32.521  21.280  1.00  0.00    -0.385 OA
ATOM     35  H   UNL     1      20.465  31.921  21.498  1.00  0.00     0.211 HD
ENDBRANCH  22  34
ENDBRANCH  16  17
ENDBRANCH  11  16
BRANCH  13  36
ATOM     36  O   UNL     1      20.301  31.029  15.854  1.00  0.00    -0.385 OA
ATOM     37  H   UNL     1      21.132  31.549  15.681  1.00  0.00     0.211 HD
ENDBRANCH  13  36
BRANCH  14  38
ATOM     38  O   UNL     1      20.386  27.555  16.734  1.00  0.00    -0.387 OA
ATOM     39  H   UNL     1      21.370  27.671  16.617  1.00  0.00     0.211 HD
ENDBRANCH  14  38
BRANCH  15  40
ATOM     40  O   UNL     1      18.297  27.853  18.072  1.00  0.00    -0.387 OA
ATOM     41  H   UNL     1      18.836  28.116  18.863  1.00  0.00     0.211 HD
ENDBRANCH  15  40
ENDBRANCH   9  10
ENDBRANCH   8   9
ENDBRANCH   3   8
BRANCH   3  42
ATOM     42  C   UNL     1      15.664  28.554  20.505  1.00  0.00     0.364 C 
ATOM     43  O   UNL     1      14.433  28.302  20.542  1.00  0.00    -0.246 OA
BRANCH  42  44
ATOM     44  O   UNL     1      16.531  27.492  20.308  1.00  0.00    -0.477 OA
ATOM     45  H   UNL     1      16.806  27.286  19.334  1.00  0.00     0.296 HD
ENDBRANCH  42  44
ENDBRANCH   3  42
BRANCH   6  46
ATOM     46  O   UNL     1      16.113  32.836  21.136  1.00  0.00    -0.391 OA
ATOM     47  H   UNL     1      16.557  33.059  21.995  1.00  0.00     0.211 HD
ENDBRANCH   6  46
BRANCH   7  48
ATOM     48  N   UNL     1      13.610  30.904  22.947  1.00  0.00    -0.348 N 
ATOM     49  C   UNL     1      13.026  30.787  24.257  1.00  0.00     0.217 C 
ATOM     50  H   UNL     1      13.011  30.541  22.174  1.00  0.00     0.163 HD
ATOM     51  C   UNL     1      11.664  30.186  24.410  1.00  0.00     0.114 C 
ATOM     52  O   UNL     1      13.675  31.194  25.235  1.00  0.00    -0.275 OA
ENDBRANCH   7  48
ENDBRANCH   1   2
BRANCH   1  53
ATOM     53  O   UNL     1      16.690  30.719  25.283  1.00  0.00    -0.388 OA
ATOM     54  H   UNL     1      15.769  30.884  25.580  1.00  0.00     0.211 HD
ENDBRANCH   1  53
BRANCH   1  55
ATOM     55  C   UNL     1      18.393  30.678  23.589  1.00  0.00     0.165 C 
BRANCH  55  56
ATOM     56  O   UNL     1      18.623  29.357  23.808  1.00  0.00    -0.388 OA
ATOM     57  H   UNL     1      18.332  28.743  23.106  1.00  0.00     0.211 HD
ENDBRANCH  55  56
BRANCH  55  58
ATOM     58  C   UNL     1      19.335  31.665  24.162  1.00  0.00     0.154 C 
BRANCH  58  59
ATOM     59  N   UNL     1      20.383  31.045  24.923  1.00  0.00    -0.319 N 
ATOM     60  C   UNL     1      20.286  30.721  26.294  1.00  0.00     0.407 C 
ATOM     61  H   UNL     1      21.299  30.806  24.451  1.00  0.00     0.167 HD
ATOM     62  O   UNL     1      19.264  30.953  26.956  1.00  0.00    -0.225 OA
BRANCH  60  63
ATOM     63  O   UNL     1      21.338  30.111  27.008  1.00  0.00    -0.443 OA
BRANCH  63  64
ATOM     64  C   UNL     1      21.141  28.839  27.599  1.00  0.00     0.294 C 
BRANCH  64  65
ATOM     65  C   UNL     1      21.212  27.740  26.621  1.00  0.00     0.120 A 
ATOM     66  C   UNL     1      21.955  26.592  26.647  1.00  0.00     0.138 A 
ATOM     67  N   UNL     1      20.517  27.717  25.467  1.00  0.00    -0.132 NA
ATOM     68  N   UNL     1      21.693  25.907  25.512  1.00  0.00    -0.248 N 
ATOM     69  N   UNL     1      20.819  26.610  24.815  1.00  0.00    -0.067 NA
BRANCH  68  70
ATOM     70  C   UNL     1      22.284  24.642  25.159  1.00  0.00     0.181 C 
BRANCH  70  71
ATOM     71  C   UNL     1      22.582  24.591  23.713  1.00  0.00    -0.026 A 
ATOM     72  C   UNL     1      23.883  24.444  23.284  1.00  0.00     0.006 A 
ATOM     73  C   UNL     1      21.556  24.709  22.779  1.00  0.00     0.006 A 
ATOM     74  C   UNL     1      24.094  24.423  21.917  1.00  0.00     0.016 A 
ATOM     75  C   UNL     1      21.773  24.689  21.420  1.00  0.00     0.016 A 
ATOM     76  C   UNL     1      23.073  24.541  20.995  1.00  0.00     0.059 A 
BRANCH  76  77
ATOM     77  C   UNL     1      23.364  24.517  19.570  1.00  0.00     0.335 C 
ATOM     78  O   UNL     1      24.463  24.902  19.150  1.00  0.00    -0.246 OA
BRANCH  77  79
ATOM     79  O   UNL     1      22.410  24.064  18.686  1.00  0.00    -0.478 OA
ATOM     80  H   UNL     1      22.605  23.333  18.004  1.00  0.00     0.297 HD
ENDBRANCH  77  79
ENDBRANCH  76  77
ENDBRANCH  70  71
ENDBRANCH  68  70
ENDBRANCH  64  65
ENDBRANCH  63  64
ENDBRANCH  60  63
ENDBRANCH  58  59
ENDBRANCH  55  58
ENDBRANCH   1  55
TORSDOF 33
