REMARK VINA RESULT:    -6.156      4.010     13.562
REMARK INTER + INTRA:         -20.369
REMARK INTER:                 -16.396
REMARK INTRA:                  -3.973
REMARK UNBOUND:                -5.215
REMARK SMILES CC(=O)N[C@@H]1[C@@H](O)C[C@](OC[C@H]2O[C@@H](O[C@H]3[C@H](O)[C@@H](O)[C@H](OCCN=[N+]=[N-])O[C@@H]3CO)[C@H](O)[C@@H](O)[C@H]2O)(C(=O)O)O[C@H]1C(O)[C@H](O)CNC(=O)OCc1cn(C2CCCC2)nn1
REMARK SMILES IDX 9 1 8 2 6 3 5 4 42 5 41 6 10 7 11 8 12 9 14 10 13 11 32 12
REMARK SMILES IDX 34 13 36 14 15 15 16 16 29 17 28 18 21 19 17 20 19 21 30 22
REMARK SMILES IDX 31 23 22 25 23 26 24 27 25 28 26 29 27 30 18 31 20 33 33 35
REMARK SMILES IDX 35 37 37 39 38 41 39 42 40 43 7 45 43 47 44 48 45 50 46 51
REMARK SMILES IDX 47 53 48 54 49 55 50 57 51 58 52 59 53 60 54 61 62 62 55 63
REMARK SMILES IDX 61 64 56 65 57 66 60 67 58 68 59 69 4 70 2 71 1 73 3 74
REMARK H PARENT 31 24 18 32 20 34 33 36 35 38 37 40 40 44 7 46 44 49 46 52
REMARK H PARENT 48 56 4 72
REMARK Flexibility Score: inf
ROOT
ATOM      1  C   UNL     1      19.372  28.802  20.456  1.00  0.00     0.272 C 
ATOM      2  C   UNL     1      20.280  29.387  19.440  1.00  0.00     0.113 C 
ATOM      3  C   UNL     1      21.146  28.400  18.738  1.00  0.00     0.145 C 
ATOM      4  C   UNL     1      21.844  27.477  19.765  1.00  0.00     0.142 C 
ATOM      5  C   UNL     1      21.419  27.915  21.122  1.00  0.00     0.178 C 
ATOM      6  O   UNL     1      19.995  27.716  21.114  1.00  0.00    -0.332 OA
ENDROOT
BRANCH   1   7
ATOM      7  O   UNL     1      18.200  28.359  19.957  1.00  0.00    -0.338 OA
BRANCH   7   8
ATOM      8  C   UNL     1      17.128  29.210  19.880  1.00  0.00     0.199 C 
BRANCH   8   9
ATOM      9  C   UNL     1      16.087  28.548  18.981  1.00  0.00     0.179 C 
ATOM     10  C   UNL     1      14.192  29.857  19.325  1.00  0.00     0.282 C 
ATOM     11  O   UNL     1      14.819  28.624  19.459  1.00  0.00    -0.341 OA
ATOM     12  C   UNL     1      14.610  30.616  18.114  1.00  0.00     0.202 C 
ATOM     13  C   UNL     1      15.160  29.767  17.011  1.00  0.00     0.179 C 
ATOM     14  C   UNL     1      16.303  28.960  17.574  1.00  0.00     0.177 C 
BRANCH  10  15
ATOM     15  O   UNL     1      14.257  30.599  20.503  1.00  0.00    -0.341 OA
BRANCH  15  16
ATOM     16  C   UNL     1      13.053  30.576  21.206  1.00  0.00     0.184 C 
ATOM     17  C   UNL     1      12.644  31.895  21.770  1.00  0.00     0.178 C 
ATOM     18  O   UNL     1      11.479  31.719  22.514  1.00  0.00    -0.341 OA
ATOM     19  C   UNL     1      11.781  31.130  23.728  1.00  0.00     0.281 C 
ATOM     20  C   UNL     1      13.282  29.642  22.387  1.00  0.00     0.180 C 
ATOM     21  C   UNL     1      12.197  29.704  23.414  1.00  0.00     0.202 C 
BRANCH  17  22
ATOM     22  C   UNL     1      12.282  32.927  20.708  1.00  0.00     0.191 C 
BRANCH  22  23
ATOM     23  O   UNL     1      11.805  32.186  19.615  1.00  0.00    -0.394 OA
ATOM     24  H   UNL     1      11.180  31.499  19.901  1.00  0.00     0.210 HD
ENDBRANCH  22  23
ENDBRANCH  17  22
BRANCH  19  25
ATOM     25  O   UNL     1      10.623  31.059  24.497  1.00  0.00    -0.350 OA
BRANCH  25  26
ATOM     26  C   UNL     1       9.519  30.799  23.668  1.00  0.00     0.169 C 
BRANCH  26  27
ATOM     27  C   UNL     1       8.333  30.332  24.493  1.00  0.00     0.119 C 
BRANCH  27  28
ATOM     28  N   UNL     1       8.159  28.912  24.389  1.00  0.00    -0.092 NA
ATOM     29  N   UNL     1       8.973  28.108  24.886  1.00  0.00     0.001 N 
ATOM     30  N   UNL     1       9.993  27.427  24.957  1.00  0.00    -0.003 NA
ENDBRANCH  27  28
ENDBRANCH  26  27
ENDBRANCH  25  26
ENDBRANCH  19  25
BRANCH  20  31
ATOM     31  O   UNL     1      13.318  28.353  21.860  1.00  0.00    -0.387 OA
ATOM     32  H   UNL     1      14.233  27.981  21.813  1.00  0.00     0.211 HD
ENDBRANCH  20  31
BRANCH  21  33
ATOM     33  O   UNL     1      12.698  29.158  24.607  1.00  0.00    -0.385 OA
ATOM     34  H   UNL     1      12.654  29.892  25.273  1.00  0.00     0.211 HD
ENDBRANCH  21  33
ENDBRANCH  15  16
ENDBRANCH  10  15
BRANCH  12  35
ATOM     35  O   UNL     1      13.520  31.321  17.552  1.00  0.00    -0.385 OA
ATOM     36  H   UNL     1      13.196  30.796  16.796  1.00  0.00     0.211 HD
ENDBRANCH  12  35
BRANCH  13  37
ATOM     37  O   UNL     1      15.651  30.580  16.006  1.00  0.00    -0.387 OA
ATOM     38  H   UNL     1      14.899  31.090  15.633  1.00  0.00     0.211 HD
ENDBRANCH  13  37
BRANCH  14  39
ATOM     39  O   UNL     1      17.481  29.664  17.361  1.00  0.00    -0.387 OA
ATOM     40  H   UNL     1      17.439  30.250  16.592  1.00  0.00     0.211 HD
ENDBRANCH  14  39
ENDBRANCH   8   9
ENDBRANCH   7   8
ENDBRANCH   1   7
BRANCH   1  41
ATOM     41  C   UNL     1      19.179  29.812  21.565  1.00  0.00     0.364 C 
ATOM     42  O   UNL     1      18.846  29.486  22.715  1.00  0.00    -0.246 OA
BRANCH  41  43
ATOM     43  O   UNL     1      19.399  31.147  21.214  1.00  0.00    -0.477 OA
ATOM     44  H   UNL     1      20.214  31.377  20.630  1.00  0.00     0.296 HD
ENDBRANCH  41  43
ENDBRANCH   1  41
BRANCH   3  45
ATOM     45  O   UNL     1      20.545  27.683  17.736  1.00  0.00    -0.391 OA
ATOM     46  H   UNL     1      20.174  26.843  18.092  1.00  0.00     0.211 HD
ENDBRANCH   3  45
BRANCH   5  47
ATOM     47  C   UNL     1      21.892  27.044  22.259  1.00  0.00     0.176 C 
BRANCH  47  48
ATOM     48  O   UNL     1      23.343  27.184  22.274  1.00  0.00    -0.388 OA
ATOM     49  H   UNL     1      23.471  28.096  21.927  1.00  0.00     0.211 HD
ENDBRANCH  47  48
BRANCH  47  50
ATOM     50  C   UNL     1      21.728  25.563  22.065  1.00  0.00     0.165 C 
BRANCH  50  51
ATOM     51  O   UNL     1      20.511  25.023  22.283  1.00  0.00    -0.388 OA
ATOM     52  H   UNL     1      20.148  24.478  21.551  1.00  0.00     0.211 HD
ENDBRANCH  50  51
BRANCH  50  53
ATOM     53  C   UNL     1      22.723  24.863  22.983  1.00  0.00     0.154 C 
BRANCH  53  54
ATOM     54  N   UNL     1      23.682  24.131  22.143  1.00  0.00    -0.319 N 
ATOM     55  C   UNL     1      25.079  24.285  22.328  1.00  0.00     0.407 C 
ATOM     56  H   UNL     1      23.358  23.478  21.384  1.00  0.00     0.167 HD
ATOM     57  O   UNL     1      25.496  25.060  23.227  1.00  0.00    -0.225 OA
BRANCH  55  58
ATOM     58  O   UNL     1      25.989  23.607  21.548  1.00  0.00    -0.443 OA
BRANCH  58  59
ATOM     59  C   UNL     1      27.382  23.838  21.635  1.00  0.00     0.294 C 
BRANCH  59  60
ATOM     60  C   UNL     1      28.153  22.624  21.987  1.00  0.00     0.120 A 
ATOM     61  C   UNL     1      27.936  21.301  21.675  1.00  0.00     0.138 A 
ATOM     62  N   UNL     1      29.280  22.623  22.732  1.00  0.00    -0.132 NA
ATOM     63  N   UNL     1      28.904  20.562  22.221  1.00  0.00    -0.249 N 
ATOM     64  N   UNL     1      29.706  21.400  22.856  1.00  0.00    -0.067 NA
BRANCH  63  65
ATOM     65  C   UNL     1      29.088  19.116  22.157  1.00  0.00     0.109 C 
ATOM     66  C   UNL     1      28.665  18.534  20.849  1.00  0.00     0.027 C 
ATOM     67  C   UNL     1      30.570  18.819  22.243  1.00  0.00     0.027 C 
ATOM     68  C   UNL     1      29.882  18.462  19.964  1.00  0.00     0.002 C 
ATOM     69  C   UNL     1      31.077  18.753  20.835  1.00  0.00     0.002 C 
ENDBRANCH  63  65
ENDBRANCH  59  60
ENDBRANCH  58  59
ENDBRANCH  55  58
ENDBRANCH  53  54
ENDBRANCH  50  53
ENDBRANCH  47  50
ENDBRANCH   5  47
BRANCH   4  70
ATOM     70  N   UNL     1      23.264  27.488  19.498  1.00  0.00    -0.348 N 
ATOM     71  C   UNL     1      24.043  28.675  19.781  1.00  0.00     0.217 C 
ATOM     72  H   UNL     1      23.787  26.671  19.121  1.00  0.00     0.163 HD
ATOM     73  C   UNL     1      25.502  28.709  19.514  1.00  0.00     0.114 C 
ATOM     74  O   UNL     1      23.497  29.705  20.259  1.00  0.00    -0.275 OA
ENDBRANCH   4  70
TORSDOF 30
