REMARK VINA RESULT:    -5.421      5.951     13.287
REMARK INTER + INTRA:         -20.517
REMARK INTER:                 -14.808
REMARK INTRA:                  -5.709
REMARK UNBOUND:                -6.855
REMARK SMILES CC(=O)N[C@@H]1[C@@H](O)C[C@](OC[C@H]2O[C@@H](O[C@H]3[C@H](O)[C@@H](O)[C@H](OCCN=[N+]=[N-])O[C@@H]3CO)[C@H](O)[C@@H](O)[C@H]2O)(C(=O)O)O[C@H]1C(O)[C@H](O)CNC(=O)OCc1cn(Cc2ccsc2)nn1
REMARK SMILES IDX 9 1 8 2 6 3 5 4 42 5 41 6 10 7 11 8 12 9 14 10 13 11 32 12
REMARK SMILES IDX 34 13 36 14 15 15 16 16 29 17 28 18 21 19 17 20 19 21 30 22
REMARK SMILES IDX 31 23 22 25 23 26 24 27 25 28 26 29 27 30 18 31 20 33 33 35
REMARK SMILES IDX 35 37 37 39 38 41 39 42 40 43 7 45 43 47 44 48 45 50 46 51
REMARK SMILES IDX 47 53 48 54 49 55 50 57 51 58 52 59 53 60 54 61 63 62 55 63
REMARK SMILES IDX 62 64 56 65 57 66 58 67 61 68 59 69 60 70 4 71 2 72 1 74
REMARK SMILES IDX 3 75
REMARK H PARENT 31 24 18 32 20 34 33 36 35 38 37 40 40 44 7 46 44 49 46 52
REMARK H PARENT 48 56 4 73
REMARK Flexibility Score: inf
ROOT
ATOM      1  C   UNL     1      13.434  30.334  16.696  1.00  0.00     0.272 C 
ATOM      2  C   UNL     1      12.398  29.516  15.985  1.00  0.00     0.113 C 
ATOM      3  C   UNL     1      12.335  29.728  14.497  1.00  0.00     0.145 C 
ATOM      4  C   UNL     1      13.669  29.805  13.861  1.00  0.00     0.142 C 
ATOM      5  C   UNL     1      14.775  30.311  14.767  1.00  0.00     0.178 C 
ATOM      6  O   UNL     1      14.687  29.962  16.067  1.00  0.00    -0.332 OA
ENDROOT
BRANCH   1   7
ATOM      7  O   UNL     1      13.612  29.861  17.948  1.00  0.00    -0.338 OA
BRANCH   7   8
ATOM      8  C   UNL     1      14.718  29.314  18.417  1.00  0.00     0.199 C 
BRANCH   8   9
ATOM      9  C   UNL     1      15.762  30.026  19.173  1.00  0.00     0.179 C 
ATOM     10  C   UNL     1      15.849  31.513  20.892  1.00  0.00     0.282 C 
ATOM     11  O   UNL     1      15.158  30.364  20.442  1.00  0.00    -0.341 OA
ATOM     12  C   UNL     1      17.330  31.355  20.838  1.00  0.00     0.202 C 
ATOM     13  C   UNL     1      17.843  30.009  20.475  1.00  0.00     0.179 C 
ATOM     14  C   UNL     1      16.936  29.171  19.619  1.00  0.00     0.177 C 
BRANCH  10  15
ATOM     15  O   UNL     1      15.372  31.826  22.140  1.00  0.00    -0.341 OA
BRANCH  15  16
ATOM     16  C   UNL     1      14.901  30.717  22.862  1.00  0.00     0.184 C 
ATOM     17  C   UNL     1      13.438  30.796  23.117  1.00  0.00     0.178 C 
ATOM     18  O   UNL     1      13.034  31.299  24.315  1.00  0.00    -0.341 OA
ATOM     19  C   UNL     1      14.070  31.776  25.137  1.00  0.00     0.281 C 
ATOM     20  C   UNL     1      15.754  30.422  24.056  1.00  0.00     0.180 C 
ATOM     21  C   UNL     1      14.977  30.598  25.368  1.00  0.00     0.202 C 
BRANCH  17  22
ATOM     22  C   UNL     1      12.735  29.466  22.896  1.00  0.00     0.191 C 
BRANCH  22  23
ATOM     23  O   UNL     1      13.647  28.631  22.252  1.00  0.00    -0.394 OA
ATOM     24  H   UNL     1      13.185  27.883  21.770  1.00  0.00     0.210 HD
ENDBRANCH  22  23
ENDBRANCH  17  22
BRANCH  19  25
ATOM     25  O   UNL     1      13.489  32.301  26.259  1.00  0.00    -0.350 OA
BRANCH  25  26
ATOM     26  C   UNL     1      13.546  33.679  26.334  1.00  0.00     0.169 C 
BRANCH  26  27
ATOM     27  C   UNL     1      14.889  34.258  26.641  1.00  0.00     0.119 C 
BRANCH  27  28
ATOM     28  N   UNL     1      15.508  33.579  27.746  1.00  0.00    -0.092 NA
ATOM     29  N   UNL     1      16.730  33.720  27.909  1.00  0.00     0.001 N 
ATOM     30  N   UNL     1      17.873  33.754  28.366  1.00  0.00    -0.003 NA
ENDBRANCH  27  28
ENDBRANCH  26  27
ENDBRANCH  25  26
ENDBRANCH  19  25
BRANCH  20  31
ATOM     31  O   UNL     1      16.384  29.197  24.018  1.00  0.00    -0.387 OA
ATOM     32  H   UNL     1      15.787  28.497  23.681  1.00  0.00     0.211 HD
ENDBRANCH  20  31
BRANCH  21  33
ATOM     33  O   UNL     1      15.801  30.766  26.450  1.00  0.00    -0.385 OA
ATOM     34  H   UNL     1      15.968  29.916  26.941  1.00  0.00     0.211 HD
ENDBRANCH  21  33
ENDBRANCH  15  16
ENDBRANCH  10  15
BRANCH  12  35
ATOM     35  O   UNL     1      17.930  32.372  20.050  1.00  0.00    -0.385 OA
ATOM     36  H   UNL     1      18.750  32.018  19.617  1.00  0.00     0.211 HD
ENDBRANCH  12  35
BRANCH  13  37
ATOM     37  O   UNL     1      18.074  29.279  21.658  1.00  0.00    -0.387 OA
ATOM     38  H   UNL     1      19.021  29.005  21.670  1.00  0.00     0.211 HD
ENDBRANCH  13  37
BRANCH  14  39
ATOM     39  O   UNL     1      16.353  28.133  20.386  1.00  0.00    -0.387 OA
ATOM     40  H   UNL     1      16.809  27.297  20.059  1.00  0.00     0.211 HD
ENDBRANCH  14  39
ENDBRANCH   8   9
ENDBRANCH   7   8
ENDBRANCH   1   7
BRANCH   1  41
ATOM     41  C   UNL     1      13.344  31.777  16.476  1.00  0.00     0.364 C 
ATOM     42  O   UNL     1      12.285  32.357  16.171  1.00  0.00    -0.246 OA
BRANCH  41  43
ATOM     43  O   UNL     1      14.464  32.622  16.594  1.00  0.00    -0.477 OA
ATOM     44  H   UNL     1      14.356  33.625  16.647  1.00  0.00     0.296 HD
ENDBRANCH  41  43
ENDBRANCH   1  41
BRANCH   3  45
ATOM     45  O   UNL     1      11.682  28.564  14.006  1.00  0.00    -0.391 OA
ATOM     46  H   UNL     1      11.426  28.698  13.051  1.00  0.00     0.211 HD
ENDBRANCH   3  45
BRANCH   5  47
ATOM     47  C   UNL     1      16.106  29.693  14.273  1.00  0.00     0.176 C 
BRANCH  47  48
ATOM     48  O   UNL     1      15.876  28.373  13.894  1.00  0.00    -0.388 OA
ATOM     49  H   UNL     1      14.981  28.089  14.188  1.00  0.00     0.211 HD
ENDBRANCH  47  48
BRANCH  47  50
ATOM     50  C   UNL     1      17.059  29.693  15.414  1.00  0.00     0.165 C 
BRANCH  50  51
ATOM     51  O   UNL     1      17.171  30.990  15.914  1.00  0.00    -0.388 OA
ATOM     52  H   UNL     1      16.301  31.318  16.247  1.00  0.00     0.211 HD
ENDBRANCH  50  51
BRANCH  50  53
ATOM     53  C   UNL     1      18.445  29.210  15.076  1.00  0.00     0.154 C 
BRANCH  53  54
ATOM     54  N   UNL     1      19.038  28.417  16.110  1.00  0.00    -0.319 N 
ATOM     55  C   UNL     1      19.673  28.917  17.253  1.00  0.00     0.407 C 
ATOM     56  H   UNL     1      18.992  27.360  15.999  1.00  0.00     0.167 HD
ATOM     57  O   UNL     1      19.747  30.154  17.418  1.00  0.00    -0.225 OA
BRANCH  55  58
ATOM     58  O   UNL     1      20.205  28.039  18.174  1.00  0.00    -0.443 OA
BRANCH  58  59
ATOM     59  C   UNL     1      21.211  28.369  19.087  1.00  0.00     0.294 C 
BRANCH  59  60
ATOM     60  C   UNL     1      21.220  27.375  20.180  1.00  0.00     0.120 A 
ATOM     61  C   UNL     1      22.056  26.311  20.308  1.00  0.00     0.138 A 
ATOM     62  N   UNL     1      20.388  27.378  21.231  1.00  0.00    -0.132 NA
ATOM     63  N   UNL     1      21.715  25.679  21.445  1.00  0.00    -0.248 N 
ATOM     64  N   UNL     1      20.709  26.329  21.994  1.00  0.00    -0.067 NA
BRANCH  63  65
ATOM     65  C   UNL     1      22.353  24.494  21.959  1.00  0.00     0.182 C 
BRANCH  65  66
ATOM     66  C   UNL     1      22.782  24.763  23.407  1.00  0.00    -0.016 A 
ATOM     67  C   UNL     1      22.016  24.531  24.453  1.00  0.00     0.017 A 
ATOM     68  C   UNL     1      24.060  25.285  23.605  1.00  0.00     0.070 A 
ATOM     69  C   UNL     1      22.454  24.792  25.738  1.00  0.00     0.065 A 
ATOM     70  S   UNL     1      24.134  25.438  25.401  1.00  0.00    -0.152 S 
ENDBRANCH  65  66
ENDBRANCH  63  65
ENDBRANCH  59  60
ENDBRANCH  58  59
ENDBRANCH  55  58
ENDBRANCH  53  54
ENDBRANCH  50  53
ENDBRANCH  47  50
ENDBRANCH   5  47
BRANCH   4  71
ATOM     71  N   UNL     1      13.716  30.574  12.654  1.00  0.00    -0.348 N 
ATOM     72  C   UNL     1      13.358  30.039  11.389  1.00  0.00     0.217 C 
ATOM     73  H   UNL     1      14.022  31.571  12.681  1.00  0.00     0.163 HD
ATOM     74  C   UNL     1      13.403  30.833  10.122  1.00  0.00     0.114 C 
ATOM     75  O   UNL     1      12.992  28.828  11.393  1.00  0.00    -0.275 OA
ENDBRANCH   4  71
TORSDOF 31
