REMARK VINA RESULT:    -6.864      3.418      9.245
REMARK INTER + INTRA:         -22.046
REMARK INTER:                 -14.786
REMARK INTRA:                  -7.260
REMARK UNBOUND:                -4.749
REMARK SMILES CC(=O)N[C@@H]1[C@@H](O)C[C@](OC[C@H]2O[C@@H](O[C@H]3[C@H](O)[C@@H](O)[C@H](OCCN=[N+]=[N-])O[C@@H]3CO)[C@H](O)[C@@H](O)[C@H]2O)(C(=O)O)O[C@H]1C(O)[C@H](O)CNC(=O)OCc1cn(-c2ccccc2C(C)=O)nn1
REMARK SMILES IDX 9 1 8 2 6 3 5 4 42 5 41 6 10 7 11 8 12 9 14 10 13 11 32 12
REMARK SMILES IDX 34 13 36 14 15 15 16 16 29 17 28 18 21 19 17 20 19 21 30 22
REMARK SMILES IDX 31 23 22 25 23 26 24 27 25 28 26 29 27 30 18 31 20 33 33 35
REMARK SMILES IDX 35 37 37 39 38 41 39 42 40 43 7 45 43 47 44 48 45 50 46 51
REMARK SMILES IDX 47 53 48 54 49 55 50 57 51 58 52 59 53 60 54 61 66 62 55 63
REMARK SMILES IDX 65 64 56 65 61 66 57 67 60 68 58 69 59 70 62 71 64 72 63 73
REMARK SMILES IDX 4 74 2 75 1 77 3 78
REMARK H PARENT 31 24 18 32 20 34 33 36 35 38 37 40 40 44 7 46 44 49 46 52
REMARK H PARENT 48 56 4 76
REMARK Flexibility Score: inf
ROOT
ATOM      1  C   UNL     1      16.134  29.577  19.938  1.00  0.00     0.272 C 
ATOM      2  C   UNL     1      14.732  29.119  20.216  1.00  0.00     0.113 C 
ATOM      3  C   UNL     1      14.599  28.893  21.700  1.00  0.00     0.145 C 
ATOM      4  C   UNL     1      14.723  30.279  22.310  1.00  0.00     0.142 C 
ATOM      5  C   UNL     1      16.138  30.710  22.030  1.00  0.00     0.178 C 
ATOM      6  O   UNL     1      16.818  30.031  21.089  1.00  0.00    -0.332 OA
ENDROOT
BRANCH   1   7
ATOM      7  O   UNL     1      16.314  30.487  19.015  1.00  0.00    -0.338 OA
BRANCH   7   8
ATOM      8  C   UNL     1      15.575  31.013  18.089  1.00  0.00     0.199 C 
BRANCH   8   9
ATOM      9  C   UNL     1      15.728  30.819  16.628  1.00  0.00     0.179 C 
ATOM     10  C   UNL     1      17.389  30.561  15.038  1.00  0.00     0.282 C 
ATOM     11  O   UNL     1      17.119  30.584  16.394  1.00  0.00    -0.341 OA
ATOM     12  C   UNL     1      16.221  30.443  14.135  1.00  0.00     0.202 C 
ATOM     13  C   UNL     1      15.077  29.616  14.635  1.00  0.00     0.179 C 
ATOM     14  C   UNL     1      15.095  29.495  16.139  1.00  0.00     0.177 C 
BRANCH  10  15
ATOM     15  O   UNL     1      18.294  29.535  14.768  1.00  0.00    -0.341 OA
BRANCH  15  16
ATOM     16  C   UNL     1      19.474  29.679  15.495  1.00  0.00     0.184 C 
ATOM     17  C   UNL     1      20.605  29.860  14.513  1.00  0.00     0.178 C 
ATOM     18  O   UNL     1      21.564  28.883  14.565  1.00  0.00    -0.341 OA
ATOM     19  C   UNL     1      22.103  28.628  15.802  1.00  0.00     0.281 C 
ATOM     20  C   UNL     1      19.698  28.327  16.188  1.00  0.00     0.180 C 
ATOM     21  C   UNL     1      21.034  28.387  16.856  1.00  0.00     0.202 C 
BRANCH  17  22
ATOM     22  C   UNL     1      21.179  31.252  14.707  1.00  0.00     0.191 C 
BRANCH  22  23
ATOM     23  O   UNL     1      20.646  31.776  15.883  1.00  0.00    -0.394 OA
ATOM     24  H   UNL     1      19.895  32.383  15.753  1.00  0.00     0.210 HD
ENDBRANCH  22  23
ENDBRANCH  17  22
BRANCH  19  25
ATOM     25  O   UNL     1      23.037  29.553  16.227  1.00  0.00    -0.350 OA
BRANCH  25  26
ATOM     26  C   UNL     1      22.892  29.751  17.592  1.00  0.00     0.169 C 
BRANCH  26  27
ATOM     27  C   UNL     1      23.868  30.825  18.048  1.00  0.00     0.119 C 
BRANCH  27  28
ATOM     28  N   UNL     1      23.236  31.680  19.061  1.00  0.00    -0.092 NA
ATOM     29  N   UNL     1      22.014  31.795  18.984  1.00  0.00     0.001 N 
ATOM     30  N   UNL     1      20.832  32.093  18.966  1.00  0.00    -0.003 NA
ENDBRANCH  27  28
ENDBRANCH  26  27
ENDBRANCH  25  26
ENDBRANCH  19  25
BRANCH  20  31
ATOM     31  O   UNL     1      18.658  28.078  17.053  1.00  0.00    -0.387 OA
ATOM     32  H   UNL     1      18.147  27.249  16.797  1.00  0.00     0.211 HD
ENDBRANCH  20  31
BRANCH  21  33
ATOM     33  O   UNL     1      21.297  27.246  17.617  1.00  0.00    -0.385 OA
ATOM     34  H   UNL     1      21.490  26.478  16.997  1.00  0.00     0.211 HD
ENDBRANCH  21  33
ENDBRANCH  15  16
ENDBRANCH  10  15
BRANCH  12  35
ATOM     35  O   UNL     1      15.799  31.693  13.657  1.00  0.00    -0.385 OA
ATOM     36  H   UNL     1      16.029  32.419  14.290  1.00  0.00     0.211 HD
ENDBRANCH  12  35
BRANCH  13  37
ATOM     37  O   UNL     1      15.108  28.311  14.116  1.00  0.00    -0.387 OA
ATOM     38  H   UNL     1      15.662  27.777  14.745  1.00  0.00     0.211 HD
ENDBRANCH  13  37
BRANCH  14  39
ATOM     39  O   UNL     1      15.890  28.422  16.557  1.00  0.00    -0.387 OA
ATOM     40  H   UNL     1      15.426  27.550  16.477  1.00  0.00     0.211 HD
ENDBRANCH  14  39
ENDBRANCH   8   9
ENDBRANCH   7   8
ENDBRANCH   1   7
BRANCH   1  41
ATOM     41  C   UNL     1      16.884  28.320  19.658  1.00  0.00     0.364 C 
ATOM     42  O   UNL     1      16.328  27.368  19.009  1.00  0.00    -0.246 OA
BRANCH  41  43
ATOM     43  O   UNL     1      18.173  28.050  20.044  1.00  0.00    -0.477 OA
ATOM     44  H   UNL     1      18.454  27.160  20.432  1.00  0.00     0.296 HD
ENDBRANCH  41  43
ENDBRANCH   1  41
BRANCH   3  45
ATOM     45  O   UNL     1      13.333  28.355  21.911  1.00  0.00    -0.391 OA
ATOM     46  H   UNL     1      12.994  28.571  22.819  1.00  0.00     0.211 HD
ENDBRANCH   3  45
BRANCH   5  47
ATOM     47  C   UNL     1      16.178  32.260  21.831  1.00  0.00     0.176 C 
BRANCH  47  48
ATOM     48  O   UNL     1      17.199  32.424  20.820  1.00  0.00    -0.388 OA
ATOM     49  H   UNL     1      16.661  32.349  19.973  1.00  0.00     0.211 HD
ENDBRANCH  47  48
BRANCH  47  50
ATOM     50  C   UNL     1      16.670  32.944  23.036  1.00  0.00     0.165 C 
BRANCH  50  51
ATOM     51  O   UNL     1      16.748  34.347  22.852  1.00  0.00    -0.388 OA
ATOM     52  H   UNL     1      16.055  34.812  23.369  1.00  0.00     0.211 HD
ENDBRANCH  50  51
BRANCH  50  53
ATOM     53  C   UNL     1      17.657  32.358  23.939  1.00  0.00     0.154 C 
BRANCH  53  54
ATOM     54  N   UNL     1      18.887  31.944  23.373  1.00  0.00    -0.319 N 
ATOM     55  C   UNL     1      19.473  30.658  23.389  1.00  0.00     0.407 C 
ATOM     56  H   UNL     1      19.478  32.673  22.853  1.00  0.00     0.167 HD
ATOM     57  O   UNL     1      18.872  29.736  23.986  1.00  0.00    -0.225 OA
BRANCH  55  58
ATOM     58  O   UNL     1      20.681  30.347  22.781  1.00  0.00    -0.443 OA
BRANCH  58  59
ATOM     59  C   UNL     1      20.717  29.552  21.624  1.00  0.00     0.294 C 
BRANCH  59  60
ATOM     60  C   UNL     1      21.034  28.148  22.058  1.00  0.00     0.121 A 
ATOM     61  C   UNL     1      21.841  27.763  23.103  1.00  0.00     0.144 A 
ATOM     62  N   UNL     1      20.604  26.999  21.518  1.00  0.00    -0.131 NA
ATOM     63  N   UNL     1      21.864  26.391  23.148  1.00  0.00    -0.220 N 
ATOM     64  N   UNL     1      21.098  25.969  22.166  1.00  0.00    -0.062 NA
BRANCH  63  65
ATOM     65  C   UNL     1      22.632  25.642  24.082  1.00  0.00     0.077 A 
ATOM     66  C   UNL     1      23.817  25.045  23.841  1.00  0.00     0.043 A 
ATOM     67  C   UNL     1      22.069  25.542  25.369  1.00  0.00     0.029 A 
ATOM     68  C   UNL     1      24.431  24.347  24.903  1.00  0.00     0.014 A 
ATOM     69  C   UNL     1      22.692  24.854  26.387  1.00  0.00     0.002 A 
ATOM     70  C   UNL     1      23.899  24.242  26.156  1.00  0.00     0.001 A 
BRANCH  66  71
ATOM     71  C   UNL     1      24.465  25.090  22.552  1.00  0.00     0.161 C 
ATOM     72  O   UNL     1      25.264  26.089  22.379  1.00  0.00    -0.294 OA
ATOM     73  C   UNL     1      24.340  24.164  21.425  1.00  0.00     0.093 C 
ENDBRANCH  66  71
ENDBRANCH  63  65
ENDBRANCH  59  60
ENDBRANCH  58  59
ENDBRANCH  55  58
ENDBRANCH  53  54
ENDBRANCH  50  53
ENDBRANCH  47  50
ENDBRANCH   5  47
BRANCH   4  74
ATOM     74  N   UNL     1      14.392  30.294  23.703  1.00  0.00    -0.348 N 
ATOM     75  C   UNL     1      13.525  31.246  24.294  1.00  0.00     0.217 C 
ATOM     76  H   UNL     1      14.828  29.545  24.302  1.00  0.00     0.163 HD
ATOM     77  C   UNL     1      13.244  31.167  25.770  1.00  0.00     0.114 C 
ATOM     78  O   UNL     1      13.025  32.118  23.553  1.00  0.00    -0.275 OA
ENDBRANCH   4  74
TORSDOF 31
