REMARK VINA RESULT:    -5.505     17.593     21.048
REMARK INTER + INTRA:         -22.020
REMARK INTER:                 -14.532
REMARK INTRA:                  -7.488
REMARK UNBOUND:                -8.149
REMARK SMILES CC(=O)N[C@@H]1[C@@H](O)C[C@](OC[C@H]2O[C@@H](O[C@H]3[C@H](O)[C@@H](O)[C@H](OCCN=[N+]=[N-])O[C@@H]3CO)[C@H](O)[C@@H](O)[C@H]2O)(C(=O)O)O[C@H]1C(O)[C@H](O)CNC(=O)OCc1cn(Cc2ccc3c(c2)OCO3)nn1
REMARK SMILES IDX 9 1 8 2 6 3 5 4 42 5 41 6 10 7 11 8 12 9 14 10 13 11 32 12
REMARK SMILES IDX 34 13 36 14 15 15 16 16 29 17 28 18 21 19 17 20 19 21 30 22
REMARK SMILES IDX 31 23 22 25 23 26 24 27 25 28 26 29 27 30 18 31 20 33 33 35
REMARK SMILES IDX 35 37 37 39 38 41 39 42 40 43 7 45 43 47 44 48 45 50 46 51
REMARK SMILES IDX 47 53 48 54 49 55 50 57 51 58 52 59 53 60 54 61 67 62 55 63
REMARK SMILES IDX 66 64 56 65 57 66 58 67 62 68 59 69 61 70 60 71 63 72 65 73
REMARK SMILES IDX 64 74 4 75 2 76 1 78 3 79
REMARK H PARENT 31 24 18 32 20 34 33 36 35 38 37 40 40 44 7 46 44 49 46 52
REMARK H PARENT 48 56 4 77
REMARK Flexibility Score: inf
ROOT
ATOM      1  C   UNL     1       2.132  20.967  31.998  1.00  0.00     0.272 C 
ATOM      2  C   UNL     1       1.060  20.051  31.444  1.00  0.00     0.113 C 
ATOM      3  C   UNL     1       0.392  19.326  32.574  1.00  0.00     0.145 C 
ATOM      4  C   UNL     1       1.492  18.459  33.240  1.00  0.00     0.142 C 
ATOM      5  C   UNL     1       2.612  19.367  33.600  1.00  0.00     0.178 C 
ATOM      6  O   UNL     1       2.374  20.712  33.326  1.00  0.00    -0.332 OA
ENDROOT
BRANCH   1   7
ATOM      7  O   UNL     1       1.788  22.312  31.786  1.00  0.00    -0.338 OA
BRANCH   7   8
ATOM      8  C   UNL     1       1.446  23.036  32.878  1.00  0.00     0.199 C 
BRANCH   8   9
ATOM      9  C   UNL     1       2.500  24.136  33.084  1.00  0.00     0.179 C 
ATOM     10  C   UNL     1       4.767  24.526  33.055  1.00  0.00     0.282 C 
ATOM     11  O   UNL     1       3.748  23.574  33.098  1.00  0.00    -0.341 OA
ATOM     12  C   UNL     1       4.712  25.225  31.694  1.00  0.00     0.202 C 
ATOM     13  C   UNL     1       3.349  25.293  31.106  1.00  0.00     0.179 C 
ATOM     14  C   UNL     1       2.299  25.286  32.164  1.00  0.00     0.177 C 
BRANCH  10  15
ATOM     15  O   UNL     1       5.953  23.911  33.132  1.00  0.00    -0.341 OA
BRANCH  15  16
ATOM     16  C   UNL     1       6.630  23.819  34.310  1.00  0.00     0.184 C 
ATOM     17  C   UNL     1       6.587  25.065  35.151  1.00  0.00     0.178 C 
ATOM     18  O   UNL     1       7.799  25.654  35.297  1.00  0.00    -0.341 OA
ATOM     19  C   UNL     1       8.791  24.877  35.929  1.00  0.00     0.281 C 
ATOM     20  C   UNL     1       8.055  23.424  34.030  1.00  0.00     0.180 C 
ATOM     21  C   UNL     1       8.825  23.488  35.334  1.00  0.00     0.202 C 
BRANCH  17  22
ATOM     22  C   UNL     1       6.008  24.727  36.502  1.00  0.00     0.191 C 
BRANCH  22  23
ATOM     23  O   UNL     1       5.359  23.465  36.459  1.00  0.00    -0.394 OA
ATOM     24  H   UNL     1       4.838  23.341  35.633  1.00  0.00     0.210 HD
ENDBRANCH  22  23
ENDBRANCH  17  22
BRANCH  19  25
ATOM     25  O   UNL     1       8.671  24.916  37.282  1.00  0.00    -0.350 OA
BRANCH  25  26
ATOM     26  C   UNL     1       9.198  24.006  38.098  1.00  0.00     0.169 C 
BRANCH  26  27
ATOM     27  C   UNL     1      10.460  24.386  38.806  1.00  0.00     0.119 C 
BRANCH  27  28
ATOM     28  N   UNL     1      11.657  23.798  38.319  1.00  0.00    -0.092 NA
ATOM     29  N   UNL     1      12.290  24.211  37.352  1.00  0.00     0.001 N 
ATOM     30  N   UNL     1      12.556  24.493  36.170  1.00  0.00    -0.003 NA
ENDBRANCH  27  28
ENDBRANCH  26  27
ENDBRANCH  25  26
ENDBRANCH  19  25
BRANCH  20  31
ATOM     31  O   UNL     1       8.056  22.108  33.575  1.00  0.00    -0.387 OA
ATOM     32  H   UNL     1       8.931  21.667  33.731  1.00  0.00     0.211 HD
ENDBRANCH  20  31
BRANCH  21  33
ATOM     33  O   UNL     1      10.133  23.120  35.029  1.00  0.00    -0.385 OA
ATOM     34  H   UNL     1      10.539  23.783  34.410  1.00  0.00     0.211 HD
ENDBRANCH  21  33
ENDBRANCH  15  16
ENDBRANCH  10  15
BRANCH  12  35
ATOM     35  O   UNL     1       5.281  26.494  31.782  1.00  0.00    -0.385 OA
ATOM     36  H   UNL     1       4.820  27.034  32.444  1.00  0.00     0.211 HD
ENDBRANCH  12  35
BRANCH  13  37
ATOM     37  O   UNL     1       3.115  24.335  30.132  1.00  0.00    -0.387 OA
ATOM     38  H   UNL     1       3.719  23.565  30.292  1.00  0.00     0.211 HD
ENDBRANCH  13  37
BRANCH  14  39
ATOM     39  O   UNL     1       1.051  25.222  31.527  1.00  0.00    -0.387 OA
ATOM     40  H   UNL     1       0.393  25.661  32.099  1.00  0.00     0.211 HD
ENDBRANCH  14  39
ENDBRANCH   8   9
ENDBRANCH   7   8
ENDBRANCH   1   7
BRANCH   1  41
ATOM     41  C   UNL     1       3.373  20.779  31.225  1.00  0.00     0.364 C 
ATOM     42  O   UNL     1       3.573  19.805  30.488  1.00  0.00    -0.246 OA
BRANCH  41  43
ATOM     43  O   UNL     1       4.411  21.714  31.286  1.00  0.00    -0.477 OA
ATOM     44  H   UNL     1       5.040  21.737  32.106  1.00  0.00     0.296 HD
ENDBRANCH  41  43
ENDBRANCH   1  41
BRANCH   3  45
ATOM     45  O   UNL     1      -0.127  20.095  33.574  1.00  0.00    -0.391 OA
ATOM     46  H   UNL     1       0.410  20.898  33.790  1.00  0.00     0.211 HD
ENDBRANCH   3  45
BRANCH   5  47
ATOM     47  C   UNL     1       2.834  19.360  35.133  1.00  0.00     0.176 C 
BRANCH  47  48
ATOM     48  O   UNL     1       3.976  18.714  35.498  1.00  0.00    -0.388 OA
ATOM     49  H   UNL     1       3.800  18.124  36.268  1.00  0.00     0.211 HD
ENDBRANCH  47  48
BRANCH  47  50
ATOM     50  C   UNL     1       2.612  20.639  35.812  1.00  0.00     0.165 C 
BRANCH  50  51
ATOM     51  O   UNL     1       3.482  21.674  35.442  1.00  0.00    -0.388 OA
ATOM     52  H   UNL     1       3.044  22.283  34.792  1.00  0.00     0.211 HD
ENDBRANCH  50  51
BRANCH  50  53
ATOM     53  C   UNL     1       2.567  20.610  37.316  1.00  0.00     0.154 C 
BRANCH  53  54
ATOM     54  N   UNL     1       3.930  20.890  37.799  1.00  0.00    -0.319 N 
ATOM     55  C   UNL     1       4.173  21.777  38.887  1.00  0.00     0.407 C 
ATOM     56  H   UNL     1       4.712  20.424  37.327  1.00  0.00     0.167 HD
ATOM     57  O   UNL     1       3.168  22.315  39.423  1.00  0.00    -0.225 OA
BRANCH  55  58
ATOM     58  O   UNL     1       5.432  22.058  39.360  1.00  0.00    -0.443 OA
BRANCH  58  59
ATOM     59  C   UNL     1       5.639  22.418  40.706  1.00  0.00     0.294 C 
BRANCH  59  60
ATOM     60  C   UNL     1       7.085  22.298  41.008  1.00  0.00     0.120 A 
ATOM     61  C   UNL     1       7.821  22.983  41.969  1.00  0.00     0.138 A 
ATOM     62  N   UNL     1       7.983  21.500  40.398  1.00  0.00    -0.132 NA
ATOM     63  N   UNL     1       9.104  22.581  41.905  1.00  0.00    -0.248 N 
ATOM     64  N   UNL     1       9.174  21.689  40.950  1.00  0.00    -0.067 NA
BRANCH  63  65
ATOM     65  C   UNL     1      10.169  23.053  42.739  1.00  0.00     0.181 C 
BRANCH  65  66
ATOM     66  C   UNL     1      11.436  22.298  42.595  1.00  0.00    -0.023 A 
ATOM     67  C   UNL     1      11.589  21.097  43.215  1.00  0.00     0.010 A 
ATOM     68  C   UNL     1      12.480  22.818  41.823  1.00  0.00     0.056 A 
ATOM     69  C   UNL     1      12.771  20.415  43.071  1.00  0.00     0.051 A 
ATOM     70  C   UNL     1      13.664  22.150  41.672  1.00  0.00     0.166 A 
ATOM     71  C   UNL     1      13.789  20.932  42.315  1.00  0.00     0.165 A 
ATOM     72  O   UNL     1      14.856  22.366  41.008  1.00  0.00    -0.454 OA
ATOM     73  O   UNL     1      15.058  20.403  42.045  1.00  0.00    -0.454 OA
ATOM     74  C   UNL     1      15.559  21.127  40.941  1.00  0.00     0.468 C 
ENDBRANCH  65  66
ENDBRANCH  63  65
ENDBRANCH  59  60
ENDBRANCH  58  59
ENDBRANCH  55  58
ENDBRANCH  53  54
ENDBRANCH  50  53
ENDBRANCH  47  50
ENDBRANCH   5  47
BRANCH   4  75
ATOM     75  N   UNL     1       1.791  17.451  32.263  1.00  0.00    -0.348 N 
ATOM     76  C   UNL     1       2.269  16.179  32.724  1.00  0.00     0.217 C 
ATOM     77  H   UNL     1       1.701  17.529  31.234  1.00  0.00     0.163 HD
ATOM     78  C   UNL     1       2.593  15.107  31.722  1.00  0.00     0.114 C 
ATOM     79  O   UNL     1       2.413  15.963  33.951  1.00  0.00    -0.275 OA
ENDBRANCH   4  75
TORSDOF 31
