REMARK VINA RESULT:    -5.817      6.553     10.779
REMARK INTER + INTRA:         -22.879
REMARK INTER:                 -13.783
REMARK INTRA:                  -9.096
REMARK UNBOUND:                -8.561
REMARK SMILES CC(=O)N[C@@H]1[C@@H](O)C[C@](OC[C@H]2O[C@@H](O[C@H]3[C@H](O)[C@@H](O)[C@H](OCCN=[N+]=[N-])O[C@@H]3CO)[C@H](O)[C@@H](O)[C@H]2O)(C(=O)O)O[C@H]1C(O)[C@H](O)CNC(=O)OCc1cn(-c2cnc3ccccc3c2)nn1
REMARK SMILES IDX 9 1 8 2 6 3 5 4 42 5 41 6 10 7 11 8 12 9 14 10 13 11 32 12
REMARK SMILES IDX 34 13 36 14 15 15 16 16 29 17 28 18 21 19 17 20 19 21 30 22
REMARK SMILES IDX 31 23 22 25 23 26 24 27 25 28 26 29 27 30 18 31 20 33 33 35
REMARK SMILES IDX 35 37 37 39 38 41 39 42 40 43 7 45 43 47 44 48 45 50 46 51
REMARK SMILES IDX 47 53 48 54 49 55 50 57 51 58 52 59 53 60 54 61 67 62 55 63
REMARK SMILES IDX 66 64 56 65 57 66 65 67 58 68 64 69 59 70 63 71 60 72 62 73
REMARK SMILES IDX 61 74 4 75 2 76 1 78 3 79
REMARK H PARENT 31 24 18 32 20 34 33 36 35 38 37 40 40 44 7 46 44 49 46 52
REMARK H PARENT 48 56 4 77
REMARK Flexibility Score: inf
ROOT
ATOM      1  C   UNL     1      18.877  29.405  18.380  1.00  0.00     0.272 C 
ATOM      2  C   UNL     1      19.050  28.885  19.762  1.00  0.00     0.113 C 
ATOM      3  C   UNL     1      20.222  27.929  19.875  1.00  0.00     0.145 C 
ATOM      4  C   UNL     1      21.392  28.648  19.202  1.00  0.00     0.142 C 
ATOM      5  C   UNL     1      21.033  28.721  17.710  1.00  0.00     0.178 C 
ATOM      6  O   UNL     1      20.015  29.698  17.687  1.00  0.00    -0.332 OA
ENDROOT
BRANCH   1   7
ATOM      7  O   UNL     1      18.133  30.604  18.377  1.00  0.00    -0.338 OA
BRANCH   7   8
ATOM      8  C   UNL     1      16.999  30.568  19.139  1.00  0.00     0.199 C 
BRANCH   8   9
ATOM      9  C   UNL     1      15.823  30.960  18.270  1.00  0.00     0.179 C 
ATOM     10  C   UNL     1      15.187  31.856  16.255  1.00  0.00     0.282 C 
ATOM     11  O   UNL     1      16.150  31.133  16.941  1.00  0.00    -0.341 OA
ATOM     12  C   UNL     1      13.822  31.723  16.865  1.00  0.00     0.202 C 
ATOM     13  C   UNL     1      13.576  30.415  17.529  1.00  0.00     0.179 C 
ATOM     14  C   UNL     1      14.623  30.168  18.577  1.00  0.00     0.177 C 
BRANCH  10  15
ATOM     15  O   UNL     1      15.219  31.508  14.922  1.00  0.00    -0.341 OA
BRANCH  15  16
ATOM     16  C   UNL     1      16.428  30.926  14.542  1.00  0.00     0.184 C 
ATOM     17  C   UNL     1      17.355  31.892  13.846  1.00  0.00     0.178 C 
ATOM     18  O   UNL     1      17.911  31.448  12.687  1.00  0.00    -0.341 OA
ATOM     19  C   UNL     1      18.406  30.174  12.662  1.00  0.00     0.281 C 
ATOM     20  C   UNL     1      16.232  29.633  13.800  1.00  0.00     0.180 C 
ATOM     21  C   UNL     1      17.551  29.128  13.308  1.00  0.00     0.202 C 
BRANCH  17  22
ATOM     22  C   UNL     1      18.364  32.480  14.835  1.00  0.00     0.191 C 
BRANCH  22  23
ATOM     23  O   UNL     1      18.904  31.507  15.671  1.00  0.00    -0.394 OA
ATOM     24  H   UNL     1      19.764  31.770  16.057  1.00  0.00     0.210 HD
ENDBRANCH  22  23
ENDBRANCH  17  22
BRANCH  19  25
ATOM     25  O   UNL     1      19.734  30.091  13.088  1.00  0.00    -0.350 OA
BRANCH  25  26
ATOM     26  C   UNL     1      20.634  30.326  12.070  1.00  0.00     0.169 C 
BRANCH  26  27
ATOM     27  C   UNL     1      21.753  31.244  12.504  1.00  0.00     0.119 C 
BRANCH  27  28
ATOM     28  N   UNL     1      21.381  31.985  13.691  1.00  0.00    -0.092 NA
ATOM     29  N   UNL     1      22.160  32.746  14.264  1.00  0.00     0.001 N 
ATOM     30  N   UNL     1      22.769  33.769  14.581  1.00  0.00    -0.003 NA
ENDBRANCH  27  28
ENDBRANCH  26  27
ENDBRANCH  25  26
ENDBRANCH  19  25
BRANCH  20  31
ATOM     31  O   UNL     1      15.727  28.682  14.714  1.00  0.00    -0.387 OA
ATOM     32  H   UNL     1      16.175  28.788  15.597  1.00  0.00     0.211 HD
ENDBRANCH  20  31
BRANCH  21  33
ATOM     33  O   UNL     1      17.275  28.051  12.432  1.00  0.00    -0.385 OA
ATOM     34  H   UNL     1      17.695  28.233  11.540  1.00  0.00     0.211 HD
ENDBRANCH  21  33
ENDBRANCH  15  16
ENDBRANCH  10  15
BRANCH  12  35
ATOM     35  O   UNL     1      13.508  32.745  17.756  1.00  0.00    -0.385 OA
ATOM     36  H   UNL     1      12.538  32.924  17.787  1.00  0.00     0.211 HD
ENDBRANCH  12  35
BRANCH  13  37
ATOM     37  O   UNL     1      13.528  29.381  16.590  1.00  0.00    -0.387 OA
ATOM     38  H   UNL     1      12.979  28.655  16.928  1.00  0.00     0.211 HD
ENDBRANCH  13  37
BRANCH  14  39
ATOM     39  O   UNL     1      14.834  28.794  18.626  1.00  0.00    -0.387 OA
ATOM     40  H   UNL     1      15.751  28.550  18.852  1.00  0.00     0.211 HD
ENDBRANCH  14  39
ENDBRANCH   8   9
ENDBRANCH   7   8
ENDBRANCH   1   7
BRANCH   1  41
ATOM     41  C   UNL     1      18.135  28.372  17.578  1.00  0.00     0.364 C 
ATOM     42  O   UNL     1      18.174  28.387  16.305  1.00  0.00    -0.246 OA
BRANCH  41  43
ATOM     43  O   UNL     1      17.378  27.362  18.125  1.00  0.00    -0.477 OA
ATOM     44  H   UNL     1      16.371  27.459  18.324  1.00  0.00     0.296 HD
ENDBRANCH  41  43
ENDBRANCH   1  41
BRANCH   3  45
ATOM     45  O   UNL     1      20.506  27.596  21.178  1.00  0.00    -0.391 OA
ATOM     46  H   UNL     1      19.866  28.056  21.759  1.00  0.00     0.211 HD
ENDBRANCH   3  45
BRANCH   5  47
ATOM     47  C   UNL     1      22.160  29.301  16.901  1.00  0.00     0.176 C 
BRANCH  47  48
ATOM     48  O   UNL     1      22.118  30.709  17.080  1.00  0.00    -0.388 OA
ATOM     49  H   UNL     1      23.033  31.086  17.133  1.00  0.00     0.211 HD
ENDBRANCH  47  48
BRANCH  47  50
ATOM     50  C   UNL     1      22.042  29.080  15.399  1.00  0.00     0.165 C 
BRANCH  50  51
ATOM     51  O   UNL     1      20.841  28.290  15.302  1.00  0.00    -0.388 OA
ATOM     52  H   UNL     1      20.872  27.833  14.430  1.00  0.00     0.211 HD
ENDBRANCH  50  51
BRANCH  50  53
ATOM     53  C   UNL     1      23.107  28.115  14.924  1.00  0.00     0.154 C 
BRANCH  53  54
ATOM     54  N   UNL     1      23.227  26.902  15.641  1.00  0.00    -0.319 N 
ATOM     55  C   UNL     1      23.026  25.618  15.090  1.00  0.00     0.407 C 
ATOM     56  H   UNL     1      23.487  26.974  16.675  1.00  0.00     0.167 HD
ATOM     57  O   UNL     1      22.708  25.517  13.889  1.00  0.00    -0.225 OA
BRANCH  55  58
ATOM     58  O   UNL     1      23.190  24.526  15.910  1.00  0.00    -0.443 OA
BRANCH  58  59
ATOM     59  C   UNL     1      24.240  24.422  16.834  1.00  0.00     0.294 C 
BRANCH  59  60
ATOM     60  C   UNL     1      23.716  24.619  18.223  1.00  0.00     0.121 A 
ATOM     61  C   UNL     1      24.375  24.485  19.400  1.00  0.00     0.144 A 
ATOM     62  N   UNL     1      22.440  24.971  18.505  1.00  0.00    -0.131 NA
ATOM     63  N   UNL     1      23.480  24.759  20.368  1.00  0.00    -0.219 N 
ATOM     64  N   UNL     1      22.302  25.055  19.812  1.00  0.00    -0.062 NA
BRANCH  63  65
ATOM     65  C   UNL     1      23.770  24.729  21.763  1.00  0.00     0.085 A 
ATOM     66  C   UNL     1      25.060  24.724  22.185  1.00  0.00     0.140 A 
ATOM     67  C   UNL     1      22.715  24.712  22.661  1.00  0.00     0.040 A 
ATOM     68  N   UNL     1      25.318  24.702  23.509  1.00  0.00    -0.254 NA
ATOM     69  C   UNL     1      22.996  24.690  23.997  1.00  0.00     0.002 A 
ATOM     70  C   UNL     1      24.305  24.686  24.383  1.00  0.00     0.070 A 
ATOM     71  C   UNL     1      21.963  24.673  24.911  1.00  0.00     0.010 A 
ATOM     72  C   UNL     1      24.584  24.664  25.750  1.00  0.00     0.029 A 
ATOM     73  C   UNL     1      22.263  24.652  26.263  1.00  0.00     0.001 A 
ATOM     74  C   UNL     1      23.592  24.647  26.689  1.00  0.00     0.002 A 
ENDBRANCH  63  65
ENDBRANCH  59  60
ENDBRANCH  58  59
ENDBRANCH  55  58
ENDBRANCH  53  54
ENDBRANCH  50  53
ENDBRANCH  47  50
ENDBRANCH   5  47
BRANCH   4  75
ATOM     75  N   UNL     1      22.632  28.041  19.501  1.00  0.00    -0.348 N 
ATOM     76  C   UNL     1      23.629  28.747  20.274  1.00  0.00     0.217 C 
ATOM     77  H   UNL     1      22.906  27.078  19.217  1.00  0.00     0.163 HD
ATOM     78  C   UNL     1      24.919  28.133  20.592  1.00  0.00     0.114 C 
ATOM     79  O   UNL     1      23.327  29.917  20.657  1.00  0.00    -0.275 OA
ENDBRANCH   4  75
TORSDOF 30
