REMARK VINA RESULT:    -5.640      4.327     12.302
REMARK INTER + INTRA:         -24.510
REMARK INTER:                 -16.059
REMARK INTRA:                  -8.450
REMARK UNBOUND:                -7.166
REMARK SMILES CC(=O)N[C@@H]1[C@@H](O)C[C@](OC[C@H]2O[C@@H](O[C@H]3[C@H](O)[C@@H](O)[C@H](OCCN=[N+]=[N-])O[C@@H]3CO)[C@H](O)[C@@H](O)[C@H]2O)(C(=O)O)O[C@H]1C(O)[C@H](O)CNC(=O)OCc1cn(CCCCCCCCCCC(=O)O)nn1
REMARK SMILES IDX 51 1 49 2 48 3 50 5 47 6 45 7 43 8 42 9 9 10 8 11 41 12 6 13
REMARK SMILES IDX 5 14 10 15 11 16 12 17 14 18 13 19 32 20 34 21 36 22 15 23
REMARK SMILES IDX 16 24 29 25 28 26 21 27 17 28 19 29 30 30 31 31 22 33 23 34
REMARK SMILES IDX 24 35 25 36 26 37 27 38 18 39 20 41 33 43 35 45 37 47 38 49
REMARK SMILES IDX 39 50 40 51 7 53 4 55 2 56 1 58 3 59 44 60 46 62 52 64 53 65
REMARK SMILES IDX 54 66 70 67 55 68 69 69 56 70 57 71 58 72 59 73 60 74 61 75
REMARK SMILES IDX 62 76 63 77 64 78 65 79 66 80 67 81 68 82
REMARK H PARENT 48 4 31 32 18 40 20 42 33 44 35 46 37 48 40 52 7 54 4 57 44 61
REMARK H PARENT 46 63 68 83
REMARK Flexibility Score: inf
ROOT
ATOM      1  O   UNL     1      19.457  30.720  22.325  1.00  0.00    -0.443 OA
ENDROOT
BRANCH   1   2
ATOM      2  C   UNL     1      20.595  30.220  21.654  1.00  0.00     0.407 C 
ATOM      3  N   UNL     1      20.587  30.033  20.249  1.00  0.00    -0.319 N 
ATOM      4  H   UNL     1      19.707  30.268  19.718  1.00  0.00     0.167 HD
ATOM      5  O   UNL     1      21.639  29.933  22.282  1.00  0.00    -0.225 OA
BRANCH   3   6
ATOM      6  C   UNL     1      21.720  29.537  19.529  1.00  0.00     0.154 C 
BRANCH   6   7
ATOM      7  C   UNL     1      21.809  28.016  19.464  1.00  0.00     0.165 C 
BRANCH   7   8
ATOM      8  C   UNL     1      23.211  27.671  19.825  1.00  0.00     0.176 C 
BRANCH   8   9
ATOM      9  C   UNL     1      23.463  26.232  20.212  1.00  0.00     0.178 C 
ATOM     10  C   UNL     1      23.259  24.828  22.054  1.00  0.00     0.272 C 
ATOM     11  C   UNL     1      24.530  24.160  21.574  1.00  0.00     0.113 C 
ATOM     12  O   UNL     1      23.259  26.119  21.559  1.00  0.00    -0.332 OA
ATOM     13  C   UNL     1      25.480  25.090  20.890  1.00  0.00     0.145 C 
ATOM     14  C   UNL     1      24.774  25.716  19.705  1.00  0.00     0.142 C 
BRANCH  10  15
ATOM     15  O   UNL     1      23.209  24.845  23.458  1.00  0.00    -0.338 OA
BRANCH  15  16
ATOM     16  C   UNL     1      23.341  26.051  24.058  1.00  0.00     0.199 C 
BRANCH  16  17
ATOM     17  C   UNL     1      22.299  26.085  25.197  1.00  0.00     0.179 C 
ATOM     18  C   UNL     1      22.890  27.850  26.658  1.00  0.00     0.282 C 
ATOM     19  O   UNL     1      22.792  26.533  26.358  1.00  0.00    -0.341 OA
ATOM     20  C   UNL     1      22.097  28.735  25.773  1.00  0.00     0.202 C 
ATOM     21  C   UNL     1      20.778  28.047  25.441  1.00  0.00     0.179 C 
ATOM     22  C   UNL     1      21.027  26.743  24.712  1.00  0.00     0.177 C 
BRANCH  18  23
ATOM     23  O   UNL     1      24.274  28.157  26.680  1.00  0.00    -0.341 OA
BRANCH  23  24
ATOM     24  C   UNL     1      24.769  27.744  27.910  1.00  0.00     0.184 C 
ATOM     25  C   UNL     1      25.349  28.827  28.759  1.00  0.00     0.178 C 
ATOM     26  O   UNL     1      25.961  28.304  29.860  1.00  0.00    -0.341 OA
ATOM     27  C   UNL     1      25.838  27.001  30.170  1.00  0.00     0.281 C 
ATOM     28  C   UNL     1      25.896  26.721  27.694  1.00  0.00     0.180 C 
ATOM     29  C   UNL     1      26.105  26.045  29.030  1.00  0.00     0.202 C 
BRANCH  25  30
ATOM     30  C   UNL     1      24.338  29.876  29.182  1.00  0.00     0.191 C 
BRANCH  30  31
ATOM     31  O   UNL     1      23.917  29.748  30.480  1.00  0.00    -0.394 OA
ATOM     32  H   UNL     1      23.956  30.641  30.912  1.00  0.00     0.210 HD
ENDBRANCH  30  31
ENDBRANCH  25  30
BRANCH  27  33
ATOM     33  O   UNL     1      24.567  26.741  30.662  1.00  0.00    -0.350 OA
BRANCH  33  34
ATOM     34  C   UNL     1      24.602  26.101  31.900  1.00  0.00     0.169 C 
BRANCH  34  35
ATOM     35  C   UNL     1      25.460  26.834  32.892  1.00  0.00     0.119 C 
BRANCH  35  36
ATOM     36  N   UNL     1      26.392  25.881  33.497  1.00  0.00    -0.092 NA
ATOM     37  N   UNL     1      27.344  25.413  32.836  1.00  0.00     0.001 N 
ATOM     38  N   UNL     1      28.174  25.102  31.954  1.00  0.00    -0.003 NA
ENDBRANCH  35  36
ENDBRANCH  34  35
ENDBRANCH  33  34
ENDBRANCH  27  33
BRANCH  28  39
ATOM     39  O   UNL     1      25.581  25.779  26.738  1.00  0.00    -0.387 OA
ATOM     40  H   UNL     1      25.834  26.045  25.819  1.00  0.00     0.211 HD
ENDBRANCH  28  39
BRANCH  29  41
ATOM     41  O   UNL     1      27.442  25.669  29.102  1.00  0.00    -0.385 OA
ATOM     42  H   UNL     1      27.728  25.764  30.063  1.00  0.00     0.211 HD
ENDBRANCH  29  41
ENDBRANCH  23  24
ENDBRANCH  18  23
BRANCH  20  43
ATOM     43  O   UNL     1      21.726  29.934  26.398  1.00  0.00    -0.385 OA
ATOM     44  H   UNL     1      21.514  29.687  27.346  1.00  0.00     0.211 HD
ENDBRANCH  20  43
BRANCH  21  45
ATOM     45  O   UNL     1      19.977  28.874  24.657  1.00  0.00    -0.387 OA
ATOM     46  H   UNL     1      20.517  29.115  23.862  1.00  0.00     0.211 HD
ENDBRANCH  21  45
BRANCH  22  47
ATOM     47  O   UNL     1      21.114  27.021  23.369  1.00  0.00    -0.387 OA
ATOM     48  H   UNL     1      20.212  26.922  22.969  1.00  0.00     0.211 HD
ENDBRANCH  22  47
ENDBRANCH  16  17
ENDBRANCH  15  16
ENDBRANCH  10  15
BRANCH  10  49
ATOM     49  C   UNL     1      22.060  24.093  21.645  1.00  0.00     0.364 C 
ATOM     50  O   UNL     1      20.943  24.287  22.153  1.00  0.00    -0.246 OA
BRANCH  49  51
ATOM     51  O   UNL     1      22.130  23.132  20.651  1.00  0.00    -0.477 OA
ATOM     52  H   UNL     1      22.840  23.158  19.914  1.00  0.00     0.296 HD
ENDBRANCH  49  51
ENDBRANCH  10  49
BRANCH  13  53
ATOM     53  O   UNL     1      26.088  26.024  21.699  1.00  0.00    -0.391 OA
ATOM     54  H   UNL     1      25.519  26.328  22.463  1.00  0.00     0.211 HD
ENDBRANCH  13  53
BRANCH  14  55
ATOM     55  N   UNL     1      24.684  24.722  18.687  1.00  0.00    -0.348 N 
ATOM     56  C   UNL     1      24.664  25.001  17.291  1.00  0.00     0.217 C 
ATOM     57  H   UNL     1      24.625  23.707  18.940  1.00  0.00     0.163 HD
ATOM     58  C   UNL     1      24.569  23.917  16.297  1.00  0.00     0.114 C 
ATOM     59  O   UNL     1      24.731  26.193  16.939  1.00  0.00    -0.275 OA
ENDBRANCH  14  55
ENDBRANCH   8   9
BRANCH   8  60
ATOM     60  O   UNL     1      23.681  28.591  20.724  1.00  0.00    -0.388 OA
ATOM     61  H   UNL     1      24.193  29.322  20.344  1.00  0.00     0.211 HD
ENDBRANCH   8  60
ENDBRANCH   7   8
BRANCH   7  62
ATOM     62  O   UNL     1      21.429  27.643  18.180  1.00  0.00    -0.388 OA
ATOM     63  H   UNL     1      20.923  28.355  17.719  1.00  0.00     0.211 HD
ENDBRANCH   7  62
ENDBRANCH   6   7
ENDBRANCH   3   6
ENDBRANCH   1   2
BRANCH   1  64
ATOM     64  C   UNL     1      18.185  30.415  21.736  1.00  0.00     0.294 C 
BRANCH  64  65
ATOM     65  C   UNL     1      17.194  30.393  22.831  1.00  0.00     0.120 A 
ATOM     66  C   UNL     1      16.334  31.431  23.143  1.00  0.00     0.138 A 
ATOM     67  N   UNL     1      16.937  29.402  23.695  1.00  0.00    -0.132 NA
ATOM     68  N   UNL     1      15.595  31.011  24.187  1.00  0.00    -0.252 N 
ATOM     69  N   UNL     1      15.984  29.762  24.509  1.00  0.00    -0.067 NA
BRANCH  68  70
ATOM     70  C   UNL     1      14.558  31.702  24.889  1.00  0.00     0.146 C 
BRANCH  70  71
ATOM     71  C   UNL     1      13.357  30.894  25.237  1.00  0.00     0.024 C 
BRANCH  71  72
ATOM     72  C   UNL     1      12.132  31.153  24.433  1.00  0.00     0.002 C 
BRANCH  72  73
ATOM     73  C   UNL     1      11.816  30.142  23.387  1.00  0.00     0.000 C 
BRANCH  73  74
ATOM     74  C   UNL     1      12.627  30.227  22.140  1.00  0.00     0.000 C 
BRANCH  74  75
ATOM     75  C   UNL     1      13.311  28.915  21.874  1.00  0.00     0.000 C 
BRANCH  75  76
ATOM     76  C   UNL     1      14.481  29.036  20.922  1.00  0.00     0.000 C 
BRANCH  76  77
ATOM     77  C   UNL     1      14.073  29.142  19.490  1.00  0.00     0.001 C 
BRANCH  77  78
ATOM     78  C   UNL     1      15.206  29.136  18.511  1.00  0.00     0.012 C 
BRANCH  78  79
ATOM     79  C   UNL     1      16.313  28.259  19.070  1.00  0.00     0.122 C 
BRANCH  79  80
ATOM     80  C   UNL     1      17.478  28.327  18.171  1.00  0.00     0.303 C 
ATOM     81  O   UNL     1      18.617  28.020  18.580  1.00  0.00    -0.252 OA
BRANCH  80  82
ATOM     82  O   UNL     1      17.349  28.735  16.851  1.00  0.00    -0.481 OA
ATOM     83  H   UNL     1      16.552  28.493  16.291  1.00  0.00     0.296 HD
ENDBRANCH  80  82
ENDBRANCH  79  80
ENDBRANCH  78  79
ENDBRANCH  77  78
ENDBRANCH  76  77
ENDBRANCH  75  76
ENDBRANCH  74  75
ENDBRANCH  73  74
ENDBRANCH  72  73
ENDBRANCH  71  72
ENDBRANCH  70  71
ENDBRANCH  68  70
ENDBRANCH  64  65
ENDBRANCH   1  64
TORSDOF 41
