REMARK VINA RESULT:    -5.756      7.951     11.305
REMARK INTER + INTRA:         -21.714
REMARK INTER:                 -16.545
REMARK INTRA:                  -5.168
REMARK UNBOUND:                -7.546
REMARK SMILES CC(=O)N[C@@H]1[C@@H](O)C[C@](OC[C@H]2O[C@@H](O[C@H]3[C@H](O)[C@@H](O)[C@H](OCCN=[N+]=[N-])O[C@@H]3CO)[C@H](O)[C@@H](O)[C@H]2O)(C(=O)O)O[C@H]1C(O)[C@H](O)CNC(=O)OCc1cn(-c2ccc3[nH]ncc3c2)nn1
REMARK SMILES IDX 9 1 8 2 6 3 5 4 42 5 41 6 10 7 11 8 12 9 14 10 13 11 32 12
REMARK SMILES IDX 34 13 36 14 15 15 16 16 29 17 28 18 21 19 17 20 19 21 30 22
REMARK SMILES IDX 31 23 22 25 23 26 24 27 25 28 26 29 27 30 18 31 20 33 33 35
REMARK SMILES IDX 35 37 37 39 38 41 39 42 40 43 7 45 43 47 44 48 45 50 46 51
REMARK SMILES IDX 47 53 48 54 49 55 50 57 51 58 52 59 53 60 54 61 66 62 55 63
REMARK SMILES IDX 65 64 56 65 57 66 64 67 58 68 63 69 59 70 62 71 60 72 61 73
REMARK SMILES IDX 4 75 2 76 1 78 3 79
REMARK H PARENT 31 24 18 32 20 34 33 36 35 38 37 40 40 44 7 46 44 49 46 52
REMARK H PARENT 48 56 60 74 4 77
REMARK Flexibility Score: inf
ROOT
ATOM      1  C   UNL     1      28.034  20.671  16.416  1.00  0.00     0.272 C 
ATOM      2  C   UNL     1      28.397  19.575  17.351  1.00  0.00     0.113 C 
ATOM      3  C   UNL     1      29.107  20.004  18.609  1.00  0.00     0.145 C 
ATOM      4  C   UNL     1      28.126  20.994  19.292  1.00  0.00     0.142 C 
ATOM      5  C   UNL     1      27.862  22.035  18.273  1.00  0.00     0.178 C 
ATOM      6  O   UNL     1      27.329  21.667  17.087  1.00  0.00    -0.332 OA
ENDROOT
BRANCH   1   7
ATOM      7  O   UNL     1      27.193  20.136  15.416  1.00  0.00    -0.338 OA
BRANCH   7   8
ATOM      8  C   UNL     1      26.060  20.838  15.169  1.00  0.00     0.199 C 
BRANCH   8   9
ATOM      9  C   UNL     1      25.543  20.613  13.731  1.00  0.00     0.179 C 
ATOM     10  C   UNL     1      23.329  20.564  13.050  1.00  0.00     0.282 C 
ATOM     11  O   UNL     1      24.374  19.913  13.729  1.00  0.00    -0.341 OA
ATOM     12  C   UNL     1      23.070  21.833  13.795  1.00  0.00     0.202 C 
ATOM     13  C   UNL     1      24.267  22.752  13.513  1.00  0.00     0.179 C 
ATOM     14  C   UNL     1      25.443  21.951  13.024  1.00  0.00     0.177 C 
BRANCH  10  15
ATOM     15  O   UNL     1      22.249  19.707  12.939  1.00  0.00    -0.341 OA
BRANCH  15  16
ATOM     16  C   UNL     1      21.863  19.614  11.608  1.00  0.00     0.184 C 
ATOM     17  C   UNL     1      20.419  19.271  11.397  1.00  0.00     0.178 C 
ATOM     18  O   UNL     1      20.098  19.287  10.092  1.00  0.00    -0.341 OA
ATOM     19  C   UNL     1      21.047  19.204   9.124  1.00  0.00     0.281 C 
ATOM     20  C   UNL     1      22.604  18.437  10.945  1.00  0.00     0.180 C 
ATOM     21  C   UNL     1      22.314  18.507   9.485  1.00  0.00     0.202 C 
BRANCH  17  22
ATOM     22  C   UNL     1      19.452  20.149  12.164  1.00  0.00     0.191 C 
BRANCH  22  23
ATOM     23  O   UNL     1      19.795  21.486  12.095  1.00  0.00    -0.394 OA
ATOM     24  H   UNL     1      19.510  21.790  11.180  1.00  0.00     0.210 HD
ENDBRANCH  22  23
ENDBRANCH  17  22
BRANCH  19  25
ATOM     25  O   UNL     1      21.301  20.479   8.682  1.00  0.00    -0.350 OA
BRANCH  25  26
ATOM     26  C   UNL     1      20.239  21.241   8.338  1.00  0.00     0.169 C 
BRANCH  26  27
ATOM     27  C   UNL     1      20.401  22.699   8.623  1.00  0.00     0.119 C 
BRANCH  27  28
ATOM     28  N   UNL     1      20.769  23.029   9.968  1.00  0.00    -0.092 NA
ATOM     29  N   UNL     1      21.302  24.073  10.289  1.00  0.00     0.001 N 
ATOM     30  N   UNL     1      22.150  24.949  10.573  1.00  0.00    -0.003 NA
ENDBRANCH  27  28
ENDBRANCH  26  27
ENDBRANCH  25  26
ENDBRANCH  19  25
BRANCH  20  31
ATOM     31  O   UNL     1      23.944  18.457  11.221  1.00  0.00    -0.387 OA
ATOM     32  H   UNL     1      24.155  18.606  12.179  1.00  0.00     0.211 HD
ENDBRANCH  20  31
BRANCH  21  33
ATOM     33  O   UNL     1      22.330  17.189   8.993  1.00  0.00    -0.385 OA
ATOM     34  H   UNL     1      22.735  17.144   8.090  1.00  0.00     0.211 HD
ENDBRANCH  21  33
ENDBRANCH  15  16
ENDBRANCH  10  15
BRANCH  12  35
ATOM     35  O   UNL     1      21.886  22.466  13.514  1.00  0.00    -0.385 OA
ATOM     36  H   UNL     1      21.561  22.260  12.584  1.00  0.00     0.211 HD
ENDBRANCH  12  35
BRANCH  13  37
ATOM     37  O   UNL     1      24.544  23.581  14.581  1.00  0.00    -0.387 OA
ATOM     38  H   UNL     1      23.679  23.722  15.072  1.00  0.00     0.211 HD
ENDBRANCH  13  37
BRANCH  14  39
ATOM     39  O   UNL     1      26.602  22.689  13.373  1.00  0.00    -0.387 OA
ATOM     40  H   UNL     1      26.481  23.645  13.273  1.00  0.00     0.211 HD
ENDBRANCH  14  39
ENDBRANCH   8   9
ENDBRANCH   7   8
ENDBRANCH   1   7
BRANCH   1  41
ATOM     41  C   UNL     1      29.195  21.359  15.791  1.00  0.00     0.364 C 
ATOM     42  O   UNL     1      30.323  20.766  15.870  1.00  0.00    -0.246 OA
BRANCH  41  43
ATOM     43  O   UNL     1      29.196  22.555  15.143  1.00  0.00    -0.477 OA
ATOM     44  H   UNL     1      29.008  22.658  14.145  1.00  0.00     0.296 HD
ENDBRANCH  41  43
ENDBRANCH   1  41
BRANCH   3  45
ATOM     45  O   UNL     1      29.288  18.891  19.408  1.00  0.00    -0.391 OA
ATOM     46  H   UNL     1      28.469  18.684  19.951  1.00  0.00     0.211 HD
ENDBRANCH   3  45
BRANCH   5  47
ATOM     47  C   UNL     1      27.232  23.254  18.877  1.00  0.00     0.176 C 
BRANCH  47  48
ATOM     48  O   UNL     1      28.349  24.145  19.081  1.00  0.00    -0.388 OA
ATOM     49  H   UNL     1      28.531  24.247  20.037  1.00  0.00     0.211 HD
ENDBRANCH  47  48
BRANCH  47  50
ATOM     50  C   UNL     1      26.300  24.024  17.974  1.00  0.00     0.165 C 
BRANCH  50  51
ATOM     51  O   UNL     1      27.147  24.657  17.022  1.00  0.00    -0.388 OA
ATOM     52  H   UNL     1      26.781  24.620  16.121  1.00  0.00     0.211 HD
ENDBRANCH  50  51
BRANCH  50  53
ATOM     53  C   UNL     1      25.468  25.058  18.632  1.00  0.00     0.154 C 
BRANCH  53  54
ATOM     54  N   UNL     1      24.485  24.630  19.563  1.00  0.00    -0.319 N 
ATOM     55  C   UNL     1      23.104  24.436  19.327  1.00  0.00     0.407 C 
ATOM     56  H   UNL     1      24.789  24.418  20.567  1.00  0.00     0.167 HD
ATOM     57  O   UNL     1      22.608  24.624  18.212  1.00  0.00    -0.225 OA
BRANCH  55  58
ATOM     58  O   UNL     1      22.273  24.023  20.365  1.00  0.00    -0.443 OA
BRANCH  58  59
ATOM     59  C   UNL     1      21.904  24.789  21.471  1.00  0.00     0.294 C 
BRANCH  59  60
ATOM     60  C   UNL     1      22.785  24.658  22.639  1.00  0.00     0.121 A 
ATOM     61  C   UNL     1      22.469  24.969  23.942  1.00  0.00     0.144 A 
ATOM     62  N   UNL     1      24.062  24.220  22.631  1.00  0.00    -0.131 NA
ATOM     63  N   UNL     1      23.567  24.704  24.654  1.00  0.00    -0.220 N 
ATOM     64  N   UNL     1      24.511  24.255  23.848  1.00  0.00    -0.062 NA
BRANCH  63  65
ATOM     65  C   UNL     1      23.685  24.886  26.065  1.00  0.00     0.067 A 
ATOM     66  C   UNL     1      22.643  24.577  26.911  1.00  0.00     0.030 A 
ATOM     67  C   UNL     1      24.850  25.381  26.606  1.00  0.00     0.040 A 
ATOM     68  C   UNL     1      22.758  24.757  28.267  1.00  0.00     0.030 A 
ATOM     69  C   UNL     1      24.949  25.557  27.984  1.00  0.00     0.022 A 
ATOM     70  C   UNL     1      23.911  25.251  28.847  1.00  0.00     0.065 A 
ATOM     71  C   UNL     1      25.991  26.026  28.750  1.00  0.00     0.143 A 
ATOM     72  N   UNL     1      24.321  25.530  30.096  1.00  0.00    -0.278 N 
ATOM     73  N   UNL     1      25.550  25.985  30.018  1.00  0.00    -0.183 NA
ATOM     74  H   UNL     1      23.737  25.396  30.957  1.00  0.00     0.190 HD
ENDBRANCH  63  65
ENDBRANCH  59  60
ENDBRANCH  58  59
ENDBRANCH  55  58
ENDBRANCH  53  54
ENDBRANCH  50  53
ENDBRANCH  47  50
ENDBRANCH   5  47
BRANCH   4  75
ATOM     75  N   UNL     1      28.953  21.566  20.360  1.00  0.00    -0.348 N 
ATOM     76  C   UNL     1      28.771  21.118  21.670  1.00  0.00     0.217 C 
ATOM     77  H   UNL     1      29.664  22.291  20.173  1.00  0.00     0.163 HD
ATOM     78  C   UNL     1      29.571  21.655  22.821  1.00  0.00     0.114 C 
ATOM     79  O   UNL     1      27.901  20.218  21.910  1.00  0.00    -0.275 OA
ENDBRANCH   4  75
TORSDOF 30
