REMARK VINA RESULT:    -6.183      9.408     13.640
REMARK INTER + INTRA:         -21.947
REMARK INTER:                 -13.197
REMARK INTRA:                  -8.750
REMARK UNBOUND:                -6.367
REMARK SMILES CC(=O)N[C@@H]1[C@@H](O)C[C@](OC[C@H]2O[C@@H](O[C@H]3[C@H](O)[C@@H](O)[C@H](OCCN=[N+]=[N-])O[C@@H]3CO)[C@H](O)[C@@H](O)[C@H]2O)(C(=O)O)O[C@H]1C(O)[C@H](O)CNC(=O)OCc1cn(-c2ncn3c2c(=O)n(C(C)C)c2ccccc23)nn1
REMARK SMILES IDX 9 1 8 2 6 3 5 4 42 5 41 6 10 7 11 8 12 9 14 10 13 11 32 12
REMARK SMILES IDX 34 13 36 14 15 15 16 16 29 17 28 18 21 19 17 20 19 21 30 22
REMARK SMILES IDX 31 23 22 25 23 26 24 27 25 28 26 29 27 30 18 31 20 33 33 35
REMARK SMILES IDX 35 37 37 39 38 41 39 42 40 43 7 45 43 47 44 48 45 50 46 51
REMARK SMILES IDX 47 53 48 54 49 55 50 57 51 58 52 59 53 60 54 61 74 62 55 63
REMARK SMILES IDX 73 64 56 65 57 66 60 67 58 68 59 69 61 70 72 71 63 72 62 73
REMARK SMILES IDX 71 74 67 75 70 76 68 77 69 78 64 79 65 80 66 81 4 82 2 83
REMARK SMILES IDX 1 85 3 86
REMARK H PARENT 31 24 18 32 20 34 33 36 35 38 37 40 40 44 7 46 44 49 46 52
REMARK H PARENT 48 56 4 84
REMARK Flexibility Score: inf
ROOT
ATOM      1  C   UNL     1      14.956  29.424  20.362  1.00  0.00     0.272 C 
ATOM      2  C   UNL     1      13.584  29.979  20.088  1.00  0.00     0.113 C 
ATOM      3  C   UNL     1      13.342  31.269  20.753  1.00  0.00     0.145 C 
ATOM      4  C   UNL     1      14.474  32.251  20.654  1.00  0.00     0.142 C 
ATOM      5  C   UNL     1      15.811  31.616  20.524  1.00  0.00     0.178 C 
ATOM      6  O   UNL     1      15.892  30.421  19.943  1.00  0.00    -0.332 OA
ENDROOT
BRANCH   1   7
ATOM      7  O   UNL     1      15.165  28.448  19.427  1.00  0.00    -0.338 OA
BRANCH   7   8
ATOM      8  C   UNL     1      16.279  27.825  19.169  1.00  0.00     0.199 C 
BRANCH   8   9
ATOM      9  C   UNL     1      17.053  27.886  17.897  1.00  0.00     0.179 C 
ATOM     10  C   UNL     1      17.088  29.230  15.996  1.00  0.00     0.282 C 
ATOM     11  O   UNL     1      16.490  29.010  17.208  1.00  0.00    -0.341 OA
ATOM     12  C   UNL     1      18.553  29.603  16.133  1.00  0.00     0.202 C 
ATOM     13  C   UNL     1      19.288  28.586  16.988  1.00  0.00     0.179 C 
ATOM     14  C   UNL     1      18.478  28.334  18.230  1.00  0.00     0.177 C 
BRANCH  10  15
ATOM     15  O   UNL     1      16.431  30.304  15.407  1.00  0.00    -0.341 OA
BRANCH  15  16
ATOM     16  C   UNL     1      15.611  29.887  14.391  1.00  0.00     0.184 C 
ATOM     17  C   UNL     1      15.078  31.051  13.637  1.00  0.00     0.178 C 
ATOM     18  O   UNL     1      13.815  31.466  13.973  1.00  0.00    -0.341 OA
ATOM     19  C   UNL     1      13.403  31.180  15.248  1.00  0.00     0.281 C 
ATOM     20  C   UNL     1      14.519  28.950  14.863  1.00  0.00     0.180 C 
ATOM     21  C   UNL     1      13.460  29.708  15.575  1.00  0.00     0.202 C 
BRANCH  17  22
ATOM     22  C   UNL     1      15.150  30.798  12.146  1.00  0.00     0.191 C 
BRANCH  22  23
ATOM     23  O   UNL     1      13.835  30.440  11.763  1.00  0.00    -0.394 OA
ATOM     24  H   UNL     1      13.763  30.656  10.805  1.00  0.00     0.210 HD
ENDBRANCH  22  23
ENDBRANCH  17  22
BRANCH  19  25
ATOM     25  O   UNL     1      12.045  31.536  15.336  1.00  0.00    -0.350 OA
BRANCH  25  26
ATOM     26  C   UNL     1      11.424  31.675  14.124  1.00  0.00     0.169 C 
BRANCH  26  27
ATOM     27  C   UNL     1      10.391  30.643  13.797  1.00  0.00     0.119 C 
BRANCH  27  28
ATOM     28  N   UNL     1      10.859  29.978  12.571  1.00  0.00    -0.092 NA
ATOM     29  N   UNL     1      10.934  28.774  12.445  1.00  0.00     0.001 N 
ATOM     30  N   UNL     1      11.310  27.605  12.313  1.00  0.00    -0.003 NA
ENDBRANCH  27  28
ENDBRANCH  26  27
ENDBRANCH  25  26
ENDBRANCH  19  25
BRANCH  20  31
ATOM     31  O   UNL     1      14.046  28.221  13.765  1.00  0.00    -0.387 OA
ATOM     32  H   UNL     1      13.091  28.505  13.661  1.00  0.00     0.211 HD
ENDBRANCH  20  31
BRANCH  21  33
ATOM     33  O   UNL     1      13.710  29.583  16.954  1.00  0.00    -0.385 OA
ATOM     34  H   UNL     1      13.276  30.311  17.472  1.00  0.00     0.211 HD
ENDBRANCH  21  33
ENDBRANCH  15  16
ENDBRANCH  10  15
BRANCH  12  35
ATOM     35  O   UNL     1      19.123  29.527  14.865  1.00  0.00    -0.385 OA
ATOM     36  H   UNL     1      19.025  30.367  14.358  1.00  0.00     0.211 HD
ENDBRANCH  12  35
BRANCH  13  37
ATOM     37  O   UNL     1      20.478  29.209  17.410  1.00  0.00    -0.387 OA
ATOM     38  H   UNL     1      20.882  29.720  16.655  1.00  0.00     0.211 HD
ENDBRANCH  13  37
BRANCH  14  39
ATOM     39  O   UNL     1      18.384  29.587  18.891  1.00  0.00    -0.387 OA
ATOM     40  H   UNL     1      17.854  30.219  18.348  1.00  0.00     0.211 HD
ENDBRANCH  14  39
ENDBRANCH   8   9
ENDBRANCH   7   8
ENDBRANCH   1   7
BRANCH   1  41
ATOM     41  C   UNL     1      15.231  29.134  21.762  1.00  0.00     0.364 C 
ATOM     42  O   UNL     1      16.332  29.255  22.300  1.00  0.00    -0.246 OA
BRANCH  41  43
ATOM     43  O   UNL     1      14.203  28.680  22.609  1.00  0.00    -0.477 OA
ATOM     44  H   UNL     1      14.327  28.728  23.613  1.00  0.00     0.296 HD
ENDBRANCH  41  43
ENDBRANCH   1  41
BRANCH   3  45
ATOM     45  O   UNL     1      12.187  31.830  20.147  1.00  0.00    -0.391 OA
ATOM     46  H   UNL     1      12.436  32.397  19.382  1.00  0.00     0.211 HD
ENDBRANCH   3  45
BRANCH   5  47
ATOM     47  C   UNL     1      16.829  32.545  19.888  1.00  0.00     0.176 C 
BRANCH  47  48
ATOM     48  O   UNL     1      16.935  33.700  20.631  1.00  0.00    -0.388 OA
ATOM     49  H   UNL     1      17.567  33.626  21.390  1.00  0.00     0.211 HD
ENDBRANCH  47  48
BRANCH  47  50
ATOM     50  C   UNL     1      16.574  32.858  18.456  1.00  0.00     0.165 C 
BRANCH  50  51
ATOM     51  O   UNL     1      15.773  31.985  17.771  1.00  0.00    -0.388 OA
ATOM     52  H   UNL     1      16.198  31.571  16.986  1.00  0.00     0.211 HD
ENDBRANCH  50  51
BRANCH  50  53
ATOM     53  C   UNL     1      17.815  33.151  17.670  1.00  0.00     0.154 C 
BRANCH  53  54
ATOM     54  N   UNL     1      18.957  32.403  18.209  1.00  0.00    -0.319 N 
ATOM     55  C   UNL     1      20.287  32.704  17.875  1.00  0.00     0.407 C 
ATOM     56  H   UNL     1      18.781  31.598  18.883  1.00  0.00     0.167 HD
ATOM     57  O   UNL     1      20.562  33.634  17.074  1.00  0.00    -0.225 OA
BRANCH  55  58
ATOM     58  O   UNL     1      21.306  31.937  18.459  1.00  0.00    -0.443 OA
BRANCH  58  59
ATOM     59  C   UNL     1      21.610  32.073  19.818  1.00  0.00     0.294 C 
BRANCH  59  60
ATOM     60  C   UNL     1      21.017  30.963  20.655  1.00  0.00     0.121 A 
ATOM     61  C   UNL     1      21.702  29.907  21.211  1.00  0.00     0.146 A 
ATOM     62  N   UNL     1      19.736  30.795  21.021  1.00  0.00    -0.131 NA
ATOM     63  N   UNL     1      20.829  29.117  21.903  1.00  0.00    -0.200 N 
ATOM     64  N   UNL     1      19.651  29.692  21.760  1.00  0.00    -0.060 NA
BRANCH  63  65
ATOM     65  C   UNL     1      21.170  27.930  22.619  1.00  0.00     0.186 A 
ATOM     66  N   UNL     1      21.204  26.696  22.088  1.00  0.00    -0.216 NA
ATOM     67  C   UNL     1      21.510  27.755  23.937  1.00  0.00     0.158 A 
ATOM     68  C   UNL     1      21.548  25.801  23.034  1.00  0.00     0.207 A 
ATOM     69  N   UNL     1      21.745  26.446  24.204  1.00  0.00    -0.291 N 
ATOM     70  C   UNL     1      21.628  28.682  24.941  1.00  0.00     0.279 A 
ATOM     71  C   UNL     1      22.093  26.031  25.435  1.00  0.00     0.071 A 
ATOM     72  N   UNL     1      21.978  28.293  26.194  1.00  0.00    -0.302 N 
ATOM     73  O   UNL     1      21.415  29.914  24.720  1.00  0.00    -0.267 OA
ATOM     74  C   UNL     1      22.325  24.710  25.707  1.00  0.00     0.029 A 
ATOM     75  C   UNL     1      22.204  26.981  26.426  1.00  0.00     0.068 A 
ATOM     76  C   UNL     1      22.682  24.276  26.994  1.00  0.00     0.002 A 
ATOM     77  C   UNL     1      22.557  26.549  27.691  1.00  0.00     0.028 A 
ATOM     78  C   UNL     1      22.797  25.214  27.993  1.00  0.00     0.002 A 
BRANCH  72  79
ATOM     79  C   UNL     1      22.114  29.282  27.264  1.00  0.00     0.085 C 
ATOM     80  C   UNL     1      23.209  30.270  27.029  1.00  0.00     0.031 C 
ATOM     81  C   UNL     1      20.790  29.894  27.647  1.00  0.00     0.031 C 
ENDBRANCH  72  79
ENDBRANCH  63  65
ENDBRANCH  59  60
ENDBRANCH  58  59
ENDBRANCH  55  58
ENDBRANCH  53  54
ENDBRANCH  50  53
ENDBRANCH  47  50
ENDBRANCH   5  47
BRANCH   4  82
ATOM     82  N   UNL     1      14.389  33.160  21.779  1.00  0.00    -0.348 N 
ATOM     83  C   UNL     1      14.214  34.555  21.640  1.00  0.00     0.217 C 
ATOM     84  H   UNL     1      14.459  32.784  22.755  1.00  0.00     0.163 HD
ATOM     85  C   UNL     1      14.130  35.480  22.809  1.00  0.00     0.114 C 
ATOM     86  O   UNL     1      14.129  35.024  20.468  1.00  0.00    -0.275 OA
ENDBRANCH   4  82
TORSDOF 31
