REMARK VINA RESULT:    -6.081      3.310      9.752
REMARK INTER + INTRA:         -23.082
REMARK INTER:                 -14.329
REMARK INTRA:                  -8.752
REMARK UNBOUND:                -7.759
REMARK SMILES CC(=O)N[C@@H]1[C@@H](O)C[C@](OC[C@H]2O[C@@H](O[C@H]3[C@H](O)[C@@H](O)[C@H](OCCN=[N+]=[N-])O[C@@H]3CO)[C@H](O)[C@@H](O)[C@H]2O)(C(=O)O)O[C@H]1C(O)[C@H](O)CNC(=O)OCc1cn(-c2cc(Cl)ccc2C(=O)N(C)C)nn1
REMARK SMILES IDX 9 1 8 2 6 3 5 4 42 5 41 6 10 7 11 8 12 9 14 10 13 11 32 12
REMARK SMILES IDX 34 13 36 14 15 15 16 16 29 17 28 18 21 19 17 20 19 21 30 22
REMARK SMILES IDX 31 23 22 25 23 26 24 27 25 28 26 29 27 30 18 31 20 33 33 35
REMARK SMILES IDX 35 37 37 39 38 41 39 42 40 43 7 45 43 47 44 48 45 50 46 51
REMARK SMILES IDX 47 53 48 54 49 55 50 57 51 58 52 59 53 60 54 61 69 62 55 63
REMARK SMILES IDX 68 64 56 65 57 66 62 67 58 68 61 69 59 70 60 71 63 72 64 73
REMARK SMILES IDX 65 74 66 75 67 76 4 77 2 78 1 80 3 81
REMARK H PARENT 31 24 18 32 20 34 33 36 35 38 37 40 40 44 7 46 44 49 46 52
REMARK H PARENT 48 56 4 79
REMARK Flexibility Score: inf
ROOT
ATOM      1  C   UNL     1      23.415  25.426  22.311  1.00  0.00     0.272 C 
ATOM      2  C   UNL     1      22.757  24.274  22.973  1.00  0.00     0.113 C 
ATOM      3  C   UNL     1      21.428  24.693  23.548  1.00  0.00     0.145 C 
ATOM      4  C   UNL     1      21.714  25.793  24.542  1.00  0.00     0.142 C 
ATOM      5  C   UNL     1      22.461  26.900  23.927  1.00  0.00     0.178 C 
ATOM      6  O   UNL     1      23.225  26.668  22.828  1.00  0.00    -0.332 OA
ENDROOT
BRANCH   1   7
ATOM      7  O   UNL     1      23.093  25.497  20.966  1.00  0.00    -0.338 OA
BRANCH   7   8
ATOM      8  C   UNL     1      22.948  24.349  20.270  1.00  0.00     0.199 C 
BRANCH   8   9
ATOM      9  C   UNL     1      23.018  24.649  18.764  1.00  0.00     0.179 C 
ATOM     10  C   UNL     1      22.864  26.521  17.427  1.00  0.00     0.282 C 
ATOM     11  O   UNL     1      22.281  25.769  18.513  1.00  0.00    -0.341 OA
ATOM     12  C   UNL     1      23.229  25.521  16.354  1.00  0.00     0.202 C 
ATOM     13  C   UNL     1      24.395  24.655  16.782  1.00  0.00     0.179 C 
ATOM     14  C   UNL     1      24.411  24.585  18.298  1.00  0.00     0.177 C 
BRANCH  10  15
ATOM     15  O   UNL     1      23.871  27.204  17.960  1.00  0.00    -0.341 OA
BRANCH  15  16
ATOM     16  C   UNL     1      23.991  28.576  17.825  1.00  0.00     0.184 C 
ATOM     17  C   UNL     1      22.965  29.178  18.729  1.00  0.00     0.178 C 
ATOM     18  O   UNL     1      23.004  30.581  18.638  1.00  0.00    -0.341 OA
ATOM     19  C   UNL     1      22.344  30.799  17.380  1.00  0.00     0.281 C 
ATOM     20  C   UNL     1      23.743  28.989  16.397  1.00  0.00     0.180 C 
ATOM     21  C   UNL     1      23.282  30.412  16.298  1.00  0.00     0.202 C 
BRANCH  17  22
ATOM     22  C   UNL     1      23.181  28.755  20.167  1.00  0.00     0.191 C 
BRANCH  22  23
ATOM     23  O   UNL     1      24.418  28.154  20.267  1.00  0.00    -0.394 OA
ATOM     24  H   UNL     1      25.078  28.795  20.633  1.00  0.00     0.210 HD
ENDBRANCH  22  23
ENDBRANCH  17  22
BRANCH  19  25
ATOM     25  O   UNL     1      21.944  32.078  17.341  1.00  0.00    -0.350 OA
BRANCH  25  26
ATOM     26  C   UNL     1      20.589  32.289  17.531  1.00  0.00     0.169 C 
BRANCH  26  27
ATOM     27  C   UNL     1      19.728  31.107  17.135  1.00  0.00     0.119 C 
BRANCH  27  28
ATOM     28  N   UNL     1      19.077  30.533  18.293  1.00  0.00    -0.092 NA
ATOM     29  N   UNL     1      19.235  29.351  18.576  1.00  0.00     0.001 N 
ATOM     30  N   UNL     1      19.584  28.166  18.754  1.00  0.00    -0.003 NA
ENDBRANCH  27  28
ENDBRANCH  26  27
ENDBRANCH  25  26
ENDBRANCH  19  25
BRANCH  20  31
ATOM     31  O   UNL     1      24.904  28.884  15.622  1.00  0.00    -0.387 OA
ATOM     32  H   UNL     1      25.404  28.047  15.853  1.00  0.00     0.211 HD
ENDBRANCH  20  31
BRANCH  21  33
ATOM     33  O   UNL     1      22.678  30.602  15.058  1.00  0.00    -0.385 OA
ATOM     34  H   UNL     1      22.769  31.515  14.712  1.00  0.00     0.211 HD
ENDBRANCH  21  33
ENDBRANCH  15  16
ENDBRANCH  10  15
BRANCH  12  35
ATOM     35  O   UNL     1      22.117  24.665  16.216  1.00  0.00    -0.385 OA
ATOM     36  H   UNL     1      22.346  23.724  16.500  1.00  0.00     0.211 HD
ENDBRANCH  12  35
BRANCH  13  37
ATOM     37  O   UNL     1      25.619  25.091  16.349  1.00  0.00    -0.387 OA
ATOM     38  H   UNL     1      25.889  24.716  15.476  1.00  0.00     0.211 HD
ENDBRANCH  13  37
BRANCH  14  39
ATOM     39  O   UNL     1      25.334  25.395  18.896  1.00  0.00    -0.387 OA
ATOM     40  H   UNL     1      24.968  26.047  19.534  1.00  0.00     0.211 HD
ENDBRANCH  14  39
ENDBRANCH   8   9
ENDBRANCH   7   8
ENDBRANCH   1   7
BRANCH   1  41
ATOM     41  C   UNL     1      24.932  25.158  22.301  1.00  0.00     0.364 C 
ATOM     42  O   UNL     1      25.311  24.146  22.934  1.00  0.00    -0.246 OA
BRANCH  41  43
ATOM     43  O   UNL     1      25.831  25.950  21.659  1.00  0.00    -0.477 OA
ATOM     44  H   UNL     1      26.730  26.208  22.002  1.00  0.00     0.296 HD
ENDBRANCH  41  43
ENDBRANCH   1  41
BRANCH   3  45
ATOM     45  O   UNL     1      20.570  25.031  22.541  1.00  0.00    -0.391 OA
ATOM     46  H   UNL     1      20.600  25.932  22.202  1.00  0.00     0.211 HD
ENDBRANCH   3  45
BRANCH   5  47
ATOM     47  C   UNL     1      21.644  28.148  23.618  1.00  0.00     0.176 C 
BRANCH  47  48
ATOM     48  O   UNL     1      20.762  28.013  22.583  1.00  0.00    -0.388 OA
ATOM     49  H   UNL     1      20.234  28.829  22.372  1.00  0.00     0.211 HD
ENDBRANCH  47  48
BRANCH  47  50
ATOM     50  C   UNL     1      20.993  28.799  24.781  1.00  0.00     0.165 C 
BRANCH  50  51
ATOM     51  O   UNL     1      19.642  29.136  24.526  1.00  0.00    -0.388 OA
ATOM     52  H   UNL     1      19.248  29.626  25.286  1.00  0.00     0.211 HD
ENDBRANCH  50  51
BRANCH  50  53
ATOM     53  C   UNL     1      21.662  30.186  24.922  1.00  0.00     0.154 C 
BRANCH  53  54
ATOM     54  N   UNL     1      20.903  31.178  24.213  1.00  0.00    -0.319 N 
ATOM     55  C   UNL     1      21.405  31.797  23.051  1.00  0.00     0.407 C 
ATOM     56  H   UNL     1      19.937  31.478  24.541  1.00  0.00     0.167 HD
ATOM     57  O   UNL     1      22.525  31.483  22.586  1.00  0.00    -0.225 OA
BRANCH  55  58
ATOM     58  O   UNL     1      20.671  32.782  22.381  1.00  0.00    -0.443 OA
BRANCH  58  59
ATOM     59  C   UNL     1      19.894  32.487  21.254  1.00  0.00     0.294 C 
BRANCH  59  60
ATOM     60  C   UNL     1      18.909  31.402  21.549  1.00  0.00     0.121 A 
ATOM     61  C   UNL     1      17.510  31.580  21.539  1.00  0.00     0.144 A 
ATOM     62  N   UNL     1      19.099  30.129  21.858  1.00  0.00    -0.131 NA
ATOM     63  N   UNL     1      16.932  30.426  21.837  1.00  0.00    -0.219 N 
ATOM     64  N   UNL     1      17.934  29.557  22.028  1.00  0.00    -0.062 NA
BRANCH  63  65
ATOM     65  C   UNL     1      15.576  30.040  21.960  1.00  0.00     0.081 A 
ATOM     66  C   UNL     1      14.825  30.516  23.043  1.00  0.00     0.049 A 
ATOM     67  C   UNL     1      14.923  29.196  21.109  1.00  0.00     0.065 A 
ATOM     68  C   UNL     1      13.531  30.151  23.225  1.00  0.00     0.043 A 
ATOM     69  C   UNL     1      13.581  28.815  21.298  1.00  0.00     0.017 A 
ATOM     70  Cl  UNL     1      12.647  30.785  24.606  1.00  0.00    -0.084 Cl
ATOM     71  C   UNL     1      12.879  29.303  22.373  1.00  0.00     0.021 A 
BRANCH  67  72
ATOM     72  C   UNL     1      15.571  28.663  19.907  1.00  0.00     0.255 C 
ATOM     73  O   UNL     1      16.210  27.595  19.996  1.00  0.00    -0.269 OA
ATOM     74  N   UNL     1      15.469  29.343  18.689  1.00  0.00    -0.345 N 
ATOM     75  C   UNL     1      14.719  30.592  18.601  1.00  0.00     0.146 C 
ATOM     76  C   UNL     1      16.096  28.829  17.474  1.00  0.00     0.146 C 
ENDBRANCH  67  72
ENDBRANCH  63  65
ENDBRANCH  59  60
ENDBRANCH  58  59
ENDBRANCH  55  58
ENDBRANCH  53  54
ENDBRANCH  50  53
ENDBRANCH  47  50
ENDBRANCH   5  47
BRANCH   4  77
ATOM     77  N   UNL     1      22.429  25.163  25.656  1.00  0.00    -0.348 N 
ATOM     78  C   UNL     1      22.281  25.592  26.992  1.00  0.00     0.217 C 
ATOM     79  H   UNL     1      23.075  24.371  25.471  1.00  0.00     0.163 HD
ATOM     80  C   UNL     1      23.002  24.961  28.124  1.00  0.00     0.114 C 
ATOM     81  O   UNL     1      21.503  26.552  27.236  1.00  0.00    -0.275 OA
ENDBRANCH   4  77
TORSDOF 31
