REMARK VINA RESULT:    -6.331      2.820      8.160
REMARK INTER + INTRA:         -21.626
REMARK INTER:                 -14.172
REMARK INTRA:                  -7.454
REMARK UNBOUND:                -6.043
REMARK SMILES CC(=O)N[C@@H]1[C@@H](O)C[C@](OC[C@H]2O[C@@H](O[C@H]3[C@H](O)[C@@H](O)[C@H](OCCN=[N+]=[N-])O[C@@H]3CO)[C@H](O)[C@@H](O)[C@H]2O)(C(=O)O)O[C@H]1C(O)[C@H](O)CNC(=O)OCc1cn(-c2ccccc2I)nn1
REMARK SMILES IDX 9 1 8 2 6 3 5 4 42 5 41 6 10 7 11 8 12 9 14 10 13 11 32 12
REMARK SMILES IDX 34 13 36 14 15 15 16 16 29 17 28 18 21 19 17 20 19 21 30 22
REMARK SMILES IDX 31 23 22 25 23 26 24 27 25 28 26 29 27 30 18 31 20 33 33 35
REMARK SMILES IDX 35 37 37 39 38 41 39 42 40 43 7 45 43 47 44 48 45 50 46 51
REMARK SMILES IDX 47 53 48 54 49 55 50 57 51 58 52 59 53 60 54 61 64 62 55 63
REMARK SMILES IDX 63 64 56 65 57 66 61 67 58 68 60 69 62 70 59 71 4 72 2 73
REMARK SMILES IDX 1 75 3 76
REMARK H PARENT 31 24 18 32 20 34 33 36 35 38 37 40 40 44 7 46 44 49 46 52
REMARK H PARENT 48 56 4 74
REMARK Flexibility Score: inf
ROOT
ATOM      1  C   UNL     1      14.948  29.807  22.553  1.00  0.00     0.272 C 
ATOM      2  C   UNL     1      13.565  29.930  23.128  1.00  0.00     0.113 C 
ATOM      3  C   UNL     1      12.699  30.891  22.296  1.00  0.00     0.145 C 
ATOM      4  C   UNL     1      13.389  32.278  22.450  1.00  0.00     0.142 C 
ATOM      5  C   UNL     1      14.847  32.122  22.121  1.00  0.00     0.178 C 
ATOM      6  O   UNL     1      15.030  30.849  21.568  1.00  0.00    -0.332 OA
ENDROOT
BRANCH   1   7
ATOM      7  O   UNL     1      15.247  28.690  21.839  1.00  0.00    -0.338 OA
BRANCH   7   8
ATOM      8  C   UNL     1      15.420  28.565  20.557  1.00  0.00     0.199 C 
BRANCH   8   9
ATOM      9  C   UNL     1      16.639  27.954  19.991  1.00  0.00     0.179 C 
ATOM     10  C   UNL     1      16.950  28.602  17.823  1.00  0.00     0.282 C 
ATOM     11  O   UNL     1      16.633  27.589  18.686  1.00  0.00    -0.341 OA
ATOM     12  C   UNL     1      18.449  28.875  17.838  1.00  0.00     0.202 C 
ATOM     13  C   UNL     1      18.972  28.550  19.257  1.00  0.00     0.179 C 
ATOM     14  C   UNL     1      17.865  28.885  20.238  1.00  0.00     0.177 C 
BRANCH  10  15
ATOM     15  O   UNL     1      16.146  29.696  17.784  1.00  0.00    -0.341 OA
BRANCH  15  16
ATOM     16  C   UNL     1      15.355  29.827  16.666  1.00  0.00     0.184 C 
ATOM     17  C   UNL     1      15.878  30.749  15.597  1.00  0.00     0.178 C 
ATOM     18  O   UNL     1      14.830  31.223  14.812  1.00  0.00    -0.341 OA
ATOM     19  C   UNL     1      13.743  30.345  14.732  1.00  0.00     0.281 C 
ATOM     20  C   UNL     1      14.063  30.532  17.136  1.00  0.00     0.180 C 
ATOM     21  C   UNL     1      13.040  30.207  16.057  1.00  0.00     0.202 C 
BRANCH  17  22
ATOM     22  C   UNL     1      17.004  30.201  14.783  1.00  0.00     0.191 C 
BRANCH  22  23
ATOM     23  O   UNL     1      16.859  28.808  14.770  1.00  0.00    -0.394 OA
ATOM     24  H   UNL     1      17.749  28.409  14.969  1.00  0.00     0.210 HD
ENDBRANCH  22  23
ENDBRANCH  17  22
BRANCH  19  25
ATOM     25  O   UNL     1      14.061  29.161  14.140  1.00  0.00    -0.350 OA
BRANCH  25  26
ATOM     26  C   UNL     1      12.988  28.338  13.987  1.00  0.00     0.169 C 
BRANCH  26  27
ATOM     27  C   UNL     1      12.341  28.302  12.639  1.00  0.00     0.119 C 
BRANCH  27  28
ATOM     28  N   UNL     1      11.247  29.208  12.431  1.00  0.00    -0.092 NA
ATOM     29  N   UNL     1      10.543  29.467  13.424  1.00  0.00     0.001 N 
ATOM     30  N   UNL     1       9.683  29.801  14.240  1.00  0.00    -0.003 NA
ENDBRANCH  27  28
ENDBRANCH  26  27
ENDBRANCH  25  26
ENDBRANCH  19  25
BRANCH  20  31
ATOM     31  O   UNL     1      13.667  30.055  18.371  1.00  0.00    -0.387 OA
ATOM     32  H   UNL     1      12.774  30.449  18.558  1.00  0.00     0.211 HD
ENDBRANCH  20  31
BRANCH  21  33
ATOM     33  O   UNL     1      11.916  31.022  16.171  1.00  0.00    -0.385 OA
ATOM     34  H   UNL     1      12.145  31.780  16.801  1.00  0.00     0.211 HD
ENDBRANCH  21  33
ENDBRANCH  15  16
ENDBRANCH  10  15
BRANCH  12  35
ATOM     35  O   UNL     1      19.159  28.041  16.985  1.00  0.00    -0.385 OA
ATOM     36  H   UNL     1      19.965  28.546  16.699  1.00  0.00     0.211 HD
ENDBRANCH  12  35
BRANCH  13  37
ATOM     37  O   UNL     1      20.139  29.174  19.567  1.00  0.00    -0.387 OA
ATOM     38  H   UNL     1      20.129  29.727  20.406  1.00  0.00     0.211 HD
ENDBRANCH  13  37
BRANCH  14  39
ATOM     39  O   UNL     1      17.417  30.171  19.991  1.00  0.00    -0.387 OA
ATOM     40  H   UNL     1      16.513  30.133  19.545  1.00  0.00     0.211 HD
ENDBRANCH  14  39
ENDBRANCH   8   9
ENDBRANCH   7   8
ENDBRANCH   1   7
BRANCH   1  41
ATOM     41  C   UNL     1      15.955  30.097  23.590  1.00  0.00     0.364 C 
ATOM     42  O   UNL     1      15.761  30.800  24.597  1.00  0.00    -0.246 OA
BRANCH  41  43
ATOM     43  O   UNL     1      17.259  29.566  23.490  1.00  0.00    -0.477 OA
ATOM     44  H   UNL     1      17.628  29.000  24.267  1.00  0.00     0.296 HD
ENDBRANCH  41  43
ENDBRANCH   1  41
BRANCH   3  45
ATOM     45  O   UNL     1      12.633  30.524  20.970  1.00  0.00    -0.391 OA
ATOM     46  H   UNL     1      12.456  29.557  20.889  1.00  0.00     0.211 HD
ENDBRANCH   3  45
BRANCH   5  47
ATOM     47  C   UNL     1      15.208  33.060  20.938  1.00  0.00     0.176 C 
BRANCH  47  48
ATOM     48  O   UNL     1      15.605  32.172  19.866  1.00  0.00    -0.388 OA
ATOM     49  H   UNL     1      16.554  32.434  19.660  1.00  0.00     0.211 HD
ENDBRANCH  47  48
BRANCH  47  50
ATOM     50  C   UNL     1      16.472  33.823  21.196  1.00  0.00     0.165 C 
BRANCH  50  51
ATOM     51  O   UNL     1      17.172  33.981  19.971  1.00  0.00    -0.388 OA
ATOM     52  H   UNL     1      18.082  34.340  20.128  1.00  0.00     0.211 HD
ENDBRANCH  50  51
BRANCH  50  53
ATOM     53  C   UNL     1      17.413  33.318  22.204  1.00  0.00     0.154 C 
BRANCH  53  54
ATOM     54  N   UNL     1      18.181  32.148  21.820  1.00  0.00    -0.319 N 
ATOM     55  C   UNL     1      19.317  31.781  22.603  1.00  0.00     0.407 C 
ATOM     56  H   UNL     1      17.959  31.548  21.001  1.00  0.00     0.167 HD
ATOM     57  O   UNL     1      19.631  32.495  23.610  1.00  0.00    -0.225 OA
BRANCH  55  58
ATOM     58  O   UNL     1      20.126  30.691  22.358  1.00  0.00    -0.443 OA
BRANCH  58  59
ATOM     59  C   UNL     1      21.308  30.470  23.114  1.00  0.00     0.294 C 
BRANCH  59  60
ATOM     60  C   UNL     1      21.078  29.262  23.985  1.00  0.00     0.121 A 
ATOM     61  C   UNL     1      21.993  28.585  24.759  1.00  0.00     0.144 A 
ATOM     62  N   UNL     1      19.905  28.627  24.147  1.00  0.00    -0.131 NA
ATOM     63  N   UNL     1      21.309  27.580  25.341  1.00  0.00    -0.219 N 
ATOM     64  N   UNL     1      20.045  27.612  24.966  1.00  0.00    -0.062 NA
BRANCH  63  65
ATOM     65  C   UNL     1      21.835  26.599  26.228  1.00  0.00     0.080 A 
ATOM     66  C   UNL     1      21.901  26.840  27.595  1.00  0.00     0.029 A 
ATOM     67  C   UNL     1      22.297  25.393  25.757  1.00  0.00     0.039 A 
ATOM     68  C   UNL     1      22.431  25.849  28.429  1.00  0.00     0.002 A 
ATOM     69  C   UNL     1      22.825  24.412  26.607  1.00  0.00     0.017 A 
ATOM     70  I   UNL     1      22.211  24.999  23.682  1.00  0.00    -0.042 I 
ATOM     71  C   UNL     1      22.892  24.642  27.958  1.00  0.00     0.001 A 
ENDBRANCH  63  65
ENDBRANCH  59  60
ENDBRANCH  58  59
ENDBRANCH  55  58
ENDBRANCH  53  54
ENDBRANCH  50  53
ENDBRANCH  47  50
ENDBRANCH   5  47
BRANCH   4  72
ATOM     72  N   UNL     1      13.083  32.711  23.765  1.00  0.00    -0.348 N 
ATOM     73  C   UNL     1      12.077  33.703  24.045  1.00  0.00     0.217 C 
ATOM     74  H   UNL     1      13.560  32.343  24.606  1.00  0.00     0.163 HD
ATOM     75  C   UNL     1      11.751  34.161  25.409  1.00  0.00     0.114 C 
ATOM     76  O   UNL     1      11.472  34.176  23.047  1.00  0.00    -0.275 OA
ENDBRANCH   4  72
TORSDOF 30
