REMARK VINA RESULT:    -5.877     11.747     18.629
REMARK INTER + INTRA:         -22.381
REMARK INTER:                 -13.948
REMARK INTRA:                  -8.434
REMARK UNBOUND:                -6.885
REMARK SMILES CCOC(=O)c1cccc(-n2cc(COC(=O)NC[C@@H](O)C(O)[C@@H]3O[C@@](OC[C@H]4O[C@@H](O[C@H]5[C@H](O)[C@@H](O)[C@H](OCCN=[N+]=[N-])O[C@@H]5CO)[C@H](O)[C@@H](O)[C@H]4O)(C(=O)O)C[C@H](O)[C@H]3NC(C)=O)nn2)c1
REMARK SMILES IDX 22 1 24 2 26 3 58 4 25 5 59 6 61 7 27 8 28 9 29 10 31 11
REMARK SMILES IDX 30 12 49 13 51 14 53 15 32 16 33 17 46 18 45 19 38 20 34 21
REMARK SMILES IDX 36 22 47 23 48 24 39 26 40 27 41 28 42 29 43 30 44 31 35 32
REMARK SMILES IDX 37 34 50 36 52 38 54 40 55 42 56 43 57 44 60 46 62 48 63 49
REMARK SMILES IDX 64 51 65 52 23 53 20 55 21 56 19 58 18 59 16 60 17 62 15 63
REMARK SMILES IDX 14 64 13 65 12 66 66 67 11 68 67 69 10 70 68 71 9 72 6 73
REMARK SMILES IDX 8 74 7 75 4 76 5 77 3 78 2 79 1 80
REMARK H PARENT 48 25 35 33 37 35 50 37 52 39 54 41 57 45 60 47 62 50 23 54
REMARK H PARENT 21 57 18 61
REMARK Flexibility Score: inf
ROOT
ATOM      1  C   UNL     1      21.608  25.308  21.419  1.00  0.00     0.176 C 
ENDROOT
BRANCH   1   2
ATOM      2  C   UNL     1      21.800  26.763  21.514  1.00  0.00     0.178 C 
ATOM      3  C   UNL     1      20.764  28.520  22.711  1.00  0.00     0.272 C 
ATOM      4  C   UNL     1      21.841  29.251  21.976  1.00  0.00     0.113 C 
ATOM      5  O   UNL     1      20.588  27.329  21.918  1.00  0.00    -0.332 OA
ATOM      6  C   UNL     1      21.848  28.976  20.481  1.00  0.00     0.145 C 
ATOM      7  C   UNL     1      22.259  27.478  20.293  1.00  0.00     0.142 C 
BRANCH   3   8
ATOM      8  O   UNL     1      19.583  29.186  22.615  1.00  0.00    -0.338 OA
BRANCH   8   9
ATOM      9  C   UNL     1      19.313  30.383  23.075  1.00  0.00     0.199 C 
BRANCH   9  10
ATOM     10  C   UNL     1      18.068  31.146  22.925  1.00  0.00     0.179 C 
ATOM     11  C   UNL     1      16.098  31.328  21.675  1.00  0.00     0.282 C 
ATOM     12  O   UNL     1      17.465  30.968  21.731  1.00  0.00    -0.341 OA
ATOM     13  C   UNL     1      15.715  32.197  22.832  1.00  0.00     0.202 C 
ATOM     14  C   UNL     1      16.025  31.591  24.163  1.00  0.00     0.179 C 
ATOM     15  C   UNL     1      17.103  30.573  24.012  1.00  0.00     0.177 C 
BRANCH  11  16
ATOM     16  O   UNL     1      15.423  30.149  21.549  1.00  0.00    -0.341 OA
BRANCH  16  17
ATOM     17  C   UNL     1      14.860  29.827  20.363  1.00  0.00     0.184 C 
ATOM     18  C   UNL     1      15.913  29.204  19.486  1.00  0.00     0.178 C 
ATOM     19  O   UNL     1      15.382  28.799  18.260  1.00  0.00    -0.341 OA
ATOM     20  C   UNL     1      15.045  29.974  17.532  1.00  0.00     0.281 C 
ATOM     21  C   UNL     1      14.331  31.057  19.606  1.00  0.00     0.180 C 
ATOM     22  C   UNL     1      13.854  30.552  18.246  1.00  0.00     0.202 C 
BRANCH  18  23
ATOM     23  C   UNL     1      16.532  28.007  20.149  1.00  0.00     0.191 C 
BRANCH  23  24
ATOM     24  O   UNL     1      17.864  28.300  20.544  1.00  0.00    -0.394 OA
ATOM     25  H   UNL     1      17.960  28.201  21.525  1.00  0.00     0.210 HD
ENDBRANCH  23  24
ENDBRANCH  18  23
BRANCH  20  26
ATOM     26  O   UNL     1      14.810  29.611  16.238  1.00  0.00    -0.350 OA
BRANCH  26  27
ATOM     27  C   UNL     1      15.950  29.139  15.603  1.00  0.00     0.169 C 
BRANCH  27  28
ATOM     28  C   UNL     1      17.116  30.079  15.685  1.00  0.00     0.119 C 
BRANCH  28  29
ATOM     29  N   UNL     1      18.356  29.296  15.755  1.00  0.00    -0.092 NA
ATOM     30  N   UNL     1      18.618  28.734  16.827  1.00  0.00     0.001 N 
ATOM     31  N   UNL     1      18.890  27.926  17.737  1.00  0.00    -0.003 NA
ENDBRANCH  28  29
ENDBRANCH  27  28
ENDBRANCH  26  27
ENDBRANCH  20  26
BRANCH  21  32
ATOM     32  O   UNL     1      13.201  31.576  20.220  1.00  0.00    -0.387 OA
ATOM     33  H   UNL     1      13.507  32.163  20.952  1.00  0.00     0.211 HD
ENDBRANCH  21  32
BRANCH  22  34
ATOM     34  O   UNL     1      13.250  31.574  17.521  1.00  0.00    -0.385 OA
ATOM     35  H   UNL     1      13.654  32.475  17.701  1.00  0.00     0.211 HD
ENDBRANCH  22  34
ENDBRANCH  16  17
ENDBRANCH  11  16
BRANCH  13  36
ATOM     36  O   UNL     1      16.307  33.465  22.669  1.00  0.00    -0.385 OA
ATOM     37  H   UNL     1      15.999  33.917  21.851  1.00  0.00     0.211 HD
ENDBRANCH  13  36
BRANCH  14  38
ATOM     38  O   UNL     1      14.911  31.181  24.859  1.00  0.00    -0.387 OA
ATOM     39  H   UNL     1      14.916  30.187  24.857  1.00  0.00     0.211 HD
ENDBRANCH  14  38
BRANCH  15  40
ATOM     40  O   UNL     1      16.634  29.341  23.678  1.00  0.00    -0.387 OA
ATOM     41  H   UNL     1      15.756  29.190  24.108  1.00  0.00     0.211 HD
ENDBRANCH  15  40
ENDBRANCH   9  10
ENDBRANCH   8   9
ENDBRANCH   3   8
BRANCH   3  42
ATOM     42  C   UNL     1      21.090  28.083  24.061  1.00  0.00     0.364 C 
ATOM     43  O   UNL     1      20.362  27.316  24.709  1.00  0.00    -0.246 OA
BRANCH  42  44
ATOM     44  O   UNL     1      22.258  28.524  24.684  1.00  0.00    -0.477 OA
ATOM     45  H   UNL     1      22.963  27.913  25.041  1.00  0.00     0.296 HD
ENDBRANCH  42  44
ENDBRANCH   3  42
BRANCH   6  46
ATOM     46  O   UNL     1      20.561  29.076  20.013  1.00  0.00    -0.391 OA
ATOM     47  H   UNL     1      20.570  29.092  19.025  1.00  0.00     0.211 HD
ENDBRANCH   6  46
BRANCH   7  48
ATOM     48  N   UNL     1      23.695  27.481  20.135  1.00  0.00    -0.348 N 
ATOM     49  C   UNL     1      24.384  26.800  19.079  1.00  0.00     0.217 C 
ATOM     50  H   UNL     1      24.334  28.002  20.808  1.00  0.00     0.163 HD
ATOM     51  C   UNL     1      25.864  26.824  18.948  1.00  0.00     0.114 C 
ATOM     52  O   UNL     1      23.732  26.159  18.230  1.00  0.00    -0.275 OA
ENDBRANCH   7  48
ENDBRANCH   1   2
BRANCH   1  53
ATOM     53  O   UNL     1      22.348  24.653  20.472  1.00  0.00    -0.388 OA
ATOM     54  H   UNL     1      22.425  23.686  20.648  1.00  0.00     0.211 HD
ENDBRANCH   1  53
BRANCH   1  55
ATOM     55  C   UNL     1      21.566  24.538  22.714  1.00  0.00     0.165 C 
BRANCH  55  56
ATOM     56  O   UNL     1      20.297  24.622  23.296  1.00  0.00    -0.388 OA
ATOM     57  H   UNL     1      19.780  23.796  23.111  1.00  0.00     0.211 HD
ENDBRANCH  55  56
BRANCH  55  58
ATOM     58  C   UNL     1      22.708  24.811  23.645  1.00  0.00     0.154 C 
BRANCH  58  59
ATOM     59  N   UNL     1      22.302  24.784  25.032  1.00  0.00    -0.319 N 
ATOM     60  C   UNL     1      23.206  24.430  26.057  1.00  0.00     0.407 C 
ATOM     61  H   UNL     1      21.302  25.034  25.307  1.00  0.00     0.167 HD
ATOM     62  O   UNL     1      24.407  24.123  25.887  1.00  0.00    -0.225 OA
BRANCH  60  63
ATOM     63  O   UNL     1      22.775  24.394  27.399  1.00  0.00    -0.443 OA
BRANCH  63  64
ATOM     64  C   UNL     1      23.155  25.305  28.383  1.00  0.00     0.294 C 
BRANCH  64  65
ATOM     65  C   UNL     1      22.651  26.675  28.222  1.00  0.00     0.121 A 
ATOM     66  C   UNL     1      21.485  27.191  28.778  1.00  0.00     0.144 A 
ATOM     67  N   UNL     1      23.198  27.666  27.528  1.00  0.00    -0.131 NA
ATOM     68  N   UNL     1      21.384  28.463  28.394  1.00  0.00    -0.220 N 
ATOM     69  N   UNL     1      22.422  28.743  27.640  1.00  0.00    -0.062 NA
BRANCH  68  70
ATOM     70  C   UNL     1      20.342  29.348  28.744  1.00  0.00     0.067 A 
ATOM     71  C   UNL     1      19.527  29.116  29.849  1.00  0.00     0.044 A 
ATOM     72  C   UNL     1      20.086  30.485  28.024  1.00  0.00     0.028 A 
ATOM     73  C   UNL     1      18.513  29.951  30.235  1.00  0.00     0.062 A 
ATOM     74  C   UNL     1      19.069  31.356  28.383  1.00  0.00     0.003 A 
ATOM     75  C   UNL     1      18.283  31.096  29.481  1.00  0.00     0.016 A 
BRANCH  73  76
ATOM     76  C   UNL     1      17.702  29.648  31.395  1.00  0.00     0.338 C 
ATOM     77  O   UNL     1      17.035  30.553  31.932  1.00  0.00    -0.246 OA
BRANCH  76  78
ATOM     78  O   UNL     1      17.665  28.372  31.896  1.00  0.00    -0.462 OA
BRANCH  78  79
ATOM     79  C   UNL     1      18.043  28.025  33.208  1.00  0.00     0.230 C 
ATOM     80  C   UNL     1      16.824  27.615  34.004  1.00  0.00     0.049 C 
ENDBRANCH  78  79
ENDBRANCH  76  78
ENDBRANCH  73  76
ENDBRANCH  68  70
ENDBRANCH  64  65
ENDBRANCH  63  64
ENDBRANCH  60  63
ENDBRANCH  58  59
ENDBRANCH  55  58
ENDBRANCH   1  55
TORSDOF 33
