REMARK VINA RESULT:    -5.899      6.782     12.531
REMARK INTER + INTRA:         -23.973
REMARK INTER:                 -14.903
REMARK INTRA:                  -9.071
REMARK UNBOUND:                -8.074
REMARK SMILES CC(=O)N[C@@H]1[C@@H](O)C[C@](OC[C@H]2O[C@@H](O[C@H]3[C@H](O)[C@@H](O)[C@H](OCCN=[N+]=[N-])O[C@@H]3CO)[C@H](O)[C@@H](O)[C@H]2O)(C(=O)O)O[C@H]1C(O)[C@H](O)CNC(=O)OCc1cn(C[C@@H](C)CN2CCN(c3ccc(Cl)cc3)CC2)nn1
REMARK SMILES IDX 43 1 42 2 9 3 8 4 41 5 6 6 5 7 10 8 11 9 12 10 14 11 13 12
REMARK SMILES IDX 32 13 34 14 36 15 15 16 16 17 29 18 28 19 21 20 17 21 19 22
REMARK SMILES IDX 30 23 31 24 22 26 23 27 24 28 25 29 26 30 27 31 18 32 20 34
REMARK SMILES IDX 33 36 35 38 37 40 38 42 39 43 40 44 7 46 4 48 2 49 1 51 3 52
REMARK SMILES IDX 44 53 45 55 46 56 47 58 48 59 49 60 50 62 51 63 52 64 53 65
REMARK SMILES IDX 54 66 74 67 55 68 73 69 56 70 57 71 58 72 59 73 60 74 61 75
REMARK SMILES IDX 72 76 62 77 71 78 63 79 64 80 65 81 70 82 66 83 69 84 67 85
REMARK SMILES IDX 68 86
REMARK H PARENT 31 25 18 33 20 35 33 37 35 39 37 41 40 45 7 47 4 50 44 54
REMARK H PARENT 46 57 48 61
REMARK Flexibility Score: inf
ROOT
ATOM      1  C   UNL     1      24.272  28.640  25.192  1.00  0.00     0.176 C 
ENDROOT
BRANCH   1   2
ATOM      2  C   UNL     1      23.654  27.322  25.637  1.00  0.00     0.178 C 
ATOM      3  C   UNL     1      22.980  25.184  24.892  1.00  0.00     0.272 C 
ATOM      4  C   UNL     1      22.108  25.190  26.048  1.00  0.00     0.113 C 
ATOM      5  O   UNL     1      23.385  26.519  24.578  1.00  0.00    -0.332 OA
ATOM      6  C   UNL     1      21.440  26.531  26.288  1.00  0.00     0.145 C 
ATOM      7  C   UNL     1      22.560  27.524  26.629  1.00  0.00     0.142 C 
BRANCH   3   8
ATOM      8  O   UNL     1      22.588  24.690  23.721  1.00  0.00    -0.338 OA
BRANCH   8   9
ATOM      9  C   UNL     1      21.396  24.666  23.185  1.00  0.00     0.199 C 
BRANCH   9  10
ATOM     10  C   UNL     1      21.052  25.372  21.905  1.00  0.00     0.179 C 
ATOM     11  C   UNL     1      21.586  27.471  21.036  1.00  0.00     0.282 C 
ATOM     12  O   UNL     1      20.980  26.731  22.016  1.00  0.00    -0.341 OA
ATOM     13  C   UNL     1      23.082  27.221  21.080  1.00  0.00     0.202 C 
ATOM     14  C   UNL     1      23.320  25.761  20.874  1.00  0.00     0.179 C 
ATOM     15  C   UNL     1      22.071  24.948  20.837  1.00  0.00     0.177 C 
BRANCH  11  16
ATOM     16  O   UNL     1      21.375  28.826  21.385  1.00  0.00    -0.341 OA
BRANCH  16  17
ATOM     17  C   UNL     1      20.386  29.355  20.596  1.00  0.00     0.184 C 
ATOM     18  C   UNL     1      18.997  28.979  21.069  1.00  0.00     0.178 C 
ATOM     19  O   UNL     1      18.324  28.127  20.248  1.00  0.00    -0.341 OA
ATOM     20  C   UNL     1      18.187  28.521  18.929  1.00  0.00     0.281 C 
ATOM     21  C   UNL     1      20.574  28.990  19.128  1.00  0.00     0.180 C 
ATOM     22  C   UNL     1      19.303  29.389  18.415  1.00  0.00     0.202 C 
BRANCH  18  23
ATOM     23  C   UNL     1      18.182  30.199  21.473  1.00  0.00     0.191 C 
BRANCH  23  24
ATOM     24  O   UNL     1      17.150  29.879  22.319  1.00  0.00    -0.394 OA
ATOM     25  H   UNL     1      17.048  30.649  22.959  1.00  0.00     0.210 HD
ENDBRANCH  23  24
ENDBRANCH  18  23
BRANCH  20  26
ATOM     26  O   UNL     1      16.964  29.134  18.682  1.00  0.00    -0.350 OA
BRANCH  26  27
ATOM     27  C   UNL     1      15.862  28.344  18.839  1.00  0.00     0.169 C 
BRANCH  27  28
ATOM     28  C   UNL     1      14.753  29.060  19.557  1.00  0.00     0.119 C 
BRANCH  28  29
ATOM     29  N   UNL     1      14.737  28.642  20.949  1.00  0.00    -0.092 NA
ATOM     30  N   UNL     1      13.782  28.971  21.675  1.00  0.00     0.001 N 
ATOM     31  N   UNL     1      12.790  29.361  22.278  1.00  0.00    -0.003 NA
ENDBRANCH  28  29
ENDBRANCH  27  28
ENDBRANCH  26  27
ENDBRANCH  20  26
BRANCH  21  32
ATOM     32  O   UNL     1      21.617  29.724  18.567  1.00  0.00    -0.387 OA
ATOM     33  H   UNL     1      21.339  30.683  18.642  1.00  0.00     0.211 HD
ENDBRANCH  21  32
BRANCH  22  34
ATOM     34  O   UNL     1      19.467  29.108  17.037  1.00  0.00    -0.385 OA
ATOM     35  H   UNL     1      19.327  28.174  16.817  1.00  0.00     0.211 HD
ENDBRANCH  22  34
ENDBRANCH  16  17
ENDBRANCH  11  16
BRANCH  13  36
ATOM     36  O   UNL     1      23.679  28.020  20.120  1.00  0.00    -0.385 OA
ATOM     37  H   UNL     1      23.030  28.755  19.915  1.00  0.00     0.211 HD
ENDBRANCH  13  36
BRANCH  14  38
ATOM     38  O   UNL     1      24.238  25.222  21.786  1.00  0.00    -0.387 OA
ATOM     39  H   UNL     1      23.787  24.909  22.602  1.00  0.00     0.211 HD
ENDBRANCH  14  38
BRANCH  15  40
ATOM     40  O   UNL     1      22.344  23.611  20.994  1.00  0.00    -0.387 OA
ATOM     41  H   UNL     1      23.301  23.435  21.140  1.00  0.00     0.211 HD
ENDBRANCH  15  40
ENDBRANCH   9  10
ENDBRANCH   8   9
ENDBRANCH   3   8
BRANCH   3  42
ATOM     42  C   UNL     1      24.322  24.579  25.256  1.00  0.00     0.364 C 
ATOM     43  O   UNL     1      24.583  24.271  26.471  1.00  0.00    -0.246 OA
BRANCH  42  44
ATOM     44  O   UNL     1      25.326  24.328  24.356  1.00  0.00    -0.477 OA
ATOM     45  H   UNL     1      25.447  23.414  23.936  1.00  0.00     0.296 HD
ENDBRANCH  42  44
ENDBRANCH   3  42
BRANCH   6  46
ATOM     46  O   UNL     1      20.820  26.897  25.094  1.00  0.00    -0.391 OA
ATOM     47  H   UNL     1      20.544  27.846  25.103  1.00  0.00     0.211 HD
ENDBRANCH   6  46
BRANCH   7  48
ATOM     48  N   UNL     1      22.978  27.243  27.988  1.00  0.00    -0.348 N 
ATOM     49  C   UNL     1      22.720  28.181  29.020  1.00  0.00     0.217 C 
ATOM     50  H   UNL     1      23.482  26.353  28.256  1.00  0.00     0.163 HD
ATOM     51  C   UNL     1      23.171  27.850  30.418  1.00  0.00     0.114 C 
ATOM     52  O   UNL     1      22.129  29.280  28.824  1.00  0.00    -0.275 OA
ENDBRANCH   7  48
ENDBRANCH   1   2
BRANCH   1  53
ATOM     53  O   UNL     1      25.183  28.348  24.179  1.00  0.00    -0.388 OA
ATOM     54  H   UNL     1      25.697  27.533  24.382  1.00  0.00     0.211 HD
ENDBRANCH   1  53
BRANCH   1  55
ATOM     55  C   UNL     1      23.284  29.613  24.611  1.00  0.00     0.165 C 
BRANCH  55  56
ATOM     56  O   UNL     1      22.241  29.051  23.922  1.00  0.00    -0.388 OA
ATOM     57  H   UNL     1      22.441  28.903  22.982  1.00  0.00     0.211 HD
ENDBRANCH  55  56
BRANCH  55  58
ATOM     58  C   UNL     1      23.894  30.736  23.845  1.00  0.00     0.154 C 
BRANCH  58  59
ATOM     59  N   UNL     1      24.190  30.264  22.490  1.00  0.00    -0.319 N 
ATOM     60  C   UNL     1      24.877  31.079  21.559  1.00  0.00     0.407 C 
ATOM     61  H   UNL     1      23.887  29.309  22.213  1.00  0.00     0.167 HD
ATOM     62  O   UNL     1      25.224  32.228  21.925  1.00  0.00    -0.225 OA
BRANCH  60  63
ATOM     63  O   UNL     1      25.153  30.609  20.283  1.00  0.00    -0.443 OA
BRANCH  63  64
ATOM     64  C   UNL     1      26.496  30.229  19.988  1.00  0.00     0.294 C 
BRANCH  64  65
ATOM     65  C   UNL     1      26.727  28.780  20.187  1.00  0.00     0.120 A 
ATOM     66  C   UNL     1      27.187  27.875  19.258  1.00  0.00     0.138 A 
ATOM     67  N   UNL     1      26.529  28.061  21.318  1.00  0.00    -0.132 NA
ATOM     68  N   UNL     1      27.244  26.687  19.851  1.00  0.00    -0.252 N 
ATOM     69  N   UNL     1      26.844  26.804  21.098  1.00  0.00    -0.067 NA
BRANCH  68  70
ATOM     70  C   UNL     1      27.675  25.453  19.192  1.00  0.00     0.150 C 
BRANCH  70  71
ATOM     71  C   UNL     1      26.641  24.342  19.398  1.00  0.00     0.022 C 
ATOM     72  C   UNL     1      25.538  24.616  18.399  1.00  0.00     0.011 C 
BRANCH  71  73
ATOM     73  C   UNL     1      27.292  23.017  19.154  1.00  0.00     0.089 C 
BRANCH  73  74
ATOM     74  N   UNL     1      27.669  22.239  20.260  1.00  0.00    -0.299 NA
ATOM     75  C   UNL     1      27.689  22.775  21.555  1.00  0.00     0.106 C 
ATOM     76  C   UNL     1      28.600  21.194  19.978  1.00  0.00     0.106 C 
ATOM     77  C   UNL     1      29.021  22.542  22.267  1.00  0.00     0.132 C 
ATOM     78  C   UNL     1      28.745  20.305  21.200  1.00  0.00     0.132 C 
ATOM     79  N   UNL     1      29.336  21.114  22.233  1.00  0.00    -0.369 N 
BRANCH  79  80
ATOM     80  C   UNL     1      30.201  20.581  23.196  1.00  0.00     0.037 A 
ATOM     81  C   UNL     1      30.774  19.319  23.060  1.00  0.00     0.027 A 
ATOM     82  C   UNL     1      30.559  21.271  24.347  1.00  0.00     0.027 A 
ATOM     83  C   UNL     1      31.631  18.776  23.987  1.00  0.00     0.022 A 
ATOM     84  C   UNL     1      31.420  20.729  25.279  1.00  0.00     0.022 A 
ATOM     85  C   UNL     1      31.969  19.476  25.116  1.00  0.00     0.041 A 
ATOM     86  Cl  UNL     1      33.050  18.793  26.283  1.00  0.00    -0.084 Cl
ENDBRANCH  79  80
ENDBRANCH  73  74
ENDBRANCH  71  73
ENDBRANCH  70  71
ENDBRANCH  68  70
ENDBRANCH  64  65
ENDBRANCH  63  64
ENDBRANCH  60  63
ENDBRANCH  58  59
ENDBRANCH  55  58
ENDBRANCH   1  55
TORSDOF 34
