REMARK VINA RESULT:    -5.217     13.003     18.533
REMARK INTER + INTRA:         -23.959
REMARK INTER:                 -17.608
REMARK INTRA:                  -6.351
REMARK UNBOUND:                -9.744
REMARK SMILES CC(=O)N[C@@H]1[C@@H](O)C[C@](OC[C@H]2O[C@@H](O[C@H]3[C@H](O)[C@@H](O)[C@H](OCCN=[N+]=[N-])O[C@@H]3CO)[C@H](O)[C@@H](O)[C@H]2O)(C(=O)O)O[C@H]1C(O)[C@H](O)CNC(=O)OCc1cn(CC(O)Cn2ccnc2[N+](=O)[O-])nn1
REMARK SMILES IDX 43 1 42 2 9 3 8 4 41 5 6 6 5 7 10 8 11 9 12 10 14 11 13 12
REMARK SMILES IDX 32 13 34 14 36 15 15 16 16 17 29 18 28 19 21 20 17 21 19 22
REMARK SMILES IDX 30 23 31 24 22 26 23 27 24 28 25 29 26 30 27 31 18 32 20 34
REMARK SMILES IDX 33 36 35 38 37 40 38 42 39 43 40 44 7 46 4 48 2 49 1 51 3 52
REMARK SMILES IDX 44 53 45 55 46 56 47 58 48 59 49 60 50 62 51 63 52 64 53 65
REMARK SMILES IDX 54 66 69 67 55 68 68 69 56 70 57 71 58 72 59 74 60 75 61 76
REMARK SMILES IDX 64 77 62 78 63 79 65 80 66 81 67 82
REMARK H PARENT 31 25 18 33 20 35 33 37 35 39 37 41 40 45 7 47 4 50 44 54
REMARK H PARENT 46 57 48 61 58 73
REMARK Flexibility Score: inf
ROOT
ATOM      1  C   UNL     1      29.749  18.884  19.826  1.00  0.00     0.176 C 
ENDROOT
BRANCH   1   2
ATOM      2  C   UNL     1      29.686  20.420  20.088  1.00  0.00     0.178 C 
ATOM      3  C   UNL     1      30.365  21.808  21.809  1.00  0.00     0.272 C 
ATOM      4  C   UNL     1      29.089  22.588  21.698  1.00  0.00     0.113 C 
ATOM      5  O   UNL     1      30.168  20.494  21.396  1.00  0.00    -0.332 OA
ATOM      6  C   UNL     1      27.921  21.693  21.302  1.00  0.00     0.145 C 
ATOM      7  C   UNL     1      28.283  20.866  20.076  1.00  0.00     0.142 C 
BRANCH   3   8
ATOM      8  O   UNL     1      30.810  21.673  23.119  1.00  0.00    -0.338 OA
BRANCH   8   9
ATOM      9  C   UNL     1      30.674  20.491  23.742  1.00  0.00     0.199 C 
BRANCH   9  10
ATOM     10  C   UNL     1      31.871  20.110  24.591  1.00  0.00     0.179 C 
ATOM     11  C   UNL     1      32.516  18.893  26.349  1.00  0.00     0.282 C 
ATOM     12  O   UNL     1      31.690  18.839  25.200  1.00  0.00    -0.341 OA
ATOM     13  C   UNL     1      33.956  19.115  25.957  1.00  0.00     0.202 C 
ATOM     14  C   UNL     1      34.046  18.888  24.449  1.00  0.00     0.179 C 
ATOM     15  C   UNL     1      33.148  19.945  23.799  1.00  0.00     0.177 C 
BRANCH  11  16
ATOM     16  O   UNL     1      32.411  17.748  27.112  1.00  0.00    -0.341 OA
BRANCH  16  17
ATOM     17  C   UNL     1      33.146  17.944  28.259  1.00  0.00     0.184 C 
ATOM     18  C   UNL     1      34.120  16.817  28.565  1.00  0.00     0.178 C 
ATOM     19  O   UNL     1      35.015  17.371  29.485  1.00  0.00    -0.341 OA
ATOM     20  C   UNL     1      34.468  17.656  30.705  1.00  0.00     0.281 C 
ATOM     21  C   UNL     1      32.267  18.040  29.497  1.00  0.00     0.180 C 
ATOM     22  C   UNL     1      33.078  18.177  30.730  1.00  0.00     0.202 C 
BRANCH  18  23
ATOM     23  C   UNL     1      34.830  16.284  27.374  1.00  0.00     0.191 C 
BRANCH  23  24
ATOM     24  O   UNL     1      33.921  15.565  26.607  1.00  0.00    -0.394 OA
ATOM     25  H   UNL     1      34.153  14.606  26.530  1.00  0.00     0.210 HD
ENDBRANCH  23  24
ENDBRANCH  18  23
BRANCH  20  26
ATOM     26  O   UNL     1      35.292  18.664  31.275  1.00  0.00    -0.350 OA
BRANCH  26  27
ATOM     27  C   UNL     1      36.172  19.204  30.372  1.00  0.00     0.169 C 
BRANCH  27  28
ATOM     28  C   UNL     1      36.155  20.719  30.617  1.00  0.00     0.119 C 
BRANCH  28  29
ATOM     29  N   UNL     1      34.826  21.229  30.760  1.00  0.00    -0.092 NA
ATOM     30  N   UNL     1      34.134  21.545  29.765  1.00  0.00     0.001 N 
ATOM     31  N   UNL     1      33.202  21.528  28.978  1.00  0.00    -0.003 NA
ENDBRANCH  28  29
ENDBRANCH  27  28
ENDBRANCH  26  27
ENDBRANCH  20  26
BRANCH  21  32
ATOM     32  O   UNL     1      31.428  19.167  29.377  1.00  0.00    -0.387 OA
ATOM     33  H   UNL     1      31.390  19.375  28.426  1.00  0.00     0.211 HD
ENDBRANCH  21  32
BRANCH  22  34
ATOM     34  O   UNL     1      32.391  17.449  31.735  1.00  0.00    -0.385 OA
ATOM     35  H   UNL     1      32.844  17.547  32.612  1.00  0.00     0.211 HD
ENDBRANCH  22  34
ENDBRANCH  16  17
ENDBRANCH  11  16
BRANCH  13  36
ATOM     36  O   UNL     1      34.307  20.425  26.282  1.00  0.00    -0.385 OA
ATOM     37  H   UNL     1      33.744  21.086  25.790  1.00  0.00     0.211 HD
ENDBRANCH  13  36
BRANCH  14  38
ATOM     38  O   UNL     1      33.454  17.667  24.182  1.00  0.00    -0.387 OA
ATOM     39  H   UNL     1      32.647  17.558  24.715  1.00  0.00     0.211 HD
ENDBRANCH  14  38
BRANCH  15  40
ATOM     40  O   UNL     1      32.926  19.502  22.514  1.00  0.00    -0.387 OA
ATOM     41  H   UNL     1      33.342  18.620  22.341  1.00  0.00     0.211 HD
ENDBRANCH  15  40
ENDBRANCH   9  10
ENDBRANCH   8   9
ENDBRANCH   3   8
BRANCH   3  42
ATOM     42  C   UNL     1      31.427  22.409  20.993  1.00  0.00     0.364 C 
ATOM     43  O   UNL     1      32.573  21.854  20.854  1.00  0.00    -0.246 OA
BRANCH  42  44
ATOM     44  O   UNL     1      31.294  23.606  20.316  1.00  0.00    -0.477 OA
ATOM     45  H   UNL     1      32.090  24.147  19.965  1.00  0.00     0.296 HD
ENDBRANCH  42  44
ENDBRANCH   3  42
BRANCH   6  46
ATOM     46  O   UNL     1      27.498  20.901  22.352  1.00  0.00    -0.391 OA
ATOM     47  H   UNL     1      27.023  21.429  23.041  1.00  0.00     0.211 HD
ENDBRANCH   6  46
BRANCH   7  48
ATOM     48  N   UNL     1      27.774  21.475  18.888  1.00  0.00    -0.348 N 
ATOM     49  C   UNL     1      28.322  22.511  18.140  1.00  0.00     0.217 C 
ATOM     50  H   UNL     1      26.824  21.079  18.482  1.00  0.00     0.163 HD
ATOM     51  C   UNL     1      27.646  23.008  16.872  1.00  0.00     0.114 C 
ATOM     52  O   UNL     1      29.368  23.094  18.430  1.00  0.00    -0.275 OA
ENDBRANCH   7  48
ENDBRANCH   1   2
BRANCH   1  53
ATOM     53  O   UNL     1      29.299  18.254  21.014  1.00  0.00    -0.388 OA
ATOM     54  H   UNL     1      28.657  18.794  21.499  1.00  0.00     0.211 HD
ENDBRANCH   1  53
BRANCH   1  55
ATOM     55  C   UNL     1      31.054  18.369  19.435  1.00  0.00     0.165 C 
BRANCH  55  56
ATOM     56  O   UNL     1      32.152  19.148  19.696  1.00  0.00    -0.388 OA
ATOM     57  H   UNL     1      32.920  18.654  20.060  1.00  0.00     0.211 HD
ENDBRANCH  55  56
BRANCH  55  58
ATOM     58  C   UNL     1      31.106  17.917  17.956  1.00  0.00     0.154 C 
BRANCH  58  59
ATOM     59  N   UNL     1      29.805  18.263  17.394  1.00  0.00    -0.319 N 
ATOM     60  C   UNL     1      29.638  19.390  16.524  1.00  0.00     0.407 C 
ATOM     61  H   UNL     1      28.963  17.688  17.618  1.00  0.00     0.167 HD
ATOM     62  O   UNL     1      30.626  20.097  16.233  1.00  0.00    -0.225 OA
BRANCH  60  63
ATOM     63  O   UNL     1      28.404  19.715  16.001  1.00  0.00    -0.443 OA
BRANCH  63  64
ATOM     64  C   UNL     1      28.132  20.208  14.725  1.00  0.00     0.294 C 
BRANCH  64  65
ATOM     65  C   UNL     1      26.769  19.800  14.304  1.00  0.00     0.120 A 
ATOM     66  C   UNL     1      25.689  20.634  14.078  1.00  0.00     0.138 A 
ATOM     67  N   UNL     1      26.303  18.568  14.052  1.00  0.00    -0.132 NA
ATOM     68  N   UNL     1      24.627  19.879  13.701  1.00  0.00    -0.249 N 
ATOM     69  N   UNL     1      25.028  18.634  13.695  1.00  0.00    -0.067 NA
BRANCH  68  70
ATOM     70  C   UNL     1      23.331  20.448  13.345  1.00  0.00     0.181 C 
BRANCH  70  71
ATOM     71  C   UNL     1      22.531  19.288  12.759  1.00  0.00     0.170 C 
BRANCH  71  72
ATOM     72  O   UNL     1      21.886  18.639  13.785  1.00  0.00    -0.388 OA
ATOM     73  H   UNL     1      21.720  17.697  13.542  1.00  0.00     0.211 HD
ENDBRANCH  71  72
BRANCH  71  74
ATOM     74  C   UNL     1      21.605  19.779  11.689  1.00  0.00     0.239 C 
BRANCH  74  75
ATOM     75  N   UNL     1      21.352  18.713  10.733  1.00  0.00    -0.227 N 
ATOM     76  C   UNL     1      22.373  18.045  10.105  1.00  0.00     0.204 A 
ATOM     77  C   UNL     1      20.183  18.210  10.336  1.00  0.00     0.434 A 
ATOM     78  C   UNL     1      21.793  17.096   9.294  1.00  0.00     0.245 A 
ATOM     79  N   UNL     1      20.460  17.213   9.449  1.00  0.00    -0.074 NA
BRANCH  77  80
ATOM     80  N   UNL     1      18.893  18.634  10.739  1.00  0.00    -0.047 N 
ATOM     81  O   UNL     1      17.856  18.259  10.106  1.00  0.00    -0.390 OA
ATOM     82  O   UNL     1      18.666  19.462  11.804  1.00  0.00    -0.390 OA
ENDBRANCH  77  80
ENDBRANCH  74  75
ENDBRANCH  71  74
ENDBRANCH  70  71
ENDBRANCH  68  70
ENDBRANCH  64  65
ENDBRANCH  63  64
ENDBRANCH  60  63
ENDBRANCH  58  59
ENDBRANCH  55  58
ENDBRANCH   1  55
TORSDOF 35
