REMARK VINA RESULT:    -5.731      4.426      8.796
REMARK INTER + INTRA:         -21.547
REMARK INTER:                 -14.984
REMARK INTRA:                  -6.563
REMARK UNBOUND:                -6.938
REMARK SMILES CC(=O)N[C@@H]1[C@@H](O)C[C@](OC[C@H]2O[C@@H](O[C@H]3[C@H](O)[C@@H](O)[C@H](OCCN=[N+]=[N-])O[C@@H]3CO)[C@H](O)[C@@H](O)[C@H]2O)(C(=O)O)O[C@H]1C(O)[C@H](O)CNC(=O)OCc1cn(Cc2cc(Br)cc(Br)c2O)nn1
REMARK SMILES IDX 9 1 8 2 6 3 5 4 42 5 41 6 10 7 11 8 12 9 14 10 13 11 32 12
REMARK SMILES IDX 34 13 36 14 15 15 16 16 29 17 28 18 21 19 17 20 19 21 30 22
REMARK SMILES IDX 31 23 22 25 23 26 24 27 25 28 26 29 27 30 18 31 20 33 33 35
REMARK SMILES IDX 35 37 37 39 38 41 39 42 40 43 7 45 43 47 44 48 45 50 46 51
REMARK SMILES IDX 47 53 48 54 49 55 50 57 51 58 52 59 53 60 54 61 67 62 55 63
REMARK SMILES IDX 66 64 56 65 57 66 58 67 64 68 59 69 62 70 60 71 61 72 63 73
REMARK SMILES IDX 65 74 4 76 2 77 1 79 3 80
REMARK H PARENT 31 24 18 32 20 34 33 36 35 38 37 40 40 44 7 46 44 49 46 52
REMARK H PARENT 48 56 65 75 4 78
REMARK Flexibility Score: inf
ROOT
ATOM      1  C   UNL     1      19.790  30.218  21.631  1.00  0.00     0.272 C 
ATOM      2  C   UNL     1      18.416  30.430  22.428  1.00  0.00     0.113 C 
ATOM      3  C   UNL     1      17.670  31.565  21.854  1.00  0.00     0.145 C 
ATOM      4  C   UNL     1      17.448  31.352  20.380  1.00  0.00     0.142 C 
ATOM      5  C   UNL     1      18.376  30.374  19.724  1.00  0.00     0.178 C 
ATOM      6  O   UNL     1      19.467  29.947  20.349  1.00  0.00    -0.332 OA
ENDROOT
BRANCH   1   7
ATOM      7  O   UNL     1      20.246  29.111  22.263  1.00  0.00    -0.338 OA
BRANCH   7   8
ATOM      8  C   UNL     1      20.696  28.010  21.693  1.00  0.00     0.199 C 
BRANCH   8   9
ATOM      9  C   UNL     1      22.112  27.874  21.254  1.00  0.00     0.179 C 
ATOM     10  C   UNL     1      22.611  25.890  22.368  1.00  0.00     0.282 C 
ATOM     11  O   UNL     1      22.890  27.196  22.127  1.00  0.00    -0.341 OA
ATOM     12  C   UNL     1      22.285  25.130  21.124  1.00  0.00     0.202 C 
ATOM     13  C   UNL     1      22.741  25.882  19.904  1.00  0.00     0.179 C 
ATOM     14  C   UNL     1      22.215  27.286  19.845  1.00  0.00     0.177 C 
BRANCH  10  15
ATOM     15  O   UNL     1      21.643  25.757  23.376  1.00  0.00    -0.341 OA
BRANCH  15  16
ATOM     16  C   UNL     1      22.087  26.093  24.634  1.00  0.00     0.184 C 
ATOM     17  C   UNL     1      22.614  24.887  25.379  1.00  0.00     0.178 C 
ATOM     18  O   UNL     1      22.834  25.096  26.710  1.00  0.00    -0.341 OA
ATOM     19  C   UNL     1      22.844  26.414  27.131  1.00  0.00     0.281 C 
ATOM     20  C   UNL     1      20.939  26.602  25.513  1.00  0.00     0.180 C 
ATOM     21  C   UNL     1      21.596  27.163  26.751  1.00  0.00     0.202 C 
BRANCH  17  22
ATOM     22  C   UNL     1      23.848  24.295  24.730  1.00  0.00     0.191 C 
BRANCH  22  23
ATOM     23  O   UNL     1      24.920  24.288  25.595  1.00  0.00    -0.394 OA
ATOM     24  H   UNL     1      24.771  24.980  26.281  1.00  0.00     0.210 HD
ENDBRANCH  22  23
ENDBRANCH  17  22
BRANCH  19  25
ATOM     25  O   UNL     1      23.998  27.023  26.667  1.00  0.00    -0.350 OA
BRANCH  25  26
ATOM     26  C   UNL     1      24.899  27.217  27.679  1.00  0.00     0.169 C 
BRANCH  26  27
ATOM     27  C   UNL     1      24.614  28.351  28.602  1.00  0.00     0.119 C 
BRANCH  27  28
ATOM     28  N   UNL     1      24.202  27.917  29.921  1.00  0.00    -0.092 NA
ATOM     29  N   UNL     1      23.042  27.921  30.283  1.00  0.00     0.001 N 
ATOM     30  N   UNL     1      21.923  27.624  30.695  1.00  0.00    -0.003 NA
ENDBRANCH  27  28
ENDBRANCH  26  27
ENDBRANCH  25  26
ENDBRANCH  19  25
BRANCH  20  31
ATOM     31  O   UNL     1      20.119  27.496  24.880  1.00  0.00    -0.387 OA
ATOM     32  H   UNL     1      20.665  28.335  24.752  1.00  0.00     0.211 HD
ENDBRANCH  20  31
BRANCH  21  33
ATOM     33  O   UNL     1      20.721  27.180  27.832  1.00  0.00    -0.385 OA
ATOM     34  H   UNL     1      20.264  28.037  27.892  1.00  0.00     0.211 HD
ENDBRANCH  21  33
ENDBRANCH  15  16
ENDBRANCH  10  15
BRANCH  12  35
ATOM     35  O   UNL     1      22.953  23.883  21.200  1.00  0.00    -0.385 OA
ATOM     36  H   UNL     1      23.827  24.091  21.606  1.00  0.00     0.211 HD
ENDBRANCH  12  35
BRANCH  13  37
ATOM     37  O   UNL     1      22.458  25.190  18.727  1.00  0.00    -0.387 OA
ATOM     38  H   UNL     1      23.203  24.548  18.604  1.00  0.00     0.211 HD
ENDBRANCH  13  37
BRANCH  14  39
ATOM     39  O   UNL     1      20.964  27.291  19.254  1.00  0.00    -0.387 OA
ATOM     40  H   UNL     1      20.838  26.483  18.688  1.00  0.00     0.211 HD
ENDBRANCH  14  39
ENDBRANCH   8   9
ENDBRANCH   7   8
ENDBRANCH   1   7
BRANCH   1  41
ATOM     41  C   UNL     1      20.530  31.462  21.813  1.00  0.00     0.364 C 
ATOM     42  O   UNL     1      20.879  31.861  22.987  1.00  0.00    -0.246 OA
BRANCH  41  43
ATOM     43  O   UNL     1      20.919  32.296  20.798  1.00  0.00    -0.477 OA
ATOM     44  H   UNL     1      21.514  33.092  20.976  1.00  0.00     0.296 HD
ENDBRANCH  41  43
ENDBRANCH   1  41
BRANCH   3  45
ATOM     45  O   UNL     1      16.451  31.698  22.544  1.00  0.00    -0.391 OA
ATOM     46  H   UNL     1      15.851  32.300  22.046  1.00  0.00     0.211 HD
ENDBRANCH   3  45
BRANCH   5  47
ATOM     47  C   UNL     1      17.527  29.274  19.119  1.00  0.00     0.176 C 
BRANCH  47  48
ATOM     48  O   UNL     1      18.352  28.161  18.816  1.00  0.00    -0.388 OA
ATOM     49  H   UNL     1      19.280  28.339  19.066  1.00  0.00     0.211 HD
ENDBRANCH  47  48
BRANCH  47  50
ATOM     50  C   UNL     1      16.334  28.880  19.888  1.00  0.00     0.165 C 
BRANCH  50  51
ATOM     51  O   UNL     1      16.377  27.566  20.301  1.00  0.00    -0.388 OA
ATOM     52  H   UNL     1      15.799  27.377  21.081  1.00  0.00     0.211 HD
ENDBRANCH  50  51
BRANCH  50  53
ATOM     53  C   UNL     1      14.995  29.210  19.325  1.00  0.00     0.154 C 
BRANCH  53  54
ATOM     54  N   UNL     1      14.146  30.023  20.125  1.00  0.00    -0.319 N 
ATOM     55  C   UNL     1      13.414  29.380  21.181  1.00  0.00     0.407 C 
ATOM     56  H   UNL     1      14.001  31.035  19.987  1.00  0.00     0.167 HD
ATOM     57  O   UNL     1      13.559  28.121  21.354  1.00  0.00    -0.225 OA
BRANCH  55  58
ATOM     58  O   UNL     1      12.584  30.111  21.983  1.00  0.00    -0.443 OA
BRANCH  58  59
ATOM     59  C   UNL     1      12.373  29.810  23.338  1.00  0.00     0.294 C 
BRANCH  59  60
ATOM     60  C   UNL     1      13.538  30.227  24.151  1.00  0.00     0.120 A 
ATOM     61  C   UNL     1      13.668  31.297  25.028  1.00  0.00     0.138 A 
ATOM     62  N   UNL     1      14.733  29.616  24.200  1.00  0.00    -0.132 NA
ATOM     63  N   UNL     1      14.896  31.309  25.565  1.00  0.00    -0.248 N 
ATOM     64  N   UNL     1      15.527  30.258  25.033  1.00  0.00    -0.067 NA
BRANCH  63  65
ATOM     65  C   UNL     1      15.492  32.239  26.531  1.00  0.00     0.185 C 
BRANCH  65  66
ATOM     66  C   UNL     1      15.578  31.535  27.831  1.00  0.00     0.018 A 
ATOM     67  C   UNL     1      14.421  31.334  28.558  1.00  0.00     0.025 A 
ATOM     68  C   UNL     1      16.783  31.068  28.346  1.00  0.00     0.134 A 
ATOM     69  C   UNL     1      14.429  30.682  29.781  1.00  0.00     0.019 A 
ATOM     70  C   UNL     1      16.823  30.412  29.566  1.00  0.00     0.061 A 
ATOM     71  Br  UNL     1      12.809  30.428  30.749  1.00  0.00    -0.051 Br
ATOM     72  C   UNL     1      15.632  30.230  30.268  1.00  0.00     0.035 A 
ATOM     73  Br  UNL     1      18.471  29.786  30.242  1.00  0.00    -0.047 Br
BRANCH  68  74
ATOM     74  O   UNL     1      17.902  31.301  27.571  1.00  0.00    -0.506 OA
ATOM     75  H   UNL     1      18.421  30.521  27.204  1.00  0.00     0.293 HD
ENDBRANCH  68  74
ENDBRANCH  65  66
ENDBRANCH  63  65
ENDBRANCH  59  60
ENDBRANCH  58  59
ENDBRANCH  55  58
ENDBRANCH  53  54
ENDBRANCH  50  53
ENDBRANCH  47  50
ENDBRANCH   5  47
BRANCH   4  76
ATOM     76  N   UNL     1      17.362  32.632  19.710  1.00  0.00    -0.348 N 
ATOM     77  C   UNL     1      16.093  33.249  19.564  1.00  0.00     0.217 C 
ATOM     78  H   UNL     1      18.195  33.130  19.320  1.00  0.00     0.163 HD
ATOM     79  C   UNL     1      16.004  34.572  18.871  1.00  0.00     0.114 C 
ATOM     80  O   UNL     1      15.048  32.675  20.022  1.00  0.00    -0.275 OA
ENDBRANCH   4  76
TORSDOF 32
