REMARK VINA RESULT:    -6.874     14.705     20.472
REMARK INTER + INTRA:         -22.459
REMARK INTER:                 -16.418
REMARK INTRA:                  -6.042
REMARK UNBOUND:                -5.539
REMARK SMILES CC(=O)N[C@@H]1[C@@H](O)C[C@](OC[C@H]2O[C@@H](O[C@H]3[C@H](O)[C@@H](O)[C@H](OCCN=[N+]=[N-])O[C@@H]3CO)[C@H](O)[C@@H](O)[C@H]2O)(C(=O)O)O[C@H]1C(O)[C@H](O)CNC(=O)OCc1cn(-c2c3ccccc3nc3ccccc23)nn1
REMARK SMILES IDX 9 1 8 2 6 3 5 4 42 5 41 6 10 7 11 8 12 9 14 10 13 11 32 12
REMARK SMILES IDX 34 13 36 14 15 15 16 16 29 17 28 18 21 19 17 20 19 21 30 22
REMARK SMILES IDX 31 23 22 25 23 26 24 27 25 28 26 29 27 30 18 31 20 33 33 35
REMARK SMILES IDX 35 37 37 39 38 41 39 42 40 43 7 45 43 47 44 48 45 50 46 51
REMARK SMILES IDX 47 53 48 54 49 55 50 57 51 58 52 59 53 60 54 61 71 62 55 63
REMARK SMILES IDX 70 64 56 65 57 66 69 67 58 68 62 69 64 70 68 71 59 72 61 73
REMARK SMILES IDX 63 74 65 75 67 76 60 77 66 78 4 79 2 80 1 82 3 83
REMARK H PARENT 31 24 18 32 20 34 33 36 35 38 37 40 40 44 7 46 44 49 46 52
REMARK H PARENT 48 56 4 81
REMARK Flexibility Score: inf
ROOT
ATOM      1  C   UNL     1      15.847  29.220  19.089  1.00  0.00     0.272 C 
ATOM      2  C   UNL     1      14.377  28.906  19.659  1.00  0.00     0.113 C 
ATOM      3  C   UNL     1      14.513  29.145  21.118  1.00  0.00     0.145 C 
ATOM      4  C   UNL     1      15.048  30.511  21.492  1.00  0.00     0.142 C 
ATOM      5  C   UNL     1      15.909  31.129  20.472  1.00  0.00     0.178 C 
ATOM      6  O   UNL     1      15.966  30.535  19.257  1.00  0.00    -0.332 OA
ENDROOT
BRANCH   1   7
ATOM      7  O   UNL     1      15.614  28.941  17.741  1.00  0.00    -0.338 OA
BRANCH   7   8
ATOM      8  C   UNL     1      16.699  28.742  16.957  1.00  0.00     0.199 C 
BRANCH   8   9
ATOM      9  C   UNL     1      16.531  29.087  15.528  1.00  0.00     0.179 C 
ATOM     10  C   UNL     1      15.085  29.087  13.696  1.00  0.00     0.282 C 
ATOM     11  O   UNL     1      15.308  28.718  15.040  1.00  0.00    -0.341 OA
ATOM     12  C   UNL     1      16.276  29.599  13.001  1.00  0.00     0.202 C 
ATOM     13  C   UNL     1      16.950  30.712  13.770  1.00  0.00     0.179 C 
ATOM     14  C   UNL     1      16.801  30.568  15.249  1.00  0.00     0.177 C 
BRANCH  10  15
ATOM     15  O   UNL     1      13.991  29.938  13.621  1.00  0.00    -0.341 OA
BRANCH  15  16
ATOM     16  C   UNL     1      12.817  29.359  14.157  1.00  0.00     0.184 C 
ATOM     17  C   UNL     1      11.797  29.222  13.098  1.00  0.00     0.178 C 
ATOM     18  O   UNL     1      10.473  29.105  13.596  1.00  0.00    -0.341 OA
ATOM     19  C   UNL     1      10.184  30.304  14.235  1.00  0.00     0.281 C 
ATOM     20  C   UNL     1      12.380  30.359  15.239  1.00  0.00     0.180 C 
ATOM     21  C   UNL     1      10.923  30.217  15.580  1.00  0.00     0.202 C 
BRANCH  17  22
ATOM     22  C   UNL     1      12.038  27.988  12.243  1.00  0.00     0.191 C 
BRANCH  22  23
ATOM     23  O   UNL     1      12.873  28.213  11.180  1.00  0.00    -0.394 OA
ATOM     24  H   UNL     1      13.379  27.382  10.985  1.00  0.00     0.210 HD
ENDBRANCH  22  23
ENDBRANCH  17  22
BRANCH  19  25
ATOM     25  O   UNL     1       8.822  30.387  14.384  1.00  0.00    -0.350 OA
BRANCH  25  26
ATOM     26  C   UNL     1       8.097  29.595  13.499  1.00  0.00     0.169 C 
BRANCH  26  27
ATOM     27  C   UNL     1       6.607  29.673  13.754  1.00  0.00     0.119 C 
BRANCH  27  28
ATOM     28  N   UNL     1       6.421  30.494  14.946  1.00  0.00    -0.092 NA
ATOM     29  N   UNL     1       5.699  30.105  15.871  1.00  0.00     0.001 N 
ATOM     30  N   UNL     1       5.047  29.738  16.851  1.00  0.00    -0.003 NA
ENDBRANCH  27  28
ENDBRANCH  26  27
ENDBRANCH  25  26
ENDBRANCH  19  25
BRANCH  20  31
ATOM     31  O   UNL     1      13.206  30.243  16.346  1.00  0.00    -0.387 OA
ATOM     32  H   UNL     1      14.115  30.603  16.191  1.00  0.00     0.211 HD
ENDBRANCH  20  31
BRANCH  21  33
ATOM     33  O   UNL     1      10.547  31.240  16.421  1.00  0.00    -0.385 OA
ATOM     34  H   UNL     1      11.294  31.911  16.422  1.00  0.00     0.211 HD
ENDBRANCH  21  33
ENDBRANCH  15  16
ENDBRANCH  10  15
BRANCH  12  35
ATOM     35  O   UNL     1      17.163  28.557  12.688  1.00  0.00    -0.385 OA
ATOM     36  H   UNL     1      17.844  28.965  12.074  1.00  0.00     0.211 HD
ENDBRANCH  12  35
BRANCH  13  37
ATOM     37  O   UNL     1      16.411  31.929  13.313  1.00  0.00    -0.387 OA
ATOM     38  H   UNL     1      15.688  31.665  12.659  1.00  0.00     0.211 HD
ENDBRANCH  13  37
BRANCH  14  39
ATOM     39  O   UNL     1      15.833  31.390  15.788  1.00  0.00    -0.387 OA
ATOM     40  H   UNL     1      14.995  31.403  15.260  1.00  0.00     0.211 HD
ENDBRANCH  14  39
ENDBRANCH   8   9
ENDBRANCH   7   8
ENDBRANCH   1   7
BRANCH   1  41
ATOM     41  C   UNL     1      16.656  28.254  19.754  1.00  0.00     0.364 C 
ATOM     42  O   UNL     1      16.311  27.029  19.799  1.00  0.00    -0.246 OA
BRANCH  41  43
ATOM     43  O   UNL     1      17.869  28.503  20.406  1.00  0.00    -0.477 OA
ATOM     44  H   UNL     1      18.716  28.099  20.028  1.00  0.00     0.296 HD
ENDBRANCH  41  43
ENDBRANCH   1  41
BRANCH   3  45
ATOM     45  O   UNL     1      13.227  28.956  21.679  1.00  0.00    -0.391 OA
ATOM     46  H   UNL     1      12.576  28.803  20.945  1.00  0.00     0.211 HD
ENDBRANCH   3  45
BRANCH   5  47
ATOM     47  C   UNL     1      15.484  32.594  20.174  1.00  0.00     0.176 C 
BRANCH  47  48
ATOM     48  O   UNL     1      14.833  33.132  21.245  1.00  0.00    -0.388 OA
ATOM     49  H   UNL     1      14.994  32.647  22.114  1.00  0.00     0.211 HD
ENDBRANCH  47  48
BRANCH  47  50
ATOM     50  C   UNL     1      16.507  33.375  19.484  1.00  0.00     0.165 C 
BRANCH  50  51
ATOM     51  O   UNL     1      16.949  32.891  18.250  1.00  0.00    -0.388 OA
ATOM     52  H   UNL     1      16.201  32.774  17.613  1.00  0.00     0.211 HD
ENDBRANCH  50  51
BRANCH  50  53
ATOM     53  C   UNL     1      17.562  34.040  20.278  1.00  0.00     0.154 C 
BRANCH  53  54
ATOM     54  N   UNL     1      18.728  33.332  20.653  1.00  0.00    -0.319 N 
ATOM     55  C   UNL     1      18.902  32.618  21.858  1.00  0.00     0.407 C 
ATOM     56  H   UNL     1      19.565  33.330  19.958  1.00  0.00     0.167 HD
ATOM     57  O   UNL     1      18.058  32.541  22.763  1.00  0.00    -0.225 OA
BRANCH  55  58
ATOM     58  O   UNL     1      20.100  31.920  22.110  1.00  0.00    -0.443 OA
BRANCH  58  59
ATOM     59  C   UNL     1      20.620  31.732  23.415  1.00  0.00     0.294 C 
BRANCH  59  60
ATOM     60  C   UNL     1      20.469  30.301  23.806  1.00  0.00     0.121 A 
ATOM     61  C   UNL     1      21.427  29.309  23.806  1.00  0.00     0.144 A 
ATOM     62  N   UNL     1      19.346  29.701  24.226  1.00  0.00    -0.131 NA
ATOM     63  N   UNL     1      20.885  28.140  24.219  1.00  0.00    -0.219 N 
ATOM     64  N   UNL     1      19.615  28.412  24.466  1.00  0.00    -0.062 NA
BRANCH  63  65
ATOM     65  C   UNL     1      21.565  26.878  24.348  1.00  0.00     0.085 A 
ATOM     66  C   UNL     1      21.904  26.153  23.216  1.00  0.00     0.027 A 
ATOM     67  C   UNL     1      21.894  26.347  25.574  1.00  0.00     0.027 A 
ATOM     68  C   UNL     1      21.602  26.632  21.960  1.00  0.00     0.012 A 
ATOM     69  C   UNL     1      22.558  24.925  23.289  1.00  0.00     0.073 A 
ATOM     70  C   UNL     1      22.540  25.131  25.602  1.00  0.00     0.073 A 
ATOM     71  C   UNL     1      21.591  27.007  26.729  1.00  0.00     0.012 A 
ATOM     72  C   UNL     1      21.941  25.913  20.834  1.00  0.00     0.001 A 
ATOM     73  C   UNL     1      22.894  24.209  22.161  1.00  0.00     0.029 A 
ATOM     74  N   UNL     1      22.864  24.437  24.498  1.00  0.00    -0.248 NA
ATOM     75  C   UNL     1      22.887  24.567  26.813  1.00  0.00     0.029 A 
ATOM     76  C   UNL     1      21.953  26.417  27.933  1.00  0.00     0.001 A 
ATOM     77  C   UNL     1      22.594  24.685  20.908  1.00  0.00     0.002 A 
ATOM     78  C   UNL     1      22.600  25.202  28.007  1.00  0.00     0.002 A 
ENDBRANCH  63  65
ENDBRANCH  59  60
ENDBRANCH  58  59
ENDBRANCH  55  58
ENDBRANCH  53  54
ENDBRANCH  50  53
ENDBRANCH  47  50
ENDBRANCH   5  47
BRANCH   4  79
ATOM     79  N   UNL     1      15.649  30.437  22.804  1.00  0.00    -0.348 N 
ATOM     80  C   UNL     1      14.983  30.786  24.017  1.00  0.00     0.217 C 
ATOM     81  H   UNL     1      16.638  30.118  22.923  1.00  0.00     0.163 HD
ATOM     82  C   UNL     1      15.719  30.672  25.321  1.00  0.00     0.114 C 
ATOM     83  O   UNL     1      13.806  31.175  23.942  1.00  0.00    -0.275 OA
ENDBRANCH   4  79
TORSDOF 30
