REMARK VINA RESULT:    -6.383      9.243     14.009
REMARK INTER + INTRA:         -21.948
REMARK INTER:                 -15.049
REMARK INTRA:                  -6.899
REMARK UNBOUND:                -5.863
REMARK SMILES CC(=O)N[C@@H]1[C@@H](O)C[C@](OC[C@H]2O[C@@H](O[C@H]3[C@H](O)[C@@H](O)[C@H](OCCN=[N+]=[N-])O[C@@H]3CO)[C@H](O)[C@@H](O)[C@H]2O)(C(=O)O)O[C@H]1C(O)[C@H](O)CNC(=O)OCc1cn(-c2ncccc2C#N)nn1
REMARK SMILES IDX 9 1 8 2 6 3 5 4 42 5 41 6 10 7 11 8 12 9 14 10 13 11 32 12
REMARK SMILES IDX 34 13 36 14 15 15 16 16 29 17 28 18 21 19 17 20 19 21 30 22
REMARK SMILES IDX 31 23 22 25 23 26 24 27 25 28 26 29 27 30 18 31 20 33 33 35
REMARK SMILES IDX 35 37 37 39 38 41 39 42 40 43 7 45 43 47 44 48 45 50 46 51
REMARK SMILES IDX 47 53 48 54 49 55 50 57 51 58 52 59 53 60 54 61 65 62 55 63
REMARK SMILES IDX 64 64 56 65 57 66 61 67 58 68 60 69 59 70 62 71 63 72 4 73
REMARK SMILES IDX 2 74 1 76 3 77
REMARK H PARENT 31 24 18 32 20 34 33 36 35 38 37 40 40 44 7 46 44 49 46 52
REMARK H PARENT 48 56 4 75
REMARK Flexibility Score: inf
ROOT
ATOM      1  C   UNL     1      21.858  22.524  12.030  1.00  0.00     0.272 C 
ATOM      2  C   UNL     1      20.440  22.244  12.298  1.00  0.00     0.113 C 
ATOM      3  C   UNL     1      19.908  21.094  11.537  1.00  0.00     0.145 C 
ATOM      4  C   UNL     1      20.881  20.020  11.177  1.00  0.00     0.142 C 
ATOM      5  C   UNL     1      22.278  20.182  11.704  1.00  0.00     0.178 C 
ATOM      6  O   UNL     1      22.669  21.420  11.905  1.00  0.00    -0.332 OA
ENDROOT
BRANCH   1   7
ATOM      7  O   UNL     1      22.559  23.355  12.807  1.00  0.00    -0.338 OA
BRANCH   7   8
ATOM      8  C   UNL     1      23.441  24.286  12.611  1.00  0.00     0.199 C 
BRANCH   8   9
ATOM      9  C   UNL     1      23.638  25.013  13.946  1.00  0.00     0.179 C 
ATOM     10  C   UNL     1      22.595  25.754  15.817  1.00  0.00     0.282 C 
ATOM     11  O   UNL     1      22.446  25.504  14.404  1.00  0.00    -0.341 OA
ATOM     12  C   UNL     1      22.630  24.462  16.549  1.00  0.00     0.202 C 
ATOM     13  C   UNL     1      23.683  23.523  15.953  1.00  0.00     0.179 C 
ATOM     14  C   UNL     1      24.457  24.276  14.938  1.00  0.00     0.177 C 
BRANCH  10  15
ATOM     15  O   UNL     1      21.618  26.576  16.258  1.00  0.00    -0.341 OA
BRANCH  15  16
ATOM     16  C   UNL     1      22.033  27.665  16.972  1.00  0.00     0.184 C 
ATOM     17  C   UNL     1      21.254  27.740  18.318  1.00  0.00     0.178 C 
ATOM     18  O   UNL     1      20.395  28.836  18.257  1.00  0.00    -0.341 OA
ATOM     19  C   UNL     1      19.577  28.761  17.119  1.00  0.00     0.281 C 
ATOM     20  C   UNL     1      21.862  28.986  16.268  1.00  0.00     0.180 C 
ATOM     21  C   UNL     1      20.382  29.193  15.925  1.00  0.00     0.202 C 
BRANCH  17  22
ATOM     22  C   UNL     1      22.241  27.844  19.435  1.00  0.00     0.191 C 
BRANCH  22  23
ATOM     23  O   UNL     1      23.433  27.151  19.150  1.00  0.00    -0.394 OA
ATOM     24  H   UNL     1      24.171  27.429  19.743  1.00  0.00     0.210 HD
ENDBRANCH  22  23
ENDBRANCH  17  22
BRANCH  19  25
ATOM     25  O   UNL     1      18.492  29.572  17.359  1.00  0.00    -0.350 OA
BRANCH  25  26
ATOM     26  C   UNL     1      17.343  29.108  16.693  1.00  0.00     0.169 C 
BRANCH  26  27
ATOM     27  C   UNL     1      16.199  28.938  17.671  1.00  0.00     0.119 C 
BRANCH  27  28
ATOM     28  N   UNL     1      16.647  27.947  18.658  1.00  0.00    -0.092 NA
ATOM     29  N   UNL     1      16.103  28.032  19.790  1.00  0.00     0.001 N 
ATOM     30  N   UNL     1      15.895  28.267  20.990  1.00  0.00    -0.003 NA
ENDBRANCH  27  28
ENDBRANCH  26  27
ENDBRANCH  25  26
ENDBRANCH  19  25
BRANCH  20  31
ATOM     31  O   UNL     1      22.320  30.053  17.004  1.00  0.00    -0.387 OA
ATOM     32  H   UNL     1      22.184  30.942  16.639  1.00  0.00     0.211 HD
ENDBRANCH  20  31
BRANCH  21  33
ATOM     33  O   UNL     1      20.059  28.469  14.782  1.00  0.00    -0.385 OA
ATOM     34  H   UNL     1      20.765  27.776  14.669  1.00  0.00     0.211 HD
ENDBRANCH  21  33
ENDBRANCH  15  16
ENDBRANCH  10  15
BRANCH  12  35
ATOM     35  O   UNL     1      22.913  24.659  17.889  1.00  0.00    -0.385 OA
ATOM     36  H   UNL     1      23.262  23.781  18.254  1.00  0.00     0.211 HD
ENDBRANCH  12  35
BRANCH  13  37
ATOM     37  O   UNL     1      23.031  22.402  15.387  1.00  0.00    -0.387 OA
ATOM     38  H   UNL     1      22.236  22.700  14.863  1.00  0.00     0.211 HD
ENDBRANCH  13  37
BRANCH  14  39
ATOM     39  O   UNL     1      25.419  23.504  14.280  1.00  0.00    -0.387 OA
ATOM     40  H   UNL     1      25.000  23.031  13.491  1.00  0.00     0.211 HD
ENDBRANCH  14  39
ENDBRANCH   8   9
ENDBRANCH   7   8
ENDBRANCH   1   7
BRANCH   1  41
ATOM     41  C   UNL     1      21.880  23.175  10.647  1.00  0.00     0.364 C 
ATOM     42  O   UNL     1      22.645  22.870   9.747  1.00  0.00    -0.246 OA
BRANCH  41  43
ATOM     43  O   UNL     1      20.959  24.204  10.369  1.00  0.00    -0.477 OA
ATOM     44  H   UNL     1      20.679  24.443   9.430  1.00  0.00     0.296 HD
ENDBRANCH  41  43
ENDBRANCH   1  41
BRANCH   3  45
ATOM     45  O   UNL     1      18.769  20.563  12.173  1.00  0.00    -0.391 OA
ATOM     46  H   UNL     1      19.024  19.606  12.383  1.00  0.00     0.211 HD
ENDBRANCH   3  45
BRANCH   5  47
ATOM     47  C   UNL     1      22.525  19.255  12.929  1.00  0.00     0.176 C 
BRANCH  47  48
ATOM     48  O   UNL     1      23.042  20.101  13.954  1.00  0.00    -0.388 OA
ATOM     49  H   UNL     1      23.641  20.771  13.582  1.00  0.00     0.211 HD
ENDBRANCH  47  48
BRANCH  47  50
ATOM     50  C   UNL     1      23.479  18.192  12.747  1.00  0.00     0.165 C 
BRANCH  50  51
ATOM     51  O   UNL     1      24.558  18.126  13.664  1.00  0.00    -0.388 OA
ATOM     52  H   UNL     1      25.359  18.577  13.250  1.00  0.00     0.211 HD
ENDBRANCH  50  51
BRANCH  50  53
ATOM     53  C   UNL     1      24.159  18.172  11.415  1.00  0.00     0.154 C 
BRANCH  53  54
ATOM     54  N   UNL     1      25.274  18.998  11.169  1.00  0.00    -0.319 N 
ATOM     55  C   UNL     1      26.634  18.732  11.321  1.00  0.00     0.407 C 
ATOM     56  H   UNL     1      25.063  20.008  10.810  1.00  0.00     0.167 HD
ATOM     57  O   UNL     1      26.968  17.592  11.725  1.00  0.00    -0.225 OA
BRANCH  55  58
ATOM     58  O   UNL     1      27.579  19.731  11.013  1.00  0.00    -0.443 OA
BRANCH  58  59
ATOM     59  C   UNL     1      27.489  20.965  11.663  1.00  0.00     0.294 C 
BRANCH  59  60
ATOM     60  C   UNL     1      27.180  20.836  13.074  1.00  0.00     0.121 A 
ATOM     61  C   UNL     1      28.066  20.684  14.072  1.00  0.00     0.146 A 
ATOM     62  N   UNL     1      25.901  20.781  13.648  1.00  0.00    -0.131 NA
ATOM     63  N   UNL     1      27.431  20.536  15.227  1.00  0.00    -0.201 N 
ATOM     64  N   UNL     1      26.173  20.604  14.906  1.00  0.00    -0.060 NA
BRANCH  63  65
ATOM     65  C   UNL     1      27.921  20.405  16.545  1.00  0.00     0.173 A 
ATOM     66  N   UNL     1      28.359  19.165  16.888  1.00  0.00    -0.236 NA
ATOM     67  C   UNL     1      27.824  21.441  17.482  1.00  0.00     0.097 A 
ATOM     68  C   UNL     1      28.717  18.940  18.270  1.00  0.00     0.113 A 
ATOM     69  C   UNL     1      28.175  21.149  18.782  1.00  0.00     0.025 A 
ATOM     70  C   UNL     1      28.599  19.932  19.118  1.00  0.00     0.022 A 
BRANCH  67  71
ATOM     71  C   UNL     1      27.475  22.791  17.175  1.00  0.00     0.103 C 
ATOM     72  N   UNL     1      27.181  23.931  16.894  1.00  0.00    -0.192 NA
ENDBRANCH  67  71
ENDBRANCH  63  65
ENDBRANCH  59  60
ENDBRANCH  58  59
ENDBRANCH  55  58
ENDBRANCH  53  54
ENDBRANCH  50  53
ENDBRANCH  47  50
ENDBRANCH   5  47
BRANCH   4  73
ATOM     73  N   UNL     1      20.735  19.817   9.752  1.00  0.00    -0.348 N 
ATOM     74  C   UNL     1      19.682  19.198   9.074  1.00  0.00     0.217 C 
ATOM     75  H   UNL     1      21.536  20.168   9.112  1.00  0.00     0.163 HD
ATOM     76  C   UNL     1      19.678  19.121   7.558  1.00  0.00     0.114 C 
ATOM     77  O   UNL     1      18.684  18.675   9.618  1.00  0.00    -0.275 OA
ENDBRANCH   4  73
TORSDOF 31
