REMARK VINA RESULT:    -6.620      3.789     10.170
REMARK INTER + INTRA:         -21.431
REMARK INTER:                 -14.805
REMARK INTRA:                  -6.626
REMARK UNBOUND:                -4.749
REMARK SMILES CC(=O)N[C@@H]1[C@@H](O)C[C@](OC[C@H]2O[C@@H](O[C@H]3[C@H](O)[C@@H](O)[C@H](OCCN=[N+]=[N-])O[C@@H]3CO)[C@H](O)[C@@H](O)[C@H]2O)(C(=O)O)O[C@H]1C(O)[C@H](O)CNC(=O)OCc1cn(-c2ccccc2C(C)=O)nn1
REMARK SMILES IDX 9 1 8 2 6 3 5 4 42 5 41 6 10 7 11 8 12 9 14 10 13 11 32 12
REMARK SMILES IDX 34 13 36 14 15 15 16 16 29 17 28 18 21 19 17 20 19 21 30 22
REMARK SMILES IDX 31 23 22 25 23 26 24 27 25 28 26 29 27 30 18 31 20 33 33 35
REMARK SMILES IDX 35 37 37 39 38 41 39 42 40 43 7 45 43 47 44 48 45 50 46 51
REMARK SMILES IDX 47 53 48 54 49 55 50 57 51 58 52 59 53 60 54 61 66 62 55 63
REMARK SMILES IDX 65 64 56 65 61 66 57 67 60 68 58 69 59 70 62 71 64 72 63 73
REMARK SMILES IDX 4 74 2 75 1 77 3 78
REMARK H PARENT 31 24 18 32 20 34 33 36 35 38 37 40 40 44 7 46 44 49 46 52
REMARK H PARENT 48 56 4 76
REMARK Flexibility Score: inf
ROOT
ATOM      1  C   UNL     1      14.332  30.468  22.002  1.00  0.00     0.272 C 
ATOM      2  C   UNL     1      13.036  30.560  22.753  1.00  0.00     0.113 C 
ATOM      3  C   UNL     1      13.318  30.285  24.207  1.00  0.00     0.145 C 
ATOM      4  C   UNL     1      14.159  31.465  24.663  1.00  0.00     0.142 C 
ATOM      5  C   UNL     1      15.455  31.344  23.908  1.00  0.00     0.178 C 
ATOM      6  O   UNL     1      15.473  30.535  22.834  1.00  0.00    -0.332 OA
ENDROOT
BRANCH   1   7
ATOM      7  O   UNL     1      14.538  31.311  21.021  1.00  0.00    -0.338 OA
BRANCH   7   8
ATOM      8  C   UNL     1      14.167  31.383  19.782  1.00  0.00     0.199 C 
BRANCH   8   9
ATOM      9  C   UNL     1      15.020  31.140  18.595  1.00  0.00     0.179 C 
ATOM     10  C   UNL     1      17.159  30.436  18.063  1.00  0.00     0.282 C 
ATOM     11  O   UNL     1      16.226  30.543  19.078  1.00  0.00    -0.341 OA
ATOM     12  C   UNL     1      16.654  30.620  16.682  1.00  0.00     0.202 C 
ATOM     13  C   UNL     1      15.266  30.129  16.413  1.00  0.00     0.179 C 
ATOM     14  C   UNL     1      14.457  30.024  17.682  1.00  0.00     0.177 C 
BRANCH  10  15
ATOM     15  O   UNL     1      17.806  29.205  18.163  1.00  0.00    -0.341 OA
BRANCH  15  16
ATOM     16  C   UNL     1      19.083  29.333  18.705  1.00  0.00     0.184 C 
ATOM     17  C   UNL     1      20.065  28.742  17.724  1.00  0.00     0.178 C 
ATOM     18  O   UNL     1      20.774  27.672  18.203  1.00  0.00    -0.341 OA
ATOM     19  C   UNL     1      21.421  27.862  19.399  1.00  0.00     0.281 C 
ATOM     20  C   UNL     1      19.097  28.429  19.946  1.00  0.00     0.180 C 
ATOM     21  C   UNL     1      20.496  28.416  20.472  1.00  0.00     0.202 C 
BRANCH  17  22
ATOM     22  C   UNL     1      20.963  29.860  17.225  1.00  0.00     0.191 C 
BRANCH  22  23
ATOM     23  O   UNL     1      20.156  30.818  16.613  1.00  0.00    -0.394 OA
ATOM     24  H   UNL     1      19.334  30.468  16.223  1.00  0.00     0.210 HD
ENDBRANCH  22  23
ENDBRANCH  17  22
BRANCH  19  25
ATOM     25  O   UNL     1      22.594  28.587  19.315  1.00  0.00    -0.350 OA
BRANCH  25  26
ATOM     26  C   UNL     1      23.588  27.930  20.023  1.00  0.00     0.169 C 
BRANCH  26  27
ATOM     27  C   UNL     1      24.636  28.938  20.468  1.00  0.00     0.119 C 
BRANCH  27  28
ATOM     28  N   UNL     1      25.966  28.514  20.011  1.00  0.00    -0.092 NA
ATOM     29  N   UNL     1      26.084  27.324  19.722  1.00  0.00     0.001 N 
ATOM     30  N   UNL     1      26.381  26.161  19.513  1.00  0.00    -0.003 NA
ENDBRANCH  27  28
ENDBRANCH  26  27
ENDBRANCH  25  26
ENDBRANCH  19  25
BRANCH  20  31
ATOM     31  O   UNL     1      18.169  28.884  20.854  1.00  0.00    -0.387 OA
ATOM     32  H   UNL     1      18.600  29.401  21.604  1.00  0.00     0.211 HD
ENDBRANCH  20  31
BRANCH  21  33
ATOM     33  O   UNL     1      20.605  27.712  21.673  1.00  0.00    -0.385 OA
ATOM     34  H   UNL     1      19.789  27.895  22.232  1.00  0.00     0.211 HD
ENDBRANCH  21  33
ENDBRANCH  15  16
ENDBRANCH  10  15
BRANCH  12  35
ATOM     35  O   UNL     1      16.849  31.931  16.223  1.00  0.00    -0.385 OA
ATOM     36  H   UNL     1      17.514  31.963  15.489  1.00  0.00     0.211 HD
ENDBRANCH  12  35
BRANCH  13  37
ATOM     37  O   UNL     1      15.266  28.856  15.817  1.00  0.00    -0.387 OA
ATOM     38  H   UNL     1      14.477  28.379  16.188  1.00  0.00     0.211 HD
ENDBRANCH  13  37
BRANCH  14  39
ATOM     39  O   UNL     1      14.640  28.784  18.304  1.00  0.00    -0.387 OA
ATOM     40  H   UNL     1      14.277  28.763  19.227  1.00  0.00     0.211 HD
ENDBRANCH  14  39
ENDBRANCH   8   9
ENDBRANCH   7   8
ENDBRANCH   1   7
BRANCH   1  41
ATOM     41  C   UNL     1      14.404  29.046  21.560  1.00  0.00     0.364 C 
ATOM     42  O   UNL     1      13.342  28.336  21.500  1.00  0.00    -0.246 OA
BRANCH  41  43
ATOM     43  O   UNL     1      15.543  28.374  21.197  1.00  0.00    -0.477 OA
ATOM     44  H   UNL     1      16.239  28.768  20.579  1.00  0.00     0.296 HD
ENDBRANCH  41  43
ENDBRANCH   1  41
BRANCH   3  45
ATOM     45  O   UNL     1      12.086  30.255  24.855  1.00  0.00    -0.391 OA
ATOM     46  H   UNL     1      11.738  29.327  24.929  1.00  0.00     0.211 HD
ENDBRANCH   3  45
BRANCH   5  47
ATOM     47  C   UNL     1      16.021  32.773  23.620  1.00  0.00     0.176 C 
BRANCH  47  48
ATOM     48  O   UNL     1      16.770  32.577  22.397  1.00  0.00    -0.388 OA
ATOM     49  H   UNL     1      16.112  32.893  21.704  1.00  0.00     0.211 HD
ENDBRANCH  47  48
BRANCH  47  50
ATOM     50  C   UNL     1      16.994  33.181  24.643  1.00  0.00     0.165 C 
BRANCH  50  51
ATOM     51  O   UNL     1      17.509  34.478  24.396  1.00  0.00    -0.388 OA
ATOM     52  H   UNL     1      18.305  34.441  23.823  1.00  0.00     0.211 HD
ENDBRANCH  50  51
BRANCH  50  53
ATOM     53  C   UNL     1      17.903  32.244  25.300  1.00  0.00     0.154 C 
BRANCH  53  54
ATOM     54  N   UNL     1      18.760  31.483  24.468  1.00  0.00    -0.319 N 
ATOM     55  C   UNL     1      19.879  31.921  23.726  1.00  0.00     0.407 C 
ATOM     56  H   UNL     1      18.567  30.433  24.366  1.00  0.00     0.167 HD
ATOM     57  O   UNL     1      20.181  33.136  23.762  1.00  0.00    -0.225 OA
BRANCH  55  58
ATOM     58  O   UNL     1      20.674  31.086  22.953  1.00  0.00    -0.443 OA
BRANCH  58  59
ATOM     59  C   UNL     1      21.829  30.497  23.489  1.00  0.00     0.294 C 
BRANCH  59  60
ATOM     60  C   UNL     1      21.397  29.261  24.228  1.00  0.00     0.121 A 
ATOM     61  C   UNL     1      22.179  28.443  25.010  1.00  0.00     0.144 A 
ATOM     62  N   UNL     1      20.176  28.709  24.272  1.00  0.00    -0.131 NA
ATOM     63  N   UNL     1      21.393  27.426  25.492  1.00  0.00    -0.220 N 
ATOM     64  N   UNL     1      20.182  27.628  25.019  1.00  0.00    -0.062 NA
BRANCH  63  65
ATOM     65  C   UNL     1      21.878  26.367  26.308  1.00  0.00     0.077 A 
ATOM     66  C   UNL     1      22.279  25.152  25.880  1.00  0.00     0.043 A 
ATOM     67  C   UNL     1      21.938  26.657  27.685  1.00  0.00     0.029 A 
ATOM     68  C   UNL     1      22.737  24.231  26.846  1.00  0.00     0.014 A 
ATOM     69  C   UNL     1      22.390  25.738  28.606  1.00  0.00     0.002 A 
ATOM     70  C   UNL     1      22.801  24.497  28.184  1.00  0.00     0.001 A 
BRANCH  66  71
ATOM     71  C   UNL     1      22.247  24.766  24.489  1.00  0.00     0.161 C 
ATOM     72  O   UNL     1      23.406  24.592  23.947  1.00  0.00    -0.294 OA
ATOM     73  C   UNL     1      21.090  24.547  23.620  1.00  0.00     0.093 C 
ENDBRANCH  66  71
ENDBRANCH  63  65
ENDBRANCH  59  60
ENDBRANCH  58  59
ENDBRANCH  55  58
ENDBRANCH  53  54
ENDBRANCH  50  53
ENDBRANCH  47  50
ENDBRANCH   5  47
BRANCH   4  74
ATOM     74  N   UNL     1      14.332  31.495  26.084  1.00  0.00    -0.348 N 
ATOM     75  C   UNL     1      13.513  32.251  26.960  1.00  0.00     0.217 C 
ATOM     76  H   UNL     1      15.119  30.915  26.478  1.00  0.00     0.163 HD
ATOM     77  C   UNL     1      13.784  32.208  28.440  1.00  0.00     0.114 C 
ATOM     78  O   UNL     1      12.591  32.925  26.458  1.00  0.00    -0.275 OA
ENDBRANCH   4  74
TORSDOF 31
