REMARK VINA RESULT:    -5.986      5.141     10.943
REMARK INTER + INTRA:         -21.429
REMARK INTER:                 -15.867
REMARK INTRA:                  -5.563
REMARK UNBOUND:                -6.520
REMARK SMILES CC(=O)N[C@@H]1[C@@H](O)C[C@](OC[C@H]2O[C@@H](O[C@H]3[C@H](O)[C@@H](O)[C@H](OCCN=[N+]=[N-])O[C@@H]3CO)[C@H](O)[C@@H](O)[C@H]2O)(C(=O)O)O[C@H]1C(O)[C@H](O)CNC(=O)OCc1cn(-c2nc(C)nc(N)n2)nn1
REMARK SMILES IDX 9 1 8 2 6 3 5 4 42 5 41 6 10 7 11 8 12 9 14 10 13 11 32 12
REMARK SMILES IDX 34 13 36 14 15 15 16 16 29 17 28 18 21 19 17 20 19 21 30 22
REMARK SMILES IDX 31 23 22 25 23 26 24 27 25 28 26 29 27 30 18 31 20 33 33 35
REMARK SMILES IDX 35 37 37 39 38 41 39 42 40 43 7 45 43 47 44 48 45 50 46 51
REMARK SMILES IDX 47 53 48 54 49 55 50 57 51 58 52 59 53 60 54 61 65 62 55 63
REMARK SMILES IDX 64 64 56 65 63 66 57 67 61 68 58 69 60 70 59 71 62 72 4 75
REMARK SMILES IDX 2 76 1 78 3 79
REMARK H PARENT 31 24 18 32 20 34 33 36 35 38 37 40 40 44 7 46 44 49 46 52
REMARK H PARENT 48 56 62 73 62 74 4 77
REMARK Flexibility Score: inf
ROOT
ATOM      1  C   UNL     1      17.252  29.455  18.432  1.00  0.00     0.272 C 
ATOM      2  C   UNL     1      16.981  30.281  17.221  1.00  0.00     0.113 C 
ATOM      3  C   UNL     1      16.177  31.500  17.556  1.00  0.00     0.145 C 
ATOM      4  C   UNL     1      14.905  31.066  18.236  1.00  0.00     0.142 C 
ATOM      5  C   UNL     1      15.131  30.019  19.302  1.00  0.00     0.178 C 
ATOM      6  O   UNL     1      15.999  29.051  18.965  1.00  0.00    -0.332 OA
ENDROOT
BRANCH   1   7
ATOM      7  O   UNL     1      18.097  29.871  19.308  1.00  0.00    -0.338 OA
BRANCH   7   8
ATOM      8  C   UNL     1      19.051  29.513  20.079  1.00  0.00     0.199 C 
BRANCH   8   9
ATOM      9  C   UNL     1      20.397  28.988  19.715  1.00  0.00     0.179 C 
ATOM     10  C   UNL     1      21.777  27.253  19.564  1.00  0.00     0.282 C 
ATOM     11  O   UNL     1      20.410  27.633  19.648  1.00  0.00    -0.341 OA
ATOM     12  C   UNL     1      22.125  27.481  18.115  1.00  0.00     0.202 C 
ATOM     13  C   UNL     1      22.064  28.959  17.820  1.00  0.00     0.179 C 
ATOM     14  C   UNL     1      21.152  29.748  18.674  1.00  0.00     0.177 C 
BRANCH  10  15
ATOM     15  O   UNL     1      21.955  25.944  19.923  1.00  0.00    -0.341 OA
BRANCH  15  16
ATOM     16  C   UNL     1      22.675  25.774  21.093  1.00  0.00     0.184 C 
ATOM     17  C   UNL     1      23.887  24.913  20.975  1.00  0.00     0.178 C 
ATOM     18  O   UNL     1      23.910  23.866  21.886  1.00  0.00    -0.341 OA
ATOM     19  C   UNL     1      23.700  24.251  23.205  1.00  0.00     0.281 C 
ATOM     20  C   UNL     1      21.690  25.107  22.072  1.00  0.00     0.180 C 
ATOM     21  C   UNL     1      22.407  24.987  23.396  1.00  0.00     0.202 C 
BRANCH  17  22
ATOM     22  C   UNL     1      25.194  25.661  20.967  1.00  0.00     0.191 C 
BRANCH  22  23
ATOM     23  O   UNL     1      24.941  26.913  20.365  1.00  0.00    -0.394 OA
ATOM     24  H   UNL     1      24.603  26.827  19.447  1.00  0.00     0.210 HD
ENDBRANCH  22  23
ENDBRANCH  17  22
BRANCH  19  25
ATOM     25  O   UNL     1      24.720  24.997  23.725  1.00  0.00    -0.350 OA
BRANCH  25  26
ATOM     26  C   UNL     1      24.429  25.824  24.768  1.00  0.00     0.169 C 
BRANCH  26  27
ATOM     27  C   UNL     1      24.874  25.294  26.103  1.00  0.00     0.119 C 
BRANCH  27  28
ATOM     28  N   UNL     1      23.737  24.589  26.713  1.00  0.00    -0.092 NA
ATOM     29  N   UNL     1      22.925  25.279  27.326  1.00  0.00     0.001 N 
ATOM     30  N   UNL     1      22.232  25.600  28.316  1.00  0.00    -0.003 NA
ENDBRANCH  27  28
ENDBRANCH  26  27
ENDBRANCH  25  26
ENDBRANCH  19  25
BRANCH  20  31
ATOM     31  O   UNL     1      20.534  25.854  22.152  1.00  0.00    -0.387 OA
ATOM     32  H   UNL     1      19.784  25.321  22.537  1.00  0.00     0.211 HD
ENDBRANCH  20  31
BRANCH  21  33
ATOM     33  O   UNL     1      21.548  24.316  24.267  1.00  0.00    -0.385 OA
ATOM     34  H   UNL     1      21.416  23.376  23.988  1.00  0.00     0.211 HD
ENDBRANCH  21  33
ENDBRANCH  15  16
ENDBRANCH  10  15
BRANCH  12  35
ATOM     35  O   UNL     1      23.367  26.954  17.768  1.00  0.00    -0.385 OA
ATOM     36  H   UNL     1      23.269  25.972  17.694  1.00  0.00     0.211 HD
ENDBRANCH  12  35
BRANCH  13  37
ATOM     37  O   UNL     1      21.809  29.089  16.452  1.00  0.00    -0.387 OA
ATOM     38  H   UNL     1      22.570  28.797  15.890  1.00  0.00     0.211 HD
ENDBRANCH  13  37
BRANCH  14  39
ATOM     39  O   UNL     1      20.382  30.600  17.889  1.00  0.00    -0.387 OA
ATOM     40  H   UNL     1      21.014  31.301  17.547  1.00  0.00     0.211 HD
ENDBRANCH  14  39
ENDBRANCH   8   9
ENDBRANCH   7   8
ENDBRANCH   1   7
BRANCH   1  41
ATOM     41  C   UNL     1      17.706  28.101  17.816  1.00  0.00     0.364 C 
ATOM     42  O   UNL     1      17.084  27.109  18.172  1.00  0.00    -0.246 OA
BRANCH  41  43
ATOM     43  O   UNL     1      18.741  28.060  16.935  1.00  0.00    -0.477 OA
ATOM     44  H   UNL     1      19.370  27.251  16.830  1.00  0.00     0.296 HD
ENDBRANCH  41  43
ENDBRANCH   1  41
BRANCH   3  45
ATOM     45  O   UNL     1      16.807  32.381  18.405  1.00  0.00    -0.391 OA
ATOM     46  H   UNL     1      16.307  32.544  19.223  1.00  0.00     0.211 HD
ENDBRANCH   3  45
BRANCH   5  47
ATOM     47  C   UNL     1      15.330  30.599  20.681  1.00  0.00     0.176 C 
BRANCH  47  48
ATOM     48  O   UNL     1      14.721  31.837  20.785  1.00  0.00    -0.388 OA
ATOM     49  H   UNL     1      15.326  32.599  20.825  1.00  0.00     0.211 HD
ENDBRANCH  47  48
BRANCH  47  50
ATOM     50  C   UNL     1      14.796  29.642  21.699  1.00  0.00     0.165 C 
BRANCH  50  51
ATOM     51  O   UNL     1      15.469  28.415  21.559  1.00  0.00    -0.388 OA
ATOM     52  H   UNL     1      15.323  27.890  22.365  1.00  0.00     0.211 HD
ENDBRANCH  50  51
BRANCH  50  53
ATOM     53  C   UNL     1      13.331  29.377  21.622  1.00  0.00     0.154 C 
BRANCH  53  54
ATOM     54  N   UNL     1      12.577  30.145  22.587  1.00  0.00    -0.319 N 
ATOM     55  C   UNL     1      11.891  31.339  22.291  1.00  0.00     0.407 C 
ATOM     56  H   UNL     1      12.515  29.816  23.596  1.00  0.00     0.167 HD
ATOM     57  O   UNL     1      11.902  31.801  21.147  1.00  0.00    -0.225 OA
BRANCH  55  58
ATOM     58  O   UNL     1      11.183  32.042  23.261  1.00  0.00    -0.443 OA
BRANCH  58  59
ATOM     59  C   UNL     1       9.962  32.693  23.022  1.00  0.00     0.294 C 
BRANCH  59  60
ATOM     60  C   UNL     1       8.797  31.779  23.224  1.00  0.00     0.121 A 
ATOM     61  C   UNL     1       8.660  30.838  24.224  1.00  0.00     0.148 A 
ATOM     62  N   UNL     1       7.679  31.705  22.477  1.00  0.00    -0.131 NA
ATOM     63  N   UNL     1       7.476  30.225  24.056  1.00  0.00    -0.185 N 
ATOM     64  N   UNL     1       6.907  30.767  22.998  1.00  0.00    -0.059 NA
BRANCH  63  65
ATOM     65  C   UNL     1       6.988  29.193  24.901  1.00  0.00     0.257 A 
ATOM     66  N   UNL     1       7.192  27.907  24.561  1.00  0.00    -0.175 NA
ATOM     67  N   UNL     1       6.321  29.414  26.049  1.00  0.00    -0.196 NA
ATOM     68  C   UNL     1       6.751  26.880  25.331  1.00  0.00     0.225 A 
ATOM     69  C   UNL     1       5.872  28.429  26.834  1.00  0.00     0.133 A 
ATOM     70  N   UNL     1       6.087  27.169  26.472  1.00  0.00    -0.198 NA
ATOM     71  C   UNL     1       5.130  28.724  28.109  1.00  0.00     0.090 C 
BRANCH  68  72
ATOM     72  N   UNL     1       6.993  25.547  24.927  1.00  0.00    -0.368 N 
ATOM     73  H   UNL     1       6.659  24.740  25.490  1.00  0.00     0.159 HD
ATOM     74  H   UNL     1       7.514  25.347  24.052  1.00  0.00     0.159 HD
ENDBRANCH  68  72
ENDBRANCH  63  65
ENDBRANCH  59  60
ENDBRANCH  58  59
ENDBRANCH  55  58
ENDBRANCH  53  54
ENDBRANCH  50  53
ENDBRANCH  47  50
ENDBRANCH   5  47
BRANCH   4  75
ATOM     75  N   UNL     1      13.990  30.566  17.232  1.00  0.00    -0.348 N 
ATOM     76  C   UNL     1      12.710  31.161  17.049  1.00  0.00     0.217 C 
ATOM     77  H   UNL     1      14.228  29.755  16.606  1.00  0.00     0.163 HD
ATOM     78  C   UNL     1      11.793  30.640  16.027  1.00  0.00     0.114 C 
ATOM     79  O   UNL     1      12.372  32.129  17.765  1.00  0.00    -0.275 OA
ENDBRANCH   4  75
TORSDOF 31
