REMARK VINA RESULT:    -7.208      1.140      2.463
REMARK INTER + INTRA:         -23.281
REMARK INTER:                 -17.463
REMARK INTRA:                  -5.818
REMARK UNBOUND:                -5.539
REMARK SMILES CC(=O)N[C@@H]1[C@@H](O)C[C@](OC[C@H]2O[C@@H](O[C@H]3[C@H](O)[C@@H](O)[C@H](OCCN=[N+]=[N-])O[C@@H]3CO)[C@H](O)[C@@H](O)[C@H]2O)(C(=O)O)O[C@H]1C(O)[C@H](O)CNC(=O)OCc1cn(-c2c3ccccc3nc3ccccc23)nn1
REMARK SMILES IDX 9 1 8 2 6 3 5 4 42 5 41 6 10 7 11 8 12 9 14 10 13 11 32 12
REMARK SMILES IDX 34 13 36 14 15 15 16 16 29 17 28 18 21 19 17 20 19 21 30 22
REMARK SMILES IDX 31 23 22 25 23 26 24 27 25 28 26 29 27 30 18 31 20 33 33 35
REMARK SMILES IDX 35 37 37 39 38 41 39 42 40 43 7 45 43 47 44 48 45 50 46 51
REMARK SMILES IDX 47 53 48 54 49 55 50 57 51 58 52 59 53 60 54 61 71 62 55 63
REMARK SMILES IDX 70 64 56 65 57 66 69 67 58 68 62 69 64 70 68 71 59 72 61 73
REMARK SMILES IDX 63 74 65 75 67 76 60 77 66 78 4 79 2 80 1 82 3 83
REMARK H PARENT 31 24 18 32 20 34 33 36 35 38 37 40 40 44 7 46 44 49 46 52
REMARK H PARENT 48 56 4 81
REMARK Flexibility Score: inf
ROOT
ATOM      1  C   UNL     1       1.392  22.885  33.842  1.00  0.00     0.272 C 
ATOM      2  C   UNL     1       2.192  22.874  35.236  1.00  0.00     0.113 C 
ATOM      3  C   UNL     1       2.322  21.429  35.549  1.00  0.00     0.145 C 
ATOM      4  C   UNL     1       2.961  20.597  34.457  1.00  0.00     0.142 C 
ATOM      5  C   UNL     1       2.783  21.133  33.098  1.00  0.00     0.178 C 
ATOM      6  O   UNL     1       2.271  22.380  32.980  1.00  0.00    -0.332 OA
ENDROOT
BRANCH   1   7
ATOM      7  O   UNL     1       1.303  24.267  33.661  1.00  0.00    -0.338 OA
BRANCH   7   8
ATOM      8  C   UNL     1       1.502  24.737  32.407  1.00  0.00     0.199 C 
BRANCH   8   9
ATOM      9  C   UNL     1       2.469  25.851  32.285  1.00  0.00     0.179 C 
ATOM     10  C   UNL     1       4.360  26.878  33.188  1.00  0.00     0.282 C 
ATOM     11  O   UNL     1       3.381  25.867  33.304  1.00  0.00    -0.341 OA
ATOM     12  C   UNL     1       4.098  27.858  32.124  1.00  0.00     0.202 C 
ATOM     13  C   UNL     1       3.833  27.197  30.791  1.00  0.00     0.179 C 
ATOM     14  C   UNL     1       3.174  25.864  30.926  1.00  0.00     0.177 C 
BRANCH  10  15
ATOM     15  O   UNL     1       5.620  26.299  33.112  1.00  0.00    -0.341 OA
BRANCH  15  16
ATOM     16  C   UNL     1       5.789  25.245  34.039  1.00  0.00     0.184 C 
ATOM     17  C   UNL     1       6.372  25.768  35.291  1.00  0.00     0.178 C 
ATOM     18  O   UNL     1       7.004  24.774  36.082  1.00  0.00    -0.341 OA
ATOM     19  C   UNL     1       8.082  24.305  35.340  1.00  0.00     0.281 C 
ATOM     20  C   UNL     1       6.751  24.284  33.324  1.00  0.00     0.180 C 
ATOM     21  C   UNL     1       7.457  23.373  34.290  1.00  0.00     0.202 C 
BRANCH  17  22
ATOM     22  C   UNL     1       5.314  26.404  36.179  1.00  0.00     0.191 C 
BRANCH  22  23
ATOM     23  O   UNL     1       4.200  25.623  36.348  1.00  0.00    -0.394 OA
ATOM     24  H   UNL     1       4.225  25.217  37.253  1.00  0.00     0.210 HD
ENDBRANCH  22  23
ENDBRANCH  17  22
BRANCH  19  25
ATOM     25  O   UNL     1       8.931  23.647  36.194  1.00  0.00    -0.350 OA
BRANCH  25  26
ATOM     26  C   UNL     1       8.797  24.009  37.531  1.00  0.00     0.169 C 
BRANCH  26  27
ATOM     27  C   UNL     1      10.019  23.644  38.347  1.00  0.00     0.119 C 
BRANCH  27  28
ATOM     28  N   UNL     1      10.148  22.192  38.295  1.00  0.00    -0.092 NA
ATOM     29  N   UNL     1       9.686  21.486  39.199  1.00  0.00     0.001 N 
ATOM     30  N   UNL     1       9.188  20.732  40.037  1.00  0.00    -0.003 NA
ENDBRANCH  27  28
ENDBRANCH  26  27
ENDBRANCH  25  26
ENDBRANCH  19  25
BRANCH  20  31
ATOM     31  O   UNL     1       6.074  23.594  32.331  1.00  0.00    -0.387 OA
ATOM     32  H   UNL     1       5.430  24.159  31.837  1.00  0.00     0.211 HD
ENDBRANCH  20  31
BRANCH  21  33
ATOM     33  O   UNL     1       8.424  22.656  33.623  1.00  0.00    -0.385 OA
ATOM     34  H   UNL     1       8.993  23.319  33.127  1.00  0.00     0.211 HD
ENDBRANCH  21  33
ENDBRANCH  15  16
ENDBRANCH  10  15
BRANCH  12  35
ATOM     35  O   UNL     1       3.069  28.738  32.493  1.00  0.00    -0.385 OA
ATOM     36  H   UNL     1       2.237  28.177  32.513  1.00  0.00     0.211 HD
ENDBRANCH  12  35
BRANCH  13  37
ATOM     37  O   UNL     1       5.065  27.097  30.116  1.00  0.00    -0.387 OA
ATOM     38  H   UNL     1       5.264  28.035  29.797  1.00  0.00     0.211 HD
ENDBRANCH  13  37
BRANCH  14  39
ATOM     39  O   UNL     1       4.042  24.802  30.774  1.00  0.00    -0.387 OA
ATOM     40  H   UNL     1       3.722  23.971  31.209  1.00  0.00     0.211 HD
ENDBRANCH  14  39
ENDBRANCH   8   9
ENDBRANCH   7   8
ENDBRANCH   1   7
BRANCH   1  41
ATOM     41  C   UNL     1       0.157  22.260  34.182  1.00  0.00     0.364 C 
ATOM     42  O   UNL     1      -0.376  21.400  33.408  1.00  0.00    -0.246 OA
BRANCH  41  43
ATOM     43  O   UNL     1      -0.590  22.487  35.343  1.00  0.00    -0.477 OA
ATOM     44  H   UNL     1      -1.220  21.763  35.665  1.00  0.00     0.296 HD
ENDBRANCH  41  43
ENDBRANCH   1  41
BRANCH   3  45
ATOM     45  O   UNL     1       3.087  21.342  36.737  1.00  0.00    -0.391 OA
ATOM     46  H   UNL     1       3.995  21.704  36.562  1.00  0.00     0.211 HD
ENDBRANCH   3  45
BRANCH   5  47
ATOM     47  C   UNL     1       4.129  21.185  32.323  1.00  0.00     0.176 C 
BRANCH  47  48
ATOM     48  O   UNL     1       5.171  20.887  33.151  1.00  0.00    -0.388 OA
ATOM     49  H   UNL     1       6.017  21.396  32.951  1.00  0.00     0.211 HD
ENDBRANCH  47  48
BRANCH  47  50
ATOM     50  C   UNL     1       4.066  20.582  30.994  1.00  0.00     0.165 C 
BRANCH  50  51
ATOM     51  O   UNL     1       5.274  20.422  30.312  1.00  0.00    -0.388 OA
ATOM     52  H   UNL     1       5.366  19.510  29.939  1.00  0.00     0.211 HD
ENDBRANCH  50  51
BRANCH  50  53
ATOM     53  C   UNL     1       2.920  20.899  30.114  1.00  0.00     0.154 C 
BRANCH  53  54
ATOM     54  N   UNL     1       2.923  22.080  29.335  1.00  0.00    -0.319 N 
ATOM     55  C   UNL     1       2.301  22.236  28.078  1.00  0.00     0.407 C 
ATOM     56  H   UNL     1       3.446  22.948  29.733  1.00  0.00     0.167 HD
ATOM     57  O   UNL     1       1.687  21.342  27.477  1.00  0.00    -0.225 OA
BRANCH  55  58
ATOM     58  O   UNL     1       2.342  23.474  27.407  1.00  0.00    -0.443 OA
BRANCH  58  59
ATOM     59  C   UNL     1       3.168  23.710  26.280  1.00  0.00     0.294 C 
BRANCH  59  60
ATOM     60  C   UNL     1       3.844  25.031  26.430  1.00  0.00     0.121 A 
ATOM     61  C   UNL     1       4.453  25.796  25.458  1.00  0.00     0.144 A 
ATOM     62  N   UNL     1       3.998  25.726  27.567  1.00  0.00    -0.131 NA
ATOM     63  N   UNL     1       4.960  26.924  26.004  1.00  0.00    -0.219 N 
ATOM     64  N   UNL     1       4.667  26.851  27.292  1.00  0.00    -0.062 NA
BRANCH  63  65
ATOM     65  C   UNL     1       5.670  27.969  25.313  1.00  0.00     0.085 A 
ATOM     66  C   UNL     1       7.051  27.916  25.207  1.00  0.00     0.027 A 
ATOM     67  C   UNL     1       5.022  29.041  24.745  1.00  0.00     0.027 A 
ATOM     68  C   UNL     1       7.758  26.867  25.754  1.00  0.00     0.012 A 
ATOM     69  C   UNL     1       7.784  28.903  24.552  1.00  0.00     0.073 A 
ATOM     70  C   UNL     1       5.783  29.995  24.107  1.00  0.00     0.073 A 
ATOM     71  C   UNL     1       3.665  29.156  24.811  1.00  0.00     0.012 A 
ATOM     72  C   UNL     1       9.131  26.812  25.648  1.00  0.00     0.001 A 
ATOM     73  C   UNL     1       9.157  28.845  24.449  1.00  0.00     0.029 A 
ATOM     74  N   UNL     1       7.123  29.934  24.011  1.00  0.00    -0.248 NA
ATOM     75  C   UNL     1       5.170  31.085  23.525  1.00  0.00     0.029 A 
ATOM     76  C   UNL     1       3.073  30.263  24.216  1.00  0.00     0.001 A 
ATOM     77  C   UNL     1       9.862  27.800  24.994  1.00  0.00     0.002 A 
ATOM     78  C   UNL     1       3.796  31.241  23.567  1.00  0.00     0.002 A 
ENDBRANCH  63  65
ENDBRANCH  59  60
ENDBRANCH  58  59
ENDBRANCH  55  58
ENDBRANCH  53  54
ENDBRANCH  50  53
ENDBRANCH  47  50
ENDBRANCH   5  47
BRANCH   4  79
ATOM     79  N   UNL     1       2.540  19.222  34.608  1.00  0.00    -0.348 N 
ATOM     80  C   UNL     1       3.155  18.282  35.487  1.00  0.00     0.217 C 
ATOM     81  H   UNL     1       1.738  18.843  34.052  1.00  0.00     0.163 HD
ATOM     82  C   UNL     1       2.628  16.877  35.549  1.00  0.00     0.114 C 
ATOM     83  O   UNL     1       4.114  18.671  36.173  1.00  0.00    -0.275 OA
ENDBRANCH   4  79
TORSDOF 30
