REMARK VINA RESULT:    -4.598      5.036     10.863
REMARK INTER + INTRA:         -22.272
REMARK INTER:                 -11.193
REMARK INTRA:                 -11.079
REMARK UNBOUND:                -9.744
REMARK SMILES CC(=O)N[C@@H]1[C@@H](O)C[C@](OC[C@H]2O[C@@H](O[C@H]3[C@H](O)[C@@H](O)[C@H](OCCN=[N+]=[N-])O[C@@H]3CO)[C@H](O)[C@@H](O)[C@H]2O)(C(=O)O)O[C@H]1C(O)[C@H](O)CNC(=O)OCc1cn(CC(O)Cn2ccnc2[N+](=O)[O-])nn1
REMARK SMILES IDX 43 1 42 2 9 3 8 4 41 5 6 6 5 7 10 8 11 9 12 10 14 11 13 12
REMARK SMILES IDX 32 13 34 14 36 15 15 16 16 17 29 18 28 19 21 20 17 21 19 22
REMARK SMILES IDX 30 23 31 24 22 26 23 27 24 28 25 29 26 30 27 31 18 32 20 34
REMARK SMILES IDX 33 36 35 38 37 40 38 42 39 43 40 44 7 46 4 48 2 49 1 51 3 52
REMARK SMILES IDX 44 53 45 55 46 56 47 58 48 59 49 60 50 62 51 63 52 64 53 65
REMARK SMILES IDX 54 66 69 67 55 68 68 69 56 70 57 71 58 72 59 74 60 75 61 76
REMARK SMILES IDX 64 77 62 78 63 79 65 80 66 81 67 82
REMARK H PARENT 31 25 18 33 20 35 33 37 35 39 37 41 40 45 7 47 4 50 44 54
REMARK H PARENT 46 57 48 61 58 73
REMARK Flexibility Score: inf
ROOT
ATOM      1  C   UNL     1      21.176  25.331  23.645  1.00  0.00     0.176 C 
ENDROOT
BRANCH   1   2
ATOM      2  C   UNL     1      21.428  26.633  24.465  1.00  0.00     0.178 C 
ATOM      3  C   UNL     1      21.719  28.864  23.930  1.00  0.00     0.272 C 
ATOM      4  C   UNL     1      22.822  28.974  24.941  1.00  0.00     0.113 C 
ATOM      5  O   UNL     1      21.634  27.563  23.445  1.00  0.00    -0.332 OA
ATOM      6  C   UNL     1      23.615  27.678  25.043  1.00  0.00     0.145 C 
ATOM      7  C   UNL     1      22.673  26.497  25.238  1.00  0.00     0.142 C 
BRANCH   3   8
ATOM      8  O   UNL     1      21.948  29.622  22.788  1.00  0.00    -0.338 OA
BRANCH   8   9
ATOM      9  C   UNL     1      22.377  29.015  21.669  1.00  0.00     0.199 C 
BRANCH   9  10
ATOM     10  C   UNL     1      21.687  29.501  20.410  1.00  0.00     0.179 C 
ATOM     11  C   UNL     1      21.938  29.761  18.206  1.00  0.00     0.282 C 
ATOM     12  O   UNL     1      22.194  28.845  19.256  1.00  0.00    -0.341 OA
ATOM     13  C   UNL     1      20.458  30.026  18.083  1.00  0.00     0.202 C 
ATOM     14  C   UNL     1      19.746  28.972  18.928  1.00  0.00     0.179 C 
ATOM     15  C   UNL     1      20.208  29.192  20.372  1.00  0.00     0.177 C 
BRANCH  11  16
ATOM     16  O   UNL     1      22.435  29.313  17.000  1.00  0.00    -0.341 OA
BRANCH  16  17
ATOM     17  C   UNL     1      23.722  29.783  16.880  1.00  0.00     0.184 C 
ATOM     18  C   UNL     1      23.932  30.707  15.690  1.00  0.00     0.178 C 
ATOM     19  O   UNL     1      25.131  31.369  15.971  1.00  0.00    -0.341 OA
ATOM     20  C   UNL     1      26.238  30.568  15.948  1.00  0.00     0.281 C 
ATOM     21  C   UNL     1      24.729  28.659  16.676  1.00  0.00     0.180 C 
ATOM     22  C   UNL     1      26.099  29.187  16.476  1.00  0.00     0.202 C 
BRANCH  18  23
ATOM     23  C   UNL     1      22.823  31.670  15.463  1.00  0.00     0.191 C 
BRANCH  23  24
ATOM     24  O   UNL     1      21.805  31.014  14.782  1.00  0.00    -0.394 OA
ATOM     25  H   UNL     1      21.201  31.632  14.301  1.00  0.00     0.210 HD
ENDBRANCH  23  24
ENDBRANCH  18  23
BRANCH  20  26
ATOM     26  O   UNL     1      27.207  31.219  16.758  1.00  0.00    -0.350 OA
BRANCH  26  27
ATOM     27  C   UNL     1      27.273  30.702  18.026  1.00  0.00     0.169 C 
BRANCH  27  28
ATOM     28  C   UNL     1      28.765  30.506  18.328  1.00  0.00     0.119 C 
BRANCH  28  29
ATOM     29  N   UNL     1      29.041  29.215  18.880  1.00  0.00    -0.092 NA
ATOM     30  N   UNL     1      28.220  28.273  18.786  1.00  0.00     0.001 N 
ATOM     31  N   UNL     1      27.776  27.180  18.474  1.00  0.00    -0.003 NA
ENDBRANCH  28  29
ENDBRANCH  27  28
ENDBRANCH  26  27
ENDBRANCH  20  26
BRANCH  21  32
ATOM     32  O   UNL     1      24.723  27.828  17.815  1.00  0.00    -0.387 OA
ATOM     33  H   UNL     1      24.439  28.389  18.558  1.00  0.00     0.211 HD
ENDBRANCH  21  32
BRANCH  22  34
ATOM     34  O   UNL     1      26.716  28.328  15.531  1.00  0.00    -0.385 OA
ATOM     35  H   UNL     1      26.441  27.386  15.679  1.00  0.00     0.211 HD
ENDBRANCH  22  34
ENDBRANCH  16  17
ENDBRANCH  11  16
BRANCH  13  36
ATOM     36  O   UNL     1      20.195  31.308  18.566  1.00  0.00    -0.385 OA
ATOM     37  H   UNL     1      19.801  31.278  19.483  1.00  0.00     0.211 HD
ENDBRANCH  13  36
BRANCH  14  38
ATOM     38  O   UNL     1      20.245  27.738  18.552  1.00  0.00    -0.387 OA
ATOM     39  H   UNL     1      20.213  27.118  19.301  1.00  0.00     0.211 HD
ENDBRANCH  14  38
BRANCH  15  40
ATOM     40  O   UNL     1      19.886  28.034  21.044  1.00  0.00    -0.387 OA
ATOM     41  H   UNL     1      19.304  28.201  21.828  1.00  0.00     0.211 HD
ENDBRANCH  15  40
ENDBRANCH   9  10
ENDBRANCH   8   9
ENDBRANCH   3   8
BRANCH   3  42
ATOM     42  C   UNL     1      20.425  29.241  24.513  1.00  0.00     0.364 C 
ATOM     43  O   UNL     1      20.313  29.614  25.733  1.00  0.00    -0.246 OA
BRANCH  42  44
ATOM     44  O   UNL     1      19.233  29.225  23.817  1.00  0.00    -0.477 OA
ATOM     45  H   UNL     1      18.351  28.891  24.216  1.00  0.00     0.296 HD
ENDBRANCH  42  44
ENDBRANCH   3  42
BRANCH   6  46
ATOM     46  O   UNL     1      24.451  27.496  23.958  1.00  0.00    -0.391 OA
ATOM     47  H   UNL     1      24.181  26.715  23.414  1.00  0.00     0.211 HD
ENDBRANCH   6  46
BRANCH   7  48
ATOM     48  N   UNL     1      22.580  26.148  26.620  1.00  0.00    -0.348 N 
ATOM     49  C   UNL     1      23.301  25.191  27.325  1.00  0.00     0.217 C 
ATOM     50  H   UNL     1      21.852  26.709  27.236  1.00  0.00     0.163 HD
ATOM     51  C   UNL     1      23.085  24.984  28.815  1.00  0.00     0.114 C 
ATOM     52  O   UNL     1      24.150  24.454  26.818  1.00  0.00    -0.275 OA
ENDBRANCH   7  48
ENDBRANCH   1   2
BRANCH   1  53
ATOM     53  O   UNL     1      21.555  24.250  24.480  1.00  0.00    -0.388 OA
ATOM     54  H   UNL     1      20.791  23.795  24.866  1.00  0.00     0.211 HD
ENDBRANCH   1  53
BRANCH   1  55
ATOM     55  C   UNL     1      21.865  25.256  22.364  1.00  0.00     0.165 C 
BRANCH  55  56
ATOM     56  O   UNL     1      21.180  25.660  21.247  1.00  0.00    -0.388 OA
ATOM     57  H   UNL     1      21.649  25.485  20.400  1.00  0.00     0.211 HD
ENDBRANCH  55  56
BRANCH  55  58
ATOM     58  C   UNL     1      22.483  23.863  22.092  1.00  0.00     0.154 C 
BRANCH  58  59
ATOM     59  N   UNL     1      23.831  24.122  21.599  1.00  0.00    -0.319 N 
ATOM     60  C   UNL     1      24.932  24.326  22.493  1.00  0.00     0.407 C 
ATOM     61  H   UNL     1      24.020  24.163  20.572  1.00  0.00     0.167 HD
ATOM     62  O   UNL     1      24.742  24.280  23.727  1.00  0.00    -0.225 OA
BRANCH  60  63
ATOM     63  O   UNL     1      26.203  24.576  22.020  1.00  0.00    -0.443 OA
BRANCH  63  64
ATOM     64  C   UNL     1      27.267  23.678  21.944  1.00  0.00     0.294 C 
BRANCH  64  65
ATOM     65  C   UNL     1      27.367  23.123  20.571  1.00  0.00     0.120 A 
ATOM     66  C   UNL     1      27.003  23.755  19.396  1.00  0.00     0.138 A 
ATOM     67  N   UNL     1      27.824  21.924  20.183  1.00  0.00    -0.132 NA
ATOM     68  N   UNL     1      27.255  22.920  18.357  1.00  0.00    -0.249 N 
ATOM     69  N   UNL     1      27.750  21.820  18.864  1.00  0.00    -0.067 NA
BRANCH  68  70
ATOM     70  C   UNL     1      27.024  23.291  16.964  1.00  0.00     0.181 C 
BRANCH  70  71
ATOM     71  C   UNL     1      25.861  24.278  17.000  1.00  0.00     0.170 C 
BRANCH  71  72
ATOM     72  O   UNL     1      26.298  25.489  16.517  1.00  0.00    -0.388 OA
ATOM     73  H   UNL     1      26.318  25.476  15.530  1.00  0.00     0.211 HD
ENDBRANCH  71  72
BRANCH  71  74
ATOM     74  C   UNL     1      24.686  23.728  16.251  1.00  0.00     0.239 C 
BRANCH  74  75
ATOM     75  N   UNL     1      23.668  24.757  16.114  1.00  0.00    -0.227 N 
ATOM     76  C   UNL     1      23.352  25.307  14.896  1.00  0.00     0.204 A 
ATOM     77  C   UNL     1      22.899  25.300  17.058  1.00  0.00     0.434 A 
ATOM     78  C   UNL     1      22.346  26.221  15.116  1.00  0.00     0.245 A 
ATOM     79  N   UNL     1      22.085  26.201  16.438  1.00  0.00    -0.074 NA
BRANCH  77  80
ATOM     80  N   UNL     1      22.924  25.014  18.445  1.00  0.00    -0.047 N 
ATOM     81  O   UNL     1      22.320  23.998  18.911  1.00  0.00    -0.390 OA
ATOM     82  O   UNL     1      23.574  25.789  19.366  1.00  0.00    -0.390 OA
ENDBRANCH  77  80
ENDBRANCH  74  75
ENDBRANCH  71  74
ENDBRANCH  70  71
ENDBRANCH  68  70
ENDBRANCH  64  65
ENDBRANCH  63  64
ENDBRANCH  60  63
ENDBRANCH  58  59
ENDBRANCH  55  58
ENDBRANCH   1  55
TORSDOF 35
