REMARK VINA RESULT:    -6.533      9.263     19.511
REMARK INTER + INTRA:         -23.879
REMARK INTER:                 -15.785
REMARK INTRA:                  -8.095
REMARK UNBOUND:                -7.033
REMARK SMILES CC(=O)N[C@@H]1[C@@H](O)C[C@](OC[C@H]2O[C@@H](O[C@H]3[C@H](O)[C@@H](O)[C@H](OCCN=[N+]=[N-])O[C@@H]3CO)[C@H](O)[C@@H](O)[C@H]2O)(C(=O)O)O[C@H]1C(O)[C@H](O)CNC(=O)OCc1cn(C(C)(C)C(=O)c2c[nH]c3ccccc23)nn1
REMARK SMILES IDX 9 1 8 2 6 3 5 4 42 5 41 6 10 7 11 8 12 9 14 10 13 11 32 12
REMARK SMILES IDX 34 13 36 14 15 15 16 16 29 17 28 18 21 19 17 20 19 21 30 22
REMARK SMILES IDX 31 23 22 25 23 26 24 27 25 28 26 29 27 30 18 31 20 33 33 35
REMARK SMILES IDX 35 37 37 39 38 41 39 42 40 43 7 45 43 47 44 48 45 50 46 51
REMARK SMILES IDX 47 53 48 54 49 55 50 57 51 58 52 59 53 60 54 61 71 62 55 63
REMARK SMILES IDX 70 64 56 65 57 66 58 67 59 68 60 69 61 70 62 71 69 72 63 73
REMARK SMILES IDX 64 74 68 75 65 77 67 78 66 79 4 80 2 81 1 83 3 84
REMARK H PARENT 31 24 18 32 20 34 33 36 35 38 37 40 40 44 7 46 44 49 46 52
REMARK H PARENT 48 56 63 76 4 82
REMARK Flexibility Score: inf
ROOT
ATOM      1  C   UNL     1      29.585  20.748  22.523  1.00  0.00     0.272 C 
ATOM      2  C   UNL     1      28.816  19.592  21.906  1.00  0.00     0.113 C 
ATOM      3  C   UNL     1      29.733  18.618  21.209  1.00  0.00     0.145 C 
ATOM      4  C   UNL     1      30.340  19.328  19.950  1.00  0.00     0.142 C 
ATOM      5  C   UNL     1      30.547  20.747  20.371  1.00  0.00     0.178 C 
ATOM      6  O   UNL     1      30.735  20.836  21.734  1.00  0.00    -0.332 OA
ENDROOT
BRANCH   1   7
ATOM      7  O   UNL     1      29.867  20.671  23.826  1.00  0.00    -0.338 OA
BRANCH   7   8
ATOM      8  C   UNL     1      30.943  20.661  24.539  1.00  0.00     0.199 C 
BRANCH   8   9
ATOM      9  C   UNL     1      31.176  21.918  25.379  1.00  0.00     0.179 C 
ATOM     10  C   UNL     1      32.952  21.186  26.770  1.00  0.00     0.282 C 
ATOM     11  O   UNL     1      31.683  21.609  26.596  1.00  0.00    -0.341 OA
ATOM     12  C   UNL     1      33.974  21.961  25.985  1.00  0.00     0.202 C 
ATOM     13  C   UNL     1      33.321  23.185  25.353  1.00  0.00     0.179 C 
ATOM     14  C   UNL     1      32.082  22.846  24.616  1.00  0.00     0.177 C 
BRANCH  10  15
ATOM     15  O   UNL     1      33.068  19.844  26.451  1.00  0.00    -0.341 OA
BRANCH  15  16
ATOM     16  C   UNL     1      33.298  19.040  27.530  1.00  0.00     0.184 C 
ATOM     17  C   UNL     1      34.388  18.036  27.422  1.00  0.00     0.178 C 
ATOM     18  O   UNL     1      34.724  17.667  28.741  1.00  0.00    -0.341 OA
ATOM     19  C   UNL     1      33.704  17.068  29.423  1.00  0.00     0.281 C 
ATOM     20  C   UNL     1      32.058  18.308  28.003  1.00  0.00     0.180 C 
ATOM     21  C   UNL     1      32.388  17.814  29.395  1.00  0.00     0.202 C 
BRANCH  17  22
ATOM     22  C   UNL     1      35.671  18.562  26.814  1.00  0.00     0.191 C 
BRANCH  22  23
ATOM     23  O   UNL     1      36.054  19.683  27.560  1.00  0.00    -0.394 OA
ATOM     24  H   UNL     1      36.035  20.515  27.034  1.00  0.00     0.210 HD
ENDBRANCH  22  23
ENDBRANCH  17  22
BRANCH  19  25
ATOM     25  O   UNL     1      34.075  17.001  30.769  1.00  0.00    -0.350 OA
BRANCH  25  26
ATOM     26  C   UNL     1      33.899  18.251  31.334  1.00  0.00     0.169 C 
BRANCH  26  27
ATOM     27  C   UNL     1      35.202  18.906  31.705  1.00  0.00     0.119 C 
BRANCH  27  28
ATOM     28  N   UNL     1      35.557  20.010  30.840  1.00  0.00    -0.092 NA
ATOM     29  N   UNL     1      34.679  20.736  30.332  1.00  0.00     0.001 N 
ATOM     30  N   UNL     1      33.861  21.658  30.275  1.00  0.00    -0.003 NA
ENDBRANCH  27  28
ENDBRANCH  26  27
ENDBRANCH  25  26
ENDBRANCH  19  25
BRANCH  20  31
ATOM     31  O   UNL     1      30.941  19.110  28.046  1.00  0.00    -0.387 OA
ATOM     32  H   UNL     1      31.091  19.878  27.453  1.00  0.00     0.211 HD
ENDBRANCH  20  31
BRANCH  21  33
ATOM     33  O   UNL     1      31.395  16.910  29.771  1.00  0.00    -0.385 OA
ATOM     34  H   UNL     1      30.691  17.340  30.329  1.00  0.00     0.211 HD
ENDBRANCH  21  33
ENDBRANCH  15  16
ENDBRANCH  10  15
BRANCH  12  35
ATOM     35  O   UNL     1      35.092  22.335  26.729  1.00  0.00    -0.385 OA
ATOM     36  H   UNL     1      35.516  23.113  26.309  1.00  0.00     0.211 HD
ENDBRANCH  12  35
BRANCH  13  37
ATOM     37  O   UNL     1      34.306  23.714  24.486  1.00  0.00    -0.387 OA
ATOM     38  H   UNL     1      33.902  24.008  23.634  1.00  0.00     0.211 HD
ENDBRANCH  13  37
BRANCH  14  39
ATOM     39  O   UNL     1      32.393  22.201  23.392  1.00  0.00    -0.387 OA
ATOM     40  H   UNL     1      32.094  21.255  23.437  1.00  0.00     0.211 HD
ENDBRANCH  14  39
ENDBRANCH   8   9
ENDBRANCH   7   8
ENDBRANCH   1   7
BRANCH   1  41
ATOM     41  C   UNL     1      28.775  21.972  22.336  1.00  0.00     0.364 C 
ATOM     42  O   UNL     1      29.347  23.090  22.394  1.00  0.00    -0.246 OA
BRANCH  41  43
ATOM     43  O   UNL     1      27.436  21.967  22.108  1.00  0.00    -0.477 OA
ATOM     44  H   UNL     1      26.814  21.161  22.128  1.00  0.00     0.296 HD
ENDBRANCH  41  43
ENDBRANCH   1  41
BRANCH   3  45
ATOM     45  O   UNL     1      30.843  18.231  21.922  1.00  0.00    -0.391 OA
ATOM     46  H   UNL     1      31.283  17.411  21.559  1.00  0.00     0.211 HD
ENDBRANCH   3  45
BRANCH   5  47
ATOM     47  C   UNL     1      31.662  21.494  19.738  1.00  0.00     0.176 C 
BRANCH  47  48
ATOM     48  O   UNL     1      32.176  20.878  18.619  1.00  0.00    -0.388 OA
ATOM     49  H   UNL     1      32.216  21.454  17.805  1.00  0.00     0.211 HD
ENDBRANCH  47  48
BRANCH  47  50
ATOM     50  C   UNL     1      31.488  22.990  19.596  1.00  0.00     0.165 C 
BRANCH  50  51
ATOM     51  O   UNL     1      31.555  23.658  20.775  1.00  0.00    -0.388 OA
ATOM     52  H   UNL     1      30.929  24.395  20.832  1.00  0.00     0.211 HD
ENDBRANCH  50  51
BRANCH  50  53
ATOM     53  C   UNL     1      30.299  23.246  18.730  1.00  0.00     0.154 C 
BRANCH  53  54
ATOM     54  N   UNL     1      29.358  24.204  19.174  1.00  0.00    -0.319 N 
ATOM     55  C   UNL     1      27.953  23.936  19.328  1.00  0.00     0.407 C 
ATOM     56  H   UNL     1      29.670  25.192  19.418  1.00  0.00     0.167 HD
ATOM     57  O   UNL     1      27.467  22.820  19.051  1.00  0.00    -0.225 OA
BRANCH  55  58
ATOM     58  O   UNL     1      27.092  24.914  19.789  1.00  0.00    -0.443 OA
BRANCH  58  59
ATOM     59  C   UNL     1      27.072  25.318  21.128  1.00  0.00     0.294 C 
BRANCH  59  60
ATOM     60  C   UNL     1      25.722  24.999  21.689  1.00  0.00     0.120 A 
ATOM     61  C   UNL     1      24.589  25.827  21.589  1.00  0.00     0.139 A 
ATOM     62  N   UNL     1      25.294  23.944  22.394  1.00  0.00    -0.132 NA
ATOM     63  N   UNL     1      23.557  25.254  22.221  1.00  0.00    -0.239 N 
ATOM     64  N   UNL     1      23.996  24.116  22.703  1.00  0.00    -0.066 NA
BRANCH  63  65
ATOM     65  C   UNL     1      22.227  25.818  22.324  1.00  0.00     0.122 C 
ATOM     66  C   UNL     1      21.266  24.616  22.627  1.00  0.00     0.046 C 
ATOM     67  C   UNL     1      21.699  26.365  21.019  1.00  0.00     0.046 C 
BRANCH  65  68
ATOM     68  C   UNL     1      22.101  26.736  23.440  1.00  0.00     0.192 C 
ATOM     69  O   UNL     1      21.094  27.564  23.340  1.00  0.00    -0.291 OA
BRANCH  68  70
ATOM     70  C   UNL     1      22.888  26.889  24.624  1.00  0.00     0.045 A 
ATOM     71  C   UNL     1      23.778  27.951  24.832  1.00  0.00     0.095 A 
ATOM     72  C   UNL     1      22.975  26.085  25.743  1.00  0.00     0.010 A 
ATOM     73  N   UNL     1      24.352  27.775  26.005  1.00  0.00    -0.360 N 
ATOM     74  C   UNL     1      23.910  26.668  26.602  1.00  0.00     0.046 A 
ATOM     75  C   UNL     1      22.377  24.923  26.146  1.00  0.00     0.011 A 
ATOM     76  H   UNL     1      25.072  28.447  26.398  1.00  0.00     0.166 HD
ATOM     77  C   UNL     1      24.224  26.092  27.821  1.00  0.00     0.027 A 
ATOM     78  C   UNL     1      22.696  24.345  27.374  1.00  0.00     0.001 A 
ATOM     79  C   UNL     1      23.613  24.931  28.197  1.00  0.00     0.002 A 
ENDBRANCH  68  70
ENDBRANCH  65  68
ENDBRANCH  63  65
ENDBRANCH  59  60
ENDBRANCH  58  59
ENDBRANCH  55  58
ENDBRANCH  53  54
ENDBRANCH  50  53
ENDBRANCH  47  50
ENDBRANCH   5  47
BRANCH   4  80
ATOM     80  N   UNL     1      29.254  19.229  18.979  1.00  0.00    -0.348 N 
ATOM     81  C   UNL     1      29.450  19.097  17.581  1.00  0.00     0.217 C 
ATOM     82  H   UNL     1      28.257  19.259  19.328  1.00  0.00     0.163 HD
ATOM     83  C   UNL     1      28.341  18.999  16.595  1.00  0.00     0.114 C 
ATOM     84  O   UNL     1      30.664  19.063  17.182  1.00  0.00    -0.275 OA
ENDBRANCH   4  80
TORSDOF 32
