REMARK VINA RESULT:    -5.852      3.738      9.980
REMARK INTER + INTRA:         -21.949
REMARK INTER:                 -13.492
REMARK INTRA:                  -8.457
REMARK UNBOUND:                -7.203
REMARK SMILES CC(=O)N[C@@H]1[C@@H](O)C[C@](OC[C@H]2O[C@@H](O[C@H]3[C@H](O)[C@@H](O)[C@H](OCCN=[N+]=[N-])O[C@@H]3CO)[C@H](O)[C@@H](O)[C@H]2O)(C(=O)O)O[C@H]1C(O)[C@H](O)CNC(=O)OCc1cn(CC2=CC[C@H]3C[C@@H]2C3(C)C)nn1
REMARK SMILES IDX 9 1 8 2 6 3 5 4 42 5 41 6 10 7 11 8 12 9 14 10 13 11 32 12
REMARK SMILES IDX 34 13 36 14 15 15 16 16 29 17 28 18 21 19 17 20 19 21 30 22
REMARK SMILES IDX 31 23 22 25 23 26 24 27 25 28 26 29 27 30 18 31 20 33 33 35
REMARK SMILES IDX 35 37 37 39 38 41 39 42 40 43 7 45 43 47 44 48 45 50 46 51
REMARK SMILES IDX 47 53 48 54 49 55 50 57 51 58 52 59 53 60 54 61 67 62 55 63
REMARK SMILES IDX 66 64 56 65 57 66 58 67 62 68 59 69 61 70 63 71 60 72 64 73
REMARK SMILES IDX 65 74 4 75 2 76 1 78 3 79
REMARK H PARENT 31 24 18 32 20 34 33 36 35 38 37 40 40 44 7 46 44 49 46 52
REMARK H PARENT 48 56 4 77
REMARK Flexibility Score: inf
ROOT
ATOM      1  C   UNL     1      22.815  30.241  19.895  1.00  0.00     0.272 C 
ATOM      2  C   UNL     1      22.706  31.043  21.150  1.00  0.00     0.113 C 
ATOM      3  C   UNL     1      22.014  30.215  22.248  1.00  0.00     0.145 C 
ATOM      4  C   UNL     1      20.626  29.869  21.845  1.00  0.00     0.142 C 
ATOM      5  C   UNL     1      20.518  30.137  20.358  1.00  0.00     0.178 C 
ATOM      6  O   UNL     1      21.547  29.607  19.667  1.00  0.00    -0.332 OA
ENDROOT
BRANCH   1   7
ATOM      7  O   UNL     1      23.682  29.240  19.889  1.00  0.00    -0.338 OA
BRANCH   7   8
ATOM      8  C   UNL     1      24.245  28.622  18.883  1.00  0.00     0.199 C 
BRANCH   8   9
ATOM      9  C   UNL     1      24.019  27.231  18.463  1.00  0.00     0.179 C 
ATOM     10  C   UNL     1      23.582  25.174  19.427  1.00  0.00     0.282 C 
ATOM     11  O   UNL     1      23.507  26.549  19.610  1.00  0.00    -0.341 OA
ATOM     12  C   UNL     1      23.202  24.685  18.102  1.00  0.00     0.202 C 
ATOM     13  C   UNL     1      22.912  25.650  17.023  1.00  0.00     0.179 C 
ATOM     14  C   UNL     1      22.824  27.078  17.501  1.00  0.00     0.177 C 
BRANCH  10  15
ATOM     15  O   UNL     1      22.706  24.648  20.396  1.00  0.00    -0.341 OA
BRANCH  15  16
ATOM     16  C   UNL     1      22.862  25.244  21.634  1.00  0.00     0.184 C 
ATOM     17  C   UNL     1      23.352  24.237  22.635  1.00  0.00     0.178 C 
ATOM     18  O   UNL     1      23.197  24.628  23.954  1.00  0.00    -0.341 OA
ATOM     19  C   UNL     1      22.838  25.927  24.165  1.00  0.00     0.281 C 
ATOM     20  C   UNL     1      21.465  25.672  22.096  1.00  0.00     0.180 C 
ATOM     21  C   UNL     1      21.583  26.336  23.434  1.00  0.00     0.202 C 
BRANCH  17  22
ATOM     22  C   UNL     1      24.842  23.994  22.366  1.00  0.00     0.191 C 
BRANCH  22  23
ATOM     23  O   UNL     1      25.525  24.179  23.559  1.00  0.00    -0.394 OA
ATOM     24  H   UNL     1      25.542  23.297  24.045  1.00  0.00     0.210 HD
ENDBRANCH  22  23
ENDBRANCH  17  22
BRANCH  19  25
ATOM     25  O   UNL     1      23.866  26.816  23.825  1.00  0.00    -0.350 OA
BRANCH  25  26
ATOM     26  C   UNL     1      24.590  27.227  24.946  1.00  0.00     0.169 C 
BRANCH  26  27
ATOM     27  C   UNL     1      25.796  27.992  24.395  1.00  0.00     0.119 C 
BRANCH  27  28
ATOM     28  N   UNL     1      25.514  28.420  23.042  1.00  0.00    -0.092 NA
ATOM     29  N   UNL     1      26.368  28.447  22.175  1.00  0.00     0.001 N 
ATOM     30  N   UNL     1      27.292  28.592  21.365  1.00  0.00    -0.003 NA
ENDBRANCH  27  28
ENDBRANCH  26  27
ENDBRANCH  25  26
ENDBRANCH  19  25
BRANCH  20  31
ATOM     31  O   UNL     1      20.931  26.603  21.188  1.00  0.00    -0.387 OA
ATOM     32  H   UNL     1      20.191  27.098  21.601  1.00  0.00     0.211 HD
ENDBRANCH  20  31
BRANCH  21  33
ATOM     33  O   UNL     1      20.463  26.127  24.237  1.00  0.00    -0.385 OA
ATOM     34  H   UNL     1      19.754  25.704  23.673  1.00  0.00     0.211 HD
ENDBRANCH  21  33
ENDBRANCH  15  16
ENDBRANCH  10  15
BRANCH  12  35
ATOM     35  O   UNL     1      24.252  23.841  17.648  1.00  0.00    -0.385 OA
ATOM     36  H   UNL     1      25.075  23.972  18.183  1.00  0.00     0.211 HD
ENDBRANCH  12  35
BRANCH  13  37
ATOM     37  O   UNL     1      21.801  25.274  16.261  1.00  0.00    -0.387 OA
ATOM     38  H   UNL     1      21.285  24.567  16.737  1.00  0.00     0.211 HD
ENDBRANCH  13  37
BRANCH  14  39
ATOM     39  O   UNL     1      21.654  27.190  18.280  1.00  0.00    -0.387 OA
ATOM     40  H   UNL     1      21.703  26.575  19.053  1.00  0.00     0.211 HD
ENDBRANCH  14  39
ENDBRANCH   8   9
ENDBRANCH   7   8
ENDBRANCH   1   7
BRANCH   1  41
ATOM     41  C   UNL     1      22.895  31.142  18.715  1.00  0.00     0.364 C 
ATOM     42  O   UNL     1      22.175  30.907  17.682  1.00  0.00    -0.246 OA
BRANCH  41  43
ATOM     43  O   UNL     1      23.705  32.226  18.650  1.00  0.00    -0.477 OA
ATOM     44  H   UNL     1      24.668  32.266  18.360  1.00  0.00     0.296 HD
ENDBRANCH  41  43
ENDBRANCH   1  41
BRANCH   3  45
ATOM     45  O   UNL     1      22.747  29.019  22.270  1.00  0.00    -0.391 OA
ATOM     46  H   UNL     1      22.102  28.271  22.209  1.00  0.00     0.211 HD
ENDBRANCH   3  45
BRANCH   5  47
ATOM     47  C   UNL     1      19.226  29.534  19.801  1.00  0.00     0.176 C 
BRANCH  47  48
ATOM     48  O   UNL     1      18.894  28.391  20.481  1.00  0.00    -0.388 OA
ATOM     49  H   UNL     1      17.951  28.357  20.806  1.00  0.00     0.211 HD
ENDBRANCH  47  48
BRANCH  47  50
ATOM     50  C   UNL     1      19.353  29.276  18.329  1.00  0.00     0.165 C 
BRANCH  50  51
ATOM     51  O   UNL     1      19.095  30.529  17.702  1.00  0.00    -0.388 OA
ATOM     52  H   UNL     1      18.102  30.645  17.834  1.00  0.00     0.211 HD
ENDBRANCH  50  51
BRANCH  50  53
ATOM     53  C   UNL     1      18.296  28.345  17.827  1.00  0.00     0.154 C 
BRANCH  53  54
ATOM     54  N   UNL     1      16.962  28.850  17.894  1.00  0.00    -0.319 N 
ATOM     55  C   UNL     1      16.000  28.221  18.719  1.00  0.00     0.407 C 
ATOM     56  H   UNL     1      16.707  29.699  17.330  1.00  0.00     0.167 HD
ATOM     57  O   UNL     1      16.308  27.226  19.389  1.00  0.00    -0.225 OA
BRANCH  55  58
ATOM     58  O   UNL     1      14.707  28.703  18.793  1.00  0.00    -0.443 OA
BRANCH  58  59
ATOM     59  C   UNL     1      14.250  29.933  18.342  1.00  0.00     0.294 C 
BRANCH  59  60
ATOM     60  C   UNL     1      14.282  31.020  19.363  1.00  0.00     0.120 A 
ATOM     61  C   UNL     1      13.353  31.294  20.339  1.00  0.00     0.138 A 
ATOM     62  N   UNL     1      15.265  31.950  19.518  1.00  0.00    -0.132 NA
ATOM     63  N   UNL     1      13.772  32.347  21.045  1.00  0.00    -0.248 N 
ATOM     64  N   UNL     1      14.926  32.723  20.529  1.00  0.00    -0.067 NA
BRANCH  63  65
ATOM     65  C   UNL     1      13.089  32.979  22.189  1.00  0.00     0.177 C 
BRANCH  65  66
ATOM     66  C   UNL     1      12.933  31.885  23.204  1.00  0.00    -0.049 C 
ATOM     67  C   UNL     1      11.733  31.307  23.413  1.00  0.00    -0.025 C 
ATOM     68  C   UNL     1      14.059  31.388  24.008  1.00  0.00     0.023 C 
ATOM     69  C   UNL     1      11.585  30.346  24.528  1.00  0.00     0.031 C 
ATOM     70  C   UNL     1      13.938  29.858  24.031  1.00  0.00     0.013 C 
ATOM     71  C   UNL     1      13.672  31.372  25.456  1.00  0.00    -0.026 C 
ATOM     72  C   UNL     1      12.920  30.067  25.159  1.00  0.00    -0.000 C 
ATOM     73  C   UNL     1      14.807  31.083  26.409  1.00  0.00     0.012 C 
ATOM     74  C   UNL     1      12.825  32.493  25.955  1.00  0.00     0.012 C 
ENDBRANCH  65  66
ENDBRANCH  63  65
ENDBRANCH  59  60
ENDBRANCH  58  59
ENDBRANCH  55  58
ENDBRANCH  53  54
ENDBRANCH  50  53
ENDBRANCH  47  50
ENDBRANCH   5  47
BRANCH   4  75
ATOM     75  N   UNL     1      19.572  30.568  22.493  1.00  0.00    -0.348 N 
ATOM     76  C   UNL     1      18.909  30.188  23.668  1.00  0.00     0.217 C 
ATOM     77  H   UNL     1      19.265  31.469  22.025  1.00  0.00     0.163 HD
ATOM     78  C   UNL     1      17.817  31.017  24.240  1.00  0.00     0.114 C 
ATOM     79  O   UNL     1      19.278  29.129  24.206  1.00  0.00    -0.275 OA
ENDBRANCH   4  75
TORSDOF 31
