REMARK VINA RESULT:    -5.672      8.949     13.999
REMARK INTER + INTRA:         -21.408
REMARK INTER:                 -10.901
REMARK INTRA:                 -10.507
REMARK UNBOUND:                -6.784
REMARK SMILES COc1ccc(Cn2cc(COC(=O)NC[C@@H](O)C(O)[C@@H]3O[C@@](OC[C@H]4O[C@@H](O[C@H]5[C@H](O)[C@@H](O)[C@H](OCCN=[N+]=[N-])O[C@@H]5CO)[C@H](O)[C@@H](O)[C@H]4O)(C(=O)O)C[C@H](O)[C@H]3NC(C)=O)nn2)cc1
REMARK SMILES IDX 23 1 55 2 56 3 58 4 21 5 22 6 24 7 25 8 26 9 28 10 27 11
REMARK SMILES IDX 46 12 48 13 50 14 29 15 30 16 43 17 42 18 35 19 31 20 33 21
REMARK SMILES IDX 44 22 45 23 36 25 37 26 38 27 39 28 40 29 41 30 32 31 34 33
REMARK SMILES IDX 47 35 49 37 51 39 52 41 53 42 54 43 57 45 19 47 20 48 17 50
REMARK SMILES IDX 18 51 16 53 15 54 13 55 14 57 12 58 11 59 10 60 9 61 63 62
REMARK SMILES IDX 8 63 64 64 7 65 6 66 5 67 65 68 4 69 66 70 3 71 2 72 1 73
REMARK SMILES IDX 59 74 60 75 61 77 62 78
REMARK H PARENT 45 24 32 32 34 34 47 36 49 38 51 40 54 44 57 46 20 49 18 52
REMARK H PARENT 15 56 59 76
REMARK Flexibility Score: inf
ROOT
ATOM      1  C   UNL     1      18.011  29.812  20.796  1.00  0.00     0.272 C 
ATOM      2  C   UNL     1      17.522  31.177  20.359  1.00  0.00     0.113 C 
ATOM      3  C   UNL     1      16.104  31.395  20.846  1.00  0.00     0.145 C 
ATOM      4  C   UNL     1      15.894  31.013  22.282  1.00  0.00     0.142 C 
ATOM      5  C   UNL     1      17.123  30.394  22.926  1.00  0.00     0.178 C 
ATOM      6  O   UNL     1      17.766  29.516  22.075  1.00  0.00    -0.332 OA
ENDROOT
BRANCH   1   7
ATOM      7  O   UNL     1      19.232  29.521  20.290  1.00  0.00    -0.338 OA
BRANCH   7   8
ATOM      8  C   UNL     1      19.851  28.349  20.468  1.00  0.00     0.199 C 
BRANCH   8   9
ATOM      9  C   UNL     1      21.197  28.481  21.147  1.00  0.00     0.179 C 
ATOM     10  C   UNL     1      22.995  29.877  21.104  1.00  0.00     0.282 C 
ATOM     11  O   UNL     1      21.584  29.850  21.166  1.00  0.00    -0.341 OA
ATOM     12  C   UNL     1      23.607  28.836  21.968  1.00  0.00     0.202 C 
ATOM     13  C   UNL     1      22.721  28.194  22.982  1.00  0.00     0.179 C 
ATOM     14  C   UNL     1      21.279  28.014  22.551  1.00  0.00     0.177 C 
BRANCH  10  15
ATOM     15  O   UNL     1      23.489  31.147  21.196  1.00  0.00    -0.341 OA
BRANCH  15  16
ATOM     16  C   UNL     1      22.582  32.151  21.458  1.00  0.00     0.184 C 
ATOM     17  C   UNL     1      22.617  33.312  20.493  1.00  0.00     0.178 C 
ATOM     18  O   UNL     1      22.212  34.490  21.118  1.00  0.00    -0.341 OA
ATOM     19  C   UNL     1      21.255  34.273  22.125  1.00  0.00     0.281 C 
ATOM     20  C   UNL     1      23.059  32.785  22.779  1.00  0.00     0.180 C 
ATOM     21  C   UNL     1      21.885  33.547  23.329  1.00  0.00     0.202 C 
BRANCH  17  22
ATOM     22  C   UNL     1      21.764  33.147  19.275  1.00  0.00     0.191 C 
BRANCH  22  23
ATOM     23  O   UNL     1      21.722  34.349  18.574  1.00  0.00    -0.394 OA
ATOM     24  H   UNL     1      21.174  34.986  19.115  1.00  0.00     0.210 HD
ENDBRANCH  22  23
ENDBRANCH  17  22
BRANCH  19  25
ATOM     25  O   UNL     1      20.131  33.636  21.707  1.00  0.00    -0.350 OA
BRANCH  25  26
ATOM     26  C   UNL     1      19.018  34.364  21.415  1.00  0.00     0.169 C 
BRANCH  26  27
ATOM     27  C   UNL     1      18.410  35.171  22.500  1.00  0.00     0.119 C 
BRANCH  27  28
ATOM     28  N   UNL     1      16.989  35.138  22.542  1.00  0.00    -0.092 NA
ATOM     29  N   UNL     1      16.325  34.617  23.450  1.00  0.00     0.001 N 
ATOM     30  N   UNL     1      15.580  34.530  24.452  1.00  0.00    -0.003 NA
ENDBRANCH  27  28
ENDBRANCH  26  27
ENDBRANCH  25  26
ENDBRANCH  19  25
BRANCH  20  31
ATOM     31  O   UNL     1      23.598  31.866  23.634  1.00  0.00    -0.387 OA
ATOM     32  H   UNL     1      24.137  31.163  23.147  1.00  0.00     0.211 HD
ENDBRANCH  20  31
BRANCH  21  33
ATOM     33  O   UNL     1      22.276  34.448  24.319  1.00  0.00    -0.385 OA
ATOM     34  H   UNL     1      21.629  34.402  25.071  1.00  0.00     0.211 HD
ENDBRANCH  21  33
ENDBRANCH  15  16
ENDBRANCH  10  15
BRANCH  12  35
ATOM     35  O   UNL     1      24.276  27.842  21.209  1.00  0.00    -0.385 OA
ATOM     36  H   UNL     1      23.596  27.202  20.837  1.00  0.00     0.211 HD
ENDBRANCH  12  35
BRANCH  13  37
ATOM     37  O   UNL     1      22.796  28.851  24.234  1.00  0.00    -0.387 OA
ATOM     38  H   UNL     1      21.909  28.774  24.669  1.00  0.00     0.211 HD
ENDBRANCH  13  37
BRANCH  14  39
ATOM     39  O   UNL     1      20.402  28.674  23.405  1.00  0.00    -0.387 OA
ATOM     40  H   UNL     1      19.948  29.433  22.963  1.00  0.00     0.211 HD
ENDBRANCH  14  39
ENDBRANCH   8   9
ENDBRANCH   7   8
ENDBRANCH   1   7
BRANCH   1  41
ATOM     41  C   UNL     1      17.143  28.869  19.897  1.00  0.00     0.364 C 
ATOM     42  O   UNL     1      17.103  29.060  18.663  1.00  0.00    -0.246 OA
BRANCH  41  43
ATOM     43  O   UNL     1      16.422  27.839  20.394  1.00  0.00    -0.477 OA
ATOM     44  H   UNL     1      15.875  27.794  21.217  1.00  0.00     0.296 HD
ENDBRANCH  41  43
ENDBRANCH   1  41
BRANCH   3  45
ATOM     45  O   UNL     1      15.908  32.799  20.689  1.00  0.00    -0.391 OA
ATOM     46  H   UNL     1      16.300  33.285  21.458  1.00  0.00     0.211 HD
ENDBRANCH   3  45
BRANCH   5  47
ATOM     47  C   UNL     1      17.914  31.490  23.527  1.00  0.00     0.176 C 
BRANCH  47  48
ATOM     48  O   UNL     1      19.323  31.290  23.447  1.00  0.00    -0.388 OA
ATOM     49  H   UNL     1      19.520  30.423  23.861  1.00  0.00     0.211 HD
ENDBRANCH  47  48
BRANCH  47  50
ATOM     50  C   UNL     1      17.807  31.558  25.079  1.00  0.00     0.165 C 
BRANCH  50  51
ATOM     51  O   UNL     1      16.675  32.037  25.605  1.00  0.00    -0.388 OA
ATOM     52  H   UNL     1      16.543  31.717  26.532  1.00  0.00     0.211 HD
ENDBRANCH  50  51
BRANCH  50  53
ATOM     53  C   UNL     1      19.034  32.364  25.559  1.00  0.00     0.154 C 
BRANCH  53  54
ATOM     54  N   UNL     1      19.685  31.768  26.679  1.00  0.00    -0.319 N 
ATOM     55  C   UNL     1      20.867  30.983  26.475  1.00  0.00     0.407 C 
ATOM     56  H   UNL     1      19.327  31.883  27.633  1.00  0.00     0.167 HD
ATOM     57  O   UNL     1      21.313  30.838  25.303  1.00  0.00    -0.225 OA
BRANCH  55  58
ATOM     58  O   UNL     1      21.476  30.416  27.579  1.00  0.00    -0.443 OA
BRANCH  58  59
ATOM     59  C   UNL     1      21.009  29.143  28.068  1.00  0.00     0.294 C 
BRANCH  59  60
ATOM     60  C   UNL     1      21.850  28.086  27.468  1.00  0.00     0.120 A 
ATOM     61  C   UNL     1      21.488  26.755  27.235  1.00  0.00     0.138 A 
ATOM     62  N   UNL     1      23.114  28.192  27.044  1.00  0.00    -0.132 NA
ATOM     63  N   UNL     1      22.549  26.146  26.692  1.00  0.00    -0.248 N 
ATOM     64  N   UNL     1      23.529  27.030  26.581  1.00  0.00    -0.067 NA
BRANCH  63  65
ATOM     65  C   UNL     1      22.618  24.762  26.296  1.00  0.00     0.181 C 
BRANCH  65  66
ATOM     66  C   UNL     1      22.514  24.675  24.823  1.00  0.00    -0.026 A 
ATOM     67  C   UNL     1      21.259  24.639  24.222  1.00  0.00     0.009 A 
ATOM     68  C   UNL     1      23.609  24.645  24.000  1.00  0.00     0.009 A 
ATOM     69  C   UNL     1      21.103  24.575  22.854  1.00  0.00     0.047 A 
ATOM     70  C   UNL     1      23.450  24.580  22.611  1.00  0.00     0.047 A 
ATOM     71  C   UNL     1      22.215  24.545  22.024  1.00  0.00     0.118 A 
BRANCH  71  72
ATOM     72  O   UNL     1      22.006  24.481  20.659  1.00  0.00    -0.497 OA
ATOM     73  C   UNL     1      22.965  24.782  19.688  1.00  0.00     0.278 C 
ENDBRANCH  71  72
ENDBRANCH  65  66
ENDBRANCH  63  65
ENDBRANCH  59  60
ENDBRANCH  58  59
ENDBRANCH  55  58
ENDBRANCH  53  54
ENDBRANCH  50  53
ENDBRANCH  47  50
ENDBRANCH   5  47
BRANCH   4  74
ATOM     74  N   UNL     1      14.697  30.243  22.545  1.00  0.00    -0.348 N 
ATOM     75  C   UNL     1      13.792  30.497  23.611  1.00  0.00     0.217 C 
ATOM     76  H   UNL     1      14.477  29.442  21.935  1.00  0.00     0.163 HD
ATOM     77  C   UNL     1      12.572  29.621  23.794  1.00  0.00     0.114 C 
ATOM     78  O   UNL     1      14.006  31.448  24.399  1.00  0.00    -0.275 OA
ENDBRANCH   4  74
TORSDOF 32
