REMARK VINA RESULT:    -4.669      4.164      8.011
REMARK INTER + INTRA:         -20.883
REMARK INTER:                 -13.429
REMARK INTRA:                  -7.454
REMARK UNBOUND:                -9.390
REMARK SMILES CC(=O)N[C@@H]1[C@@H](O)C[C@](OC[C@H]2O[C@@H](O[C@H]3[C@H](O)[C@@H](O)[C@H](OCCN=[N+]=[N-])O[C@@H]3CO)[C@H](O)[C@@H](O)[C@H]2O)(C(=O)O)O[C@H]1C(O)[C@H](O)CNC(=O)OCc1cn(-c2ccncc2)nn1
REMARK SMILES IDX 9 1 8 2 6 3 5 4 42 5 41 6 10 7 11 8 12 9 14 10 13 11 32 12
REMARK SMILES IDX 34 13 36 14 15 15 16 16 29 17 28 18 21 19 17 20 19 21 30 22
REMARK SMILES IDX 31 23 22 25 23 26 24 27 25 28 26 29 27 30 18 31 20 33 33 35
REMARK SMILES IDX 35 37 37 39 38 41 39 42 40 43 7 45 43 47 44 48 45 50 46 51
REMARK SMILES IDX 47 53 48 54 49 55 50 57 51 58 52 59 53 60 54 61 63 62 55 63
REMARK SMILES IDX 62 64 56 65 57 66 61 67 58 68 60 69 59 70 4 71 2 72 1 74
REMARK SMILES IDX 3 75
REMARK H PARENT 31 24 18 32 20 34 33 36 35 38 37 40 40 44 7 46 44 49 46 52
REMARK H PARENT 48 56 4 73
REMARK Flexibility Score: inf
ROOT
ATOM      1  C   UNL     1      23.002  25.487  25.653  1.00  0.00     0.272 C 
ATOM      2  C   UNL     1      22.322  25.212  27.010  1.00  0.00     0.113 C 
ATOM      3  C   UNL     1      21.991  26.534  27.712  1.00  0.00     0.145 C 
ATOM      4  C   UNL     1      23.370  27.159  28.111  1.00  0.00     0.142 C 
ATOM      5  C   UNL     1      24.189  27.171  26.854  1.00  0.00     0.178 C 
ATOM      6  O   UNL     1      23.369  26.841  25.783  1.00  0.00    -0.332 OA
ENDROOT
BRANCH   1   7
ATOM      7  O   UNL     1      22.119  25.459  24.675  1.00  0.00    -0.338 OA
BRANCH   7   8
ATOM      8  C   UNL     1      21.425  26.184  23.913  1.00  0.00     0.199 C 
BRANCH   8   9
ATOM      9  C   UNL     1      21.308  25.895  22.447  1.00  0.00     0.179 C 
ATOM     10  C   UNL     1      21.146  27.168  20.478  1.00  0.00     0.282 C 
ATOM     11  O   UNL     1      21.261  27.194  21.848  1.00  0.00    -0.341 OA
ATOM     12  C   UNL     1      22.348  26.534  19.850  1.00  0.00     0.202 C 
ATOM     13  C   UNL     1      22.574  25.149  20.460  1.00  0.00     0.179 C 
ATOM     14  C   UNL     1      22.630  25.303  21.950  1.00  0.00     0.177 C 
BRANCH  10  15
ATOM     15  O   UNL     1      21.088  28.540  20.122  1.00  0.00    -0.341 OA
BRANCH  15  16
ATOM     16  C   UNL     1      19.832  29.046  20.129  1.00  0.00     0.184 C 
ATOM     17  C   UNL     1      19.406  29.646  18.851  1.00  0.00     0.178 C 
ATOM     18  O   UNL     1      18.053  30.039  18.921  1.00  0.00    -0.341 OA
ATOM     19  C   UNL     1      18.145  31.282  19.656  1.00  0.00     0.281 C 
ATOM     20  C   UNL     1      19.777  30.156  21.224  1.00  0.00     0.180 C 
ATOM     21  C   UNL     1      18.476  30.917  21.054  1.00  0.00     0.202 C 
BRANCH  17  22
ATOM     22  C   UNL     1      19.602  28.760  17.680  1.00  0.00     0.191 C 
BRANCH  22  23
ATOM     23  O   UNL     1      18.641  27.740  17.610  1.00  0.00    -0.394 OA
ATOM     24  H   UNL     1      18.586  27.340  18.528  1.00  0.00     0.210 HD
ENDBRANCH  22  23
ENDBRANCH  17  22
BRANCH  19  25
ATOM     25  O   UNL     1      16.898  31.835  19.554  1.00  0.00    -0.350 OA
BRANCH  25  26
ATOM     26  C   UNL     1      15.913  31.032  20.043  1.00  0.00     0.169 C 
BRANCH  26  27
ATOM     27  C   UNL     1      14.915  30.520  19.056  1.00  0.00     0.119 C 
BRANCH  27  28
ATOM     28  N   UNL     1      14.571  29.129  19.271  1.00  0.00    -0.092 NA
ATOM     29  N   UNL     1      15.384  28.249  19.517  1.00  0.00     0.001 N 
ATOM     30  N   UNL     1      16.284  27.404  19.493  1.00  0.00    -0.003 NA
ENDBRANCH  27  28
ENDBRANCH  26  27
ENDBRANCH  25  26
ENDBRANCH  19  25
BRANCH  20  31
ATOM     31  O   UNL     1      19.746  29.502  22.433  1.00  0.00    -0.387 OA
ATOM     32  H   UNL     1      20.514  29.785  23.024  1.00  0.00     0.211 HD
ENDBRANCH  20  31
BRANCH  21  33
ATOM     33  O   UNL     1      18.475  32.048  21.857  1.00  0.00    -0.385 OA
ATOM     34  H   UNL     1      18.185  31.793  22.771  1.00  0.00     0.211 HD
ENDBRANCH  21  33
ENDBRANCH  15  16
ENDBRANCH  10  15
BRANCH  12  35
ATOM     35  O   UNL     1      22.146  26.333  18.463  1.00  0.00    -0.385 OA
ATOM     36  H   UNL     1      21.921  27.222  18.100  1.00  0.00     0.211 HD
ENDBRANCH  12  35
BRANCH  13  37
ATOM     37  O   UNL     1      23.724  24.548  20.005  1.00  0.00    -0.387 OA
ATOM     38  H   UNL     1      23.768  23.588  20.310  1.00  0.00     0.211 HD
ENDBRANCH  13  37
BRANCH  14  39
ATOM     39  O   UNL     1      23.620  26.224  22.327  1.00  0.00    -0.387 OA
ATOM     40  H   UNL     1      23.439  26.540  23.264  1.00  0.00     0.211 HD
ENDBRANCH  14  39
ENDBRANCH   8   9
ENDBRANCH   7   8
ENDBRANCH   1   7
BRANCH   1  41
ATOM     41  C   UNL     1      24.165  24.614  25.464  1.00  0.00     0.364 C 
ATOM     42  O   UNL     1      24.871  24.653  24.404  1.00  0.00    -0.246 OA
BRANCH  41  43
ATOM     43  O   UNL     1      24.580  23.697  26.401  1.00  0.00    -0.477 OA
ATOM     44  H   UNL     1      25.309  23.025  26.296  1.00  0.00     0.296 HD
ENDBRANCH  41  43
ENDBRANCH   1  41
BRANCH   3  45
ATOM     45  O   UNL     1      21.400  27.392  26.825  1.00  0.00    -0.391 OA
ATOM     46  H   UNL     1      22.052  27.892  26.298  1.00  0.00     0.211 HD
ENDBRANCH   3  45
BRANCH   5  47
ATOM     47  C   UNL     1      24.683  28.570  26.462  1.00  0.00     0.176 C 
BRANCH  47  48
ATOM     48  O   UNL     1      24.455  29.290  27.715  1.00  0.00    -0.388 OA
ATOM     49  H   UNL     1      24.387  28.590  28.431  1.00  0.00     0.211 HD
ENDBRANCH  47  48
BRANCH  47  50
ATOM     50  C   UNL     1      23.935  29.280  25.420  1.00  0.00     0.165 C 
BRANCH  50  51
ATOM     51  O   UNL     1      24.372  29.184  24.121  1.00  0.00    -0.388 OA
ATOM     52  H   UNL     1      23.624  28.976  23.500  1.00  0.00     0.211 HD
ENDBRANCH  50  51
BRANCH  50  53
ATOM     53  C   UNL     1      23.302  30.555  25.825  1.00  0.00     0.154 C 
BRANCH  53  54
ATOM     54  N   UNL     1      21.959  30.460  26.332  1.00  0.00    -0.319 N 
ATOM     55  C   UNL     1      20.849  30.825  25.533  1.00  0.00     0.407 C 
ATOM     56  H   UNL     1      21.839  30.130  27.306  1.00  0.00     0.167 HD
ATOM     57  O   UNL     1      21.088  31.228  24.373  1.00  0.00    -0.225 OA
BRANCH  55  58
ATOM     58  O   UNL     1      19.549  30.765  25.949  1.00  0.00    -0.443 OA
BRANCH  58  59
ATOM     59  C   UNL     1      18.518  31.663  25.598  1.00  0.00     0.294 C 
BRANCH  59  60
ATOM     60  C   UNL     1      17.392  30.968  24.891  1.00  0.00     0.121 A 
ATOM     61  C   UNL     1      16.047  31.263  24.883  1.00  0.00     0.144 A 
ATOM     62  N   UNL     1      17.522  29.875  24.101  1.00  0.00    -0.131 NA
ATOM     63  N   UNL     1      15.410  30.365  24.110  1.00  0.00    -0.220 N 
ATOM     64  N   UNL     1      16.335  29.525  23.642  1.00  0.00    -0.062 NA
BRANCH  63  65
ATOM     65  C   UNL     1      14.012  30.341  23.859  1.00  0.00     0.069 A 
ATOM     66  C   UNL     1      13.423  30.815  22.707  1.00  0.00     0.048 A 
ATOM     67  C   UNL     1      13.191  29.803  24.826  1.00  0.00     0.048 A 
ATOM     68  C   UNL     1      12.054  30.766  22.502  1.00  0.00     0.113 A 
ATOM     69  C   UNL     1      11.823  29.759  24.612  1.00  0.00     0.113 A 
ATOM     70  N   UNL     1      11.288  30.230  23.479  1.00  0.00    -0.265 NA
ENDBRANCH  63  65
ENDBRANCH  59  60
ENDBRANCH  58  59
ENDBRANCH  55  58
ENDBRANCH  53  54
ENDBRANCH  50  53
ENDBRANCH  47  50
ENDBRANCH   5  47
BRANCH   4  71
ATOM     71  N   UNL     1      23.852  26.242  29.116  1.00  0.00    -0.348 N 
ATOM     72  C   UNL     1      24.899  26.517  30.022  1.00  0.00     0.217 C 
ATOM     73  H   UNL     1      23.409  25.308  29.191  1.00  0.00     0.163 HD
ATOM     74  C   UNL     1      25.306  25.502  31.005  1.00  0.00     0.114 C 
ATOM     75  O   UNL     1      25.480  27.620  29.992  1.00  0.00    -0.275 OA
ENDBRANCH   4  71
TORSDOF 30
