REMARK VINA RESULT:    -4.469      1.801      2.669
REMARK INTER + INTRA:         -23.201
REMARK INTER:                 -15.628
REMARK INTRA:                  -7.572
REMARK UNBOUND:               -11.418
REMARK SMILES CC(=O)N[C@@H]1[C@@H](O)C[C@](OC[C@H]2O[C@@H](O[C@H]3[C@H](O)[C@@H](O)[C@H](OCCN=[N+]=[N-])O[C@@H]3CO)[C@H](O)[C@@H](O)[C@H]2O)(C(=O)O)O[C@H]1C(O)[C@H](O)CNC(=O)OCc1cn(CC(=O)NCc2cccs2)nn1
REMARK SMILES IDX 43 1 42 2 9 3 8 4 41 5 6 6 5 7 10 8 11 9 12 10 14 11 13 12
REMARK SMILES IDX 32 13 34 14 36 15 15 16 16 17 29 18 28 19 21 20 17 21 19 22
REMARK SMILES IDX 30 23 31 24 22 26 23 27 24 28 25 29 26 30 27 31 18 32 20 34
REMARK SMILES IDX 33 36 35 38 37 40 38 42 39 43 40 44 7 46 4 48 2 49 1 51 3 52
REMARK SMILES IDX 44 53 45 55 46 56 47 58 48 59 49 60 50 62 51 63 52 64 53 65
REMARK SMILES IDX 54 66 67 67 55 68 66 69 56 70 57 71 58 72 59 73 60 75 61 76
REMARK SMILES IDX 62 77 65 78 63 79 64 80
REMARK H PARENT 31 25 18 33 20 35 33 37 35 39 37 41 40 45 7 47 4 50 44 54
REMARK H PARENT 46 57 48 61 59 74
REMARK Flexibility Score: inf
ROOT
ATOM      1  C   UNL     1       3.229  24.805  32.123  1.00  0.00     0.176 C 
ENDROOT
BRANCH   1   2
ATOM      2  C   UNL     1       3.949  23.483  32.066  1.00  0.00     0.178 C 
ATOM      3  C   UNL     1       2.576  21.652  31.471  1.00  0.00     0.272 C 
ATOM      4  C   UNL     1       2.201  21.546  32.959  1.00  0.00     0.113 C 
ATOM      5  O   UNL     1       3.335  22.704  31.149  1.00  0.00    -0.332 OA
ATOM      6  C   UNL     1       3.425  21.704  33.765  1.00  0.00     0.145 C 
ATOM      7  C   UNL     1       4.289  22.873  33.370  1.00  0.00     0.142 C 
BRANCH   3   8
ATOM      8  O   UNL     1       1.363  21.691  30.825  1.00  0.00    -0.338 OA
BRANCH   8   9
ATOM      9  C   UNL     1       0.979  22.762  30.127  1.00  0.00     0.199 C 
BRANCH   9  10
ATOM     10  C   UNL     1       0.754  22.645  28.647  1.00  0.00     0.179 C 
ATOM     11  C   UNL     1       0.754  24.074  26.851  1.00  0.00     0.282 C 
ATOM     12  O   UNL     1       1.339  23.812  28.097  1.00  0.00    -0.341 OA
ATOM     13  C   UNL     1       0.635  22.839  26.024  1.00  0.00     0.202 C 
ATOM     14  C   UNL     1       1.417  21.664  26.510  1.00  0.00     0.179 C 
ATOM     15  C   UNL     1       1.515  21.512  27.994  1.00  0.00     0.177 C 
BRANCH  11  16
ATOM     16  O   UNL     1       1.399  25.062  26.161  1.00  0.00    -0.341 OA
BRANCH  16  17
ATOM     17  C   UNL     1       2.512  25.570  26.829  1.00  0.00     0.184 C 
ATOM     18  C   UNL     1       2.479  27.021  27.032  1.00  0.00     0.178 C 
ATOM     19  O   UNL     1       3.360  27.800  26.331  1.00  0.00    -0.341 OA
ATOM     20  C   UNL     1       4.067  27.225  25.326  1.00  0.00     0.281 C 
ATOM     21  C   UNL     1       3.732  24.996  26.168  1.00  0.00     0.180 C 
ATOM     22  C   UNL     1       4.811  26.021  25.931  1.00  0.00     0.202 C 
BRANCH  18  23
ATOM     23  C   UNL     1       2.750  27.355  28.513  1.00  0.00     0.191 C 
BRANCH  23  24
ATOM     24  O   UNL     1       2.291  28.608  28.859  1.00  0.00    -0.394 OA
ATOM     25  H   UNL     1       1.624  28.498  29.590  1.00  0.00     0.210 HD
ENDBRANCH  23  24
ENDBRANCH  18  23
BRANCH  20  26
ATOM     26  O   UNL     1       5.096  28.102  24.944  1.00  0.00    -0.350 OA
BRANCH  26  27
ATOM     27  C   UNL     1       5.596  28.809  26.019  1.00  0.00     0.169 C 
BRANCH  27  28
ATOM     28  C   UNL     1       7.069  29.101  25.722  1.00  0.00     0.119 C 
BRANCH  28  29
ATOM     29  N   UNL     1       7.592  28.071  24.837  1.00  0.00    -0.092 NA
ATOM     30  N   UNL     1       8.779  27.757  24.906  1.00  0.00     0.001 N 
ATOM     31  N   UNL     1       9.909  27.258  25.063  1.00  0.00    -0.003 NA
ENDBRANCH  28  29
ENDBRANCH  27  28
ENDBRANCH  26  27
ENDBRANCH  20  26
BRANCH  21  32
ATOM     32  O   UNL     1       4.240  23.877  26.835  1.00  0.00    -0.387 OA
ATOM     33  H   UNL     1       5.244  23.910  26.878  1.00  0.00     0.211 HD
ENDBRANCH  21  32
BRANCH  22  34
ATOM     34  O   UNL     1       5.717  25.499  25.030  1.00  0.00    -0.385 OA
ATOM     35  H   UNL     1       6.647  25.656  25.335  1.00  0.00     0.211 HD
ENDBRANCH  22  34
ENDBRANCH  16  17
ENDBRANCH  11  16
BRANCH  13  36
ATOM     36  O   UNL     1      -0.716  22.469  25.830  1.00  0.00    -0.385 OA
ATOM     37  H   UNL     1      -1.248  23.156  25.397  1.00  0.00     0.211 HD
ENDBRANCH  13  36
BRANCH  14  38
ATOM     38  O   UNL     1       2.691  21.628  25.897  1.00  0.00    -0.387 OA
ATOM     39  H   UNL     1       3.205  20.859  26.245  1.00  0.00     0.211 HD
ENDBRANCH  14  38
BRANCH  15  40
ATOM     40  O   UNL     1       2.887  21.646  28.317  1.00  0.00    -0.387 OA
ATOM     41  H   UNL     1       3.221  20.885  28.844  1.00  0.00     0.211 HD
ENDBRANCH  15  40
ENDBRANCH   9  10
ENDBRANCH   8   9
ENDBRANCH   3   8
BRANCH   3  42
ATOM     42  C   UNL     1       3.306  20.376  31.187  1.00  0.00     0.364 C 
ATOM     43  O   UNL     1       4.364  20.296  30.524  1.00  0.00    -0.246 OA
BRANCH  42  44
ATOM     44  O   UNL     1       2.798  19.183  31.685  1.00  0.00    -0.477 OA
ATOM     45  H   UNL     1       1.986  19.183  32.289  1.00  0.00     0.296 HD
ENDBRANCH  42  44
ENDBRANCH   3  42
BRANCH   6  46
ATOM     46  O   UNL     1       3.071  21.778  35.144  1.00  0.00    -0.391 OA
ATOM     47  H   UNL     1       3.634  21.186  35.688  1.00  0.00     0.211 HD
ENDBRANCH   6  46
BRANCH   7  48
ATOM     48  N   UNL     1       5.694  22.528  33.457  1.00  0.00    -0.348 N 
ATOM     49  C   UNL     1       6.647  23.513  33.791  1.00  0.00     0.217 C 
ATOM     50  H   UNL     1       6.042  21.550  33.273  1.00  0.00     0.163 HD
ATOM     51  C   UNL     1       8.090  23.139  33.876  1.00  0.00     0.114 C 
ATOM     52  O   UNL     1       6.361  24.710  34.026  1.00  0.00    -0.275 OA
ENDBRANCH   7  48
ENDBRANCH   1   2
BRANCH   1  53
ATOM     53  O   UNL     1       2.521  25.047  33.265  1.00  0.00    -0.388 OA
ATOM     54  H   UNL     1       2.576  25.954  33.632  1.00  0.00     0.211 HD
ENDBRANCH   1  53
BRANCH   1  55
ATOM     55  C   UNL     1       4.038  25.996  31.656  1.00  0.00     0.165 C 
BRANCH  55  56
ATOM     56  O   UNL     1       5.367  25.732  31.521  1.00  0.00    -0.388 OA
ATOM     57  H   UNL     1       5.654  24.849  31.843  1.00  0.00     0.211 HD
ENDBRANCH  55  56
BRANCH  55  58
ATOM     58  C   UNL     1       3.802  27.180  32.578  1.00  0.00     0.154 C 
BRANCH  58  59
ATOM     59  N   UNL     1       4.582  27.119  33.777  1.00  0.00    -0.319 N 
ATOM     60  C   UNL     1       4.100  27.119  35.109  1.00  0.00     0.407 C 
ATOM     61  H   UNL     1       5.662  27.065  33.726  1.00  0.00     0.167 HD
ATOM     62  O   UNL     1       2.898  27.167  35.370  1.00  0.00    -0.225 OA
BRANCH  60  63
ATOM     63  O   UNL     1       4.982  27.066  36.207  1.00  0.00    -0.443 OA
BRANCH  63  64
ATOM     64  C   UNL     1       5.117  25.986  37.072  1.00  0.00     0.294 C 
BRANCH  64  65
ATOM     65  C   UNL     1       6.493  25.499  37.241  1.00  0.00     0.120 A 
ATOM     66  C   UNL     1       6.886  24.282  37.755  1.00  0.00     0.138 A 
ATOM     67  N   UNL     1       7.639  26.154  36.917  1.00  0.00    -0.132 NA
ATOM     68  N   UNL     1       8.224  24.224  37.734  1.00  0.00    -0.243 N 
ATOM     69  N   UNL     1       8.641  25.359  37.227  1.00  0.00    -0.067 NA
BRANCH  68  70
ATOM     70  C   UNL     1       9.125  23.173  38.154  1.00  0.00     0.245 C 
BRANCH  70  71
ATOM     71  C   UNL     1      10.307  23.191  37.272  1.00  0.00     0.242 C 
ATOM     72  O   UNL     1      10.451  22.319  36.397  1.00  0.00    -0.273 OA
ATOM     73  N   UNL     1      11.290  24.200  37.411  1.00  0.00    -0.350 N 
ATOM     74  H   UNL     1      11.207  24.960  38.144  1.00  0.00     0.163 HD
BRANCH  73  75
ATOM     75  C   UNL     1      12.450  24.254  36.576  1.00  0.00     0.162 C 
BRANCH  75  76
ATOM     76  C   UNL     1      12.279  25.320  35.577  1.00  0.00     0.024 A 
ATOM     77  C   UNL     1      11.337  25.515  34.621  1.00  0.00     0.017 A 
ATOM     78  S   UNL     1      13.345  26.704  35.390  1.00  0.00    -0.147 S 
ATOM     79  C   UNL     1      11.415  26.597  33.831  1.00  0.00     0.012 A 
ATOM     80  C   UNL     1      12.420  27.478  33.988  1.00  0.00     0.065 A 
ENDBRANCH  75  76
ENDBRANCH  73  75
ENDBRANCH  70  71
ENDBRANCH  68  70
ENDBRANCH  64  65
ENDBRANCH  63  64
ENDBRANCH  60  63
ENDBRANCH  58  59
ENDBRANCH  55  58
ENDBRANCH   1  55
TORSDOF 33
