REMARK VINA RESULT:    -5.732      9.617     15.440
REMARK INTER + INTRA:         -21.549
REMARK INTER:                 -16.455
REMARK INTRA:                  -5.094
REMARK UNBOUND:                -6.938
REMARK SMILES CC(=O)N[C@@H]1[C@@H](O)C[C@](OC[C@H]2O[C@@H](O[C@H]3[C@H](O)[C@@H](O)[C@H](OCCN=[N+]=[N-])O[C@@H]3CO)[C@H](O)[C@@H](O)[C@H]2O)(C(=O)O)O[C@H]1C(O)[C@H](O)CNC(=O)OCc1cn(Cc2cc(Br)cc(Br)c2O)nn1
REMARK SMILES IDX 9 1 8 2 6 3 5 4 42 5 41 6 10 7 11 8 12 9 14 10 13 11 32 12
REMARK SMILES IDX 34 13 36 14 15 15 16 16 29 17 28 18 21 19 17 20 19 21 30 22
REMARK SMILES IDX 31 23 22 25 23 26 24 27 25 28 26 29 27 30 18 31 20 33 33 35
REMARK SMILES IDX 35 37 37 39 38 41 39 42 40 43 7 45 43 47 44 48 45 50 46 51
REMARK SMILES IDX 47 53 48 54 49 55 50 57 51 58 52 59 53 60 54 61 67 62 55 63
REMARK SMILES IDX 66 64 56 65 57 66 58 67 64 68 59 69 62 70 60 71 61 72 63 73
REMARK SMILES IDX 65 74 4 76 2 77 1 79 3 80
REMARK H PARENT 31 24 18 32 20 34 33 36 35 38 37 40 40 44 7 46 44 49 46 52
REMARK H PARENT 48 56 65 75 4 78
REMARK Flexibility Score: inf
ROOT
ATOM      1  C   UNL     1      12.633  29.691  15.044  1.00  0.00     0.272 C 
ATOM      2  C   UNL     1      12.474  30.732  13.834  1.00  0.00     0.113 C 
ATOM      3  C   UNL     1      11.378  30.308  12.945  1.00  0.00     0.145 C 
ATOM      4  C   UNL     1      10.102  30.145  13.729  1.00  0.00     0.142 C 
ATOM      5  C   UNL     1      10.275  29.961  15.207  1.00  0.00     0.178 C 
ATOM      6  O   UNL     1      11.468  29.696  15.726  1.00  0.00    -0.332 OA
ENDROOT
BRANCH   1   7
ATOM      7  O   UNL     1      13.611  30.312  15.745  1.00  0.00    -0.338 OA
BRANCH   7   8
ATOM      8  C   UNL     1      13.963  30.063  16.991  1.00  0.00     0.199 C 
BRANCH   8   9
ATOM      9  C   UNL     1      15.289  30.471  17.530  1.00  0.00     0.179 C 
ATOM     10  C   UNL     1      15.029  29.652  19.695  1.00  0.00     0.282 C 
ATOM     11  O   UNL     1      15.290  30.693  18.864  1.00  0.00    -0.341 OA
ATOM     12  C   UNL     1      15.724  28.395  19.285  1.00  0.00     0.202 C 
ATOM     13  C   UNL     1      16.839  28.693  18.320  1.00  0.00     0.179 C 
ATOM     14  C   UNL     1      16.392  29.489  17.129  1.00  0.00     0.177 C 
BRANCH  10  15
ATOM     15  O   UNL     1      13.647  29.491  19.886  1.00  0.00    -0.341 OA
BRANCH  15  16
ATOM     16  C   UNL     1      13.161  30.084  21.029  1.00  0.00     0.184 C 
ATOM     17  C   UNL     1      13.321  31.587  20.987  1.00  0.00     0.178 C 
ATOM     18  O   UNL     1      13.096  32.213  22.180  1.00  0.00    -0.341 OA
ATOM     19  C   UNL     1      12.474  31.461  23.160  1.00  0.00     0.281 C 
ATOM     20  C   UNL     1      13.965  29.657  22.262  1.00  0.00     0.180 C 
ATOM     21  C   UNL     1      13.184  30.167  23.450  1.00  0.00     0.202 C 
BRANCH  17  22
ATOM     22  C   UNL     1      12.494  32.231  19.893  1.00  0.00     0.191 C 
BRANCH  22  23
ATOM     23  O   UNL     1      13.279  32.970  19.035  1.00  0.00    -0.394 OA
ATOM     24  H   UNL     1      12.687  33.503  18.454  1.00  0.00     0.210 HD
ENDBRANCH  22  23
ENDBRANCH  17  22
BRANCH  19  25
ATOM     25  O   UNL     1      11.147  31.277  22.808  1.00  0.00    -0.350 OA
BRANCH  25  26
ATOM     26  C   UNL     1      10.320  31.441  23.886  1.00  0.00     0.169 C 
BRANCH  26  27
ATOM     27  C   UNL     1       8.963  30.835  23.769  1.00  0.00     0.119 C 
BRANCH  27  28
ATOM     28  N   UNL     1       8.799  29.654  24.591  1.00  0.00    -0.092 NA
ATOM     29  N   UNL     1       9.582  28.726  24.575  1.00  0.00     0.001 N 
ATOM     30  N   UNL     1      10.398  27.852  24.861  1.00  0.00    -0.003 NA
ENDBRANCH  27  28
ENDBRANCH  26  27
ENDBRANCH  25  26
ENDBRANCH  19  25
BRANCH  20  31
ATOM     31  O   UNL     1      14.219  28.314  22.314  1.00  0.00    -0.387 OA
ATOM     32  H   UNL     1      14.531  28.125  23.256  1.00  0.00     0.211 HD
ENDBRANCH  20  31
BRANCH  21  33
ATOM     33  O   UNL     1      13.996  30.327  24.567  1.00  0.00    -0.385 OA
ATOM     34  H   UNL     1      13.708  29.742  25.289  1.00  0.00     0.211 HD
ENDBRANCH  21  33
ENDBRANCH  15  16
ENDBRANCH  10  15
BRANCH  12  35
ATOM     35  O   UNL     1      16.248  27.797  20.457  1.00  0.00    -0.385 OA
ATOM     36  H   UNL     1      16.266  26.831  20.260  1.00  0.00     0.211 HD
ENDBRANCH  12  35
BRANCH  13  37
ATOM     37  O   UNL     1      17.513  27.538  17.927  1.00  0.00    -0.387 OA
ATOM     38  H   UNL     1      17.412  26.898  18.676  1.00  0.00     0.211 HD
ENDBRANCH  13  37
BRANCH  14  39
ATOM     39  O   UNL     1      15.911  28.636  16.152  1.00  0.00    -0.387 OA
ATOM     40  H   UNL     1      15.937  27.692  16.464  1.00  0.00     0.211 HD
ENDBRANCH  14  39
ENDBRANCH   8   9
ENDBRANCH   7   8
ENDBRANCH   1   7
BRANCH   1  41
ATOM     41  C   UNL     1      12.951  28.418  14.408  1.00  0.00     0.364 C 
ATOM     42  O   UNL     1      12.119  27.434  14.438  1.00  0.00    -0.246 OA
BRANCH  41  43
ATOM     43  O   UNL     1      14.115  28.149  13.736  1.00  0.00    -0.477 OA
ATOM     44  H   UNL     1      14.104  27.887  12.761  1.00  0.00     0.296 HD
ENDBRANCH  41  43
ENDBRANCH   1  41
BRANCH   3  45
ATOM     45  O   UNL     1      11.233  31.263  11.922  1.00  0.00    -0.391 OA
ATOM     46  H   UNL     1      11.939  31.944  12.000  1.00  0.00     0.211 HD
ENDBRANCH   3  45
BRANCH   5  47
ATOM     47  C   UNL     1       9.525  31.084  15.899  1.00  0.00     0.176 C 
BRANCH  47  48
ATOM     48  O   UNL     1       9.577  32.247  15.090  1.00  0.00    -0.388 OA
ATOM     49  H   UNL     1      10.490  32.417  14.784  1.00  0.00     0.211 HD
ENDBRANCH  47  48
BRANCH  47  50
ATOM     50  C   UNL     1       8.151  30.774  16.328  1.00  0.00     0.165 C 
BRANCH  50  51
ATOM     51  O   UNL     1       7.292  30.586  15.267  1.00  0.00    -0.388 OA
ATOM     52  H   UNL     1       6.887  29.683  15.241  1.00  0.00     0.211 HD
ENDBRANCH  50  51
BRANCH  50  53
ATOM     53  C   UNL     1       7.525  31.645  17.362  1.00  0.00     0.154 C 
BRANCH  53  54
ATOM     54  N   UNL     1       6.970  30.994  18.498  1.00  0.00    -0.319 N 
ATOM     55  C   UNL     1       5.590  30.602  18.430  1.00  0.00     0.407 C 
ATOM     56  H   UNL     1       7.481  30.804  19.375  1.00  0.00     0.167 HD
ATOM     57  O   UNL     1       4.930  30.851  17.363  1.00  0.00    -0.225 OA
BRANCH  55  58
ATOM     58  O   UNL     1       5.004  29.972  19.491  1.00  0.00    -0.443 OA
BRANCH  58  59
ATOM     59  C   UNL     1       5.718  29.152  20.379  1.00  0.00     0.294 C 
BRANCH  59  60
ATOM     60  C   UNL     1       5.482  29.571  21.779  1.00  0.00     0.120 A 
ATOM     61  C   UNL     1       5.662  28.858  22.958  1.00  0.00     0.138 A 
ATOM     62  N   UNL     1       5.040  30.772  22.186  1.00  0.00    -0.132 NA
ATOM     63  N   UNL     1       5.334  29.618  24.013  1.00  0.00    -0.248 N 
ATOM     64  N   UNL     1       4.955  30.792  23.501  1.00  0.00    -0.067 NA
BRANCH  63  65
ATOM     65  C   UNL     1       5.357  29.300  25.445  1.00  0.00     0.185 C 
BRANCH  65  66
ATOM     66  C   UNL     1       4.227  28.382  25.715  1.00  0.00     0.018 A 
ATOM     67  C   UNL     1       2.938  28.872  25.640  1.00  0.00     0.025 A 
ATOM     68  C   UNL     1       4.417  27.043  26.040  1.00  0.00     0.134 A 
ATOM     69  C   UNL     1       1.833  28.069  25.879  1.00  0.00     0.019 A 
ATOM     70  C   UNL     1       3.333  26.215  26.285  1.00  0.00     0.061 A 
ATOM     71  Br  UNL     1       0.075  28.789  25.765  1.00  0.00    -0.051 Br
ATOM     72  C   UNL     1       2.047  26.750  26.198  1.00  0.00     0.035 A 
ATOM     73  Br  UNL     1       3.617  24.401  26.723  1.00  0.00    -0.047 Br
BRANCH  68  74
ATOM     74  O   UNL     1       5.728  26.616  26.100  1.00  0.00    -0.506 OA
ATOM     75  H   UNL     1       6.126  26.362  26.989  1.00  0.00     0.293 HD
ENDBRANCH  68  74
ENDBRANCH  65  66
ENDBRANCH  63  65
ENDBRANCH  59  60
ENDBRANCH  58  59
ENDBRANCH  55  58
ENDBRANCH  53  54
ENDBRANCH  50  53
ENDBRANCH  47  50
ENDBRANCH   5  47
BRANCH   4  76
ATOM     76  N   UNL     1       9.266  29.147  13.099  1.00  0.00    -0.348 N 
ATOM     77  C   UNL     1       8.183  29.569  12.286  1.00  0.00     0.217 C 
ATOM     78  H   UNL     1       9.417  28.118  13.216  1.00  0.00     0.163 HD
ATOM     79  C   UNL     1       7.318  28.536  11.634  1.00  0.00     0.114 C 
ATOM     80  O   UNL     1       7.960  30.815  12.118  1.00  0.00    -0.275 OA
ENDBRANCH   4  76
TORSDOF 32
