REMARK VINA RESULT:    -5.047     13.496     17.897
REMARK INTER + INTRA:         -25.051
REMARK INTER:                 -13.156
REMARK INTRA:                 -11.895
REMARK UNBOUND:               -10.710
REMARK SMILES CC(=O)N[C@@H]1[C@@H](O)C[C@](OC[C@H]2O[C@@H](O[C@H]3[C@H](O)[C@@H](O)[C@H](OCCN=[N+]=[N-])O[C@@H]3CO)[C@H](O)[C@@H](O)[C@H]2O)(C(=O)O)O[C@H]1C(O)[C@H](O)CNC(=O)OCc1cn(CC(=O)NCC(O)Cn2ccnc2[N+](=O)[O-])nn1
REMARK SMILES IDX 47 1 45 2 43 3 42 4 9 5 8 6 41 7 6 8 5 9 10 10 11 11 12 12
REMARK SMILES IDX 14 13 13 14 32 15 34 16 36 17 15 18 16 19 29 20 28 21 21 22
REMARK SMILES IDX 17 23 19 24 30 25 31 26 22 28 23 29 24 30 25 31 26 32 27 33
REMARK SMILES IDX 18 34 20 36 33 38 35 40 37 42 38 44 39 45 40 46 7 48 4 50
REMARK SMILES IDX 2 51 1 53 3 54 44 55 46 57 48 59 49 60 50 62 51 63 52 64
REMARK SMILES IDX 53 65 54 66 73 67 55 68 72 69 56 70 57 71 58 72 59 73 60 75
REMARK SMILES IDX 61 76 62 77 63 79 64 80 65 81 68 82 66 83 67 84 69 85 70 86
REMARK SMILES IDX 71 87
REMARK H PARENT 31 27 18 35 20 37 33 39 35 41 37 43 40 47 7 49 4 52 44 56
REMARK H PARENT 46 58 48 61 59 74 62 78
REMARK Flexibility Score: inf
ROOT
ATOM      1  C   UNL     1      16.429  30.824  24.337  1.00  0.00     0.154 C 
ENDROOT
BRANCH   1   2
ATOM      2  C   UNL     1      17.171  29.939  23.393  1.00  0.00     0.165 C 
BRANCH   2   3
ATOM      3  C   UNL     1      18.622  30.208  23.243  1.00  0.00     0.176 C 
BRANCH   3   4
ATOM      4  C   UNL     1      19.229  30.149  21.902  1.00  0.00     0.178 C 
ATOM      5  C   UNL     1      19.371  28.998  19.889  1.00  0.00     0.272 C 
ATOM      6  C   UNL     1      19.843  30.334  19.434  1.00  0.00     0.113 C 
ATOM      7  O   UNL     1      18.915  28.993  21.220  1.00  0.00    -0.332 OA
ATOM      8  C   UNL     1      20.847  30.983  20.326  1.00  0.00     0.145 C 
ATOM      9  C   UNL     1      20.676  30.441  21.774  1.00  0.00     0.142 C 
BRANCH   5  10
ATOM     10  O   UNL     1      20.239  27.955  19.748  1.00  0.00    -0.338 OA
BRANCH  10  11
ATOM     11  C   UNL     1      21.160  28.023  18.750  1.00  0.00     0.199 C 
BRANCH  11  12
ATOM     12  C   UNL     1      22.548  27.601  19.192  1.00  0.00     0.179 C 
ATOM     13  C   UNL     1      23.789  27.117  21.105  1.00  0.00     0.282 C 
ATOM     14  O   UNL     1      22.835  27.908  20.475  1.00  0.00    -0.341 OA
ATOM     15  C   UNL     1      24.879  26.689  20.154  1.00  0.00     0.202 C 
ATOM     16  C   UNL     1      24.317  25.945  18.965  1.00  0.00     0.179 C 
ATOM     17  C   UNL     1      22.817  26.154  18.880  1.00  0.00     0.177 C 
BRANCH  13  18
ATOM     18  O   UNL     1      23.287  26.035  21.736  1.00  0.00    -0.341 OA
BRANCH  18  19
ATOM     19  C   UNL     1      23.003  26.039  23.048  1.00  0.00     0.184 C 
ATOM     20  C   UNL     1      23.292  24.782  23.824  1.00  0.00     0.178 C 
ATOM     21  O   UNL     1      23.348  25.159  25.168  1.00  0.00    -0.341 OA
ATOM     22  C   UNL     1      22.089  25.505  25.646  1.00  0.00     0.281 C 
ATOM     23  C   UNL     1      21.518  26.315  23.329  1.00  0.00     0.180 C 
ATOM     24  C   UNL     1      21.420  26.560  24.818  1.00  0.00     0.202 C 
BRANCH  20  25
ATOM     25  C   UNL     1      24.647  24.253  23.457  1.00  0.00     0.191 C 
BRANCH  25  26
ATOM     26  O   UNL     1      24.637  23.625  22.204  1.00  0.00    -0.394 OA
ATOM     27  H   UNL     1      24.052  24.217  21.634  1.00  0.00     0.210 HD
ENDBRANCH  25  26
ENDBRANCH  20  25
BRANCH  22  28
ATOM     28  O   UNL     1      22.264  26.024  26.927  1.00  0.00    -0.350 OA
BRANCH  28  29
ATOM     29  C   UNL     1      23.277  26.984  26.952  1.00  0.00     0.169 C 
BRANCH  29  30
ATOM     30  C   UNL     1      24.126  26.669  28.186  1.00  0.00     0.119 C 
BRANCH  30  31
ATOM     31  N   UNL     1      25.305  25.910  27.806  1.00  0.00    -0.092 NA
ATOM     32  N   UNL     1      26.333  26.567  27.539  1.00  0.00     0.001 N 
ATOM     33  N   UNL     1      27.426  27.118  27.551  1.00  0.00    -0.003 NA
ENDBRANCH  30  31
ENDBRANCH  29  30
ENDBRANCH  28  29
ENDBRANCH  22  28
BRANCH  23  34
ATOM     34  O   UNL     1      21.095  27.481  22.699  1.00  0.00    -0.387 OA
ATOM     35  H   UNL     1      21.901  27.797  22.181  1.00  0.00     0.211 HD
ENDBRANCH  23  34
BRANCH  24  36
ATOM     36  O   UNL     1      20.103  26.683  25.259  1.00  0.00    -0.385 OA
ATOM     37  H   UNL     1      19.796  25.780  25.567  1.00  0.00     0.211 HD
ENDBRANCH  24  36
ENDBRANCH  18  19
ENDBRANCH  13  18
BRANCH  15  38
ATOM     38  O   UNL     1      25.670  27.775  19.752  1.00  0.00    -0.385 OA
ATOM     39  H   UNL     1      26.056  27.496  18.863  1.00  0.00     0.211 HD
ENDBRANCH  15  38
BRANCH  16  40
ATOM     40  O   UNL     1      24.536  24.576  19.081  1.00  0.00    -0.387 OA
ATOM     41  H   UNL     1      24.529  24.272  20.036  1.00  0.00     0.211 HD
ENDBRANCH  16  40
BRANCH  17  42
ATOM     42  O   UNL     1      22.082  25.265  19.627  1.00  0.00    -0.387 OA
ATOM     43  H   UNL     1      21.263  24.947  19.157  1.00  0.00     0.211 HD
ENDBRANCH  17  42
ENDBRANCH  11  12
ENDBRANCH  10  11
ENDBRANCH   5  10
BRANCH   5  44
ATOM     44  C   UNL     1      18.113  28.699  19.109  1.00  0.00     0.364 C 
ATOM     45  O   UNL     1      18.012  29.220  17.984  1.00  0.00    -0.246 OA
BRANCH  44  46
ATOM     46  O   UNL     1      17.103  27.895  19.582  1.00  0.00    -0.477 OA
ATOM     47  H   UNL     1      17.321  27.058  20.153  1.00  0.00     0.296 HD
ENDBRANCH  44  46
ENDBRANCH   5  44
BRANCH   8  48
ATOM     48  O   UNL     1      22.149  30.927  19.947  1.00  0.00    -0.391 OA
ATOM     49  H   UNL     1      22.659  30.160  20.246  1.00  0.00     0.211 HD
ENDBRANCH   8  48
BRANCH   9  50
ATOM     50  N   UNL     1      21.239  31.409  22.638  1.00  0.00    -0.348 N 
ATOM     51  C   UNL     1      22.322  31.076  23.527  1.00  0.00     0.217 C 
ATOM     52  H   UNL     1      20.905  32.382  22.653  1.00  0.00     0.163 HD
ATOM     53  C   UNL     1      22.922  32.077  24.449  1.00  0.00     0.114 C 
ATOM     54  O   UNL     1      22.753  29.904  23.510  1.00  0.00    -0.275 OA
ENDBRANCH   9  50
ENDBRANCH   3   4
BRANCH   3  55
ATOM     55  O   UNL     1      19.295  29.365  24.163  1.00  0.00    -0.388 OA
ATOM     56  H   UNL     1      19.434  29.876  24.977  1.00  0.00     0.211 HD
ENDBRANCH   3  55
ENDBRANCH   2   3
BRANCH   2  57
ATOM     57  O   UNL     1      16.468  29.653  22.247  1.00  0.00    -0.388 OA
ATOM     58  H   UNL     1      15.832  28.917  22.309  1.00  0.00     0.211 HD
ENDBRANCH   2  57
ENDBRANCH   1   2
BRANCH   1  59
ATOM     59  N   UNL     1      15.030  30.493  24.348  1.00  0.00    -0.319 N 
ATOM     60  C   UNL     1      14.011  31.390  23.937  1.00  0.00     0.407 C 
ATOM     61  H   UNL     1      14.707  29.536  24.676  1.00  0.00     0.167 HD
ATOM     62  O   UNL     1      14.328  32.527  23.531  1.00  0.00    -0.225 OA
BRANCH  60  63
ATOM     63  O   UNL     1      12.665  31.094  23.954  1.00  0.00    -0.443 OA
BRANCH  63  64
ATOM     64  C   UNL     1      12.097  30.159  23.075  1.00  0.00     0.294 C 
BRANCH  64  65
ATOM     65  C   UNL     1      12.929  29.721  21.957  1.00  0.00     0.120 A 
ATOM     66  C   UNL     1      13.114  30.331  20.742  1.00  0.00     0.138 A 
ATOM     67  N   UNL     1      13.674  28.605  21.902  1.00  0.00    -0.132 NA
ATOM     68  N   UNL     1      13.955  29.578  19.995  1.00  0.00    -0.243 N 
ATOM     69  N   UNL     1      14.282  28.545  20.706  1.00  0.00    -0.067 NA
BRANCH  68  70
ATOM     70  C   UNL     1      14.425  29.891  18.650  1.00  0.00     0.245 C 
BRANCH  70  71
ATOM     71  C   UNL     1      15.106  31.202  18.671  1.00  0.00     0.241 C 
ATOM     72  O   UNL     1      14.676  32.182  17.974  1.00  0.00    -0.273 OA
ATOM     73  N   UNL     1      16.267  31.458  19.460  1.00  0.00    -0.352 N 
ATOM     74  H   UNL     1      16.654  30.697  20.043  1.00  0.00     0.163 HD
BRANCH  73  75
ATOM     75  C   UNL     1      16.864  32.780  19.416  1.00  0.00     0.151 C 
BRANCH  75  76
ATOM     76  C   UNL     1      17.564  33.133  20.691  1.00  0.00     0.168 C 
BRANCH  76  77
ATOM     77  O   UNL     1      16.720  33.099  21.787  1.00  0.00    -0.388 OA
ATOM     78  H   UNL     1      17.236  33.404  22.570  1.00  0.00     0.211 HD
ENDBRANCH  76  77
BRANCH  76  79
ATOM     79  C   UNL     1      18.158  34.522  20.514  1.00  0.00     0.239 C 
BRANCH  79  80
ATOM     80  N   UNL     1      19.567  34.537  20.782  1.00  0.00    -0.227 N 
ATOM     81  C   UNL     1      20.537  34.562  19.829  1.00  0.00     0.204 A 
ATOM     82  C   UNL     1      20.229  34.512  21.965  1.00  0.00     0.434 A 
ATOM     83  C   UNL     1      21.769  34.551  20.435  1.00  0.00     0.245 A 
ATOM     84  N   UNL     1      21.559  34.520  21.746  1.00  0.00    -0.074 NA
BRANCH  82  85
ATOM     85  N   UNL     1      19.611  34.494  23.251  1.00  0.00    -0.047 N 
ATOM     86  O   UNL     1      19.184  33.477  23.797  1.00  0.00    -0.390 OA
ATOM     87  O   UNL     1      19.473  35.699  23.926  1.00  0.00    -0.390 OA
ENDBRANCH  82  85
ENDBRANCH  79  80
ENDBRANCH  76  79
ENDBRANCH  75  76
ENDBRANCH  73  75
ENDBRANCH  70  71
ENDBRANCH  68  70
ENDBRANCH  64  65
ENDBRANCH  63  64
ENDBRANCH  60  63
ENDBRANCH   1  59
TORSDOF 37
