REMARK VINA RESULT:    -4.879     17.349     22.516
REMARK INTER + INTRA:         -24.574
REMARK INTER:                 -16.193
REMARK INTRA:                  -8.381
REMARK UNBOUND:               -10.710
REMARK SMILES CC(=O)N[C@@H]1[C@@H](O)C[C@](OC[C@H]2O[C@@H](O[C@H]3[C@H](O)[C@@H](O)[C@H](OCCN=[N+]=[N-])O[C@@H]3CO)[C@H](O)[C@@H](O)[C@H]2O)(C(=O)O)O[C@H]1C(O)[C@H](O)CNC(=O)OCc1cn(CC(=O)NCC(O)Cn2ccnc2[N+](=O)[O-])nn1
REMARK SMILES IDX 47 1 45 2 43 3 42 4 9 5 8 6 41 7 6 8 5 9 10 10 11 11 12 12
REMARK SMILES IDX 14 13 13 14 32 15 34 16 36 17 15 18 16 19 29 20 28 21 21 22
REMARK SMILES IDX 17 23 19 24 30 25 31 26 22 28 23 29 24 30 25 31 26 32 27 33
REMARK SMILES IDX 18 34 20 36 33 38 35 40 37 42 38 44 39 45 40 46 7 48 4 50
REMARK SMILES IDX 2 51 1 53 3 54 44 55 46 57 48 59 49 60 50 62 51 63 52 64
REMARK SMILES IDX 53 65 54 66 73 67 55 68 72 69 56 70 57 71 58 72 59 73 60 75
REMARK SMILES IDX 61 76 62 77 63 79 64 80 65 81 68 82 66 83 67 84 69 85 70 86
REMARK SMILES IDX 71 87
REMARK H PARENT 31 27 18 35 20 37 33 39 35 41 37 43 40 47 7 49 4 52 44 56
REMARK H PARENT 46 58 48 61 59 74 62 78
REMARK Flexibility Score: inf
ROOT
ATOM      1  C   UNL     1      19.206  32.968  19.818  1.00  0.00     0.154 C 
ENDROOT
BRANCH   1   2
ATOM      2  C   UNL     1      17.807  33.114  19.319  1.00  0.00     0.165 C 
BRANCH   2   3
ATOM      3  C   UNL     1      16.752  32.443  20.116  1.00  0.00     0.176 C 
BRANCH   3   4
ATOM      4  C   UNL     1      16.016  31.310  19.528  1.00  0.00     0.178 C 
ATOM      5  C   UNL     1      16.145  29.157  18.664  1.00  0.00     0.272 C 
ATOM      6  C   UNL     1      14.702  29.183  19.026  1.00  0.00     0.113 C 
ATOM      7  O   UNL     1      16.846  30.299  19.091  1.00  0.00    -0.332 OA
ATOM      8  C   UNL     1      13.974  30.419  18.616  1.00  0.00     0.145 C 
ATOM      9  C   UNL     1      14.982  31.598  18.507  1.00  0.00     0.142 C 
BRANCH   5  10
ATOM     10  O   UNL     1      16.449  28.955  17.350  1.00  0.00    -0.338 OA
BRANCH  10  11
ATOM     11  C   UNL     1      17.762  28.884  17.003  1.00  0.00     0.199 C 
BRANCH  11  12
ATOM     12  C   UNL     1      18.029  29.355  15.587  1.00  0.00     0.179 C 
ATOM     13  C   UNL     1      17.110  29.324  13.445  1.00  0.00     0.282 C 
ATOM     14  O   UNL     1      17.365  28.660  14.639  1.00  0.00    -0.341 OA
ATOM     15  C   UNL     1      18.236  30.255  13.069  1.00  0.00     0.202 C 
ATOM     16  C   UNL     1      18.506  31.267  14.158  1.00  0.00     0.179 C 
ATOM     17  C   UNL     1      17.829  30.840  15.446  1.00  0.00     0.177 C 
BRANCH  13  18
ATOM     18  O   UNL     1      15.940  29.995  13.420  1.00  0.00    -0.341 OA
BRANCH  18  19
ATOM     19  C   UNL     1      14.769  29.385  13.177  1.00  0.00     0.184 C 
ATOM     20  C   UNL     1      13.896  29.963  12.096  1.00  0.00     0.178 C 
ATOM     21  O   UNL     1      13.006  28.950  11.730  1.00  0.00    -0.341 OA
ATOM     22  C   UNL     1      12.082  28.704  12.740  1.00  0.00     0.281 C 
ATOM     23  C   UNL     1      13.855  29.348  14.412  1.00  0.00     0.180 C 
ATOM     24  C   UNL     1      12.726  28.405  14.060  1.00  0.00     0.202 C 
BRANCH  20  25
ATOM     25  C   UNL     1      14.723  30.283  10.886  1.00  0.00     0.191 C 
BRANCH  25  26
ATOM     26  O   UNL     1      15.459  29.172  10.452  1.00  0.00    -0.394 OA
ATOM     27  H   UNL     1      16.353  29.556  10.182  1.00  0.00     0.210 HD
ENDBRANCH  25  26
ENDBRANCH  20  25
BRANCH  22  28
ATOM     28  O   UNL     1      11.352  27.579  12.365  1.00  0.00    -0.350 OA
BRANCH  28  29
ATOM     29  C   UNL     1      10.362  27.903  11.436  1.00  0.00     0.169 C 
BRANCH  29  30
ATOM     30  C   UNL     1       9.640  29.130  11.998  1.00  0.00     0.119 C 
BRANCH  30  31
ATOM     31  N   UNL     1       8.452  28.725  12.728  1.00  0.00    -0.092 NA
ATOM     32  N   UNL     1       8.030  29.518  13.595  1.00  0.00     0.001 N 
ATOM     33  N   UNL     1       7.409  30.357  14.236  1.00  0.00    -0.003 NA
ENDBRANCH  30  31
ENDBRANCH  29  30
ENDBRANCH  28  29
ENDBRANCH  22  28
BRANCH  23  34
ATOM     34  O   UNL     1      14.512  28.801  15.509  1.00  0.00    -0.387 OA
ATOM     35  H   UNL     1      15.471  28.708  15.210  1.00  0.00     0.211 HD
ENDBRANCH  23  34
BRANCH  24  36
ATOM     36  O   UNL     1      11.725  28.376  15.030  1.00  0.00    -0.385 OA
ATOM     37  H   UNL     1      10.846  28.509  14.569  1.00  0.00     0.211 HD
ENDBRANCH  24  36
ENDBRANCH  18  19
ENDBRANCH  13  18
BRANCH  15  38
ATOM     38  O   UNL     1      19.397  29.548  12.727  1.00  0.00    -0.385 OA
ATOM     39  H   UNL     1      19.981  29.601  13.547  1.00  0.00     0.211 HD
ENDBRANCH  15  38
BRANCH  16  40
ATOM     40  O   UNL     1      17.994  32.516  13.819  1.00  0.00    -0.387 OA
ATOM     41  H   UNL     1      18.530  33.265  14.217  1.00  0.00     0.211 HD
ENDBRANCH  16  40
BRANCH  17  42
ATOM     42  O   UNL     1      16.523  31.251  15.559  1.00  0.00    -0.387 OA
ATOM     43  H   UNL     1      15.912  30.526  15.864  1.00  0.00     0.211 HD
ENDBRANCH  17  42
ENDBRANCH  11  12
ENDBRANCH  10  11
ENDBRANCH   5  10
BRANCH   5  44
ATOM     44  C   UNL     1      16.773  28.058  19.487  1.00  0.00     0.364 C 
ATOM     45  O   UNL     1      16.303  26.914  19.350  1.00  0.00    -0.246 OA
BRANCH  44  46
ATOM     46  O   UNL     1      17.816  28.268  20.359  1.00  0.00    -0.477 OA
ATOM     47  H   UNL     1      17.959  27.639  21.169  1.00  0.00     0.296 HD
ENDBRANCH  44  46
ENDBRANCH   5  44
BRANCH   8  48
ATOM     48  O   UNL     1      13.200  30.350  17.503  1.00  0.00    -0.391 OA
ATOM     49  H   UNL     1      12.626  31.108  17.322  1.00  0.00     0.211 HD
ENDBRANCH   8  48
BRANCH   9  50
ATOM     50  N   UNL     1      14.229  32.788  18.640  1.00  0.00    -0.348 N 
ATOM     51  C   UNL     1      14.279  33.819  17.634  1.00  0.00     0.217 C 
ATOM     52  H   UNL     1      13.615  32.954  19.448  1.00  0.00     0.163 HD
ATOM     53  C   UNL     1      13.501  35.080  17.760  1.00  0.00     0.114 C 
ATOM     54  O   UNL     1      15.005  33.628  16.637  1.00  0.00    -0.275 OA
ENDBRANCH   9  50
ENDBRANCH   3   4
BRANCH   3  55
ATOM     55  O   UNL     1      15.875  33.457  20.577  1.00  0.00    -0.388 OA
ATOM     56  H   UNL     1      15.034  33.031  20.809  1.00  0.00     0.211 HD
ENDBRANCH   3  55
ENDBRANCH   2   3
BRANCH   2  57
ATOM     57  O   UNL     1      17.705  33.028  17.951  1.00  0.00    -0.388 OA
ATOM     58  H   UNL     1      17.851  32.144  17.567  1.00  0.00     0.211 HD
ENDBRANCH   2  57
ENDBRANCH   1   2
BRANCH   1  59
ATOM     59  N   UNL     1      19.514  31.585  20.064  1.00  0.00    -0.319 N 
ATOM     60  C   UNL     1      20.072  30.723  19.087  1.00  0.00     0.407 C 
ATOM     61  H   UNL     1      19.325  31.154  21.016  1.00  0.00     0.167 HD
ATOM     62  O   UNL     1      20.327  31.174  17.951  1.00  0.00    -0.225 OA
BRANCH  60  63
ATOM     63  O   UNL     1      20.361  29.392  19.301  1.00  0.00    -0.443 OA
BRANCH  63  64
ATOM     64  C   UNL     1      21.488  28.983  20.030  1.00  0.00     0.294 C 
BRANCH  64  65
ATOM     65  C   UNL     1      21.419  27.665  20.657  1.00  0.00     0.120 A 
ATOM     66  C   UNL     1      22.204  26.565  20.418  1.00  0.00     0.138 A 
ATOM     67  N   UNL     1      20.544  27.268  21.595  1.00  0.00    -0.132 NA
ATOM     68  N   UNL     1      21.788  25.547  21.208  1.00  0.00    -0.243 N 
ATOM     69  N   UNL     1      20.790  25.986  21.908  1.00  0.00    -0.067 NA
BRANCH  68  70
ATOM     70  C   UNL     1      22.377  24.215  21.274  1.00  0.00     0.245 C 
BRANCH  70  71
ATOM     71  C   UNL     1      23.836  24.342  21.472  1.00  0.00     0.241 C 
ATOM     72  O   UNL     1      24.335  24.486  22.639  1.00  0.00    -0.273 OA
ATOM     73  N   UNL     1      24.769  24.308  20.393  1.00  0.00    -0.352 N 
ATOM     74  H   UNL     1      24.414  24.193  19.428  1.00  0.00     0.163 HD
BRANCH  73  75
ATOM     75  C   UNL     1      26.183  24.438  20.687  1.00  0.00     0.151 C 
BRANCH  75  76
ATOM     76  C   UNL     1      26.836  23.117  20.951  1.00  0.00     0.168 C 
BRANCH  76  77
ATOM     77  O   UNL     1      27.149  22.937  22.286  1.00  0.00    -0.388 OA
ATOM     78  H   UNL     1      27.897  22.296  22.333  1.00  0.00     0.211 HD
ENDBRANCH  76  77
BRANCH  76  79
ATOM     79  C   UNL     1      28.090  23.050  20.093  1.00  0.00     0.239 C 
BRANCH  79  80
ATOM     80  N   UNL     1      28.235  21.771  19.460  1.00  0.00    -0.227 N 
ATOM     81  C   UNL     1      27.945  21.514  18.157  1.00  0.00     0.204 A 
ATOM     82  C   UNL     1      28.650  20.587  19.975  1.00  0.00     0.434 A 
ATOM     83  C   UNL     1      28.182  20.188  17.893  1.00  0.00     0.245 A 
ATOM     84  N   UNL     1      28.614  19.636  19.022  1.00  0.00    -0.074 NA
BRANCH  82  85
ATOM     85  N   UNL     1      29.074  20.382  21.322  1.00  0.00    -0.047 N 
ATOM     86  O   UNL     1      30.243  20.469  21.697  1.00  0.00    -0.390 OA
ATOM     87  O   UNL     1      28.112  20.054  22.267  1.00  0.00    -0.390 OA
ENDBRANCH  82  85
ENDBRANCH  79  80
ENDBRANCH  76  79
ENDBRANCH  75  76
ENDBRANCH  73  75
ENDBRANCH  70  71
ENDBRANCH  68  70
ENDBRANCH  64  65
ENDBRANCH  63  64
ENDBRANCH  60  63
ENDBRANCH   1  59
TORSDOF 37
