REMARK VINA RESULT:    -6.153     14.578     20.234
REMARK INTER + INTRA:         -20.595
REMARK INTER:                 -13.975
REMARK INTRA:                  -6.620
REMARK UNBOUND:                -4.909
REMARK SMILES CC(=O)N[C@@H]1[C@@H](O)C[C@](OC[C@H]2O[C@@H](O[C@H]3[C@H](O)[C@@H](O)[C@H](OCCN=[N+]=[N-])O[C@@H]3CO)[C@H](O)[C@@H](O)[C@H]2O)(C(=O)O)O[C@H]1C(O)[C@H](O)CNC(=O)OCc1cn(CCO)nn1
REMARK SMILES IDX 9 1 8 2 6 3 5 4 42 5 41 6 10 7 11 8 12 9 14 10 13 11 32 12
REMARK SMILES IDX 34 13 36 14 15 15 16 16 29 17 28 18 21 19 17 20 19 21 30 22
REMARK SMILES IDX 31 23 22 25 23 26 24 27 25 28 26 29 27 30 18 31 20 33 33 35
REMARK SMILES IDX 35 37 37 39 38 41 39 42 40 43 7 45 43 47 44 48 45 50 46 51
REMARK SMILES IDX 47 53 48 54 49 55 50 57 51 58 52 59 53 60 54 61 60 62 55 63
REMARK SMILES IDX 59 64 56 65 57 66 58 67 4 69 2 70 1 72 3 73
REMARK H PARENT 31 24 18 32 20 34 33 36 35 38 37 40 40 44 7 46 44 49 46 52
REMARK H PARENT 48 56 58 68 4 71
REMARK Flexibility Score: inf
ROOT
ATOM      1  C   UNL     1      18.478  30.433  22.682  1.00  0.00     0.272 C 
ATOM      2  C   UNL     1      18.490  31.380  23.837  1.00  0.00     0.113 C 
ATOM      3  C   UNL     1      17.230  32.201  23.845  1.00  0.00     0.145 C 
ATOM      4  C   UNL     1      16.077  31.198  23.882  1.00  0.00     0.142 C 
ATOM      5  C   UNL     1      16.129  30.452  22.554  1.00  0.00     0.178 C 
ATOM      6  O   UNL     1      17.327  29.704  22.649  1.00  0.00    -0.332 OA
ENDROOT
BRANCH   1   7
ATOM      7  O   UNL     1      19.557  29.522  22.762  1.00  0.00    -0.338 OA
BRANCH   7   8
ATOM      8  C   UNL     1      20.761  30.058  23.077  1.00  0.00     0.199 C 
BRANCH   8   9
ATOM      9  C   UNL     1      21.842  28.970  23.181  1.00  0.00     0.179 C 
ATOM     10  C   UNL     1      22.306  26.918  24.158  1.00  0.00     0.282 C 
ATOM     11  O   UNL     1      21.473  28.035  24.124  1.00  0.00    -0.341 OA
ATOM     12  C   UNL     1      22.279  26.147  22.865  1.00  0.00     0.202 C 
ATOM     13  C   UNL     1      21.809  26.958  21.684  1.00  0.00     0.179 C 
ATOM     14  C   UNL     1      22.219  28.393  21.860  1.00  0.00     0.177 C 
BRANCH  10  15
ATOM     15  O   UNL     1      21.853  26.135  25.150  1.00  0.00    -0.341 OA
BRANCH  15  16
ATOM     16  C   UNL     1      22.558  25.951  26.277  1.00  0.00     0.184 C 
ATOM     17  C   UNL     1      23.015  24.631  26.711  1.00  0.00     0.178 C 
ATOM     18  O   UNL     1      22.983  24.530  28.090  1.00  0.00    -0.341 OA
ATOM     19  C   UNL     1      23.405  25.596  28.819  1.00  0.00     0.281 C 
ATOM     20  C   UNL     1      21.643  26.492  27.407  1.00  0.00     0.180 C 
ATOM     21  C   UNL     1      22.600  26.870  28.518  1.00  0.00     0.202 C 
BRANCH  17  22
ATOM     22  C   UNL     1      24.437  24.301  26.265  1.00  0.00     0.191 C 
BRANCH  22  23
ATOM     23  O   UNL     1      24.549  24.260  24.874  1.00  0.00    -0.394 OA
ATOM     24  H   UNL     1      23.662  24.406  24.493  1.00  0.00     0.210 HD
ENDBRANCH  22  23
ENDBRANCH  17  22
BRANCH  19  25
ATOM     25  O   UNL     1      24.748  25.845  28.840  1.00  0.00    -0.350 OA
BRANCH  25  26
ATOM     26  C   UNL     1      25.237  26.541  29.904  1.00  0.00     0.169 C 
BRANCH  26  27
ATOM     27  C   UNL     1      25.005  25.812  31.184  1.00  0.00     0.119 C 
BRANCH  27  28
ATOM     28  N   UNL     1      26.229  25.872  32.001  1.00  0.00    -0.092 NA
ATOM     29  N   UNL     1      27.187  25.216  31.552  1.00  0.00     0.001 N 
ATOM     30  N   UNL     1      28.285  25.110  30.978  1.00  0.00    -0.003 NA
ENDBRANCH  27  28
ENDBRANCH  26  27
ENDBRANCH  25  26
ENDBRANCH  19  25
BRANCH  20  31
ATOM     31  O   UNL     1      20.883  27.541  26.963  1.00  0.00    -0.387 OA
ATOM     32  H   UNL     1      19.913  27.341  26.964  1.00  0.00     0.211 HD
ENDBRANCH  20  31
BRANCH  21  33
ATOM     33  O   UNL     1      21.929  27.360  29.606  1.00  0.00    -0.385 OA
ATOM     34  H   UNL     1      21.732  26.665  30.282  1.00  0.00     0.211 HD
ENDBRANCH  21  33
ENDBRANCH  15  16
ENDBRANCH  10  15
BRANCH  12  35
ATOM     35  O   UNL     1      23.599  25.772  22.565  1.00  0.00    -0.385 OA
ATOM     36  H   UNL     1      24.269  26.316  23.024  1.00  0.00     0.211 HD
ENDBRANCH  12  35
BRANCH  13  37
ATOM     37  O   UNL     1      20.460  26.785  21.516  1.00  0.00    -0.387 OA
ATOM     38  H   UNL     1      20.061  27.491  20.917  1.00  0.00     0.211 HD
ENDBRANCH  13  37
BRANCH  14  39
ATOM     39  O   UNL     1      21.545  29.139  20.868  1.00  0.00    -0.387 OA
ATOM     40  H   UNL     1      21.197  28.545  20.157  1.00  0.00     0.211 HD
ENDBRANCH  14  39
ENDBRANCH   8   9
ENDBRANCH   7   8
ENDBRANCH   1   7
BRANCH   1  41
ATOM     41  C   UNL     1      18.740  31.192  21.440  1.00  0.00     0.364 C 
ATOM     42  O   UNL     1      18.908  32.426  21.423  1.00  0.00    -0.246 OA
BRANCH  41  43
ATOM     43  O   UNL     1      18.814  30.545  20.219  1.00  0.00    -0.477 OA
ATOM     44  H   UNL     1      18.034  30.543  19.539  1.00  0.00     0.296 HD
ENDBRANCH  41  43
ENDBRANCH   1  41
BRANCH   3  45
ATOM     45  O   UNL     1      17.133  32.951  25.038  1.00  0.00    -0.391 OA
ATOM     46  H   UNL     1      17.349  32.356  25.807  1.00  0.00     0.211 HD
ENDBRANCH   3  45
BRANCH   5  47
ATOM     47  C   UNL     1      15.048  29.421  22.533  1.00  0.00     0.176 C 
BRANCH  47  48
ATOM     48  O   UNL     1      14.686  29.023  23.822  1.00  0.00    -0.388 OA
ATOM     49  H   UNL     1      14.559  28.039  23.886  1.00  0.00     0.211 HD
ENDBRANCH  47  48
BRANCH  47  50
ATOM     50  C   UNL     1      13.841  29.667  21.714  1.00  0.00     0.165 C 
BRANCH  50  51
ATOM     51  O   UNL     1      12.783  29.089  22.542  1.00  0.00    -0.388 OA
ATOM     52  H   UNL     1      12.958  28.124  22.628  1.00  0.00     0.211 HD
ENDBRANCH  50  51
BRANCH  50  53
ATOM     53  C   UNL     1      13.738  28.798  20.473  1.00  0.00     0.154 C 
BRANCH  53  54
ATOM     54  N   UNL     1      14.858  28.909  19.595  1.00  0.00    -0.319 N 
ATOM     55  C   UNL     1      14.793  29.717  18.432  1.00  0.00     0.407 C 
ATOM     56  H   UNL     1      15.761  28.385  19.777  1.00  0.00     0.167 HD
ATOM     57  O   UNL     1      13.685  30.319  18.227  1.00  0.00    -0.225 OA
BRANCH  55  58
ATOM     58  O   UNL     1      15.799  29.911  17.524  1.00  0.00    -0.443 OA
BRANCH  58  59
ATOM     59  C   UNL     1      16.460  28.785  16.978  1.00  0.00     0.294 C 
BRANCH  59  60
ATOM     60  C   UNL     1      17.791  28.569  17.552  1.00  0.00     0.120 A 
ATOM     61  C   UNL     1      18.982  28.805  16.912  1.00  0.00     0.138 A 
ATOM     62  N   UNL     1      18.122  28.113  18.770  1.00  0.00    -0.132 NA
ATOM     63  N   UNL     1      19.999  28.494  17.740  1.00  0.00    -0.250 N 
ATOM     64  N   UNL     1      19.458  28.077  18.861  1.00  0.00    -0.067 NA
BRANCH  63  65
ATOM     65  C   UNL     1      21.429  28.612  17.419  1.00  0.00     0.174 C 
BRANCH  65  66
ATOM     66  C   UNL     1      21.794  30.076  17.426  1.00  0.00     0.179 C 
BRANCH  66  67
ATOM     67  O   UNL     1      21.278  30.632  18.608  1.00  0.00    -0.394 OA
ATOM     68  H   UNL     1      21.389  31.596  18.663  1.00  0.00     0.210 HD
ENDBRANCH  66  67
ENDBRANCH  65  66
ENDBRANCH  63  65
ENDBRANCH  59  60
ENDBRANCH  58  59
ENDBRANCH  55  58
ENDBRANCH  53  54
ENDBRANCH  50  53
ENDBRANCH  47  50
ENDBRANCH   5  47
BRANCH   4  69
ATOM     69  N   UNL     1      14.840  31.773  24.239  1.00  0.00    -0.348 N 
ATOM     70  C   UNL     1      14.164  31.574  25.465  1.00  0.00     0.217 C 
ATOM     71  H   UNL     1      14.361  32.424  23.566  1.00  0.00     0.163 HD
ATOM     72  C   UNL     1      12.867  32.240  25.702  1.00  0.00     0.114 C 
ATOM     73  O   UNL     1      14.642  30.845  26.347  1.00  0.00    -0.275 OA
ENDBRANCH   4  69
TORSDOF 32
