REMARK VINA RESULT:    -5.697      7.761     15.675
REMARK INTER + INTRA:         -23.429
REMARK INTER:                 -15.174
REMARK INTRA:                  -8.255
REMARK UNBOUND:                -8.074
REMARK SMILES CC(=O)N[C@@H]1[C@@H](O)C[C@](OC[C@H]2O[C@@H](O[C@H]3[C@H](O)[C@@H](O)[C@H](OCCN=[N+]=[N-])O[C@@H]3CO)[C@H](O)[C@@H](O)[C@H]2O)(C(=O)O)O[C@H]1C(O)[C@H](O)CNC(=O)OCc1cn(C[C@@H](C)CN2CCN(c3ccc(Cl)cc3)CC2)nn1
REMARK SMILES IDX 43 1 42 2 9 3 8 4 41 5 6 6 5 7 10 8 11 9 12 10 14 11 13 12
REMARK SMILES IDX 32 13 34 14 36 15 15 16 16 17 29 18 28 19 21 20 17 21 19 22
REMARK SMILES IDX 30 23 31 24 22 26 23 27 24 28 25 29 26 30 27 31 18 32 20 34
REMARK SMILES IDX 33 36 35 38 37 40 38 42 39 43 40 44 7 46 4 48 2 49 1 51 3 52
REMARK SMILES IDX 44 53 45 55 46 56 47 58 48 59 49 60 50 62 51 63 52 64 53 65
REMARK SMILES IDX 54 66 74 67 55 68 73 69 56 70 57 71 58 72 59 73 60 74 61 75
REMARK SMILES IDX 72 76 62 77 71 78 63 79 64 80 65 81 70 82 66 83 69 84 67 85
REMARK SMILES IDX 68 86
REMARK H PARENT 31 25 18 33 20 35 33 37 35 39 37 41 40 45 7 47 4 50 44 54
REMARK H PARENT 46 57 48 61
REMARK Flexibility Score: inf
ROOT
ATOM      1  C   UNL     1      17.144  29.894  23.433  1.00  0.00     0.176 C 
ENDROOT
BRANCH   1   2
ATOM      2  C   UNL     1      18.483  30.575  23.679  1.00  0.00     0.178 C 
ATOM      3  C   UNL     1      20.823  30.254  23.636  1.00  0.00     0.272 C 
ATOM      4  C   UNL     1      20.869  31.358  24.572  1.00  0.00     0.113 C 
ATOM      5  O   UNL     1      19.509  29.692  23.609  1.00  0.00    -0.332 OA
ATOM      6  C   UNL     1      19.771  31.304  25.618  1.00  0.00     0.145 C 
ATOM      7  C   UNL     1      18.442  31.473  24.869  1.00  0.00     0.142 C 
BRANCH   3   8
ATOM      8  O   UNL     1      21.617  29.195  23.762  1.00  0.00    -0.338 OA
BRANCH   8   9
ATOM      9  C   UNL     1      22.726  28.908  23.130  1.00  0.00     0.199 C 
BRANCH   9  10
ATOM     10  C   UNL     1      23.251  27.509  22.983  1.00  0.00     0.179 C 
ATOM     11  C   UNL     1      22.489  25.423  23.699  1.00  0.00     0.282 C 
ATOM     12  O   UNL     1      22.933  26.678  24.018  1.00  0.00    -0.341 OA
ATOM     13  C   UNL     1      21.169  25.538  22.961  1.00  0.00     0.202 C 
ATOM     14  C   UNL     1      21.389  26.358  21.731  1.00  0.00     0.179 C 
ATOM     15  C   UNL     1      22.755  26.950  21.641  1.00  0.00     0.177 C 
BRANCH  11  16
ATOM     16  O   UNL     1      22.226  24.778  24.932  1.00  0.00    -0.341 OA
BRANCH  16  17
ATOM     17  C   UNL     1      22.597  25.597  25.967  1.00  0.00     0.184 C 
ATOM     18  C   UNL     1      23.496  24.901  26.970  1.00  0.00     0.178 C 
ATOM     19  O   UNL     1      22.928  24.675  28.186  1.00  0.00    -0.341 OA
ATOM     20  C   UNL     1      22.406  25.777  28.838  1.00  0.00     0.281 C 
ATOM     21  C   UNL     1      21.390  26.217  26.663  1.00  0.00     0.180 C 
ATOM     22  C   UNL     1      21.904  26.864  27.928  1.00  0.00     0.202 C 
BRANCH  18  23
ATOM     23  C   UNL     1      24.867  25.554  27.054  1.00  0.00     0.191 C 
BRANCH  23  24
ATOM     24  O   UNL     1      24.923  26.740  26.367  1.00  0.00    -0.394 OA
ATOM     25  H   UNL     1      23.976  27.062  26.263  1.00  0.00     0.210 HD
ENDBRANCH  23  24
ENDBRANCH  18  23
BRANCH  20  26
ATOM     26  O   UNL     1      23.292  26.314  29.765  1.00  0.00    -0.350 OA
BRANCH  26  27
ATOM     27  C   UNL     1      23.859  25.422  30.630  1.00  0.00     0.169 C 
BRANCH  27  28
ATOM     28  C   UNL     1      25.075  25.989  31.306  1.00  0.00     0.119 C 
BRANCH  28  29
ATOM     29  N   UNL     1      26.244  25.732  30.481  1.00  0.00    -0.092 NA
ATOM     30  N   UNL     1      27.303  25.363  31.021  1.00  0.00     0.001 N 
ATOM     31  N   UNL     1      28.277  25.009  31.673  1.00  0.00    -0.003 NA
ENDBRANCH  28  29
ENDBRANCH  27  28
ENDBRANCH  26  27
ENDBRANCH  20  26
BRANCH  21  32
ATOM     32  O   UNL     1      20.829  27.220  25.876  1.00  0.00    -0.387 OA
ATOM     33  H   UNL     1      20.160  26.758  25.291  1.00  0.00     0.211 HD
ENDBRANCH  21  32
BRANCH  22  34
ATOM     34  O   UNL     1      20.811  27.494  28.572  1.00  0.00    -0.385 OA
ATOM     35  H   UNL     1      19.979  27.003  28.482  1.00  0.00     0.211 HD
ENDBRANCH  22  34
ENDBRANCH  16  17
ENDBRANCH  11  16
BRANCH  13  36
ATOM     36  O   UNL     1      20.711  24.259  22.697  1.00  0.00    -0.385 OA
ATOM     37  H   UNL     1      21.456  23.776  22.235  1.00  0.00     0.211 HD
ENDBRANCH  13  36
BRANCH  14  38
ATOM     38  O   UNL     1      20.407  27.340  21.544  1.00  0.00    -0.387 OA
ATOM     39  H   UNL     1      19.793  27.379  22.312  1.00  0.00     0.211 HD
ENDBRANCH  14  38
BRANCH  15  40
ATOM     40  O   UNL     1      22.801  27.951  20.702  1.00  0.00    -0.387 OA
ATOM     41  H   UNL     1      22.145  28.664  20.877  1.00  0.00     0.211 HD
ENDBRANCH  15  40
ENDBRANCH   9  10
ENDBRANCH   8   9
ENDBRANCH   3   8
BRANCH   3  42
ATOM     42  C   UNL     1      20.918  30.774  22.215  1.00  0.00     0.364 C 
ATOM     43  O   UNL     1      20.549  30.041  21.232  1.00  0.00    -0.246 OA
BRANCH  42  44
ATOM     44  O   UNL     1      21.393  32.015  21.876  1.00  0.00    -0.477 OA
ATOM     45  H   UNL     1      21.758  32.653  22.574  1.00  0.00     0.296 HD
ENDBRANCH  42  44
ENDBRANCH   3  42
BRANCH   6  46
ATOM     46  O   UNL     1      19.834  30.042  26.209  1.00  0.00    -0.391 OA
ATOM     47  H   UNL     1      20.499  29.464  25.764  1.00  0.00     0.211 HD
ENDBRANCH   6  46
BRANCH   7  48
ATOM     48  N   UNL     1      18.331  32.872  24.511  1.00  0.00    -0.348 N 
ATOM     49  C   UNL     1      17.545  33.748  25.301  1.00  0.00     0.217 C 
ATOM     50  H   UNL     1      18.817  33.284  23.667  1.00  0.00     0.163 HD
ATOM     51  C   UNL     1      17.455  35.196  24.894  1.00  0.00     0.114 C 
ATOM     52  O   UNL     1      16.915  33.375  26.331  1.00  0.00    -0.275 OA
ENDBRANCH   7  48
ENDBRANCH   1   2
BRANCH   1  53
ATOM     53  O   UNL     1      16.291  30.273  24.468  1.00  0.00    -0.388 OA
ATOM     54  H   UNL     1      15.828  29.494  24.855  1.00  0.00     0.211 HD
ENDBRANCH   1  53
BRANCH   1  55
ATOM     55  C   UNL     1      16.474  30.309  22.153  1.00  0.00     0.165 C 
BRANCH  55  56
ATOM     56  O   UNL     1      15.559  31.322  22.269  1.00  0.00    -0.388 OA
ATOM     57  H   UNL     1      15.970  32.197  22.373  1.00  0.00     0.211 HD
ENDBRANCH  55  56
BRANCH  55  58
ATOM     58  C   UNL     1      15.930  29.182  21.342  1.00  0.00     0.154 C 
BRANCH  58  59
ATOM     59  N   UNL     1      16.642  29.148  20.063  1.00  0.00    -0.319 N 
ATOM     60  C   UNL     1      16.275  29.995  18.992  1.00  0.00     0.407 C 
ATOM     61  H   UNL     1      17.433  28.483  19.946  1.00  0.00     0.167 HD
ATOM     62  O   UNL     1      15.313  30.782  19.165  1.00  0.00    -0.225 OA
BRANCH  60  63
ATOM     63  O   UNL     1      16.968  29.950  17.789  1.00  0.00    -0.443 OA
BRANCH  63  64
ATOM     64  C   UNL     1      17.386  28.673  17.308  1.00  0.00     0.294 C 
BRANCH  64  65
ATOM     65  C   UNL     1      18.823  28.420  17.555  1.00  0.00     0.120 A 
ATOM     66  C   UNL     1      19.855  28.527  16.651  1.00  0.00     0.138 A 
ATOM     67  N   UNL     1      19.404  28.034  18.716  1.00  0.00    -0.132 NA
ATOM     68  N   UNL     1      20.978  28.208  17.287  1.00  0.00    -0.252 N 
ATOM     69  N   UNL     1      20.701  27.910  18.536  1.00  0.00    -0.067 NA
BRANCH  68  70
ATOM     70  C   UNL     1      22.303  28.188  16.665  1.00  0.00     0.150 C 
BRANCH  70  71
ATOM     71  C   UNL     1      22.285  27.346  15.386  1.00  0.00     0.022 C 
ATOM     72  C   UNL     1      23.146  28.093  14.390  1.00  0.00     0.011 C 
BRANCH  71  73
ATOM     73  C   UNL     1      22.839  25.988  15.686  1.00  0.00     0.089 C 
BRANCH  73  74
ATOM     74  N   UNL     1      23.658  25.832  16.815  1.00  0.00    -0.299 NA
ATOM     75  C   UNL     1      25.047  26.008  16.738  1.00  0.00     0.106 C 
ATOM     76  C   UNL     1      23.177  24.909  17.792  1.00  0.00     0.106 C 
ATOM     77  C   UNL     1      25.822  24.823  17.314  1.00  0.00     0.132 C 
ATOM     78  C   UNL     1      24.033  25.005  19.042  1.00  0.00     0.132 C 
ATOM     79  N   UNL     1      25.353  24.564  18.674  1.00  0.00    -0.369 N 
BRANCH  79  80
ATOM     80  C   UNL     1      26.192  23.893  19.572  1.00  0.00     0.037 A 
ATOM     81  C   UNL     1      27.163  22.990  19.146  1.00  0.00     0.027 A 
ATOM     82  C   UNL     1      26.127  24.084  20.946  1.00  0.00     0.027 A 
ATOM     83  C   UNL     1      28.004  22.324  20.005  1.00  0.00     0.022 A 
ATOM     84  C   UNL     1      26.970  23.418  21.812  1.00  0.00     0.022 A 
ATOM     85  C   UNL     1      27.919  22.529  21.358  1.00  0.00     0.041 A 
ATOM     86  Cl  UNL     1      28.980  21.691  22.441  1.00  0.00    -0.084 Cl
ENDBRANCH  79  80
ENDBRANCH  73  74
ENDBRANCH  71  73
ENDBRANCH  70  71
ENDBRANCH  68  70
ENDBRANCH  64  65
ENDBRANCH  63  64
ENDBRANCH  60  63
ENDBRANCH  58  59
ENDBRANCH  55  58
ENDBRANCH   1  55
TORSDOF 34
