REMARK VINA RESULT:    -5.400      2.492      5.803
REMARK INTER + INTRA:         -22.333
REMARK INTER:                 -12.335
REMARK INTRA:                  -9.998
REMARK UNBOUND:                -7.304
REMARK SMILES CC(=O)N[C@@H]1[C@@H](O)C[C@](OC[C@H]2O[C@@H](O[C@H]3[C@H](O)[C@@H](O)[C@H](OCCN=[N+]=[N-])O[C@@H]3CO)[C@H](O)[C@@H](O)[C@H]2O)(C(=O)O)O[C@H]1C(O)[C@H](O)CNC(=O)OCc1cn(CCCCCC(=O)O)nn1
REMARK SMILES IDX 47 1 45 2 43 3 42 4 9 5 8 6 41 7 6 8 5 9 10 10 11 11 12 12
REMARK SMILES IDX 14 13 13 14 32 15 34 16 36 17 15 18 16 19 29 20 28 21 21 22
REMARK SMILES IDX 17 23 19 24 30 25 31 26 22 28 23 29 24 30 25 31 26 32 27 33
REMARK SMILES IDX 18 34 20 36 33 38 35 40 37 42 38 44 39 45 40 46 7 48 4 50
REMARK SMILES IDX 2 51 1 53 3 54 44 55 46 57 48 59 49 60 50 62 51 63 52 64
REMARK SMILES IDX 53 65 54 66 65 67 55 68 64 69 56 70 57 71 58 72 59 73 60 74
REMARK SMILES IDX 61 75 62 76 63 77
REMARK H PARENT 31 27 18 35 20 37 33 39 35 41 37 43 40 47 7 49 4 52 44 56
REMARK H PARENT 46 58 48 61 63 78
REMARK Flexibility Score: inf
ROOT
ATOM      1  C   UNL     1      19.429  32.356  24.337  1.00  0.00     0.154 C 
ENDROOT
BRANCH   1   2
ATOM      2  C   UNL     1      20.833  32.895  24.214  1.00  0.00     0.165 C 
BRANCH   2   3
ATOM      3  C   UNL     1      21.736  31.907  24.878  1.00  0.00     0.176 C 
BRANCH   3   4
ATOM      4  C   UNL     1      22.590  31.088  23.973  1.00  0.00     0.178 C 
ATOM      5  C   UNL     1      22.652  29.850  22.092  1.00  0.00     0.272 C 
ATOM      6  C   UNL     1      24.119  30.113  22.190  1.00  0.00     0.113 C 
ATOM      7  O   UNL     1      21.915  30.131  23.234  1.00  0.00    -0.332 OA
ATOM      8  C   UNL     1      24.734  30.101  23.538  1.00  0.00     0.145 C 
ATOM      9  C   UNL     1      23.715  30.344  24.659  1.00  0.00     0.142 C 
BRANCH   5  10
ATOM     10  O   UNL     1      22.365  28.581  21.592  1.00  0.00    -0.338 OA
BRANCH  10  11
ATOM     11  C   UNL     1      23.366  27.918  20.960  1.00  0.00     0.199 C 
BRANCH  11  12
ATOM     12  C   UNL     1      23.413  26.525  21.560  1.00  0.00     0.179 C 
ATOM     13  C   UNL     1      23.035  25.196  23.319  1.00  0.00     0.282 C 
ATOM     14  O   UNL     1      22.541  26.338  22.620  1.00  0.00    -0.341 OA
ATOM     15  C   UNL     1      23.608  24.155  22.468  1.00  0.00     0.202 C 
ATOM     16  C   UNL     1      23.246  24.179  21.009  1.00  0.00     0.179 C 
ATOM     17  C   UNL     1      22.948  25.559  20.486  1.00  0.00     0.177 C 
BRANCH  13  18
ATOM     18  O   UNL     1      22.125  24.827  24.306  1.00  0.00    -0.341 OA
BRANCH  18  19
ATOM     19  C   UNL     1      22.495  25.089  25.572  1.00  0.00     0.184 C 
ATOM     20  C   UNL     1      22.137  26.473  26.020  1.00  0.00     0.178 C 
ATOM     21  O   UNL     1      22.218  26.440  27.428  1.00  0.00    -0.341 OA
ATOM     22  C   UNL     1      23.501  26.314  27.840  1.00  0.00     0.281 C 
ATOM     23  C   UNL     1      24.059  25.094  25.688  1.00  0.00     0.180 C 
ATOM     24  C   UNL     1      24.471  26.089  26.743  1.00  0.00     0.202 C 
BRANCH  20  25
ATOM     25  C   UNL     1      20.730  26.883  25.672  1.00  0.00     0.191 C 
BRANCH  25  26
ATOM     26  O   UNL     1      20.701  27.584  24.485  1.00  0.00    -0.394 OA
ATOM     27  H   UNL     1      21.455  27.259  23.926  1.00  0.00     0.210 HD
ENDBRANCH  25  26
ENDBRANCH  20  25
BRANCH  22  28
ATOM     28  O   UNL     1      23.671  25.361  28.854  1.00  0.00    -0.350 OA
BRANCH  28  29
ATOM     29  C   UNL     1      24.071  25.916  30.043  1.00  0.00     0.169 C 
BRANCH  29  30
ATOM     30  C   UNL     1      25.572  25.730  30.214  1.00  0.00     0.119 C 
BRANCH  30  31
ATOM     31  N   UNL     1      26.121  26.746  31.097  1.00  0.00    -0.092 NA
ATOM     32  N   UNL     1      26.406  27.869  30.639  1.00  0.00     0.001 N 
ATOM     33  N   UNL     1      27.110  28.784  30.209  1.00  0.00    -0.003 NA
ENDBRANCH  30  31
ENDBRANCH  29  30
ENDBRANCH  28  29
ENDBRANCH  22  28
BRANCH  23  34
ATOM     34  O   UNL     1      24.471  23.833  26.115  1.00  0.00    -0.387 OA
ATOM     35  H   UNL     1      24.616  23.253  25.312  1.00  0.00     0.211 HD
ENDBRANCH  23  34
BRANCH  24  36
ATOM     36  O   UNL     1      25.003  27.266  26.200  1.00  0.00    -0.385 OA
ATOM     37  H   UNL     1      24.849  28.052  26.781  1.00  0.00     0.211 HD
ENDBRANCH  24  36
ENDBRANCH  18  19
ENDBRANCH  13  18
BRANCH  15  38
ATOM     38  O   UNL     1      25.032  24.176  22.495  1.00  0.00    -0.385 OA
ATOM     39  H   UNL     1      25.392  23.869  21.644  1.00  0.00     0.211 HD
ENDBRANCH  15  38
BRANCH  16  40
ATOM     40  O   UNL     1      22.125  23.382  20.718  1.00  0.00    -0.387 OA
ATOM     41  H   UNL     1      22.025  22.629  21.328  1.00  0.00     0.211 HD
ENDBRANCH  16  40
BRANCH  17  42
ATOM     42  O   UNL     1      21.542  25.725  20.399  1.00  0.00    -0.387 OA
ATOM     43  H   UNL     1      21.183  24.797  20.236  1.00  0.00     0.211 HD
ENDBRANCH  17  42
ENDBRANCH  11  12
ENDBRANCH  10  11
ENDBRANCH   5  10
BRANCH   5  44
ATOM     44  C   UNL     1      22.125  30.787  21.061  1.00  0.00     0.364 C 
ATOM     45  O   UNL     1      20.894  30.907  20.874  1.00  0.00    -0.246 OA
BRANCH  44  46
ATOM     46  O   UNL     1      22.990  31.533  20.299  1.00  0.00    -0.477 OA
ATOM     47  H   UNL     1      23.548  31.136  19.524  1.00  0.00     0.296 HD
ENDBRANCH  44  46
ENDBRANCH   5  44
BRANCH   8  48
ATOM     48  O   UNL     1      25.559  29.014  23.809  1.00  0.00    -0.391 OA
ATOM     49  H   UNL     1      25.797  29.048  24.762  1.00  0.00     0.211 HD
ENDBRANCH   8  48
BRANCH   9  50
ATOM     50  N   UNL     1      24.298  31.021  25.764  1.00  0.00    -0.348 N 
ATOM     51  C   UNL     1      24.036  30.570  27.080  1.00  0.00     0.217 C 
ATOM     52  H   UNL     1      24.913  31.834  25.626  1.00  0.00     0.163 HD
ATOM     53  C   UNL     1      24.637  31.257  28.253  1.00  0.00     0.114 C 
ATOM     54  O   UNL     1      23.290  29.575  27.315  1.00  0.00    -0.275 OA
ENDBRANCH   9  50
ENDBRANCH   3   4
BRANCH   3  55
ATOM     55  O   UNL     1      21.007  31.038  25.721  1.00  0.00    -0.388 OA
ATOM     56  H   UNL     1      20.141  31.445  25.951  1.00  0.00     0.211 HD
ENDBRANCH   3  55
ENDBRANCH   2   3
BRANCH   2  57
ATOM     57  O   UNL     1      20.882  34.122  24.866  1.00  0.00    -0.388 OA
ATOM     58  H   UNL     1      21.265  33.956  25.764  1.00  0.00     0.211 HD
ENDBRANCH   2  57
ENDBRANCH   1   2
BRANCH   1  59
ATOM     59  N   UNL     1      18.963  31.659  23.181  1.00  0.00    -0.319 N 
ATOM     60  C   UNL     1      18.617  30.276  23.317  1.00  0.00     0.407 C 
ATOM     61  H   UNL     1      18.865  32.104  22.255  1.00  0.00     0.167 HD
ATOM     62  O   UNL     1      18.723  29.699  24.428  1.00  0.00    -0.225 OA
BRANCH  60  63
ATOM     63  O   UNL     1      18.164  29.531  22.254  1.00  0.00    -0.443 OA
BRANCH  63  64
ATOM     64  C   UNL     1      16.875  29.571  21.751  1.00  0.00     0.294 C 
BRANCH  64  65
ATOM     65  C   UNL     1      16.665  29.000  20.415  1.00  0.00     0.120 A 
ATOM     66  C   UNL     1      16.470  29.676  19.238  1.00  0.00     0.138 A 
ATOM     67  N   UNL     1      16.614  27.681  20.124  1.00  0.00    -0.132 NA
ATOM     68  N   UNL     1      16.308  28.769  18.274  1.00  0.00    -0.252 N 
ATOM     69  N   UNL     1      16.400  27.583  18.840  1.00  0.00    -0.067 NA
BRANCH  68  70
ATOM     70  C   UNL     1      16.082  29.054  16.863  1.00  0.00     0.146 C 
BRANCH  70  71
ATOM     71  C   UNL     1      17.247  29.905  16.361  1.00  0.00     0.024 C 
BRANCH  71  72
ATOM     72  C   UNL     1      18.181  29.102  15.504  1.00  0.00     0.002 C 
BRANCH  72  73
ATOM     73  C   UNL     1      19.192  28.404  16.368  1.00  0.00     0.012 C 
BRANCH  73  74
ATOM     74  C   UNL     1      19.638  29.219  17.537  1.00  0.00     0.122 C 
BRANCH  74  75
ATOM     75  C   UNL     1      20.273  28.330  18.550  1.00  0.00     0.303 C 
ATOM     76  O   UNL     1      21.244  27.611  18.228  1.00  0.00    -0.252 OA
BRANCH  75  77
ATOM     77  O   UNL     1      19.803  28.283  19.858  1.00  0.00    -0.481 OA
ATOM     78  H   UNL     1      20.122  28.981  20.533  1.00  0.00     0.296 HD
ENDBRANCH  75  77
ENDBRANCH  74  75
ENDBRANCH  73  74
ENDBRANCH  72  73
ENDBRANCH  71  72
ENDBRANCH  70  71
ENDBRANCH  68  70
ENDBRANCH  64  65
ENDBRANCH  63  64
ENDBRANCH  60  63
ENDBRANCH   1  59
TORSDOF 36
