REMARK VINA RESULT:    -6.088      5.187     11.455
REMARK INTER + INTRA:         -21.284
REMARK INTER:                 -14.776
REMARK INTRA:                  -6.509
REMARK UNBOUND:                -6.298
REMARK SMILES CC(=O)N[C@@H]1[C@@H](O)C[C@](OC[C@H]2O[C@@H](O[C@H]3[C@H](O)[C@@H](O)[C@H](OCCN=[N+]=[N-])O[C@@H]3CO)[C@H](O)[C@@H](O)[C@H]2O)(C(=O)O)O[C@H]1C(O)[C@H](O)CNC(=O)OCc1cn(-c2c(C)cc(C)cc2C)nn1
REMARK SMILES IDX 9 1 8 2 6 3 5 4 42 5 41 6 10 7 11 8 12 9 14 10 13 11 32 12
REMARK SMILES IDX 34 13 36 14 15 15 16 16 29 17 28 18 21 19 17 20 19 21 30 22
REMARK SMILES IDX 31 23 22 25 23 26 24 27 25 28 26 29 27 30 18 31 20 33 33 35
REMARK SMILES IDX 35 37 37 39 38 41 39 42 40 43 7 45 43 47 44 48 45 50 46 51
REMARK SMILES IDX 47 53 48 54 49 55 50 57 51 58 52 59 53 60 54 61 66 62 55 63
REMARK SMILES IDX 65 64 56 65 57 66 63 67 58 68 59 69 62 70 64 71 60 72 61 73
REMARK SMILES IDX 4 74 2 75 1 77 3 78
REMARK H PARENT 31 24 18 32 20 34 33 36 35 38 37 40 40 44 7 46 44 49 46 52
REMARK H PARENT 48 56 4 76
REMARK Flexibility Score: inf
ROOT
ATOM      1  C   UNL     1      14.729  29.824  19.197  1.00  0.00     0.272 C 
ATOM      2  C   UNL     1      15.686  28.814  18.694  1.00  0.00     0.113 C 
ATOM      3  C   UNL     1      16.865  28.502  19.583  1.00  0.00     0.145 C 
ATOM      4  C   UNL     1      17.291  29.734  20.316  1.00  0.00     0.142 C 
ATOM      5  C   UNL     1      16.796  30.909  19.462  1.00  0.00     0.178 C 
ATOM      6  O   UNL     1      15.390  30.969  19.664  1.00  0.00    -0.332 OA
ENDROOT
BRANCH   1   7
ATOM      7  O   UNL     1      13.801  29.422  20.109  1.00  0.00    -0.338 OA
BRANCH   7   8
ATOM      8  C   UNL     1      13.877  29.829  21.389  1.00  0.00     0.199 C 
BRANCH   8   9
ATOM      9  C   UNL     1      12.512  30.424  21.768  1.00  0.00     0.179 C 
ATOM     10  C   UNL     1      11.303  30.772  23.695  1.00  0.00     0.282 C 
ATOM     11  O   UNL     1      12.052  29.874  22.948  1.00  0.00    -0.341 OA
ATOM     12  C   UNL     1      12.276  31.804  24.203  1.00  0.00     0.202 C 
ATOM     13  C   UNL     1      12.754  32.569  22.977  1.00  0.00     0.179 C 
ATOM     14  C   UNL     1      12.460  31.904  21.679  1.00  0.00     0.177 C 
BRANCH  10  15
ATOM     15  O   UNL     1      10.512  30.198  24.616  1.00  0.00    -0.341 OA
BRANCH  15  16
ATOM     16  C   UNL     1       9.439  29.486  24.220  1.00  0.00     0.184 C 
ATOM     17  C   UNL     1       8.179  30.307  24.434  1.00  0.00     0.178 C 
ATOM     18  O   UNL     1       7.470  29.925  25.533  1.00  0.00    -0.341 OA
ATOM     19  C   UNL     1       6.978  28.630  25.485  1.00  0.00     0.281 C 
ATOM     20  C   UNL     1       9.355  28.210  25.063  1.00  0.00     0.180 C 
ATOM     21  C   UNL     1       7.955  27.628  24.989  1.00  0.00     0.202 C 
BRANCH  17  22
ATOM     22  C   UNL     1       7.342  30.360  23.167  1.00  0.00     0.191 C 
BRANCH  22  23
ATOM     23  O   UNL     1       6.256  31.215  23.332  1.00  0.00    -0.394 OA
ATOM     24  H   UNL     1       5.385  30.757  23.304  1.00  0.00     0.210 HD
ENDBRANCH  22  23
ENDBRANCH  17  22
BRANCH  19  25
ATOM     25  O   UNL     1       5.811  28.562  24.710  1.00  0.00    -0.350 OA
BRANCH  25  26
ATOM     26  C   UNL     1       4.707  28.144  25.409  1.00  0.00     0.169 C 
BRANCH  26  27
ATOM     27  C   UNL     1       4.146  26.821  24.987  1.00  0.00     0.119 C 
BRANCH  27  28
ATOM     28  N   UNL     1       4.819  25.708  25.632  1.00  0.00    -0.092 NA
ATOM     29  N   UNL     1       4.183  24.901  26.340  1.00  0.00     0.001 N 
ATOM     30  N   UNL     1       3.373  24.186  26.941  1.00  0.00    -0.003 NA
ENDBRANCH  27  28
ENDBRANCH  26  27
ENDBRANCH  25  26
ENDBRANCH  19  25
BRANCH  20  31
ATOM     31  O   UNL     1      10.240  27.240  24.664  1.00  0.00    -0.387 OA
ATOM     32  H   UNL     1      10.069  26.864  23.763  1.00  0.00     0.211 HD
ENDBRANCH  20  31
BRANCH  21  33
ATOM     33  O   UNL     1       7.934  26.517  25.829  1.00  0.00    -0.385 OA
ATOM     34  H   UNL     1       7.341  25.802  25.465  1.00  0.00     0.211 HD
ENDBRANCH  21  33
ENDBRANCH  15  16
ENDBRANCH  10  15
BRANCH  12  35
ATOM     35  O   UNL     1      11.680  32.728  25.057  1.00  0.00    -0.385 OA
ATOM     36  H   UNL     1      10.750  32.393  25.242  1.00  0.00     0.211 HD
ENDBRANCH  12  35
BRANCH  13  37
ATOM     37  O   UNL     1      14.121  32.835  23.049  1.00  0.00    -0.387 OA
ATOM     38  H   UNL     1      14.586  32.305  23.745  1.00  0.00     0.211 HD
ENDBRANCH  13  37
BRANCH  14  39
ATOM     39  O   UNL     1      13.422  32.360  20.745  1.00  0.00    -0.387 OA
ATOM     40  H   UNL     1      13.089  33.152  20.263  1.00  0.00     0.211 HD
ENDBRANCH  14  39
ENDBRANCH   8   9
ENDBRANCH   7   8
ENDBRANCH   1   7
BRANCH   1  41
ATOM     41  C   UNL     1      13.999  30.348  17.980  1.00  0.00     0.364 C 
ATOM     42  O   UNL     1      13.865  31.568  17.846  1.00  0.00    -0.246 OA
BRANCH  41  43
ATOM     43  O   UNL     1      13.484  29.494  17.024  1.00  0.00    -0.477 OA
ATOM     44  H   UNL     1      12.855  29.766  16.289  1.00  0.00     0.296 HD
ENDBRANCH  41  43
ENDBRANCH   1  41
BRANCH   3  45
ATOM     45  O   UNL     1      16.483  27.452  20.416  1.00  0.00    -0.391 OA
ATOM     46  H   UNL     1      16.176  26.682  19.837  1.00  0.00     0.211 HD
ENDBRANCH   3  45
BRANCH   5  47
ATOM     47  C   UNL     1      17.283  32.237  19.886  1.00  0.00     0.176 C 
BRANCH  47  48
ATOM     48  O   UNL     1      16.383  32.685  20.922  1.00  0.00    -0.388 OA
ATOM     49  H   UNL     1      16.786  32.467  21.801  1.00  0.00     0.211 HD
ENDBRANCH  47  48
BRANCH  47  50
ATOM     50  C   UNL     1      17.187  33.373  18.886  1.00  0.00     0.165 C 
BRANCH  50  51
ATOM     51  O   UNL     1      15.757  33.457  18.677  1.00  0.00    -0.388 OA
ATOM     52  H   UNL     1      15.563  34.235  18.120  1.00  0.00     0.211 HD
ENDBRANCH  50  51
BRANCH  50  53
ATOM     53  C   UNL     1      17.693  32.964  17.525  1.00  0.00     0.154 C 
BRANCH  53  54
ATOM     54  N   UNL     1      16.707  32.829  16.498  1.00  0.00    -0.319 N 
ATOM     55  C   UNL     1      16.701  31.662  15.675  1.00  0.00     0.407 C 
ATOM     56  H   UNL     1      15.983  33.585  16.336  1.00  0.00     0.167 HD
ATOM     57  O   UNL     1      17.597  30.805  15.905  1.00  0.00    -0.225 OA
BRANCH  55  58
ATOM     58  O   UNL     1      15.764  31.461  14.668  1.00  0.00    -0.443 OA
BRANCH  58  59
ATOM     59  C   UNL     1      15.765  30.308  13.860  1.00  0.00     0.294 C 
BRANCH  59  60
ATOM     60  C   UNL     1      14.459  29.597  13.827  1.00  0.00     0.121 A 
ATOM     61  C   UNL     1      13.244  30.059  13.374  1.00  0.00     0.144 A 
ATOM     62  N   UNL     1      14.218  28.322  14.251  1.00  0.00    -0.131 NA
ATOM     63  N   UNL     1      12.323  29.094  13.526  1.00  0.00    -0.220 N 
ATOM     64  N   UNL     1      12.965  28.057  14.064  1.00  0.00    -0.062 NA
BRANCH  63  65
ATOM     65  C   UNL     1      10.921  29.127  13.200  1.00  0.00     0.072 A 
ATOM     66  C   UNL     1      10.542  28.527  12.026  1.00  0.00    -0.025 A 
ATOM     67  C   UNL     1      10.045  29.733  14.032  1.00  0.00    -0.025 A 
ATOM     68  C   UNL     1      11.549  27.864  11.127  1.00  0.00     0.047 C 
ATOM     69  C   UNL     1       9.202  28.552  11.694  1.00  0.00     0.009 A 
ATOM     70  C   UNL     1       8.698  29.734  13.653  1.00  0.00     0.009 A 
ATOM     71  C   UNL     1      10.417  30.391  15.312  1.00  0.00     0.047 C 
ATOM     72  C   UNL     1       8.259  29.149  12.491  1.00  0.00    -0.050 A 
ATOM     73  C   UNL     1       6.834  29.139  12.079  1.00  0.00     0.044 C 
ENDBRANCH  63  65
ENDBRANCH  59  60
ENDBRANCH  58  59
ENDBRANCH  55  58
ENDBRANCH  53  54
ENDBRANCH  50  53
ENDBRANCH  47  50
ENDBRANCH   5  47
BRANCH   4  74
ATOM     74  N   UNL     1      18.640  29.821  20.672  1.00  0.00    -0.348 N 
ATOM     75  C   UNL     1      19.094  29.905  22.020  1.00  0.00     0.217 C 
ATOM     76  H   UNL     1      19.373  29.804  19.939  1.00  0.00     0.163 HD
ATOM     77  C   UNL     1      20.546  29.994  22.365  1.00  0.00     0.114 C 
ATOM     78  O   UNL     1      18.234  29.899  22.915  1.00  0.00    -0.275 OA
ENDBRANCH   4  74
TORSDOF 30
