REMARK VINA RESULT:    -4.810      2.794      7.583
REMARK INTER + INTRA:         -20.991
REMARK INTER:                 -12.142
REMARK INTRA:                  -8.849
REMARK UNBOUND:                -8.028
REMARK SMILES CCN(CC)CCn1cc(COC(=O)NC[C@@H](O)C(O)[C@@H]2O[C@@](OC[C@H]3O[C@@H](O[C@H]4[C@H](O)[C@@H](O)[C@H](OCCN=[N+]=[N-])O[C@@H]4CO)[C@H](O)[C@@H](O)[C@H]3O)(C(=O)O)C[C@H](O)[C@H]2NC(C)=O)nn1
REMARK SMILES IDX 19 1 21 2 23 3 55 4 22 5 56 6 58 7 24 8 25 9 26 10 28 11
REMARK SMILES IDX 27 12 46 13 48 14 50 15 29 16 30 17 43 18 42 19 35 20 31 21
REMARK SMILES IDX 33 22 44 23 45 24 36 26 37 27 38 28 39 29 40 30 41 31 32 32
REMARK SMILES IDX 34 34 47 36 49 38 51 40 52 42 53 43 54 44 57 46 59 48 60 49
REMARK SMILES IDX 61 51 62 52 20 53 17 55 18 56 16 58 15 59 13 60 14 62 12 63
REMARK SMILES IDX 11 64 10 65 9 66 63 67 8 68 64 69 7 70 6 71 3 72 2 73 1 74
REMARK SMILES IDX 4 75 5 76
REMARK H PARENT 45 25 32 33 34 35 47 37 49 39 51 41 54 45 57 47 59 50 20 54
REMARK H PARENT 18 57 15 61
REMARK Flexibility Score: inf
ROOT
ATOM      1  C   UNL     1      18.293  31.055  19.479  1.00  0.00     0.176 C 
ENDROOT
BRANCH   1   2
ATOM      2  C   UNL     1      18.471  30.950  20.970  1.00  0.00     0.178 C 
ATOM      3  C   UNL     1      19.954  30.357  22.628  1.00  0.00     0.272 C 
ATOM      4  C   UNL     1      18.809  30.978  23.443  1.00  0.00     0.113 C 
ATOM      5  O   UNL     1      19.740  30.522  21.277  1.00  0.00    -0.332 OA
ATOM      6  C   UNL     1      17.464  30.426  23.100  1.00  0.00     0.145 C 
ATOM      7  C   UNL     1      17.510  29.984  21.629  1.00  0.00     0.142 C 
BRANCH   3   8
ATOM      8  O   UNL     1      20.061  29.050  23.038  1.00  0.00    -0.338 OA
BRANCH   8   9
ATOM      9  C   UNL     1      20.435  28.853  24.344  1.00  0.00     0.199 C 
BRANCH   9  10
ATOM     10  C   UNL     1      21.070  27.464  24.537  1.00  0.00     0.179 C 
ATOM     11  C   UNL     1      21.898  25.917  22.971  1.00  0.00     0.282 C 
ATOM     12  O   UNL     1      20.915  26.811  23.367  1.00  0.00    -0.341 OA
ATOM     13  C   UNL     1      22.639  25.347  24.114  1.00  0.00     0.202 C 
ATOM     14  C   UNL     1      23.247  26.376  25.026  1.00  0.00     0.179 C 
ATOM     15  C   UNL     1      22.515  27.691  24.866  1.00  0.00     0.177 C 
BRANCH  11  16
ATOM     16  O   UNL     1      22.619  26.591  21.996  1.00  0.00    -0.341 OA
BRANCH  16  17
ATOM     17  C   UNL     1      22.109  26.503  20.749  1.00  0.00     0.184 C 
ATOM     18  C   UNL     1      23.087  25.942  19.750  1.00  0.00     0.178 C 
ATOM     19  O   UNL     1      22.403  25.795  18.509  1.00  0.00    -0.341 OA
ATOM     20  C   UNL     1      22.363  27.028  17.897  1.00  0.00     0.281 C 
ATOM     21  C   UNL     1      21.638  27.842  20.190  1.00  0.00     0.180 C 
ATOM     22  C   UNL     1      22.196  28.141  18.836  1.00  0.00     0.202 C 
BRANCH  18  23
ATOM     23  C   UNL     1      23.770  24.684  20.145  1.00  0.00     0.191 C 
BRANCH  23  24
ATOM     24  O   UNL     1      22.806  23.801  20.617  1.00  0.00    -0.394 OA
ATOM     25  H   UNL     1      22.490  24.008  21.531  1.00  0.00     0.210 HD
ENDBRANCH  23  24
ENDBRANCH  18  23
BRANCH  20  26
ATOM     26  O   UNL     1      21.490  27.042  16.813  1.00  0.00    -0.350 OA
BRANCH  26  27
ATOM     27  C   UNL     1      22.080  27.236  15.601  1.00  0.00     0.169 C 
BRANCH  27  28
ATOM     28  C   UNL     1      21.986  28.672  15.119  1.00  0.00     0.119 C 
BRANCH  28  29
ATOM     29  N   UNL     1      23.299  29.219  14.838  1.00  0.00    -0.092 NA
ATOM     30  N   UNL     1      24.285  28.994  15.551  1.00  0.00     0.001 N 
ATOM     31  N   UNL     1      25.096  29.153  16.465  1.00  0.00    -0.003 NA
ENDBRANCH  28  29
ENDBRANCH  27  28
ENDBRANCH  26  27
ENDBRANCH  20  26
BRANCH  21  32
ATOM     32  O   UNL     1      20.258  27.824  20.125  1.00  0.00    -0.387 OA
ATOM     33  H   UNL     1      19.864  26.928  20.140  1.00  0.00     0.211 HD
ENDBRANCH  21  32
BRANCH  22  34
ATOM     34  O   UNL     1      23.413  28.862  18.932  1.00  0.00    -0.385 OA
ATOM     35  H   UNL     1      23.224  29.761  18.557  1.00  0.00     0.211 HD
ENDBRANCH  22  34
ENDBRANCH  16  17
ENDBRANCH  11  16
BRANCH  13  36
ATOM     36  O   UNL     1      21.723  24.597  24.908  1.00  0.00    -0.385 OA
ATOM     37  H   UNL     1      21.733  23.655  24.658  1.00  0.00     0.211 HD
ENDBRANCH  13  36
BRANCH  14  38
ATOM     38  O   UNL     1      24.616  26.528  24.875  1.00  0.00    -0.387 OA
ATOM     39  H   UNL     1      25.023  25.838  24.326  1.00  0.00     0.211 HD
ENDBRANCH  14  38
BRANCH  15  40
ATOM     40  O   UNL     1      23.108  28.383  23.818  1.00  0.00    -0.387 OA
ATOM     41  H   UNL     1      22.611  29.233  23.642  1.00  0.00     0.211 HD
ENDBRANCH  15  40
ENDBRANCH   9  10
ENDBRANCH   8   9
ENDBRANCH   3   8
BRANCH   3  42
ATOM     42  C   UNL     1      21.151  31.140  23.025  1.00  0.00     0.364 C 
ATOM     43  O   UNL     1      22.294  30.887  22.512  1.00  0.00    -0.246 OA
BRANCH  42  44
ATOM     44  O   UNL     1      21.144  32.168  23.946  1.00  0.00    -0.477 OA
ATOM     45  H   UNL     1      20.348  32.795  24.000  1.00  0.00     0.296 HD
ENDBRANCH  42  44
ENDBRANCH   3  42
BRANCH   6  46
ATOM     46  O   UNL     1      17.000  29.443  23.940  1.00  0.00    -0.391 OA
ATOM     47  H   UNL     1      17.660  29.346  24.673  1.00  0.00     0.211 HD
ENDBRANCH   6  46
BRANCH   7  48
ATOM     48  N   UNL     1      16.210  29.946  21.051  1.00  0.00    -0.348 N 
ATOM     49  C   UNL     1      15.764  28.708  20.459  1.00  0.00     0.217 C 
ATOM     50  H   UNL     1      15.537  30.732  21.016  1.00  0.00     0.163 HD
ATOM     51  C   UNL     1      14.421  28.595  19.836  1.00  0.00     0.114 C 
ATOM     52  O   UNL     1      16.497  27.684  20.448  1.00  0.00    -0.275 OA
ENDBRANCH   7  48
ENDBRANCH   1   2
BRANCH   1  53
ATOM     53  O   UNL     1      17.723  32.289  19.193  1.00  0.00    -0.388 OA
ATOM     54  H   UNL     1      16.793  32.321  19.585  1.00  0.00     0.211 HD
ENDBRANCH   1  53
BRANCH   1  55
ATOM     55  C   UNL     1      19.670  30.998  18.871  1.00  0.00     0.165 C 
BRANCH  55  56
ATOM     56  O   UNL     1      20.186  32.297  18.781  1.00  0.00    -0.388 OA
ATOM     57  H   UNL     1      20.892  32.298  18.091  1.00  0.00     0.211 HD
ENDBRANCH  55  56
BRANCH  55  58
ATOM     58  C   UNL     1      19.760  30.335  17.546  1.00  0.00     0.154 C 
BRANCH  58  59
ATOM     59  N   UNL     1      18.502  30.037  16.952  1.00  0.00    -0.319 N 
ATOM     60  C   UNL     1      17.914  28.743  17.163  1.00  0.00     0.407 C 
ATOM     61  H   UNL     1      18.006  30.713  16.370  1.00  0.00     0.167 HD
ATOM     62  O   UNL     1      18.493  27.880  17.853  1.00  0.00    -0.225 OA
BRANCH  60  63
ATOM     63  O   UNL     1      16.687  28.477  16.579  1.00  0.00    -0.443 OA
BRANCH  63  64
ATOM     64  C   UNL     1      16.174  29.412  15.615  1.00  0.00     0.294 C 
BRANCH  64  65
ATOM     65  C   UNL     1      14.916  29.952  16.147  1.00  0.00     0.120 A 
ATOM     66  C   UNL     1      14.849  30.846  17.221  1.00  0.00     0.138 A 
ATOM     67  N   UNL     1      13.653  29.751  15.781  1.00  0.00    -0.132 NA
ATOM     68  N   UNL     1      13.558  31.143  17.453  1.00  0.00    -0.251 N 
ATOM     69  N   UNL     1      12.860  30.473  16.576  1.00  0.00    -0.067 NA
BRANCH  68  70
ATOM     70  C   UNL     1      13.026  32.029  18.471  1.00  0.00     0.161 C 
BRANCH  70  71
ATOM     71  C   UNL     1      14.162  32.397  19.401  1.00  0.00     0.108 C 
BRANCH  71  72
ATOM     72  N   UNL     1      13.857  32.188  20.786  1.00  0.00    -0.302 NA
BRANCH  72  73
ATOM     73  C   UNL     1      12.546  31.631  20.978  1.00  0.00     0.081 C 
ATOM     74  C   UNL     1      12.585  30.710  22.192  1.00  0.00     0.021 C 
ENDBRANCH  72  73
BRANCH  72  75
ATOM     75  C   UNL     1      14.113  33.335  21.600  1.00  0.00     0.081 C 
ATOM     76  C   UNL     1      15.576  33.410  21.989  1.00  0.00     0.021 C 
ENDBRANCH  72  75
ENDBRANCH  71  72
ENDBRANCH  70  71
ENDBRANCH  68  70
ENDBRANCH  64  65
ENDBRANCH  63  64
ENDBRANCH  60  63
ENDBRANCH  58  59
ENDBRANCH  55  58
ENDBRANCH   1  55
TORSDOF 34
