REMARK VINA RESULT:    -5.812      3.234      5.934
REMARK INTER + INTRA:         -23.479
REMARK INTER:                 -17.595
REMARK INTRA:                  -5.884
REMARK UNBOUND:                -7.304
REMARK SMILES CC(=O)N[C@@H]1[C@@H](O)C[C@](OC[C@H]2O[C@@H](O[C@H]3[C@H](O)[C@@H](O)[C@H](OCCN=[N+]=[N-])O[C@@H]3CO)[C@H](O)[C@@H](O)[C@H]2O)(C(=O)O)O[C@H]1C(O)[C@H](O)CNC(=O)OCc1cn(CCCCCC(=O)O)nn1
REMARK SMILES IDX 47 1 45 2 43 3 42 4 9 5 8 6 41 7 6 8 5 9 10 10 11 11 12 12
REMARK SMILES IDX 14 13 13 14 32 15 34 16 36 17 15 18 16 19 29 20 28 21 21 22
REMARK SMILES IDX 17 23 19 24 30 25 31 26 22 28 23 29 24 30 25 31 26 32 27 33
REMARK SMILES IDX 18 34 20 36 33 38 35 40 37 42 38 44 39 45 40 46 7 48 4 50
REMARK SMILES IDX 2 51 1 53 3 54 44 55 46 57 48 59 49 60 50 62 51 63 52 64
REMARK SMILES IDX 53 65 54 66 65 67 55 68 64 69 56 70 57 71 58 72 59 73 60 74
REMARK SMILES IDX 61 75 62 76 63 77
REMARK H PARENT 31 27 18 35 20 37 33 39 35 41 37 43 40 47 7 49 4 52 44 56
REMARK H PARENT 46 58 48 61 63 78
REMARK Flexibility Score: inf
ROOT
ATOM      1  C   UNL     1      14.643  29.870  18.486  1.00  0.00     0.154 C 
ENDROOT
BRANCH   1   2
ATOM      2  C   UNL     1      15.760  28.934  18.879  1.00  0.00     0.165 C 
BRANCH   2   3
ATOM      3  C   UNL     1      16.133  29.273  20.285  1.00  0.00     0.176 C 
BRANCH   3   4
ATOM      4  C   UNL     1      17.585  29.482  20.546  1.00  0.00     0.178 C 
ATOM      5  C   UNL     1      19.677  28.802  20.060  1.00  0.00     0.272 C 
ATOM      6  C   UNL     1      20.040  30.144  20.608  1.00  0.00     0.113 C 
ATOM      7  O   UNL     1      18.386  28.372  20.334  1.00  0.00    -0.332 OA
ATOM      8  C   UNL     1      19.286  30.636  21.784  1.00  0.00     0.145 C 
ATOM      9  C   UNL     1      17.920  29.956  21.943  1.00  0.00     0.142 C 
BRANCH   5  10
ATOM     10  O   UNL     1      20.621  27.823  20.365  1.00  0.00    -0.338 OA
BRANCH  10  11
ATOM     11  C   UNL     1      21.767  28.228  20.970  1.00  0.00     0.199 C 
BRANCH  11  12
ATOM     12  C   UNL     1      22.624  26.990  21.154  1.00  0.00     0.179 C 
ATOM     13  C   UNL     1      24.189  25.917  22.338  1.00  0.00     0.282 C 
ATOM     14  O   UNL     1      23.080  26.807  22.450  1.00  0.00    -0.341 OA
ATOM     15  C   UNL     1      24.051  24.888  21.309  1.00  0.00     0.202 C 
ATOM     16  C   UNL     1      22.665  24.601  20.802  1.00  0.00     0.179 C 
ATOM     17  C   UNL     1      21.742  25.788  20.868  1.00  0.00     0.177 C 
BRANCH  13  18
ATOM     18  O   UNL     1      24.611  25.538  23.610  1.00  0.00    -0.341 OA
BRANCH  18  19
ATOM     19  C   UNL     1      23.801  25.890  24.624  1.00  0.00     0.184 C 
ATOM     20  C   UNL     1      24.543  26.284  25.865  1.00  0.00     0.178 C 
ATOM     21  O   UNL     1      23.605  26.985  26.652  1.00  0.00    -0.341 OA
ATOM     22  C   UNL     1      22.647  26.154  27.126  1.00  0.00     0.281 C 
ATOM     23  C   UNL     1      22.973  24.650  25.110  1.00  0.00     0.180 C 
ATOM     24  C   UNL     1      22.724  24.774  26.592  1.00  0.00     0.202 C 
BRANCH  20  25
ATOM     25  C   UNL     1      25.695  27.222  25.617  1.00  0.00     0.191 C 
BRANCH  25  26
ATOM     26  O   UNL     1      26.654  27.097  26.598  1.00  0.00    -0.394 OA
ATOM     27  H   UNL     1      26.306  26.461  27.278  1.00  0.00     0.210 HD
ENDBRANCH  25  26
ENDBRANCH  20  25
BRANCH  22  28
ATOM     28  O   UNL     1      21.349  26.664  26.994  1.00  0.00    -0.350 OA
BRANCH  28  29
ATOM     29  C   UNL     1      21.139  27.784  27.757  1.00  0.00     0.169 C 
BRANCH  29  30
ATOM     30  C   UNL     1      21.336  27.445  29.228  1.00  0.00     0.119 C 
BRANCH  30  31
ATOM     31  N   UNL     1      20.302  28.062  30.043  1.00  0.00    -0.092 NA
ATOM     32  N   UNL     1      19.954  29.235  29.809  1.00  0.00     0.001 N 
ATOM     33  N   UNL     1      19.886  30.457  29.946  1.00  0.00    -0.003 NA
ENDBRANCH  30  31
ENDBRANCH  29  30
ENDBRANCH  28  29
ENDBRANCH  22  28
BRANCH  23  34
ATOM     34  O   UNL     1      21.734  24.674  24.472  1.00  0.00    -0.387 OA
ATOM     35  H   UNL     1      21.157  25.362  24.915  1.00  0.00     0.211 HD
ENDBRANCH  23  34
BRANCH  24  36
ATOM     36  O   UNL     1      23.525  23.911  27.351  1.00  0.00    -0.385 OA
ATOM     37  H   UNL     1      23.959  23.216  26.796  1.00  0.00     0.211 HD
ENDBRANCH  24  36
ENDBRANCH  18  19
ENDBRANCH  13  18
BRANCH  15  38
ATOM     38  O   UNL     1      24.813  25.199  20.146  1.00  0.00    -0.385 OA
ATOM     39  H   UNL     1      24.511  26.039  19.758  1.00  0.00     0.211 HD
ENDBRANCH  15  38
BRANCH  16  40
ATOM     40  O   UNL     1      22.038  23.558  21.506  1.00  0.00    -0.387 OA
ATOM     41  H   UNL     1      22.584  22.752  21.558  1.00  0.00     0.211 HD
ENDBRANCH  16  40
BRANCH  17  42
ATOM     42  O   UNL     1      20.896  25.653  21.998  1.00  0.00    -0.387 OA
ATOM     43  H   UNL     1      21.522  25.464  22.766  1.00  0.00     0.211 HD
ENDBRANCH  17  42
ENDBRANCH  11  12
ENDBRANCH  10  11
ENDBRANCH   5  10
BRANCH   5  44
ATOM     44  C   UNL     1      19.730  28.925  18.577  1.00  0.00     0.364 C 
ATOM     45  O   UNL     1      19.650  27.911  17.848  1.00  0.00    -0.246 OA
BRANCH  44  46
ATOM     46  O   UNL     1      19.868  30.159  17.991  1.00  0.00    -0.477 OA
ATOM     47  H   UNL     1      20.391  30.312  17.112  1.00  0.00     0.296 HD
ENDBRANCH  44  46
ENDBRANCH   5  44
BRANCH   8  48
ATOM     48  O   UNL     1      19.997  30.666  22.980  1.00  0.00    -0.391 OA
ATOM     49  H   UNL     1      20.948  30.791  22.761  1.00  0.00     0.211 HD
ENDBRANCH   8  48
BRANCH   9  50
ATOM     50  N   UNL     1      16.962  30.827  22.529  1.00  0.00    -0.348 N 
ATOM     51  C   UNL     1      16.235  30.405  23.668  1.00  0.00     0.217 C 
ATOM     52  H   UNL     1      16.787  31.764  22.142  1.00  0.00     0.163 HD
ATOM     53  C   UNL     1      15.231  31.298  24.303  1.00  0.00     0.114 C 
ATOM     54  O   UNL     1      16.405  29.266  24.192  1.00  0.00    -0.275 OA
ENDBRANCH   9  50
ENDBRANCH   3   4
BRANCH   3  55
ATOM     55  O   UNL     1      15.646  28.302  21.190  1.00  0.00    -0.388 OA
ATOM     56  H   UNL     1      16.357  27.657  21.402  1.00  0.00     0.211 HD
ENDBRANCH   3  55
ENDBRANCH   2   3
BRANCH   2  57
ATOM     57  O   UNL     1      16.829  29.155  18.018  1.00  0.00    -0.388 OA
ATOM     58  H   UNL     1      17.553  28.538  18.294  1.00  0.00     0.211 HD
ENDBRANCH   2  57
ENDBRANCH   1   2
BRANCH   1  59
ATOM     59  N   UNL     1      13.691  30.117  19.521  1.00  0.00    -0.319 N 
ATOM     60  C   UNL     1      13.288  31.470  19.763  1.00  0.00     0.407 C 
ATOM     61  H   UNL     1      13.282  29.369  20.102  1.00  0.00     0.167 HD
ATOM     62  O   UNL     1      13.764  32.409  19.077  1.00  0.00    -0.225 OA
BRANCH  60  63
ATOM     63  O   UNL     1      12.380  31.796  20.743  1.00  0.00    -0.443 OA
BRANCH  63  64
ATOM     64  C   UNL     1      12.626  31.732  22.104  1.00  0.00     0.294 C 
BRANCH  64  65
ATOM     65  C   UNL     1      11.531  31.248  22.954  1.00  0.00     0.120 A 
ATOM     66  C   UNL     1      10.288  31.802  23.112  1.00  0.00     0.138 A 
ATOM     67  N   UNL     1      11.581  30.157  23.752  1.00  0.00    -0.132 NA
ATOM     68  N   UNL     1       9.619  31.050  23.988  1.00  0.00    -0.252 N 
ATOM     69  N   UNL     1      10.424  30.072  24.350  1.00  0.00    -0.067 NA
BRANCH  68  70
ATOM     70  C   UNL     1       8.252  31.276  24.437  1.00  0.00     0.146 C 
BRANCH  70  71
ATOM     71  C   UNL     1       7.472  29.975  24.252  1.00  0.00     0.024 C 
BRANCH  71  72
ATOM     72  C   UNL     1       6.743  29.591  25.506  1.00  0.00     0.002 C 
BRANCH  72  73
ATOM     73  C   UNL     1       7.084  28.179  25.883  1.00  0.00     0.012 C 
BRANCH  73  74
ATOM     74  C   UNL     1       7.831  27.445  24.819  1.00  0.00     0.122 C 
BRANCH  74  75
ATOM     75  C   UNL     1       9.107  26.920  25.380  1.00  0.00     0.303 C 
ATOM     76  O   UNL     1       9.084  26.107  26.330  1.00  0.00    -0.252 OA
BRANCH  75  77
ATOM     77  O   UNL     1      10.336  27.318  24.863  1.00  0.00    -0.481 OA
ATOM     78  H   UNL     1      11.172  26.766  25.068  1.00  0.00     0.296 HD
ENDBRANCH  75  77
ENDBRANCH  74  75
ENDBRANCH  73  74
ENDBRANCH  72  73
ENDBRANCH  71  72
ENDBRANCH  70  71
ENDBRANCH  68  70
ENDBRANCH  64  65
ENDBRANCH  63  64
ENDBRANCH  60  63
ENDBRANCH   1  59
TORSDOF 36
