REMARK VINA RESULT:    -5.533      3.049      9.376
REMARK INTER + INTRA:         -21.438
REMARK INTER:                 -12.994
REMARK INTRA:                  -8.444
REMARK UNBOUND:                -7.496
REMARK SMILES CC(=O)N[C@@H]1[C@@H](O)C[C@](OC[C@H]2O[C@@H](O[C@H]3[C@H](O)[C@@H](O)[C@H](OCCN=[N+]=[N-])O[C@@H]3CO)[C@H](O)[C@@H](O)[C@H]2O)(C(=O)O)O[C@H]1C(O)[C@H](O)CNC(=O)OCc1cn(-c2ccccc2C(N)=O)nn1
REMARK SMILES IDX 9 1 8 2 6 3 5 4 42 5 41 6 10 7 11 8 12 9 14 10 13 11 32 12
REMARK SMILES IDX 34 13 36 14 15 15 16 16 29 17 28 18 21 19 17 20 19 21 30 22
REMARK SMILES IDX 31 23 22 25 23 26 24 27 25 28 26 29 27 30 18 31 20 33 33 35
REMARK SMILES IDX 35 37 37 39 38 41 39 42 40 43 7 45 43 47 44 48 45 50 46 51
REMARK SMILES IDX 47 53 48 54 49 55 50 57 51 58 52 59 53 60 54 61 66 62 55 63
REMARK SMILES IDX 65 64 56 65 61 66 57 67 60 68 58 69 59 70 62 71 64 72 63 73
REMARK SMILES IDX 4 76 2 77 1 79 3 80
REMARK H PARENT 31 24 18 32 20 34 33 36 35 38 37 40 40 44 7 46 44 49 46 52
REMARK H PARENT 48 56 63 74 63 75 4 78
REMARK Flexibility Score: inf
ROOT
ATOM      1  C   UNL     1      22.650  25.476  23.198  1.00  0.00     0.272 C 
ATOM      2  C   UNL     1      22.974  24.135  22.480  1.00  0.00     0.113 C 
ATOM      3  C   UNL     1      24.081  24.459  21.518  1.00  0.00     0.145 C 
ATOM      4  C   UNL     1      23.550  25.270  20.403  1.00  0.00     0.142 C 
ATOM      5  C   UNL     1      22.432  26.146  20.995  1.00  0.00     0.178 C 
ATOM      6  O   UNL     1      22.744  26.517  22.289  1.00  0.00    -0.332 OA
ENDROOT
BRANCH   1   7
ATOM      7  O   UNL     1      23.642  25.581  24.155  1.00  0.00    -0.338 OA
BRANCH   7   8
ATOM      8  C   UNL     1      23.694  24.549  25.044  1.00  0.00     0.199 C 
BRANCH   8   9
ATOM      9  C   UNL     1      24.062  25.000  26.447  1.00  0.00     0.179 C 
ATOM     10  C   UNL     1      24.505  26.986  27.581  1.00  0.00     0.282 C 
ATOM     11  O   UNL     1      24.082  26.392  26.402  1.00  0.00    -0.341 OA
ATOM     12  C   UNL     1      24.711  26.067  28.727  1.00  0.00     0.202 C 
ATOM     13  C   UNL     1      23.732  24.936  28.840  1.00  0.00     0.179 C 
ATOM     14  C   UNL     1      23.079  24.591  27.495  1.00  0.00     0.177 C 
BRANCH  10  15
ATOM     15  O   UNL     1      23.571  27.953  27.904  1.00  0.00    -0.341 OA
BRANCH  15  16
ATOM     16  C   UNL     1      22.908  28.467  26.803  1.00  0.00     0.184 C 
ATOM     17  C   UNL     1      23.651  29.701  26.341  1.00  0.00     0.178 C 
ATOM     18  O   UNL     1      23.118  30.849  26.818  1.00  0.00    -0.341 OA
ATOM     19  C   UNL     1      21.875  31.118  26.372  1.00  0.00     0.281 C 
ATOM     20  C   UNL     1      21.517  28.865  27.285  1.00  0.00     0.180 C 
ATOM     21  C   UNL     1      20.949  29.973  26.473  1.00  0.00     0.202 C 
BRANCH  17  22
ATOM     22  C   UNL     1      23.720  29.727  24.838  1.00  0.00     0.191 C 
BRANCH  22  23
ATOM     23  O   UNL     1      23.301  28.514  24.282  1.00  0.00    -0.394 OA
ATOM     24  H   UNL     1      24.083  28.174  23.752  1.00  0.00     0.210 HD
ENDBRANCH  22  23
ENDBRANCH  17  22
BRANCH  19  25
ATOM     25  O   UNL     1      21.843  31.742  25.117  1.00  0.00    -0.350 OA
BRANCH  25  26
ATOM     26  C   UNL     1      21.162  32.933  25.103  1.00  0.00     0.169 C 
BRANCH  26  27
ATOM     27  C   UNL     1      20.383  33.070  23.838  1.00  0.00     0.119 C 
BRANCH  27  28
ATOM     28  N   UNL     1      19.996  31.764  23.366  1.00  0.00    -0.092 NA
ATOM     29  N   UNL     1      19.084  31.110  23.887  1.00  0.00     0.001 N 
ATOM     30  N   UNL     1      18.035  30.742  24.422  1.00  0.00    -0.003 NA
ENDBRANCH  27  28
ENDBRANCH  26  27
ENDBRANCH  25  26
ENDBRANCH  19  25
BRANCH  20  31
ATOM     31  O   UNL     1      20.662  27.769  27.227  1.00  0.00    -0.387 OA
ATOM     32  H   UNL     1      19.818  27.956  27.747  1.00  0.00     0.211 HD
ENDBRANCH  20  31
BRANCH  21  33
ATOM     33  O   UNL     1      19.762  30.403  27.115  1.00  0.00    -0.385 OA
ATOM     34  H   UNL     1      19.173  29.604  27.240  1.00  0.00     0.211 HD
ENDBRANCH  21  33
ENDBRANCH  15  16
ENDBRANCH  10  15
BRANCH  12  35
ATOM     35  O   UNL     1      26.041  25.603  28.811  1.00  0.00    -0.385 OA
ATOM     36  H   UNL     1      26.206  25.399  29.758  1.00  0.00     0.211 HD
ENDBRANCH  12  35
BRANCH  13  37
ATOM     37  O   UNL     1      22.695  25.266  29.715  1.00  0.00    -0.387 OA
ATOM     38  H   UNL     1      22.827  24.844  30.619  1.00  0.00     0.211 HD
ENDBRANCH  13  37
BRANCH  14  39
ATOM     39  O   UNL     1      21.925  25.380  27.343  1.00  0.00    -0.387 OA
ATOM     40  H   UNL     1      22.107  26.306  27.115  1.00  0.00     0.211 HD
ENDBRANCH  14  39
ENDBRANCH   8   9
ENDBRANCH   7   8
ENDBRANCH   1   7
BRANCH   1  41
ATOM     41  C   UNL     1      21.295  25.413  23.750  1.00  0.00     0.364 C 
ATOM     42  O   UNL     1      20.893  26.291  24.589  1.00  0.00    -0.246 OA
BRANCH  41  43
ATOM     43  O   UNL     1      20.424  24.389  23.365  1.00  0.00    -0.477 OA
ATOM     44  H   UNL     1      20.511  23.512  23.872  1.00  0.00     0.296 HD
ENDBRANCH  41  43
ENDBRANCH   1  41
BRANCH   3  45
ATOM     45  O   UNL     1      24.981  25.294  22.229  1.00  0.00    -0.391 OA
ATOM     46  H   UNL     1      25.305  24.805  23.028  1.00  0.00     0.211 HD
ENDBRANCH   3  45
BRANCH   5  47
ATOM     47  C   UNL     1      22.113  27.283  20.068  1.00  0.00     0.176 C 
BRANCH  47  48
ATOM     48  O   UNL     1      20.823  27.731  20.414  1.00  0.00    -0.388 OA
ATOM     49  H   UNL     1      20.160  27.007  20.248  1.00  0.00     0.211 HD
ENDBRANCH  47  48
BRANCH  47  50
ATOM     50  C   UNL     1      23.025  28.485  20.333  1.00  0.00     0.165 C 
BRANCH  50  51
ATOM     51  O   UNL     1      22.498  29.214  21.411  1.00  0.00    -0.388 OA
ATOM     52  H   UNL     1      23.148  29.946  21.582  1.00  0.00     0.211 HD
ENDBRANCH  50  51
BRANCH  50  53
ATOM     53  C   UNL     1      23.138  29.383  19.149  1.00  0.00     0.154 C 
BRANCH  53  54
ATOM     54  N   UNL     1      21.886  30.028  18.855  1.00  0.00    -0.319 N 
ATOM     55  C   UNL     1      21.728  31.430  18.722  1.00  0.00     0.407 C 
ATOM     56  H   UNL     1      21.037  29.405  18.732  1.00  0.00     0.167 HD
ATOM     57  O   UNL     1      22.622  32.271  18.821  1.00  0.00    -0.225 OA
BRANCH  55  58
ATOM     58  O   UNL     1      20.440  31.950  18.451  1.00  0.00    -0.443 OA
BRANCH  58  59
ATOM     59  C   UNL     1      19.642  32.448  19.527  1.00  0.00     0.294 C 
BRANCH  59  60
ATOM     60  C   UNL     1      18.784  31.385  20.081  1.00  0.00     0.121 A 
ATOM     61  C   UNL     1      17.439  31.427  20.362  1.00  0.00     0.144 A 
ATOM     62  N   UNL     1      19.176  30.145  20.424  1.00  0.00    -0.131 NA
ATOM     63  N   UNL     1      17.044  30.236  20.863  1.00  0.00    -0.220 N 
ATOM     64  N   UNL     1      18.141  29.473  20.886  1.00  0.00    -0.062 NA
BRANCH  63  65
ATOM     65  C   UNL     1      15.757  29.830  21.293  1.00  0.00     0.079 A 
ATOM     66  C   UNL     1      14.948  29.163  20.410  1.00  0.00     0.065 A 
ATOM     67  C   UNL     1      15.311  30.096  22.572  1.00  0.00     0.029 A 
ATOM     68  C   UNL     1      13.673  28.742  20.777  1.00  0.00     0.016 A 
ATOM     69  C   UNL     1      14.035  29.682  22.960  1.00  0.00     0.002 A 
ATOM     70  C   UNL     1      13.237  29.013  22.058  1.00  0.00     0.001 A 
BRANCH  66  71
ATOM     71  C   UNL     1      15.422  28.889  19.069  1.00  0.00     0.250 C 
ATOM     72  O   UNL     1      15.067  29.650  18.133  1.00  0.00    -0.269 OA
ATOM     73  N   UNL     1      16.268  27.811  18.738  1.00  0.00    -0.366 N 
ATOM     74  H   UNL     1      17.186  27.991  18.306  1.00  0.00     0.159 HD
ATOM     75  H   UNL     1      15.965  26.845  18.930  1.00  0.00     0.159 HD
ENDBRANCH  66  71
ENDBRANCH  63  65
ENDBRANCH  59  60
ENDBRANCH  58  59
ENDBRANCH  55  58
ENDBRANCH  53  54
ENDBRANCH  50  53
ENDBRANCH  47  50
ENDBRANCH   5  47
BRANCH   4  76
ATOM     76  N   UNL     1      23.012  24.583  19.296  1.00  0.00    -0.348 N 
ATOM     77  C   UNL     1      23.592  24.617  18.003  1.00  0.00     0.217 C 
ATOM     78  H   UNL     1      22.140  24.017  19.426  1.00  0.00     0.163 HD
ATOM     79  C   UNL     1      23.057  23.911  16.819  1.00  0.00     0.114 C 
ATOM     80  O   UNL     1      24.649  25.322  17.918  1.00  0.00    -0.275 OA
ENDBRANCH   4  76
TORSDOF 31
