REMARK VINA RESULT:    -5.492      7.205     11.260
REMARK INTER + INTRA:         -21.171
REMARK INTER:                 -14.387
REMARK INTRA:                  -6.783
REMARK UNBOUND:                -7.652
REMARK SMILES CC(=O)N[C@@H]1[C@@H](O)C[C@](OC[C@H]2O[C@@H](O[C@H]3[C@H](O)[C@@H](O)[C@H](OCCN=[N+]=[N-])O[C@@H]3CO)[C@H](O)[C@@H](O)[C@H]2O)(C(=O)O)O[C@H]1C(O)[C@H](O)CNC(=O)OCc1cn(-c2ccc(Br)cc2)nn1
REMARK SMILES IDX 9 1 8 2 6 3 5 4 42 5 41 6 10 7 11 8 12 9 14 10 13 11 32 12
REMARK SMILES IDX 34 13 36 14 15 15 16 16 29 17 28 18 21 19 17 20 19 21 30 22
REMARK SMILES IDX 31 23 22 25 23 26 24 27 25 28 26 29 27 30 18 31 20 33 33 35
REMARK SMILES IDX 35 37 37 39 38 41 39 42 40 43 7 45 43 47 44 48 45 50 46 51
REMARK SMILES IDX 47 53 48 54 49 55 50 57 51 58 52 59 53 60 54 61 64 62 55 63
REMARK SMILES IDX 63 64 56 65 57 66 62 67 58 68 61 69 59 70 60 71 4 72 2 73
REMARK SMILES IDX 1 75 3 76
REMARK H PARENT 31 24 18 32 20 34 33 36 35 38 37 40 40 44 7 46 44 49 46 52
REMARK H PARENT 48 56 4 74
REMARK Flexibility Score: inf
ROOT
ATOM      1  C   UNL     1      26.819  24.705  18.903  1.00  0.00     0.272 C 
ATOM      2  C   UNL     1      26.691  23.677  20.060  1.00  0.00     0.113 C 
ATOM      3  C   UNL     1      25.845  24.283  21.117  1.00  0.00     0.145 C 
ATOM      4  C   UNL     1      24.494  24.633  20.462  1.00  0.00     0.142 C 
ATOM      5  C   UNL     1      24.817  25.752  19.499  1.00  0.00     0.178 C 
ATOM      6  O   UNL     1      25.601  25.187  18.518  1.00  0.00    -0.332 OA
ENDROOT
BRANCH   1   7
ATOM      7  O   UNL     1      27.335  23.922  17.865  1.00  0.00    -0.338 OA
BRANCH   7   8
ATOM      8  C   UNL     1      27.923  22.752  18.239  1.00  0.00     0.199 C 
BRANCH   8   9
ATOM      9  C   UNL     1      27.745  21.773  17.061  1.00  0.00     0.179 C 
ATOM     10  C   UNL     1      26.446  21.636  15.137  1.00  0.00     0.282 C 
ATOM     11  O   UNL     1      26.517  21.912  16.480  1.00  0.00    -0.341 OA
ATOM     12  C   UNL     1      27.502  20.735  14.638  1.00  0.00     0.202 C 
ATOM     13  C   UNL     1      28.903  21.080  15.030  1.00  0.00     0.179 C 
ATOM     14  C   UNL     1      28.882  22.113  16.110  1.00  0.00     0.177 C 
BRANCH  10  15
ATOM     15  O   UNL     1      26.313  22.863  14.488  1.00  0.00    -0.341 OA
BRANCH  15  16
ATOM     16  C   UNL     1      25.002  23.123  14.131  1.00  0.00     0.184 C 
ATOM     17  C   UNL     1      24.898  23.677  12.746  1.00  0.00     0.178 C 
ATOM     18  O   UNL     1      23.586  23.770  12.377  1.00  0.00    -0.341 OA
ATOM     19  C   UNL     1      22.629  23.739  13.344  1.00  0.00     0.281 C 
ATOM     20  C   UNL     1      24.407  24.213  15.037  1.00  0.00     0.180 C 
ATOM     21  C   UNL     1      22.970  24.459  14.630  1.00  0.00     0.202 C 
BRANCH  17  22
ATOM     22  C   UNL     1      25.594  22.743  11.775  1.00  0.00     0.191 C 
BRANCH  22  23
ATOM     23  O   UNL     1      25.186  21.444  11.969  1.00  0.00    -0.394 OA
ATOM     24  H   UNL     1      25.408  21.132  12.863  1.00  0.00     0.210 HD
ENDBRANCH  22  23
ENDBRANCH  17  22
BRANCH  19  25
ATOM     25  O   UNL     1      22.126  22.464  13.580  1.00  0.00    -0.350 OA
BRANCH  25  26
ATOM     26  C   UNL     1      21.461  21.909  12.504  1.00  0.00     0.169 C 
BRANCH  26  27
ATOM     27  C   UNL     1      21.838  20.496  12.205  1.00  0.00     0.119 C 
BRANCH  27  28
ATOM     28  N   UNL     1      20.909  19.932  11.241  1.00  0.00    -0.092 NA
ATOM     29  N   UNL     1      19.735  19.807  11.598  1.00  0.00     0.001 N 
ATOM     30  N   UNL     1      18.508  19.759  11.826  1.00  0.00    -0.003 NA
ENDBRANCH  27  28
ENDBRANCH  26  27
ENDBRANCH  25  26
ENDBRANCH  19  25
BRANCH  20  31
ATOM     31  O   UNL     1      24.557  23.866  16.368  1.00  0.00    -0.387 OA
ATOM     32  H   UNL     1      25.348  23.281  16.506  1.00  0.00     0.211 HD
ENDBRANCH  20  31
BRANCH  21  33
ATOM     33  O   UNL     1      22.637  25.792  14.539  1.00  0.00    -0.385 OA
ATOM     34  H   UNL     1      21.927  25.981  15.198  1.00  0.00     0.211 HD
ENDBRANCH  21  33
ENDBRANCH  15  16
ENDBRANCH  10  15
BRANCH  12  35
ATOM     35  O   UNL     1      27.163  19.426  15.080  1.00  0.00    -0.385 OA
ATOM     36  H   UNL     1      26.948  19.456  16.057  1.00  0.00     0.211 HD
ENDBRANCH  12  35
BRANCH  13  37
ATOM     37  O   UNL     1      29.615  21.600  13.923  1.00  0.00    -0.387 OA
ATOM     38  H   UNL     1      29.377  22.561  13.888  1.00  0.00     0.211 HD
ENDBRANCH  13  37
BRANCH  14  39
ATOM     39  O   UNL     1      28.766  23.406  15.607  1.00  0.00    -0.387 OA
ATOM     40  H   UNL     1      27.902  23.527  15.141  1.00  0.00     0.211 HD
ENDBRANCH  14  39
ENDBRANCH   8   9
ENDBRANCH   7   8
ENDBRANCH   1   7
BRANCH   1  41
ATOM     41  C   UNL     1      27.831  25.673  19.320  1.00  0.00     0.364 C 
ATOM     42  O   UNL     1      28.020  26.772  18.745  1.00  0.00    -0.246 OA
BRANCH  41  43
ATOM     43  O   UNL     1      28.645  25.410  20.404  1.00  0.00    -0.477 OA
ATOM     44  H   UNL     1      29.652  25.567  20.411  1.00  0.00     0.296 HD
ENDBRANCH  41  43
ENDBRANCH   1  41
BRANCH   3  45
ATOM     45  O   UNL     1      25.536  23.377  22.122  1.00  0.00    -0.391 OA
ATOM     46  H   UNL     1      26.026  23.615  22.937  1.00  0.00     0.211 HD
ENDBRANCH   3  45
BRANCH   5  47
ATOM     47  C   UNL     1      23.638  26.370  18.829  1.00  0.00     0.176 C 
BRANCH  47  48
ATOM     48  O   UNL     1      22.871  25.273  18.341  1.00  0.00    -0.388 OA
ATOM     49  H   UNL     1      22.337  24.912  19.093  1.00  0.00     0.211 HD
ENDBRANCH  47  48
BRANCH  47  50
ATOM     50  C   UNL     1      23.966  27.158  17.569  1.00  0.00     0.165 C 
BRANCH  50  51
ATOM     51  O   UNL     1      25.262  27.679  17.841  1.00  0.00    -0.388 OA
ATOM     52  H   UNL     1      25.209  28.274  18.654  1.00  0.00     0.211 HD
ENDBRANCH  50  51
BRANCH  50  53
ATOM     53  C   UNL     1      23.067  28.333  17.398  1.00  0.00     0.154 C 
BRANCH  53  54
ATOM     54  N   UNL     1      21.690  27.974  17.510  1.00  0.00    -0.319 N 
ATOM     55  C   UNL     1      20.757  27.949  16.425  1.00  0.00     0.407 C 
ATOM     56  H   UNL     1      21.279  27.697  18.458  1.00  0.00     0.167 HD
ATOM     57  O   UNL     1      21.158  28.268  15.281  1.00  0.00    -0.225 OA
BRANCH  55  58
ATOM     58  O   UNL     1      19.443  27.583  16.600  1.00  0.00    -0.443 OA
BRANCH  58  59
ATOM     59  C   UNL     1      18.467  28.558  16.863  1.00  0.00     0.294 C 
BRANCH  59  60
ATOM     60  C   UNL     1      18.144  28.531  18.307  1.00  0.00     0.121 A 
ATOM     61  C   UNL     1      16.898  28.879  18.843  1.00  0.00     0.144 A 
ATOM     62  N   UNL     1      18.895  28.202  19.368  1.00  0.00    -0.131 NA
ATOM     63  N   UNL     1      16.953  28.748  20.179  1.00  0.00    -0.220 N 
ATOM     64  N   UNL     1      18.173  28.337  20.465  1.00  0.00    -0.062 NA
BRANCH  63  65
ATOM     65  C   UNL     1      15.858  29.026  21.042  1.00  0.00     0.066 A 
ATOM     66  C   UNL     1      15.966  29.469  22.321  1.00  0.00     0.029 A 
ATOM     67  C   UNL     1      14.590  28.828  20.504  1.00  0.00     0.029 A 
ATOM     68  C   UNL     1      14.820  29.712  23.050  1.00  0.00     0.018 A 
ATOM     69  C   UNL     1      13.456  29.074  21.245  1.00  0.00     0.018 A 
ATOM     70  C   UNL     1      13.557  29.525  22.544  1.00  0.00     0.018 A 
ATOM     71  Br  UNL     1      11.998  29.875  23.586  1.00  0.00    -0.051 Br
ENDBRANCH  63  65
ENDBRANCH  59  60
ENDBRANCH  58  59
ENDBRANCH  55  58
ENDBRANCH  53  54
ENDBRANCH  50  53
ENDBRANCH  47  50
ENDBRANCH   5  47
BRANCH   4  72
ATOM     72  N   UNL     1      23.607  24.984  21.529  1.00  0.00    -0.348 N 
ATOM     73  C   UNL     1      22.329  24.383  21.683  1.00  0.00     0.217 C 
ATOM     74  H   UNL     1      23.898  25.701  22.216  1.00  0.00     0.163 HD
ATOM     75  C   UNL     1      21.388  24.728  22.776  1.00  0.00     0.114 C 
ATOM     76  O   UNL     1      21.947  23.498  20.850  1.00  0.00    -0.275 OA
ENDBRANCH   4  72
TORSDOF 30
