REMARK VINA RESULT:    -5.713      8.471     15.477
REMARK INTER + INTRA:         -21.502
REMARK INTER:                 -12.501
REMARK INTRA:                  -9.001
REMARK UNBOUND:                -6.938
REMARK SMILES CC(=O)N[C@@H]1[C@@H](O)C[C@](OC[C@H]2O[C@@H](O[C@H]3[C@H](O)[C@@H](O)[C@H](OCCN=[N+]=[N-])O[C@@H]3CO)[C@H](O)[C@@H](O)[C@H]2O)(C(=O)O)O[C@H]1C(O)[C@H](O)CNC(=O)OCc1cn(Cc2cc(Br)cc(Br)c2O)nn1
REMARK SMILES IDX 9 1 8 2 6 3 5 4 42 5 41 6 10 7 11 8 12 9 14 10 13 11 32 12
REMARK SMILES IDX 34 13 36 14 15 15 16 16 29 17 28 18 21 19 17 20 19 21 30 22
REMARK SMILES IDX 31 23 22 25 23 26 24 27 25 28 26 29 27 30 18 31 20 33 33 35
REMARK SMILES IDX 35 37 37 39 38 41 39 42 40 43 7 45 43 47 44 48 45 50 46 51
REMARK SMILES IDX 47 53 48 54 49 55 50 57 51 58 52 59 53 60 54 61 67 62 55 63
REMARK SMILES IDX 66 64 56 65 57 66 58 67 64 68 59 69 62 70 60 71 61 72 63 73
REMARK SMILES IDX 65 74 4 76 2 77 1 79 3 80
REMARK H PARENT 31 24 18 32 20 34 33 36 35 38 37 40 40 44 7 46 44 49 46 52
REMARK H PARENT 48 56 65 75 4 78
REMARK Flexibility Score: inf
ROOT
ATOM      1  C   UNL     1      12.899  29.596  14.136  1.00  0.00     0.272 C 
ATOM      2  C   UNL     1      12.668  31.167  13.911  1.00  0.00     0.113 C 
ATOM      3  C   UNL     1      13.316  31.933  14.990  1.00  0.00     0.145 C 
ATOM      4  C   UNL     1      14.777  31.577  15.079  1.00  0.00     0.142 C 
ATOM      5  C   UNL     1      15.159  30.267  14.459  1.00  0.00     0.178 C 
ATOM      6  O   UNL     1      14.231  29.384  14.107  1.00  0.00    -0.332 OA
ENDROOT
BRANCH   1   7
ATOM      7  O   UNL     1      12.304  29.121  13.017  1.00  0.00    -0.338 OA
BRANCH   7   8
ATOM      8  C   UNL     1      12.753  29.231  11.782  1.00  0.00     0.199 C 
BRANCH   8   9
ATOM      9  C   UNL     1      12.381  28.254  10.721  1.00  0.00     0.179 C 
ATOM     10  C   UNL     1      10.575  29.420   9.823  1.00  0.00     0.282 C 
ATOM     11  O   UNL     1      11.072  28.289  10.384  1.00  0.00    -0.341 OA
ATOM     12  C   UNL     1      11.486  30.002   8.792  1.00  0.00     0.202 C 
ATOM     13  C   UNL     1      12.506  28.989   8.348  1.00  0.00     0.179 C 
ATOM     14  C   UNL     1      13.276  28.389   9.487  1.00  0.00     0.177 C 
BRANCH  10  15
ATOM     15  O   UNL     1      10.180  30.341  10.806  1.00  0.00    -0.341 OA
BRANCH  15  16
ATOM     16  C   UNL     1       8.859  30.242  11.176  1.00  0.00     0.184 C 
ATOM     17  C   UNL     1       8.134  31.558  11.006  1.00  0.00     0.178 C 
ATOM     18  O   UNL     1       6.898  31.601  11.586  1.00  0.00    -0.341 OA
ATOM     19  C   UNL     1       6.357  30.388  11.970  1.00  0.00     0.281 C 
ATOM     20  C   UNL     1       8.720  29.928  12.669  1.00  0.00     0.180 C 
ATOM     21  C   UNL     1       7.261  29.601  12.881  1.00  0.00     0.202 C 
BRANCH  17  22
ATOM     22  C   UNL     1       8.049  31.995   9.559  1.00  0.00     0.191 C 
BRANCH  22  23
ATOM     23  O   UNL     1       7.822  30.926   8.720  1.00  0.00    -0.394 OA
ATOM     24  H   UNL     1       8.683  30.480   8.544  1.00  0.00     0.210 HD
ENDBRANCH  22  23
ENDBRANCH  17  22
BRANCH  19  25
ATOM     25  O   UNL     1       5.992  29.681  10.836  1.00  0.00    -0.350 OA
BRANCH  25  26
ATOM     26  C   UNL     1       5.828  28.350  11.111  1.00  0.00     0.169 C 
BRANCH  26  27
ATOM     27  C   UNL     1       5.983  27.419   9.958  1.00  0.00     0.119 C 
BRANCH  27  28
ATOM     28  N   UNL     1       6.967  26.383  10.198  1.00  0.00    -0.092 NA
ATOM     29  N   UNL     1       7.928  26.542  10.922  1.00  0.00     0.001 N 
ATOM     30  N   UNL     1       8.781  26.461  11.804  1.00  0.00    -0.003 NA
ENDBRANCH  27  28
ENDBRANCH  26  27
ENDBRANCH  25  26
ENDBRANCH  19  25
BRANCH  20  31
ATOM     31  O   UNL     1       9.566  28.946  13.105  1.00  0.00    -0.387 OA
ATOM     32  H   UNL     1       9.916  28.490  12.274  1.00  0.00     0.211 HD
ENDBRANCH  20  31
BRANCH  21  33
ATOM     33  O   UNL     1       6.876  29.804  14.201  1.00  0.00    -0.385 OA
ATOM     34  H   UNL     1       6.160  29.194  14.449  1.00  0.00     0.211 HD
ENDBRANCH  21  33
ENDBRANCH  15  16
ENDBRANCH  10  15
BRANCH  12  35
ATOM     35  O   UNL     1      10.685  30.395   7.691  1.00  0.00    -0.385 OA
ATOM     36  H   UNL     1      10.338  31.284   7.938  1.00  0.00     0.211 HD
ENDBRANCH  12  35
BRANCH  13  37
ATOM     37  O   UNL     1      13.364  29.502   7.376  1.00  0.00    -0.387 OA
ATOM     38  H   UNL     1      13.129  29.036   6.534  1.00  0.00     0.211 HD
ENDBRANCH  13  37
BRANCH  14  39
ATOM     39  O   UNL     1      14.359  29.194   9.793  1.00  0.00    -0.387 OA
ATOM     40  H   UNL     1      14.284  30.074   9.336  1.00  0.00     0.211 HD
ENDBRANCH  14  39
ENDBRANCH   8   9
ENDBRANCH   7   8
ENDBRANCH   1   7
BRANCH   1  41
ATOM     41  C   UNL     1      12.273  29.303  15.421  1.00  0.00     0.364 C 
ATOM     42  O   UNL     1      10.997  29.156  15.519  1.00  0.00    -0.246 OA
BRANCH  41  43
ATOM     43  O   UNL     1      12.948  29.151  16.603  1.00  0.00    -0.477 OA
ATOM     44  H   UNL     1      13.692  29.782  16.863  1.00  0.00     0.296 HD
ENDBRANCH  41  43
ENDBRANCH   1  41
BRANCH   3  45
ATOM     45  O   UNL     1      13.136  33.306  14.741  1.00  0.00    -0.391 OA
ATOM     46  H   UNL     1      13.850  33.820  15.182  1.00  0.00     0.211 HD
ENDBRANCH   3  45
BRANCH   5  47
ATOM     47  C   UNL     1      16.193  30.552  13.387  1.00  0.00     0.176 C 
BRANCH  47  48
ATOM     48  O   UNL     1      16.788  31.814  13.637  1.00  0.00    -0.388 OA
ATOM     49  H   UNL     1      16.269  32.531  13.223  1.00  0.00     0.211 HD
ENDBRANCH  47  48
BRANCH  47  50
ATOM     50  C   UNL     1      17.203  29.503  13.169  1.00  0.00     0.165 C 
BRANCH  50  51
ATOM     51  O   UNL     1      16.685  28.232  13.292  1.00  0.00    -0.388 OA
ATOM     52  H   UNL     1      16.286  27.884  12.455  1.00  0.00     0.211 HD
ENDBRANCH  50  51
BRANCH  50  53
ATOM     53  C   UNL     1      18.499  29.613  13.895  1.00  0.00     0.154 C 
BRANCH  53  54
ATOM     54  N   UNL     1      18.464  29.416  15.303  1.00  0.00    -0.319 N 
ATOM     55  C   UNL     1      18.722  30.556  16.139  1.00  0.00     0.407 C 
ATOM     56  H   UNL     1      18.290  28.510  15.766  1.00  0.00     0.167 HD
ATOM     57  O   UNL     1      18.967  31.683  15.587  1.00  0.00    -0.225 OA
BRANCH  55  58
ATOM     58  O   UNL     1      18.701  30.426  17.499  1.00  0.00    -0.443 OA
BRANCH  58  59
ATOM     59  C   UNL     1      18.921  29.202  18.151  1.00  0.00     0.294 C 
BRANCH  59  60
ATOM     60  C   UNL     1      17.713  28.785  18.899  1.00  0.00     0.120 A 
ATOM     61  C   UNL     1      16.373  29.003  18.606  1.00  0.00     0.138 A 
ATOM     62  N   UNL     1      17.689  28.083  20.043  1.00  0.00    -0.132 NA
ATOM     63  N   UNL     1      15.596  28.449  19.548  1.00  0.00    -0.248 N 
ATOM     64  N   UNL     1      16.440  27.890  20.419  1.00  0.00    -0.067 NA
BRANCH  63  65
ATOM     65  C   UNL     1      14.135  28.422  19.667  1.00  0.00     0.185 C 
BRANCH  65  66
ATOM     66  C   UNL     1      13.741  29.534  20.562  1.00  0.00     0.018 A 
ATOM     67  C   UNL     1      13.664  29.300  21.921  1.00  0.00     0.025 A 
ATOM     68  C   UNL     1      13.446  30.806  20.084  1.00  0.00     0.134 A 
ATOM     69  C   UNL     1      13.304  30.295  22.818  1.00  0.00     0.019 A 
ATOM     70  C   UNL     1      13.083  31.821  20.955  1.00  0.00     0.061 A 
ATOM     71  Br  UNL     1      13.210  29.925  24.683  1.00  0.00    -0.051 Br
ATOM     72  C   UNL     1      13.017  31.543  22.320  1.00  0.00     0.035 A 
ATOM     73  Br  UNL     1      12.689  33.541  20.280  1.00  0.00    -0.047 Br
BRANCH  68  74
ATOM     74  O   UNL     1      13.540  30.974  18.717  1.00  0.00    -0.506 OA
ATOM     75  H   UNL     1      14.294  31.523  18.337  1.00  0.00     0.293 HD
ENDBRANCH  68  74
ENDBRANCH  65  66
ENDBRANCH  63  65
ENDBRANCH  59  60
ENDBRANCH  58  59
ENDBRANCH  55  58
ENDBRANCH  53  54
ENDBRANCH  50  53
ENDBRANCH  47  50
ENDBRANCH   5  47
BRANCH   4  76
ATOM     76  N   UNL     1      15.240  31.749  16.439  1.00  0.00    -0.348 N 
ATOM     77  C   UNL     1      15.907  32.950  16.793  1.00  0.00     0.217 C 
ATOM     78  H   UNL     1      15.111  31.024  17.183  1.00  0.00     0.163 HD
ATOM     79  C   UNL     1      16.385  33.128  18.200  1.00  0.00     0.114 C 
ATOM     80  O   UNL     1      16.089  33.861  15.917  1.00  0.00    -0.275 OA
ENDBRANCH   4  76
TORSDOF 32
