REMARK VINA RESULT:    -4.873      5.619      9.754
REMARK INTER + INTRA:         -21.631
REMARK INTER:                 -15.379
REMARK INTRA:                  -6.252
REMARK UNBOUND:                -8.780
REMARK SMILES COc1ccc(Cn2cc(COC(=O)NC[C@@H](O)C(O)[C@@H]3O[C@@](OC[C@H]4O[C@@H](O[C@H]5[C@H](O)[C@@H](O)[C@H](OCCN=[N+]=[N-])O[C@@H]5CO)[C@H](O)[C@@H](O)[C@H]4O)(C(=O)O)C[C@H](O)[C@H]3NC(C)=O)nn2)cc1OC
REMARK SMILES IDX 23 1 55 2 56 3 58 4 21 5 22 6 24 7 25 8 26 9 28 10 27 11
REMARK SMILES IDX 46 12 48 13 50 14 29 15 30 16 43 17 42 18 35 19 31 20 33 21
REMARK SMILES IDX 44 22 45 23 36 25 37 26 38 27 39 28 40 29 41 30 32 31 34 33
REMARK SMILES IDX 47 35 49 37 51 39 52 41 53 42 54 43 57 45 19 47 20 48 17 50
REMARK SMILES IDX 18 51 16 53 15 54 13 55 14 57 12 58 11 59 10 60 9 61 63 62
REMARK SMILES IDX 8 63 64 64 7 65 6 66 65 67 5 68 66 69 4 70 3 71 67 72 68 73
REMARK SMILES IDX 2 74 1 75 59 76 60 77 61 79 62 80
REMARK H PARENT 45 24 32 32 34 34 47 36 49 38 51 40 54 44 57 46 20 49 18 52
REMARK H PARENT 15 56 59 78
REMARK Flexibility Score: inf
ROOT
ATOM      1  C   UNL     1      17.429  29.140  18.498  1.00  0.00     0.272 C 
ATOM      2  C   UNL     1      16.365  28.102  18.807  1.00  0.00     0.113 C 
ATOM      3  C   UNL     1      15.182  28.511  19.607  1.00  0.00     0.145 C 
ATOM      4  C   UNL     1      15.515  29.766  20.410  1.00  0.00     0.142 C 
ATOM      5  C   UNL     1      16.958  29.667  20.709  1.00  0.00     0.178 C 
ATOM      6  O   UNL     1      17.685  30.004  19.582  1.00  0.00    -0.332 OA
ENDROOT
BRANCH   1   7
ATOM      7  O   UNL     1      16.883  29.897  17.469  1.00  0.00    -0.338 OA
BRANCH   7   8
ATOM      8  C   UNL     1      17.082  31.243  17.504  1.00  0.00     0.199 C 
BRANCH   8   9
ATOM      9  C   UNL     1      15.841  31.985  17.092  1.00  0.00     0.179 C 
ATOM     10  C   UNL     1      13.648  31.835  16.513  1.00  0.00     0.282 C 
ATOM     11  O   UNL     1      14.690  31.201  17.294  1.00  0.00    -0.341 OA
ATOM     12  C   UNL     1      13.232  33.071  17.165  1.00  0.00     0.202 C 
ATOM     13  C   UNL     1      14.408  33.912  17.633  1.00  0.00     0.179 C 
ATOM     14  C   UNL     1      15.614  33.165  18.049  1.00  0.00     0.177 C 
BRANCH  10  15
ATOM     15  O   UNL     1      12.659  30.886  16.356  1.00  0.00    -0.341 OA
BRANCH  15  16
ATOM     16  C   UNL     1      12.725  30.325  15.080  1.00  0.00     0.184 C 
ATOM     17  C   UNL     1      11.401  30.041  14.490  1.00  0.00     0.178 C 
ATOM     18  O   UNL     1      11.584  29.757  13.139  1.00  0.00    -0.341 OA
ATOM     19  C   UNL     1      12.700  29.043  12.886  1.00  0.00     0.281 C 
ATOM     20  C   UNL     1      13.526  29.024  15.207  1.00  0.00     0.180 C 
ATOM     21  C   UNL     1      13.176  28.141  14.002  1.00  0.00     0.202 C 
BRANCH  17  22
ATOM     22  C   UNL     1      10.407  31.161  14.691  1.00  0.00     0.191 C 
BRANCH  22  23
ATOM     23  O   UNL     1       9.750  30.894  15.891  1.00  0.00    -0.394 OA
ATOM     24  H   UNL     1      10.193  30.111  16.335  1.00  0.00     0.210 HD
ENDBRANCH  22  23
ENDBRANCH  17  22
BRANCH  19  25
ATOM     25  O   UNL     1      13.780  29.970  12.659  1.00  0.00    -0.350 OA
BRANCH  25  26
ATOM     26  C   UNL     1      13.666  30.401  11.322  1.00  0.00     0.169 C 
BRANCH  26  27
ATOM     27  C   UNL     1      15.011  30.553  10.635  1.00  0.00     0.119 C 
BRANCH  27  28
ATOM     28  N   UNL     1      15.155  29.509   9.658  1.00  0.00    -0.092 NA
ATOM     29  N   UNL     1      14.526  29.510   8.596  1.00  0.00     0.001 N 
ATOM     30  N   UNL     1      13.645  29.692   7.731  1.00  0.00    -0.003 NA
ENDBRANCH  27  28
ENDBRANCH  26  27
ENDBRANCH  25  26
ENDBRANCH  19  25
BRANCH  20  31
ATOM     31  O   UNL     1      14.867  29.353  15.096  1.00  0.00    -0.387 OA
ATOM     32  H   UNL     1      14.929  30.334  14.889  1.00  0.00     0.211 HD
ENDBRANCH  20  31
BRANCH  21  33
ATOM     33  O   UNL     1      12.163  27.288  14.374  1.00  0.00    -0.385 OA
ATOM     34  H   UNL     1      12.207  26.415  13.896  1.00  0.00     0.211 HD
ENDBRANCH  21  33
ENDBRANCH  15  16
ENDBRANCH  10  15
BRANCH  12  35
ATOM     35  O   UNL     1      12.500  33.882  16.313  1.00  0.00    -0.385 OA
ATOM     36  H   UNL     1      12.363  34.798  16.692  1.00  0.00     0.211 HD
ENDBRANCH  12  35
BRANCH  13  37
ATOM     37  O   UNL     1      13.939  34.749  18.680  1.00  0.00    -0.387 OA
ATOM     38  H   UNL     1      13.048  34.397  18.943  1.00  0.00     0.211 HD
ENDBRANCH  13  37
BRANCH  14  39
ATOM     39  O   UNL     1      15.448  32.581  19.324  1.00  0.00    -0.387 OA
ATOM     40  H   UNL     1      15.243  33.293  20.021  1.00  0.00     0.211 HD
ENDBRANCH  14  39
ENDBRANCH   8   9
ENDBRANCH   7   8
ENDBRANCH   1   7
BRANCH   1  41
ATOM     41  C   UNL     1      18.688  28.426  18.165  1.00  0.00     0.364 C 
ATOM     42  O   UNL     1      18.983  28.143  17.001  1.00  0.00    -0.246 OA
BRANCH  41  43
ATOM     43  O   UNL     1      19.635  28.015  19.140  1.00  0.00    -0.477 OA
ATOM     44  H   UNL     1      20.357  28.731  19.388  1.00  0.00     0.296 HD
ENDBRANCH  41  43
ENDBRANCH   1  41
BRANCH   3  45
ATOM     45  O   UNL     1      14.096  28.783  18.810  1.00  0.00    -0.391 OA
ATOM     46  H   UNL     1      14.382  28.883  17.856  1.00  0.00     0.211 HD
ENDBRANCH   3  45
BRANCH   5  47
ATOM     47  C   UNL     1      17.360  30.277  21.971  1.00  0.00     0.176 C 
BRANCH  47  48
ATOM     48  O   UNL     1      17.220  29.494  23.111  1.00  0.00    -0.388 OA
ATOM     49  H   UNL     1      16.427  28.948  23.148  1.00  0.00     0.211 HD
ENDBRANCH  47  48
BRANCH  47  50
ATOM     50  C   UNL     1      18.982  30.359  21.972  1.00  0.00     0.165 C 
BRANCH  50  51
ATOM     51  O   UNL     1      19.439  29.140  21.654  1.00  0.00    -0.388 OA
ATOM     52  H   UNL     1      19.962  28.707  22.391  1.00  0.00     0.211 HD
ENDBRANCH  50  51
BRANCH  50  53
ATOM     53  C   UNL     1      19.442  31.111  23.115  1.00  0.00     0.154 C 
BRANCH  53  54
ATOM     54  N   UNL     1      20.236  30.583  24.173  1.00  0.00    -0.319 N 
ATOM     55  C   UNL     1      19.622  30.514  25.447  1.00  0.00     0.407 C 
ATOM     56  H   UNL     1      21.201  30.265  24.112  1.00  0.00     0.167 HD
ATOM     57  O   UNL     1      18.425  30.920  25.612  1.00  0.00    -0.225 OA
BRANCH  55  58
ATOM     58  O   UNL     1      20.219  30.022  26.604  1.00  0.00    -0.443 OA
BRANCH  58  59
ATOM     59  C   UNL     1      21.642  29.676  26.498  1.00  0.00     0.294 C 
BRANCH  59  60
ATOM     60  C   UNL     1      21.657  28.243  26.913  1.00  0.00     0.120 A 
ATOM     61  C   UNL     1      22.246  27.194  26.168  1.00  0.00     0.138 A 
ATOM     62  N   UNL     1      21.210  27.718  28.047  1.00  0.00    -0.132 NA
ATOM     63  N   UNL     1      22.108  26.087  26.936  1.00  0.00    -0.248 N 
ATOM     64  N   UNL     1      21.502  26.400  28.027  1.00  0.00    -0.067 NA
BRANCH  63  65
ATOM     65  C   UNL     1      22.647  24.749  26.569  1.00  0.00     0.181 C 
BRANCH  65  66
ATOM     66  C   UNL     1      22.605  24.776  25.041  1.00  0.00    -0.023 A 
ATOM     67  C   UNL     1      23.751  24.786  24.276  1.00  0.00     0.056 A 
ATOM     68  C   UNL     1      21.387  24.664  24.452  1.00  0.00     0.010 A 
ATOM     69  C   UNL     1      23.547  24.666  22.871  1.00  0.00     0.161 A 
ATOM     70  C   UNL     1      21.204  24.544  23.040  1.00  0.00     0.051 A 
ATOM     71  C   UNL     1      22.350  24.548  22.290  1.00  0.00     0.160 A 
BRANCH  69  72
ATOM     72  O   UNL     1      24.667  24.676  22.039  1.00  0.00    -0.493 OA
ATOM     73  C   UNL     1      25.571  23.566  21.975  1.00  0.00     0.278 C 
ENDBRANCH  69  72
BRANCH  71  74
ATOM     74  O   UNL     1      22.273  24.406  20.876  1.00  0.00    -0.493 OA
ATOM     75  C   UNL     1      22.290  25.604  20.072  1.00  0.00     0.278 C 
ENDBRANCH  71  74
ENDBRANCH  65  66
ENDBRANCH  63  65
ENDBRANCH  59  60
ENDBRANCH  58  59
ENDBRANCH  55  58
ENDBRANCH  53  54
ENDBRANCH  50  53
ENDBRANCH  47  50
ENDBRANCH   5  47
BRANCH   4  76
ATOM     76  N   UNL     1      14.654  29.812  21.560  1.00  0.00    -0.348 N 
ATOM     77  C   UNL     1      13.451  30.524  21.492  1.00  0.00     0.217 C 
ATOM     78  H   UNL     1      14.865  29.315  22.469  1.00  0.00     0.163 HD
ATOM     79  C   UNL     1      12.462  30.691  22.601  1.00  0.00     0.114 C 
ATOM     80  O   UNL     1      13.065  31.136  20.415  1.00  0.00    -0.275 OA
ENDBRANCH   4  76
TORSDOF 33
