REMARK VINA RESULT:    -6.559      7.734     13.823
REMARK INTER + INTRA:         -22.255
REMARK INTER:                 -14.850
REMARK INTRA:                  -7.405
REMARK UNBOUND:                -5.152
REMARK SMILES CC(=O)N[C@@H]1[C@@H](O)C[C@](OC[C@H]2O[C@@H](O[C@H]3[C@H](O)[C@@H](O)[C@H](OCCN=[N+]=[N-])O[C@@H]3CO)[C@H](O)[C@@H](O)[C@H]2O)(C(=O)O)O[C@H]1C(O)[C@H](O)CNC(=O)OCc1cn(CC(O)c2ccccc2)nn1
REMARK SMILES IDX 9 1 8 2 6 3 5 4 42 5 41 6 10 7 11 8 12 9 14 10 13 11 32 12
REMARK SMILES IDX 34 13 36 14 15 15 16 16 29 17 28 18 21 19 17 20 19 21 30 22
REMARK SMILES IDX 31 23 22 25 23 26 24 27 25 28 26 29 27 30 18 31 20 33 33 35
REMARK SMILES IDX 35 37 37 39 38 41 39 42 40 43 7 45 43 47 44 48 45 50 46 51
REMARK SMILES IDX 47 53 48 54 49 55 50 57 51 58 52 59 53 60 54 61 66 62 55 63
REMARK SMILES IDX 65 64 56 65 57 66 58 67 59 69 60 70 64 71 61 72 63 73 62 74
REMARK SMILES IDX 4 75 2 76 1 78 3 79
REMARK H PARENT 31 24 18 32 20 34 33 36 35 38 37 40 40 44 7 46 44 49 46 52
REMARK H PARENT 48 56 58 68 4 77
REMARK Flexibility Score: inf
ROOT
ATOM      1  C   UNL     1      13.015  30.693  21.950  1.00  0.00     0.272 C 
ATOM      2  C   UNL     1      11.842  31.598  21.950  1.00  0.00     0.113 C 
ATOM      3  C   UNL     1      11.940  32.828  21.119  1.00  0.00     0.145 C 
ATOM      4  C   UNL     1      13.369  33.048  20.736  1.00  0.00     0.142 C 
ATOM      5  C   UNL     1      14.226  32.689  21.937  1.00  0.00     0.178 C 
ATOM      6  O   UNL     1      14.179  31.382  22.310  1.00  0.00    -0.332 OA
ENDROOT
BRANCH   1   7
ATOM      7  O   UNL     1      13.296  30.018  20.800  1.00  0.00    -0.338 OA
BRANCH   7   8
ATOM      8  C   UNL     1      14.557  29.538  20.625  1.00  0.00     0.199 C 
BRANCH   8   9
ATOM      9  C   UNL     1      14.700  28.838  19.293  1.00  0.00     0.179 C 
ATOM     10  C   UNL     1      14.963  29.411  17.081  1.00  0.00     0.282 C 
ATOM     11  O   UNL     1      14.318  29.672  18.260  1.00  0.00    -0.341 OA
ATOM     12  C   UNL     1      16.458  29.639  17.107  1.00  0.00     0.202 C 
ATOM     13  C   UNL     1      16.958  29.288  18.491  1.00  0.00     0.179 C 
ATOM     14  C   UNL     1      16.034  28.220  19.040  1.00  0.00     0.177 C 
BRANCH  10  15
ATOM     15  O   UNL     1      14.489  30.205  16.041  1.00  0.00    -0.341 OA
BRANCH  15  16
ATOM     16  C   UNL     1      13.533  29.631  15.249  1.00  0.00     0.184 C 
ATOM     17  C   UNL     1      13.519  30.415  13.942  1.00  0.00     0.178 C 
ATOM     18  O   UNL     1      12.486  31.328  13.918  1.00  0.00    -0.341 OA
ATOM     19  C   UNL     1      12.541  32.070  15.112  1.00  0.00     0.281 C 
ATOM     20  C   UNL     1      12.209  29.765  15.991  1.00  0.00     0.180 C 
ATOM     21  C   UNL     1      11.849  31.230  16.179  1.00  0.00     0.202 C 
BRANCH  17  22
ATOM     22  C   UNL     1      13.471  29.475  12.750  1.00  0.00     0.191 C 
BRANCH  22  23
ATOM     23  O   UNL     1      12.181  29.000  12.530  1.00  0.00    -0.394 OA
ATOM     24  H   UNL     1      12.003  28.160  13.030  1.00  0.00     0.210 HD
ENDBRANCH  22  23
ENDBRANCH  17  22
BRANCH  19  25
ATOM     25  O   UNL     1      11.901  33.261  14.869  1.00  0.00    -0.350 OA
BRANCH  25  26
ATOM     26  C   UNL     1      10.576  33.159  14.518  1.00  0.00     0.169 C 
BRANCH  26  27
ATOM     27  C   UNL     1       9.736  34.340  14.918  1.00  0.00     0.119 C 
BRANCH  27  28
ATOM     28  N   UNL     1       9.810  34.534  16.370  1.00  0.00    -0.092 NA
ATOM     29  N   UNL     1       9.335  33.603  17.040  1.00  0.00     0.001 N 
ATOM     30  N   UNL     1       9.081  32.756  17.895  1.00  0.00    -0.003 NA
ENDBRANCH  27  28
ENDBRANCH  26  27
ENDBRANCH  25  26
ENDBRANCH  19  25
BRANCH  20  31
ATOM     31  O   UNL     1      11.203  29.104  15.300  1.00  0.00    -0.387 OA
ATOM     32  H   UNL     1      10.387  29.678  15.264  1.00  0.00     0.211 HD
ENDBRANCH  20  31
BRANCH  21  33
ATOM     33  O   UNL     1      12.142  31.653  17.462  1.00  0.00    -0.385 OA
ATOM     34  H   UNL     1      12.316  32.626  17.427  1.00  0.00     0.211 HD
ENDBRANCH  21  33
ENDBRANCH  15  16
ENDBRANCH  10  15
BRANCH  12  35
ATOM     35  O   UNL     1      17.055  28.787  16.173  1.00  0.00    -0.385 OA
ATOM     36  H   UNL     1      16.337  28.480  15.555  1.00  0.00     0.211 HD
ENDBRANCH  12  35
BRANCH  13  37
ATOM     37  O   UNL     1      16.876  30.457  19.243  1.00  0.00    -0.387 OA
ATOM     38  H   UNL     1      17.068  30.338  20.189  1.00  0.00     0.211 HD
ENDBRANCH  13  37
BRANCH  14  39
ATOM     39  O   UNL     1      16.547  27.531  20.113  1.00  0.00    -0.387 OA
ATOM     40  H   UNL     1      16.391  26.552  20.073  1.00  0.00     0.211 HD
ENDBRANCH  14  39
ENDBRANCH   8   9
ENDBRANCH   7   8
ENDBRANCH   1   7
BRANCH   1  41
ATOM     41  C   UNL     1      12.791  29.737  23.112  1.00  0.00     0.364 C 
ATOM     42  O   UNL     1      11.657  29.491  23.488  1.00  0.00    -0.246 OA
BRANCH  41  43
ATOM     43  O   UNL     1      13.930  29.196  23.681  1.00  0.00    -0.477 OA
ATOM     44  H   UNL     1      14.076  29.374  24.652  1.00  0.00     0.296 HD
ENDBRANCH  41  43
ENDBRANCH   1  41
BRANCH   3  45
ATOM     45  O   UNL     1      11.070  32.793  20.028  1.00  0.00    -0.391 OA
ATOM     46  H   UNL     1      10.154  32.696  20.413  1.00  0.00     0.211 HD
ENDBRANCH   3  45
BRANCH   5  47
ATOM     47  C   UNL     1      15.606  33.213  21.631  1.00  0.00     0.176 C 
BRANCH  47  48
ATOM     48  O   UNL     1      15.988  32.748  20.364  1.00  0.00    -0.388 OA
ATOM     49  H   UNL     1      15.640  33.410  19.704  1.00  0.00     0.211 HD
ENDBRANCH  47  48
BRANCH  47  50
ATOM     50  C   UNL     1      16.600  32.858  22.687  1.00  0.00     0.165 C 
BRANCH  50  51
ATOM     51  O   UNL     1      16.389  33.526  23.862  1.00  0.00    -0.388 OA
ATOM     52  H   UNL     1      16.218  34.477  23.775  1.00  0.00     0.211 HD
ENDBRANCH  50  51
BRANCH  50  53
ATOM     53  C   UNL     1      18.029  32.808  22.212  1.00  0.00     0.154 C 
BRANCH  53  54
ATOM     54  N   UNL     1      18.392  31.651  21.449  1.00  0.00    -0.319 N 
ATOM     55  C   UNL     1      18.514  30.334  21.981  1.00  0.00     0.407 C 
ATOM     56  H   UNL     1      18.582  31.756  20.402  1.00  0.00     0.167 HD
ATOM     57  O   UNL     1      18.294  30.112  23.184  1.00  0.00    -0.225 OA
BRANCH  55  58
ATOM     58  O   UNL     1      18.877  29.273  21.181  1.00  0.00    -0.443 OA
BRANCH  58  59
ATOM     59  C   UNL     1      20.018  29.292  20.323  1.00  0.00     0.294 C 
BRANCH  59  60
ATOM     60  C   UNL     1      20.729  27.978  20.412  1.00  0.00     0.120 A 
ATOM     61  C   UNL     1      20.984  27.188  21.502  1.00  0.00     0.138 A 
ATOM     62  N   UNL     1      21.245  27.333  19.342  1.00  0.00    -0.132 NA
ATOM     63  N   UNL     1      21.651  26.070  21.085  1.00  0.00    -0.249 N 
ATOM     64  N   UNL     1      21.774  26.220  19.786  1.00  0.00    -0.067 NA
BRANCH  63  65
ATOM     65  C   UNL     1      22.100  24.980  21.937  1.00  0.00     0.182 C 
BRANCH  65  66
ATOM     66  C   UNL     1      21.482  25.112  23.317  1.00  0.00     0.166 C 
BRANCH  66  67
ATOM     67  O   UNL     1      20.430  24.166  23.330  1.00  0.00    -0.386 OA
ATOM     68  H   UNL     1      20.009  24.145  24.234  1.00  0.00     0.211 HD
ENDBRANCH  66  67
BRANCH  66  69
ATOM     69  C   UNL     1      22.412  24.851  24.420  1.00  0.00    -0.018 A 
ATOM     70  C   UNL     1      22.013  24.723  25.715  1.00  0.00     0.006 A 
ATOM     71  C   UNL     1      23.764  24.757  24.060  1.00  0.00     0.006 A 
ATOM     72  C   UNL     1      22.978  24.494  26.683  1.00  0.00     0.000 A 
ATOM     73  C   UNL     1      24.697  24.531  25.035  1.00  0.00     0.000 A 
ATOM     74  C   UNL     1      24.309  24.399  26.353  1.00  0.00     0.000 A 
ENDBRANCH  66  69
ENDBRANCH  65  66
ENDBRANCH  63  65
ENDBRANCH  59  60
ENDBRANCH  58  59
ENDBRANCH  55  58
ENDBRANCH  53  54
ENDBRANCH  50  53
ENDBRANCH  47  50
ENDBRANCH   5  47
BRANCH   4  75
ATOM     75  N   UNL     1      13.619  34.481  20.511  1.00  0.00    -0.348 N 
ATOM     76  C   UNL     1      13.507  35.079  19.230  1.00  0.00     0.217 C 
ATOM     77  H   UNL     1      13.891  35.095  21.307  1.00  0.00     0.163 HD
ATOM     78  C   UNL     1      13.750  36.520  18.965  1.00  0.00     0.114 C 
ATOM     79  O   UNL     1      13.178  34.339  18.262  1.00  0.00    -0.275 OA
ENDBRANCH   4  75
TORSDOF 33
