REMARK VINA RESULT:    -5.415      3.288      7.431
REMARK INTER + INTRA:         -20.928
REMARK INTER:                 -13.559
REMARK INTRA:                  -7.369
REMARK UNBOUND:                -7.600
REMARK SMILES CC(=O)N[C@@H]1[C@@H](O)C[C@](OC[C@H]2O[C@@H](O[C@H]3[C@H](O)[C@@H](O)[C@H](OCCN=[N+]=[N-])O[C@@H]3CO)[C@H](O)[C@@H](O)[C@H]2O)(C(=O)O)O[C@H]1C(O)[C@H](O)CNC(=O)OCc1cn(-c2ccc(Cl)cc2)nn1
REMARK SMILES IDX 9 1 8 2 6 3 5 4 42 5 41 6 10 7 11 8 12 9 14 10 13 11 32 12
REMARK SMILES IDX 34 13 36 14 15 15 16 16 29 17 28 18 21 19 17 20 19 21 30 22
REMARK SMILES IDX 31 23 22 25 23 26 24 27 25 28 26 29 27 30 18 31 20 33 33 35
REMARK SMILES IDX 35 37 37 39 38 41 39 42 40 43 7 45 43 47 44 48 45 50 46 51
REMARK SMILES IDX 47 53 48 54 49 55 50 57 51 58 52 59 53 60 54 61 64 62 55 63
REMARK SMILES IDX 63 64 56 65 57 66 62 67 58 68 61 69 59 70 60 71 4 72 2 73
REMARK SMILES IDX 1 75 3 76
REMARK H PARENT 31 24 18 32 20 34 33 36 35 38 37 40 40 44 7 46 44 49 46 52
REMARK H PARENT 48 56 4 74
REMARK Flexibility Score: inf
ROOT
ATOM      1  C   UNL     1      21.308  29.383  19.892  1.00  0.00     0.272 C 
ATOM      2  C   UNL     1      21.667  30.229  18.740  1.00  0.00     0.113 C 
ATOM      3  C   UNL     1      21.584  31.696  18.855  1.00  0.00     0.145 C 
ATOM      4  C   UNL     1      21.303  32.097  20.287  1.00  0.00     0.142 C 
ATOM      5  C   UNL     1      20.162  31.159  20.736  1.00  0.00     0.178 C 
ATOM      6  O   UNL     1      20.910  29.985  21.056  1.00  0.00    -0.332 OA
ENDROOT
BRANCH   1   7
ATOM      7  O   UNL     1      22.437  28.564  20.174  1.00  0.00    -0.338 OA
BRANCH   7   8
ATOM      8  C   UNL     1      23.386  28.588  19.189  1.00  0.00     0.199 C 
BRANCH   8   9
ATOM      9  C   UNL     1      24.250  27.330  19.201  1.00  0.00     0.179 C 
ATOM     10  C   UNL     1      23.725  25.121  19.817  1.00  0.00     0.282 C 
ATOM     11  O   UNL     1      23.879  26.460  20.177  1.00  0.00    -0.341 OA
ATOM     12  C   UNL     1      22.693  25.041  18.771  1.00  0.00     0.202 C 
ATOM     13  C   UNL     1      23.148  25.829  17.550  1.00  0.00     0.179 C 
ATOM     14  C   UNL     1      24.332  26.699  17.830  1.00  0.00     0.177 C 
BRANCH  10  15
ATOM     15  O   UNL     1      23.452  24.493  21.031  1.00  0.00    -0.341 OA
BRANCH  15  16
ATOM     16  C   UNL     1      23.099  25.260  22.057  1.00  0.00     0.184 C 
ATOM     17  C   UNL     1      23.799  24.943  23.330  1.00  0.00     0.178 C 
ATOM     18  O   UNL     1      23.628  25.958  24.266  1.00  0.00    -0.341 OA
ATOM     19  C   UNL     1      22.344  26.229  24.613  1.00  0.00     0.281 C 
ATOM     20  C   UNL     1      21.594  25.228  22.396  1.00  0.00     0.180 C 
ATOM     21  C   UNL     1      21.364  25.411  23.853  1.00  0.00     0.202 C 
BRANCH  17  22
ATOM     22  C   UNL     1      25.256  24.616  23.240  1.00  0.00     0.191 C 
BRANCH  22  23
ATOM     23  O   UNL     1      25.484  23.357  22.684  1.00  0.00    -0.394 OA
ATOM     24  H   UNL     1      24.711  23.106  22.126  1.00  0.00     0.210 HD
ENDBRANCH  22  23
ENDBRANCH  17  22
BRANCH  19  25
ATOM     25  O   UNL     1      22.051  27.577  24.377  1.00  0.00    -0.350 OA
BRANCH  25  26
ATOM     26  C   UNL     1      21.113  28.061  25.275  1.00  0.00     0.169 C 
BRANCH  26  27
ATOM     27  C   UNL     1      21.686  28.967  26.322  1.00  0.00     0.119 C 
BRANCH  27  28
ATOM     28  N   UNL     1      21.350  30.334  25.933  1.00  0.00    -0.092 NA
ATOM     29  N   UNL     1      20.133  30.576  25.840  1.00  0.00     0.001 N 
ATOM     30  N   UNL     1      18.964  30.949  26.079  1.00  0.00    -0.003 NA
ENDBRANCH  27  28
ENDBRANCH  26  27
ENDBRANCH  25  26
ENDBRANCH  19  25
BRANCH  20  31
ATOM     31  O   UNL     1      21.012  26.271  21.697  1.00  0.00    -0.387 OA
ATOM     32  H   UNL     1      20.635  25.867  20.851  1.00  0.00     0.211 HD
ENDBRANCH  20  31
BRANCH  21  33
ATOM     33  O   UNL     1      21.152  24.189  24.523  1.00  0.00    -0.385 OA
ATOM     34  H   UNL     1      22.030  23.940  24.889  1.00  0.00     0.211 HD
ENDBRANCH  21  33
ENDBRANCH  15  16
ENDBRANCH  10  15
BRANCH  12  35
ATOM     35  O   UNL     1      22.362  23.753  18.349  1.00  0.00    -0.385 OA
ATOM     36  H   UNL     1      22.671  23.059  19.016  1.00  0.00     0.211 HD
ENDBRANCH  12  35
BRANCH  13  37
ATOM     37  O   UNL     1      22.050  26.525  17.051  1.00  0.00    -0.387 OA
ATOM     38  H   UNL     1      21.207  26.048  17.101  1.00  0.00     0.211 HD
ENDBRANCH  13  37
BRANCH  14  39
ATOM     39  O   UNL     1      24.342  27.788  16.924  1.00  0.00    -0.387 OA
ATOM     40  H   UNL     1      25.277  28.003  16.758  1.00  0.00     0.211 HD
ENDBRANCH  14  39
ENDBRANCH   8   9
ENDBRANCH   7   8
ENDBRANCH   1   7
BRANCH   1  41
ATOM     41  C   UNL     1      20.229  28.422  19.464  1.00  0.00     0.364 C 
ATOM     42  O   UNL     1      20.154  27.992  18.292  1.00  0.00    -0.246 OA
BRANCH  41  43
ATOM     43  O   UNL     1      19.301  28.005  20.385  1.00  0.00    -0.477 OA
ATOM     44  H   UNL     1      18.417  28.481  20.555  1.00  0.00     0.296 HD
ENDBRANCH  41  43
ENDBRANCH   1  41
BRANCH   3  45
ATOM     45  O   UNL     1      22.789  32.301  18.498  1.00  0.00    -0.391 OA
ATOM     46  H   UNL     1      23.137  31.842  17.710  1.00  0.00     0.211 HD
ENDBRANCH   3  45
BRANCH   5  47
ATOM     47  C   UNL     1      19.472  31.626  21.967  1.00  0.00     0.176 C 
BRANCH  47  48
ATOM     48  O   UNL     1      20.429  32.175  22.810  1.00  0.00    -0.388 OA
ATOM     49  H   UNL     1      21.349  31.850  22.650  1.00  0.00     0.211 HD
ENDBRANCH  47  48
BRANCH  47  50
ATOM     50  C   UNL     1      18.288  32.489  21.859  1.00  0.00     0.165 C 
BRANCH  50  51
ATOM     51  O   UNL     1      18.724  33.773  22.352  1.00  0.00    -0.388 OA
ATOM     52  H   UNL     1      19.589  34.010  21.944  1.00  0.00     0.211 HD
ENDBRANCH  50  51
BRANCH  50  53
ATOM     53  C   UNL     1      17.186  32.132  22.846  1.00  0.00     0.154 C 
BRANCH  53  54
ATOM     54  N   UNL     1      16.222  31.195  22.341  1.00  0.00    -0.319 N 
ATOM     55  C   UNL     1      16.259  29.856  22.810  1.00  0.00     0.407 C 
ATOM     56  H   UNL     1      15.488  31.445  21.636  1.00  0.00     0.167 HD
ATOM     57  O   UNL     1      17.126  29.463  23.648  1.00  0.00    -0.225 OA
BRANCH  55  58
ATOM     58  O   UNL     1      15.341  28.925  22.365  1.00  0.00    -0.443 OA
BRANCH  58  59
ATOM     59  C   UNL     1      14.637  29.080  21.130  1.00  0.00     0.294 C 
BRANCH  59  60
ATOM     60  C   UNL     1      15.480  28.607  19.994  1.00  0.00     0.121 A 
ATOM     61  C   UNL     1      15.511  29.177  18.729  1.00  0.00     0.144 A 
ATOM     62  N   UNL     1      16.339  27.579  19.975  1.00  0.00    -0.131 NA
ATOM     63  N   UNL     1      16.382  28.480  17.987  1.00  0.00    -0.220 N 
ATOM     64  N   UNL     1      16.857  27.539  18.751  1.00  0.00    -0.062 NA
BRANCH  63  65
ATOM     65  C   UNL     1      16.659  28.799  16.622  1.00  0.00     0.066 A 
ATOM     66  C   UNL     1      17.944  28.825  16.142  1.00  0.00     0.030 A 
ATOM     67  C   UNL     1      15.639  29.088  15.758  1.00  0.00     0.030 A 
ATOM     68  C   UNL     1      18.247  29.133  14.814  1.00  0.00     0.023 A 
ATOM     69  C   UNL     1      15.911  29.398  14.433  1.00  0.00     0.023 A 
ATOM     70  C   UNL     1      17.221  29.422  13.954  1.00  0.00     0.041 A 
ATOM     71  Cl  UNL     1      17.553  29.818  12.266  1.00  0.00    -0.084 Cl
ENDBRANCH  63  65
ENDBRANCH  59  60
ENDBRANCH  58  59
ENDBRANCH  55  58
ENDBRANCH  53  54
ENDBRANCH  50  53
ENDBRANCH  47  50
ENDBRANCH   5  47
BRANCH   4  72
ATOM     72  N   UNL     1      21.015  33.477  20.395  1.00  0.00    -0.348 N 
ATOM     73  C   UNL     1      22.036  34.384  20.850  1.00  0.00     0.217 C 
ATOM     74  H   UNL     1      20.111  33.916  20.158  1.00  0.00     0.163 HD
ATOM     75  C   UNL     1      21.766  35.845  20.975  1.00  0.00     0.114 C 
ATOM     76  O   UNL     1      23.166  33.913  21.138  1.00  0.00    -0.275 OA
ENDBRANCH   4  72
TORSDOF 30
