REMARK VINA RESULT:    -6.488     16.240     20.815
REMARK INTER + INTRA:         -22.189
REMARK INTER:                 -17.259
REMARK INTRA:                  -4.930
REMARK UNBOUND:                -5.460
REMARK SMILES CC(=O)N[C@@H]1[C@@H](O)C[C@](OC[C@H]2O[C@@H](O[C@H]3[C@H](O)[C@@H](O)[C@H](OCCN=[N+]=[N-])O[C@@H]3CO)[C@H](O)[C@@H](O)[C@H]2O)(C(=O)O)O[C@H]1C(O)[C@H](O)CNC(=O)OCc1cn(C(c2ccccc2)c2ccccc2)nn1
REMARK SMILES IDX 9 1 8 2 6 3 5 4 42 5 41 6 10 7 11 8 12 9 14 10 13 11 32 12
REMARK SMILES IDX 34 13 36 14 15 15 16 16 29 17 28 18 21 19 17 20 19 21 30 22
REMARK SMILES IDX 31 23 22 25 23 26 24 27 25 28 26 29 27 30 18 31 20 33 33 35
REMARK SMILES IDX 35 37 37 39 38 41 39 42 40 43 7 45 43 47 44 48 45 50 46 51
REMARK SMILES IDX 47 53 48 54 49 55 50 57 51 58 52 59 53 60 54 61 70 62 55 63
REMARK SMILES IDX 69 64 56 65 57 66 58 67 62 68 59 69 61 70 60 71 63 72 64 73
REMARK SMILES IDX 68 74 65 75 67 76 66 77 4 78 2 79 1 81 3 82
REMARK H PARENT 31 24 18 32 20 34 33 36 35 38 37 40 40 44 7 46 44 49 46 52
REMARK H PARENT 48 56 4 80
REMARK Flexibility Score: inf
ROOT
ATOM      1  C   UNL     1       3.846  23.672  33.430  1.00  0.00     0.272 C 
ATOM      2  C   UNL     1       5.156  23.161  32.794  1.00  0.00     0.113 C 
ATOM      3  C   UNL     1       5.067  21.709  32.559  1.00  0.00     0.145 C 
ATOM      4  C   UNL     1       3.894  21.405  31.661  1.00  0.00     0.142 C 
ATOM      5  C   UNL     1       2.860  22.470  31.659  1.00  0.00     0.178 C 
ATOM      6  O   UNL     1       2.759  23.212  32.792  1.00  0.00    -0.332 OA
ENDROOT
BRANCH   1   7
ATOM      7  O   UNL     1       3.868  25.075  33.365  1.00  0.00    -0.338 OA
BRANCH   7   8
ATOM      8  C   UNL     1       5.149  25.560  33.355  1.00  0.00     0.199 C 
BRANCH   8   9
ATOM      9  C   UNL     1       5.354  26.685  34.368  1.00  0.00     0.179 C 
ATOM     10  C   UNL     1       7.148  26.319  35.897  1.00  0.00     0.282 C 
ATOM     11  O   UNL     1       5.866  26.251  35.488  1.00  0.00    -0.341 OA
ATOM     12  C   UNL     1       8.085  26.875  34.935  1.00  0.00     0.202 C 
ATOM     13  C   UNL     1       7.521  27.913  34.029  1.00  0.00     0.179 C 
ATOM     14  C   UNL     1       6.070  27.862  33.747  1.00  0.00     0.177 C 
BRANCH  10  15
ATOM     15  O   UNL     1       7.430  24.980  36.310  1.00  0.00    -0.341 OA
BRANCH  15  16
ATOM     16  C   UNL     1       8.769  24.733  36.350  1.00  0.00     0.184 C 
ATOM     17  C   UNL     1       9.117  23.428  35.728  1.00  0.00     0.178 C 
ATOM     18  O   UNL     1      10.507  23.310  35.592  1.00  0.00    -0.341 OA
ATOM     19  C   UNL     1      11.079  23.123  36.820  1.00  0.00     0.281 C 
ATOM     20  C   UNL     1       9.283  24.671  37.783  1.00  0.00     0.180 C 
ATOM     21  C   UNL     1      10.253  23.570  37.957  1.00  0.00     0.202 C 
BRANCH  17  22
ATOM     22  C   UNL     1       8.421  23.142  34.412  1.00  0.00     0.191 C 
BRANCH  22  23
ATOM     23  O   UNL     1       8.798  24.103  33.480  1.00  0.00    -0.394 OA
ATOM     24  H   UNL     1       8.059  24.665  33.166  1.00  0.00     0.210 HD
ENDBRANCH  22  23
ENDBRANCH  17  22
BRANCH  19  25
ATOM     25  O   UNL     1      12.384  23.641  36.871  1.00  0.00    -0.350 OA
BRANCH  25  26
ATOM     26  C   UNL     1      12.612  24.715  36.059  1.00  0.00     0.169 C 
BRANCH  26  27
ATOM     27  C   UNL     1      13.715  25.566  36.645  1.00  0.00     0.119 C 
BRANCH  27  28
ATOM     28  N   UNL     1      14.604  26.086  35.609  1.00  0.00    -0.092 NA
ATOM     29  N   UNL     1      14.410  27.165  35.062  1.00  0.00     0.001 N 
ATOM     30  N   UNL     1      13.953  28.071  34.356  1.00  0.00    -0.003 NA
ENDBRANCH  27  28
ENDBRANCH  26  27
ENDBRANCH  25  26
ENDBRANCH  19  25
BRANCH  20  31
ATOM     31  O   UNL     1       9.776  25.939  38.094  1.00  0.00    -0.387 OA
ATOM     32  H   UNL     1       9.051  26.620  38.112  1.00  0.00     0.211 HD
ENDBRANCH  20  31
BRANCH  21  33
ATOM     33  O   UNL     1       9.548  22.456  38.501  1.00  0.00    -0.385 OA
ATOM     34  H   UNL     1      10.185  21.691  38.439  1.00  0.00     0.211 HD
ENDBRANCH  21  33
ENDBRANCH  15  16
ENDBRANCH  10  15
BRANCH  12  35
ATOM     35  O   UNL     1       9.217  27.481  35.539  1.00  0.00    -0.385 OA
ATOM     36  H   UNL     1       9.374  28.311  35.027  1.00  0.00     0.211 HD
ENDBRANCH  12  35
BRANCH  13  37
ATOM     37  O   UNL     1       8.214  27.940  32.791  1.00  0.00    -0.387 OA
ATOM     38  H   UNL     1       8.536  27.026  32.578  1.00  0.00     0.211 HD
ENDBRANCH  13  37
BRANCH  14  39
ATOM     39  O   UNL     1       5.872  27.737  32.362  1.00  0.00    -0.387 OA
ATOM     40  H   UNL     1       6.148  26.850  32.029  1.00  0.00     0.211 HD
ENDBRANCH  14  39
ENDBRANCH   8   9
ENDBRANCH   7   8
ENDBRANCH   1   7
BRANCH   1  41
ATOM     41  C   UNL     1       3.909  23.256  34.832  1.00  0.00     0.364 C 
ATOM     42  O   UNL     1       2.933  22.717  35.388  1.00  0.00    -0.246 OA
BRANCH  41  43
ATOM     43  O   UNL     1       5.051  23.440  35.616  1.00  0.00    -0.477 OA
ATOM     44  H   UNL     1       5.946  23.076  35.324  1.00  0.00     0.296 HD
ENDBRANCH  41  43
ENDBRANCH   1  41
BRANCH   3  45
ATOM     45  O   UNL     1       6.263  21.317  31.921  1.00  0.00    -0.391 OA
ATOM     46  H   UNL     1       6.669  20.540  32.381  1.00  0.00     0.211 HD
ENDBRANCH   3  45
BRANCH   5  47
ATOM     47  C   UNL     1       2.816  23.368  30.456  1.00  0.00     0.176 C 
BRANCH  47  48
ATOM     48  O   UNL     1       1.983  24.451  30.807  1.00  0.00    -0.388 OA
ATOM     49  H   UNL     1       2.361  25.016  31.502  1.00  0.00     0.211 HD
ENDBRANCH  47  48
BRANCH  47  50
ATOM     50  C   UNL     1       2.285  22.767  29.205  1.00  0.00     0.165 C 
BRANCH  50  51
ATOM     51  O   UNL     1       3.235  22.980  28.213  1.00  0.00    -0.388 OA
ATOM     52  H   UNL     1       3.863  22.220  28.107  1.00  0.00     0.211 HD
ENDBRANCH  50  51
BRANCH  50  53
ATOM     53  C   UNL     1       0.960  23.268  28.746  1.00  0.00     0.154 C 
BRANCH  53  54
ATOM     54  N   UNL     1       0.978  24.371  27.839  1.00  0.00    -0.319 N 
ATOM     55  C   UNL     1       0.667  24.368  26.476  1.00  0.00     0.407 C 
ATOM     56  H   UNL     1       1.263  25.321  28.243  1.00  0.00     0.167 HD
ATOM     57  O   UNL     1       0.341  23.317  25.912  1.00  0.00    -0.225 OA
BRANCH  55  58
ATOM     58  O   UNL     1       0.715  25.537  25.720  1.00  0.00    -0.443 OA
BRANCH  58  59
ATOM     59  C   UNL     1       1.790  25.741  24.789  1.00  0.00     0.294 C 
BRANCH  59  60
ATOM     60  C   UNL     1       2.726  26.740  25.365  1.00  0.00     0.120 A 
ATOM     61  C   UNL     1       3.837  26.404  26.083  1.00  0.00     0.139 A 
ATOM     62  N   UNL     1       2.624  28.061  25.265  1.00  0.00    -0.132 NA
ATOM     63  N   UNL     1       4.414  27.570  26.421  1.00  0.00    -0.240 N 
ATOM     64  N   UNL     1       3.671  28.563  25.919  1.00  0.00    -0.066 NA
BRANCH  63  65
ATOM     65  C   UNL     1       5.628  27.812  27.173  1.00  0.00     0.169 C 
BRANCH  65  66
ATOM     66  C   UNL     1       5.401  28.978  28.035  1.00  0.00    -0.019 A 
ATOM     67  C   UNL     1       5.882  30.222  27.676  1.00  0.00     0.006 A 
ATOM     68  C   UNL     1       4.727  28.903  29.235  1.00  0.00     0.006 A 
ATOM     69  C   UNL     1       5.693  31.334  28.485  1.00  0.00     0.000 A 
ATOM     70  C   UNL     1       4.531  30.012  30.054  1.00  0.00     0.000 A 
ATOM     71  C   UNL     1       5.019  31.248  29.678  1.00  0.00     0.000 A 
ENDBRANCH  65  66
BRANCH  65  72
ATOM     72  C   UNL     1       6.786  27.924  26.264  1.00  0.00    -0.019 A 
ATOM     73  C   UNL     1       7.702  26.878  26.277  1.00  0.00     0.006 A 
ATOM     74  C   UNL     1       7.035  28.982  25.440  1.00  0.00     0.006 A 
ATOM     75  C   UNL     1       8.817  26.918  25.482  1.00  0.00     0.000 A 
ATOM     76  C   UNL     1       8.158  29.030  24.635  1.00  0.00     0.000 A 
ATOM     77  C   UNL     1       9.057  27.995  24.653  1.00  0.00     0.000 A 
ENDBRANCH  65  72
ENDBRANCH  63  65
ENDBRANCH  59  60
ENDBRANCH  58  59
ENDBRANCH  55  58
ENDBRANCH  53  54
ENDBRANCH  50  53
ENDBRANCH  47  50
ENDBRANCH   5  47
BRANCH   4  78
ATOM     78  N   UNL     1       3.325  20.154  32.200  1.00  0.00    -0.348 N 
ATOM     79  C   UNL     1       2.583  19.248  31.392  1.00  0.00     0.217 C 
ATOM     80  H   UNL     1       3.450  19.887  33.208  1.00  0.00     0.163 HD
ATOM     81  C   UNL     1       2.018  17.981  31.969  1.00  0.00     0.114 C 
ATOM     82  O   UNL     1       2.380  19.477  30.181  1.00  0.00    -0.275 OA
ENDBRANCH   4  78
TORSDOF 32
