REMARK VINA RESULT:    -5.191      4.069      9.494
REMARK INTER + INTRA:         -20.078
REMARK INTER:                 -10.932
REMARK INTRA:                  -9.146
REMARK UNBOUND:                -6.390
REMARK SMILES CCOC(=O)Cn1cc(COC(=O)NC[C@@H](O)C(O)[C@@H]2O[C@@](OC[C@H]3O[C@@H](O[C@H]4[C@H](O)[C@@H](O)[C@H](OCCN=[N+]=[N-])O[C@@H]4CO)[C@H](O)[C@@H](O)[C@H]3O)(C(=O)O)C[C@H](O)[C@H]2NC(C)=O)nn1
REMARK SMILES IDX 18 1 20 2 22 3 54 4 21 5 55 6 57 7 23 8 24 9 25 10 27 11
REMARK SMILES IDX 26 12 45 13 47 14 49 15 28 16 29 17 42 18 41 19 34 20 30 21
REMARK SMILES IDX 32 22 43 23 44 24 35 26 36 27 37 28 38 29 39 30 40 31 31 32
REMARK SMILES IDX 33 34 46 36 48 38 50 40 51 42 52 43 53 44 56 46 58 48 59 49
REMARK SMILES IDX 60 51 61 52 19 53 16 55 17 56 15 58 14 59 12 60 13 62 11 63
REMARK SMILES IDX 10 64 9 65 8 66 62 67 7 68 63 69 6 70 4 71 5 72 3 73 2 74
REMARK SMILES IDX 1 75
REMARK H PARENT 44 25 31 33 33 35 46 37 48 39 50 41 53 45 56 47 58 50 19 54
REMARK H PARENT 17 57 14 61
REMARK Flexibility Score: inf
ROOT
ATOM      1  C   UNL     1      23.627  32.094  24.607  1.00  0.00     0.176 C 
ENDROOT
BRANCH   1   2
ATOM      2  C   UNL     1      22.587  31.400  23.772  1.00  0.00     0.178 C 
ATOM      3  C   UNL     1      20.793  29.911  23.960  1.00  0.00     0.272 C 
ATOM      4  C   UNL     1      20.942  29.859  22.478  1.00  0.00     0.113 C 
ATOM      5  O   UNL     1      21.526  30.975  24.528  1.00  0.00    -0.332 OA
ATOM      6  C   UNL     1      22.356  29.739  22.009  1.00  0.00     0.145 C 
ATOM      7  C   UNL     1      23.269  30.203  23.133  1.00  0.00     0.142 C 
BRANCH   3   8
ATOM      8  O   UNL     1      21.110  28.750  24.631  1.00  0.00    -0.338 OA
BRANCH   8   9
ATOM      9  C   UNL     1      21.113  28.766  25.983  1.00  0.00     0.199 C 
BRANCH   9  10
ATOM     10  C   UNL     1      21.210  27.311  26.482  1.00  0.00     0.179 C 
ATOM     11  C   UNL     1      22.250  25.279  26.068  1.00  0.00     0.282 C 
ATOM     12  O   UNL     1      21.888  26.525  25.605  1.00  0.00    -0.341 OA
ATOM     13  C   UNL     1      22.963  25.304  27.386  1.00  0.00     0.202 C 
ATOM     14  C   UNL     1      22.009  25.901  28.390  1.00  0.00     0.179 C 
ATOM     15  C   UNL     1      21.666  27.271  27.909  1.00  0.00     0.177 C 
BRANCH  11  16
ATOM     16  O   UNL     1      23.026  24.570  25.167  1.00  0.00    -0.341 OA
BRANCH  16  17
ATOM     17  C   UNL     1      23.191  25.160  23.940  1.00  0.00     0.184 C 
ATOM     18  C   UNL     1      22.551  24.384  22.809  1.00  0.00     0.178 C 
ATOM     19  O   UNL     1      23.504  23.812  21.978  1.00  0.00    -0.341 OA
ATOM     20  C   UNL     1      24.260  24.788  21.288  1.00  0.00     0.281 C 
ATOM     21  C   UNL     1      24.684  25.302  23.642  1.00  0.00     0.180 C 
ATOM     22  C   UNL     1      24.784  25.834  22.220  1.00  0.00     0.202 C 
BRANCH  18  23
ATOM     23  C   UNL     1      21.556  25.253  22.084  1.00  0.00     0.191 C 
BRANCH  23  24
ATOM     24  O   UNL     1      21.181  26.354  22.876  1.00  0.00    -0.394 OA
ATOM     25  H   UNL     1      21.341  27.199  22.409  1.00  0.00     0.210 HD
ENDBRANCH  23  24
ENDBRANCH  18  23
BRANCH  20  26
ATOM     26  O   UNL     1      23.536  25.318  20.252  1.00  0.00    -0.350 OA
BRANCH  26  27
ATOM     27  C   UNL     1      24.161  25.718  19.120  1.00  0.00     0.169 C 
BRANCH  27  28
ATOM     28  C   UNL     1      23.990  27.111  18.642  1.00  0.00     0.119 C 
BRANCH  28  29
ATOM     29  N   UNL     1      22.792  27.424  17.941  1.00  0.00    -0.092 NA
ATOM     30  N   UNL     1      21.691  27.470  18.529  1.00  0.00     0.001 N 
ATOM     31  N   UNL     1      20.756  27.658  19.328  1.00  0.00    -0.003 NA
ENDBRANCH  28  29
ENDBRANCH  27  28
ENDBRANCH  26  27
ENDBRANCH  20  26
BRANCH  21  32
ATOM     32  O   UNL     1      25.244  26.222  24.532  1.00  0.00    -0.387 OA
ATOM     33  H   UNL     1      24.672  26.203  25.360  1.00  0.00     0.211 HD
ENDBRANCH  21  32
BRANCH  22  34
ATOM     34  O   UNL     1      26.110  26.189  21.954  1.00  0.00    -0.385 OA
ATOM     35  H   UNL     1      26.744  25.894  22.653  1.00  0.00     0.211 HD
ENDBRANCH  22  34
ENDBRANCH  16  17
ENDBRANCH  11  16
BRANCH  13  36
ATOM     36  O   UNL     1      23.284  24.001  27.743  1.00  0.00    -0.385 OA
ATOM     37  H   UNL     1      24.090  23.899  28.273  1.00  0.00     0.211 HD
ENDBRANCH  13  36
BRANCH  14  38
ATOM     38  O   UNL     1      22.692  26.001  29.623  1.00  0.00    -0.387 OA
ATOM     39  H   UNL     1      22.055  26.208  30.351  1.00  0.00     0.211 HD
ENDBRANCH  14  38
BRANCH  15  40
ATOM     40  O   UNL     1      22.806  28.085  28.108  1.00  0.00    -0.387 OA
ATOM     41  H   UNL     1      23.571  27.505  27.838  1.00  0.00     0.211 HD
ENDBRANCH  15  40
ENDBRANCH   9  10
ENDBRANCH   8   9
ENDBRANCH   3   8
BRANCH   3  42
ATOM     42  C   UNL     1      19.384  30.268  24.254  1.00  0.00     0.364 C 
ATOM     43  O   UNL     1      19.136  31.282  24.944  1.00  0.00    -0.246 OA
BRANCH  42  44
ATOM     44  O   UNL     1      18.354  29.504  23.783  1.00  0.00    -0.477 OA
ATOM     45  H   UNL     1      17.444  29.896  23.556  1.00  0.00     0.296 HD
ENDBRANCH  42  44
ENDBRANCH   3  42
BRANCH   6  46
ATOM     46  O   UNL     1      22.708  28.500  21.532  1.00  0.00    -0.391 OA
ATOM     47  H   UNL     1      22.961  28.589  20.570  1.00  0.00     0.211 HD
ENDBRANCH   6  46
BRANCH   7  48
ATOM     48  N   UNL     1      24.583  30.558  22.615  1.00  0.00    -0.348 N 
ATOM     49  C   UNL     1      25.739  29.797  22.910  1.00  0.00     0.217 C 
ATOM     50  H   UNL     1      24.670  31.391  22.008  1.00  0.00     0.163 HD
ATOM     51  C   UNL     1      27.092  30.150  22.387  1.00  0.00     0.114 C 
ATOM     52  O   UNL     1      25.608  28.782  23.647  1.00  0.00    -0.275 OA
ENDBRANCH   7  48
ENDBRANCH   1   2
BRANCH   1  53
ATOM     53  O   UNL     1      23.473  33.464  24.539  1.00  0.00    -0.388 OA
ATOM     54  H   UNL     1      24.248  33.970  24.919  1.00  0.00     0.211 HD
ENDBRANCH   1  53
BRANCH   1  55
ATOM     55  C   UNL     1      23.597  31.672  26.066  1.00  0.00     0.165 C 
BRANCH  55  56
ATOM     56  O   UNL     1      23.293  32.706  26.919  1.00  0.00    -0.388 OA
ATOM     57  H   UNL     1      22.417  32.619  27.362  1.00  0.00     0.211 HD
ENDBRANCH  55  56
BRANCH  55  58
ATOM     58  C   UNL     1      24.909  31.047  26.404  1.00  0.00     0.154 C 
BRANCH  58  59
ATOM     59  N   UNL     1      24.874  29.637  26.567  1.00  0.00    -0.319 N 
ATOM     60  C   UNL     1      25.924  28.842  27.098  1.00  0.00     0.407 C 
ATOM     61  H   UNL     1      23.994  29.082  26.276  1.00  0.00     0.167 HD
ATOM     62  O   UNL     1      26.997  29.338  27.482  1.00  0.00    -0.225 OA
BRANCH  60  63
ATOM     63  O   UNL     1      25.747  27.451  27.198  1.00  0.00    -0.443 OA
BRANCH  63  64
ATOM     64  C   UNL     1      26.769  26.632  27.660  1.00  0.00     0.294 C 
BRANCH  64  65
ATOM     65  C   UNL     1      26.574  26.141  29.038  1.00  0.00     0.120 A 
ATOM     66  C   UNL     1      27.525  26.110  30.040  1.00  0.00     0.139 A 
ATOM     67  N   UNL     1      25.465  25.625  29.583  1.00  0.00    -0.132 NA
ATOM     68  N   UNL     1      26.977  25.580  31.160  1.00  0.00    -0.241 N 
ATOM     69  N   UNL     1      25.730  25.300  30.846  1.00  0.00    -0.066 NA
BRANCH  68  70
ATOM     70  C   UNL     1      27.688  25.385  32.418  1.00  0.00     0.268 C 
BRANCH  70  71
ATOM     71  C   UNL     1      27.034  26.277  33.441  1.00  0.00     0.327 C 
ATOM     72  O   UNL     1      26.937  27.509  33.281  1.00  0.00    -0.250 OA
BRANCH  71  73
ATOM     73  O   UNL     1      26.510  25.757  34.611  1.00  0.00    -0.465 OA
BRANCH  73  74
ATOM     74  C   UNL     1      27.065  25.936  35.882  1.00  0.00     0.229 C 
ATOM     75  C   UNL     1      28.167  24.951  36.188  1.00  0.00     0.049 C 
ENDBRANCH  73  74
ENDBRANCH  71  73
ENDBRANCH  70  71
ENDBRANCH  68  70
ENDBRANCH  64  65
ENDBRANCH  63  64
ENDBRANCH  60  63
ENDBRANCH  58  59
ENDBRANCH  55  58
ENDBRANCH   1  55
TORSDOF 33
