REMARK VINA RESULT:    -5.104      7.141     11.063
REMARK INTER + INTRA:         -21.286
REMARK INTER:                 -15.366
REMARK INTRA:                  -5.920
REMARK UNBOUND:                -8.275
REMARK SMILES CC(=O)N[C@@H]1[C@@H](O)C[C@](OC[C@H]2O[C@@H](O[C@H]3[C@H](O)[C@@H](O)[C@H](OCCN=[N+]=[N-])O[C@@H]3CO)[C@H](O)[C@@H](O)[C@H]2O)(C(=O)O)O[C@H]1C(O)[C@H](O)CNC(=O)OCc1cn(C(C)(C)C(=O)O)nn1
REMARK SMILES IDX 9 1 8 2 6 3 5 4 42 5 41 6 10 7 11 8 12 9 14 10 13 11 32 12
REMARK SMILES IDX 34 13 36 14 15 15 16 16 29 17 28 18 21 19 17 20 19 21 30 22
REMARK SMILES IDX 31 23 22 25 23 26 24 27 25 28 26 29 27 30 18 31 20 33 33 35
REMARK SMILES IDX 35 37 37 39 38 41 39 42 40 43 7 45 43 47 44 48 45 50 46 51
REMARK SMILES IDX 47 53 48 54 49 55 50 57 51 58 52 59 53 60 54 61 63 62 55 63
REMARK SMILES IDX 62 64 56 65 57 66 58 67 59 68 60 69 61 70 4 72 2 73 1 75
REMARK SMILES IDX 3 76
REMARK H PARENT 31 24 18 32 20 34 33 36 35 38 37 40 40 44 7 46 44 49 46 52
REMARK H PARENT 48 56 61 71 4 74
REMARK Flexibility Score: inf
ROOT
ATOM      1  C   UNL     1      27.962  20.146  14.502  1.00  0.00     0.272 C 
ATOM      2  C   UNL     1      28.683  20.075  13.220  1.00  0.00     0.113 C 
ATOM      3  C   UNL     1      28.020  20.788  12.075  1.00  0.00     0.145 C 
ATOM      4  C   UNL     1      26.541  20.859  12.302  1.00  0.00     0.142 C 
ATOM      5  C   UNL     1      26.192  19.612  13.135  1.00  0.00     0.178 C 
ATOM      6  O   UNL     1      26.593  19.867  14.427  1.00  0.00    -0.332 OA
ENDROOT
BRANCH   1   7
ATOM      7  O   UNL     1      28.107  21.319  15.177  1.00  0.00    -0.338 OA
BRANCH   7   8
ATOM      8  C   UNL     1      26.991  21.981  15.581  1.00  0.00     0.199 C 
BRANCH   8   9
ATOM      9  C   UNL     1      27.121  22.466  17.008  1.00  0.00     0.179 C 
ATOM     10  C   UNL     1      27.819  21.746  19.088  1.00  0.00     0.282 C 
ATOM     11  O   UNL     1      27.884  21.503  17.667  1.00  0.00    -0.341 OA
ATOM     12  C   UNL     1      28.598  22.982  19.330  1.00  0.00     0.202 C 
ATOM     13  C   UNL     1      28.981  23.683  18.028  1.00  0.00     0.179 C 
ATOM     14  C   UNL     1      27.786  23.789  17.092  1.00  0.00     0.177 C 
BRANCH  10  15
ATOM     15  O   UNL     1      28.261  20.577  19.628  1.00  0.00    -0.341 OA
BRANCH  15  16
ATOM     16  C   UNL     1      29.279  20.704  20.557  1.00  0.00     0.184 C 
ATOM     17  C   UNL     1      30.384  19.748  20.229  1.00  0.00     0.178 C 
ATOM     18  O   UNL     1      31.181  19.480  21.352  1.00  0.00    -0.341 OA
ATOM     19  C   UNL     1      30.546  18.662  22.275  1.00  0.00     0.281 C 
ATOM     20  C   UNL     1      28.772  20.350  21.955  1.00  0.00     0.180 C 
ATOM     21  C   UNL     1      29.052  18.897  22.246  1.00  0.00     0.202 C 
BRANCH  17  22
ATOM     22  C   UNL     1      31.361  20.348  19.203  1.00  0.00     0.191 C 
BRANCH  22  23
ATOM     23  O   UNL     1      30.748  20.289  17.968  1.00  0.00    -0.394 OA
ATOM     24  H   UNL     1      30.052  19.567  17.993  1.00  0.00     0.210 HD
ENDBRANCH  22  23
ENDBRANCH  17  22
BRANCH  19  25
ATOM     25  O   UNL     1      31.086  18.988  23.519  1.00  0.00    -0.350 OA
BRANCH  25  26
ATOM     26  C   UNL     1      32.179  18.247  23.886  1.00  0.00     0.169 C 
BRANCH  26  27
ATOM     27  C   UNL     1      32.188  18.234  25.422  1.00  0.00     0.119 C 
BRANCH  27  28
ATOM     28  N   UNL     1      31.865  16.932  25.956  1.00  0.00    -0.092 NA
ATOM     29  N   UNL     1      31.585  16.845  27.161  1.00  0.00     0.001 N 
ATOM     30  N   UNL     1      31.555  16.746  28.380  1.00  0.00    -0.003 NA
ENDBRANCH  27  28
ENDBRANCH  26  27
ENDBRANCH  25  26
ENDBRANCH  19  25
BRANCH  20  31
ATOM     31  O   UNL     1      29.454  21.113  22.898  1.00  0.00    -0.387 OA
ATOM     32  H   UNL     1      30.393  21.293  22.645  1.00  0.00     0.211 HD
ENDBRANCH  20  31
BRANCH  21  33
ATOM     33  O   UNL     1      28.427  18.132  21.268  1.00  0.00    -0.385 OA
ATOM     34  H   UNL     1      28.724  17.192  21.254  1.00  0.00     0.211 HD
ENDBRANCH  21  33
ENDBRANCH  15  16
ENDBRANCH  10  15
BRANCH  12  35
ATOM     35  O   UNL     1      27.762  23.907  19.994  1.00  0.00    -0.385 OA
ATOM     36  H   UNL     1      26.826  23.659  20.001  1.00  0.00     0.211 HD
ENDBRANCH  12  35
BRANCH  13  37
ATOM     37  O   UNL     1      30.044  23.037  17.427  1.00  0.00    -0.387 OA
ATOM     38  H   UNL     1      30.905  23.381  17.778  1.00  0.00     0.211 HD
ENDBRANCH  13  37
BRANCH  14  39
ATOM     39  O   UNL     1      28.275  24.186  15.858  1.00  0.00    -0.387 OA
ATOM     40  H   UNL     1      29.076  24.762  16.021  1.00  0.00     0.211 HD
ENDBRANCH  14  39
ENDBRANCH   8   9
ENDBRANCH   7   8
ENDBRANCH   1   7
BRANCH   1  41
ATOM     41  C   UNL     1      28.489  18.990  15.361  1.00  0.00     0.364 C 
ATOM     42  O   UNL     1      29.039  18.006  14.822  1.00  0.00    -0.246 OA
BRANCH  41  43
ATOM     43  O   UNL     1      28.370  19.012  16.736  1.00  0.00    -0.477 OA
ATOM     44  H   UNL     1      28.055  18.229  17.287  1.00  0.00     0.296 HD
ENDBRANCH  41  43
ENDBRANCH   1  41
BRANCH   3  45
ATOM     45  O   UNL     1      28.527  22.067  11.982  1.00  0.00    -0.391 OA
ATOM     46  H   UNL     1      27.816  22.760  11.988  1.00  0.00     0.211 HD
ENDBRANCH   3  45
BRANCH   5  47
ATOM     47  C   UNL     1      24.722  19.307  13.081  1.00  0.00     0.176 C 
BRANCH  47  48
ATOM     48  O   UNL     1      24.523  17.943  13.279  1.00  0.00    -0.388 OA
ATOM     49  H   UNL     1      23.572  17.691  13.078  1.00  0.00     0.211 HD
ENDBRANCH  47  48
BRANCH  47  50
ATOM     50  C   UNL     1      24.001  20.050  14.181  1.00  0.00     0.165 C 
BRANCH  50  51
ATOM     51  O   UNL     1      23.041  19.232  14.792  1.00  0.00    -0.388 OA
ATOM     52  H   UNL     1      22.232  19.769  14.943  1.00  0.00     0.211 HD
ENDBRANCH  50  51
BRANCH  50  53
ATOM     53  C   UNL     1      23.316  21.299  13.693  1.00  0.00     0.154 C 
BRANCH  53  54
ATOM     54  N   UNL     1      22.041  21.003  13.088  1.00  0.00    -0.319 N 
ATOM     55  C   UNL     1      21.379  21.938  12.257  1.00  0.00     0.407 C 
ATOM     56  H   UNL     1      21.585  20.084  13.257  1.00  0.00     0.167 HD
ATOM     57  O   UNL     1      21.865  23.069  12.002  1.00  0.00    -0.225 OA
BRANCH  55  58
ATOM     58  O   UNL     1      20.137  21.640  11.677  1.00  0.00    -0.443 OA
BRANCH  58  59
ATOM     59  C   UNL     1      19.424  20.485  12.133  1.00  0.00     0.294 C 
BRANCH  59  60
ATOM     60  C   UNL     1      19.442  19.420  11.132  1.00  0.00     0.120 A 
ATOM     61  C   UNL     1      20.490  19.087  10.313  1.00  0.00     0.139 A 
ATOM     62  N   UNL     1      18.438  18.588  10.840  1.00  0.00    -0.132 NA
ATOM     63  N   UNL     1      20.106  18.056   9.535  1.00  0.00    -0.235 N 
ATOM     64  N   UNL     1      18.846  17.786   9.893  1.00  0.00    -0.066 NA
BRANCH  63  65
ATOM     65  C   UNL     1      20.847  17.347   8.512  1.00  0.00     0.155 C 
ATOM     66  C   UNL     1      21.195  15.966   8.983  1.00  0.00     0.049 C 
ATOM     67  C   UNL     1      22.147  18.075   8.186  1.00  0.00     0.049 C 
BRANCH  65  68
ATOM     68  C   UNL     1      20.021  17.327   7.284  1.00  0.00     0.331 C 
ATOM     69  O   UNL     1      20.039  16.322   6.557  1.00  0.00    -0.250 OA
BRANCH  68  70
ATOM     70  O   UNL     1      19.250  18.433   6.976  1.00  0.00    -0.479 OA
ATOM     71  H   UNL     1      18.244  18.386   6.860  1.00  0.00     0.296 HD
ENDBRANCH  68  70
ENDBRANCH  65  68
ENDBRANCH  63  65
ENDBRANCH  59  60
ENDBRANCH  58  59
ENDBRANCH  55  58
ENDBRANCH  53  54
ENDBRANCH  50  53
ENDBRANCH  47  50
ENDBRANCH   5  47
BRANCH   4  72
ATOM     72  N   UNL     1      25.783  20.746  11.083  1.00  0.00    -0.348 N 
ATOM     73  C   UNL     1      25.054  21.818  10.495  1.00  0.00     0.217 C 
ATOM     74  H   UNL     1      25.767  19.827  10.598  1.00  0.00     0.163 HD
ATOM     75  C   UNL     1      24.290  21.615   9.225  1.00  0.00     0.114 C 
ATOM     76  O   UNL     1      25.057  22.945  11.056  1.00  0.00    -0.275 OA
ENDBRANCH   4  72
TORSDOF 32
