REMARK VINA RESULT:    -5.447     12.491     17.468
REMARK INTER + INTRA:         -21.692
REMARK INTER:                 -15.076
REMARK INTRA:                  -6.616
REMARK UNBOUND:                -7.010
REMARK SMILES CC(=O)N[C@@H]1[C@@H](O)C[C@](OC[C@H]2O[C@@H](O[C@H]3[C@H](O)[C@@H](O)[C@H](OCCN=[N+]=[N-])O[C@@H]3CO)[C@H](O)[C@@H](O)[C@H]2O)(C(=O)O)O[C@H]1C(O)[C@H](O)CNC(=O)OCc1cn([C@@H](CC(=O)O)C(=O)O)nn1
REMARK SMILES IDX 43 1 42 2 9 3 8 4 41 5 6 6 5 7 10 8 11 9 12 10 14 11 13 12
REMARK SMILES IDX 32 13 34 14 36 15 15 16 16 17 29 18 28 19 21 20 17 21 19 22
REMARK SMILES IDX 30 23 31 24 22 26 23 27 24 28 25 29 26 30 27 31 18 32 20 34
REMARK SMILES IDX 33 36 35 38 37 40 38 42 39 43 40 44 7 46 4 48 2 49 1 51 3 52
REMARK SMILES IDX 44 53 45 55 46 56 47 58 48 59 49 60 50 62 51 63 52 64 53 65
REMARK SMILES IDX 54 66 65 67 55 68 64 69 56 70 57 71 58 72 59 73 60 74 61 76
REMARK SMILES IDX 62 77 63 78
REMARK H PARENT 31 25 18 33 20 35 33 37 35 39 37 41 40 45 7 47 4 50 44 54
REMARK H PARENT 46 57 48 61 60 75 63 79
REMARK Flexibility Score: inf
ROOT
ATOM      1  C   UNL     1       3.961  24.081  33.307  1.00  0.00     0.176 C 
ENDROOT
BRANCH   1   2
ATOM      2  C   UNL     1       5.355  24.641  33.530  1.00  0.00     0.178 C 
ATOM      3  C   UNL     1       7.222  24.369  34.934  1.00  0.00     0.272 C 
ATOM      4  C   UNL     1       7.449  25.748  34.300  1.00  0.00     0.113 C 
ATOM      5  O   UNL     1       5.886  24.028  34.623  1.00  0.00    -0.332 OA
ATOM      6  C   UNL     1       6.227  26.572  34.677  1.00  0.00     0.145 C 
ATOM      7  C   UNL     1       5.182  26.145  33.632  1.00  0.00     0.142 C 
BRANCH   3   8
ATOM      8  O   UNL     1       7.430  24.388  36.168  1.00  0.00    -0.338 OA
BRANCH   8   9
ATOM      9  C   UNL     1       7.644  24.416  37.394  1.00  0.00     0.199 C 
BRANCH   9  10
ATOM     10  C   UNL     1       8.562  23.344  37.980  1.00  0.00     0.179 C 
ATOM     11  C   UNL     1      10.604  23.871  37.059  1.00  0.00     0.282 C 
ATOM     12  O   UNL     1       9.595  22.962  37.193  1.00  0.00    -0.341 OA
ATOM     13  C   UNL     1      11.166  24.304  38.358  1.00  0.00     0.202 C 
ATOM     14  C   UNL     1      10.535  23.391  39.421  1.00  0.00     0.179 C 
ATOM     15  C   UNL     1       9.051  23.700  39.364  1.00  0.00     0.177 C 
BRANCH  11  16
ATOM     16  O   UNL     1      10.410  24.859  36.107  1.00  0.00    -0.341 OA
BRANCH  16  17
ATOM     17  C   UNL     1      11.300  25.903  36.204  1.00  0.00     0.184 C 
ATOM     18  C   UNL     1      10.679  27.206  35.845  1.00  0.00     0.178 C 
ATOM     19  O   UNL     1      11.575  28.255  36.003  1.00  0.00    -0.341 OA
ATOM     20  C   UNL     1      12.888  27.942  35.638  1.00  0.00     0.281 C 
ATOM     21  C   UNL     1      12.425  25.588  35.222  1.00  0.00     0.180 C 
ATOM     22  C   UNL     1      12.881  26.853  34.569  1.00  0.00     0.202 C 
BRANCH  18  23
ATOM     23  C   UNL     1       9.557  27.469  36.848  1.00  0.00     0.191 C 
BRANCH  23  24
ATOM     24  O   UNL     1      10.058  27.253  38.148  1.00  0.00    -0.394 OA
ATOM     25  H   UNL     1       9.947  28.136  38.610  1.00  0.00     0.210 HD
ENDBRANCH  23  24
ENDBRANCH  18  23
BRANCH  20  26
ATOM     26  O   UNL     1      13.516  27.423  36.755  1.00  0.00    -0.350 OA
BRANCH  26  27
ATOM     27  C   UNL     1      13.750  28.283  37.783  1.00  0.00     0.169 C 
BRANCH  27  28
ATOM     28  C   UNL     1      13.685  27.573  39.102  1.00  0.00     0.119 C 
BRANCH  28  29
ATOM     29  N   UNL     1      12.466  28.003  39.790  1.00  0.00    -0.092 NA
ATOM     30  N   UNL     1      11.968  27.221  40.624  1.00  0.00     0.001 N 
ATOM     31  N   UNL     1      11.058  26.563  41.161  1.00  0.00    -0.003 NA
ENDBRANCH  28  29
ENDBRANCH  27  28
ENDBRANCH  26  27
ENDBRANCH  20  26
BRANCH  21  32
ATOM     32  O   UNL     1      13.487  24.998  35.897  1.00  0.00    -0.387 OA
ATOM     33  H   UNL     1      13.165  24.214  36.428  1.00  0.00     0.211 HD
ENDBRANCH  21  32
BRANCH  22  34
ATOM     34  O   UNL     1      12.103  27.241  33.477  1.00  0.00    -0.385 OA
ATOM     35  H   UNL     1      12.576  28.052  33.107  1.00  0.00     0.211 HD
ENDBRANCH  22  34
ENDBRANCH  16  17
ENDBRANCH  11  16
BRANCH  13  36
ATOM     36  O   UNL     1      12.544  24.106  38.470  1.00  0.00    -0.385 OA
ATOM     37  H   UNL     1      12.982  25.000  38.372  1.00  0.00     0.211 HD
ENDBRANCH  13  36
BRANCH  14  38
ATOM     38  O   UNL     1      11.053  23.595  40.676  1.00  0.00    -0.387 OA
ATOM     39  H   UNL     1      10.340  23.672  41.370  1.00  0.00     0.211 HD
ENDBRANCH  14  38
BRANCH  15  40
ATOM     40  O   UNL     1       8.850  25.028  39.668  1.00  0.00    -0.387 OA
ATOM     41  H   UNL     1       7.916  25.287  39.747  1.00  0.00     0.211 HD
ENDBRANCH  15  40
ENDBRANCH   9  10
ENDBRANCH   8   9
ENDBRANCH   3   8
BRANCH   3  42
ATOM     42  C   UNL     1       8.120  23.446  34.114  1.00  0.00     0.364 C 
ATOM     43  O   UNL     1       7.724  22.312  33.808  1.00  0.00    -0.246 OA
BRANCH  42  44
ATOM     44  O   UNL     1       9.376  23.851  33.704  1.00  0.00    -0.477 OA
ATOM     45  H   UNL     1      10.186  23.217  33.700  1.00  0.00     0.296 HD
ENDBRANCH  42  44
ENDBRANCH   3  42
BRANCH   6  46
ATOM     46  O   UNL     1       5.681  26.091  35.888  1.00  0.00    -0.391 OA
ATOM     47  H   UNL     1       6.356  25.733  36.488  1.00  0.00     0.211 HD
ENDBRANCH   6  46
BRANCH   7  48
ATOM     48  N   UNL     1       5.525  26.847  32.417  1.00  0.00    -0.348 N 
ATOM     49  C   UNL     1       4.978  28.141  32.157  1.00  0.00     0.217 C 
ATOM     50  H   UNL     1       6.168  26.451  31.694  1.00  0.00     0.163 HD
ATOM     51  C   UNL     1       5.371  28.816  30.875  1.00  0.00     0.114 C 
ATOM     52  O   UNL     1       4.193  28.706  32.964  1.00  0.00    -0.275 OA
ENDBRANCH   7  48
ENDBRANCH   1   2
BRANCH   1  53
ATOM     53  O   UNL     1       3.275  23.919  34.505  1.00  0.00    -0.388 OA
ATOM     54  H   UNL     1       3.154  22.954  34.735  1.00  0.00     0.211 HD
ENDBRANCH   1  53
BRANCH   1  55
ATOM     55  C   UNL     1       3.884  22.851  32.484  1.00  0.00     0.165 C 
BRANCH  55  56
ATOM     56  O   UNL     1       5.080  22.228  32.205  1.00  0.00    -0.388 OA
ATOM     57  H   UNL     1       5.296  22.168  31.237  1.00  0.00     0.211 HD
ENDBRANCH  55  56
BRANCH  55  58
ATOM     58  C   UNL     1       3.002  23.040  31.298  1.00  0.00     0.154 C 
BRANCH  58  59
ATOM     59  N   UNL     1       3.185  24.248  30.556  1.00  0.00    -0.319 N 
ATOM     60  C   UNL     1       2.697  24.334  29.231  1.00  0.00     0.407 C 
ATOM     61  H   UNL     1       3.663  25.063  30.965  1.00  0.00     0.167 HD
ATOM     62  O   UNL     1       2.090  23.314  28.750  1.00  0.00    -0.225 OA
BRANCH  60  63
ATOM     63  O   UNL     1       2.817  25.423  28.386  1.00  0.00    -0.443 OA
BRANCH  63  64
ATOM     64  C   UNL     1       3.473  25.268  27.117  1.00  0.00     0.294 C 
BRANCH  64  65
ATOM     65  C   UNL     1       4.371  26.428  26.905  1.00  0.00     0.120 A 
ATOM     66  C   UNL     1       5.438  26.578  26.048  1.00  0.00     0.139 A 
ATOM     67  N   UNL     1       4.303  27.621  27.584  1.00  0.00    -0.132 NA
ATOM     68  N   UNL     1       5.974  27.820  26.224  1.00  0.00    -0.237 N 
ATOM     69  N   UNL     1       5.259  28.394  27.147  1.00  0.00    -0.066 NA
BRANCH  68  70
ATOM     70  C   UNL     1       7.117  28.367  25.528  1.00  0.00     0.229 C 
BRANCH  70  71
ATOM     71  C   UNL     1       7.802  27.235  24.783  1.00  0.00     0.161 C 
BRANCH  71  72
ATOM     72  C   UNL     1       9.096  26.885  25.399  1.00  0.00     0.306 C 
ATOM     73  O   UNL     1       9.153  26.158  26.423  1.00  0.00    -0.252 OA
BRANCH  72  74
ATOM     74  O   UNL     1      10.274  27.353  24.861  1.00  0.00    -0.481 OA
ATOM     75  H   UNL     1      11.096  26.737  24.863  1.00  0.00     0.296 HD
ENDBRANCH  72  74
ENDBRANCH  71  72
ENDBRANCH  70  71
BRANCH  70  76
ATOM     76  C   UNL     1       6.653  29.381  24.564  1.00  0.00     0.329 C 
ATOM     77  O   UNL     1       6.876  29.204  23.344  1.00  0.00    -0.250 OA
BRANCH  76  78
ATOM     78  O   UNL     1       5.974  30.531  24.942  1.00  0.00    -0.480 OA
ATOM     79  H   UNL     1       5.094  30.429  25.439  1.00  0.00     0.296 HD
ENDBRANCH  76  78
ENDBRANCH  70  76
ENDBRANCH  68  70
ENDBRANCH  64  65
ENDBRANCH  63  64
ENDBRANCH  60  63
ENDBRANCH  58  59
ENDBRANCH  55  58
ENDBRANCH   1  55
TORSDOF 35
