REMARK VINA RESULT:    -5.383      6.998     11.140
REMARK INTER + INTRA:         -21.148
REMARK INTER:                 -12.807
REMARK INTRA:                  -8.342
REMARK UNBOUND:                -7.585
REMARK SMILES COc1ccc(-n2cc(COC(=O)NC[C@@H](O)C(O)[C@@H]3O[C@@](OC[C@H]4O[C@@H](O[C@H]5[C@H](O)[C@@H](O)[C@H](OCCN=[N+]=[N-])O[C@@H]5CO)[C@H](O)[C@@H](O)[C@H]4O)(C(=O)O)C[C@H](O)[C@H]3NC(C)=O)nn2)cc1
REMARK SMILES IDX 22 1 54 2 55 3 57 4 20 5 21 6 23 7 24 8 25 9 27 10 26 11
REMARK SMILES IDX 45 12 47 13 49 14 28 15 29 16 42 17 41 18 34 19 30 20 32 21
REMARK SMILES IDX 43 22 44 23 35 25 36 26 37 27 38 28 39 29 40 30 31 31 33 33
REMARK SMILES IDX 46 35 48 37 50 39 51 41 52 42 53 43 56 45 18 47 19 48 16 50
REMARK SMILES IDX 17 51 15 53 14 54 12 55 13 57 11 58 10 59 9 60 8 61 62 62
REMARK SMILES IDX 7 63 63 64 6 65 5 66 64 67 4 68 65 69 3 70 2 71 1 72 58 73
REMARK SMILES IDX 59 74 60 76 61 77
REMARK H PARENT 44 24 31 32 33 34 46 36 48 38 50 40 53 44 56 46 19 49 17 52
REMARK H PARENT 14 56 58 75
REMARK Flexibility Score: inf
ROOT
ATOM      1  C   UNL     1      22.630  28.195  16.134  1.00  0.00     0.272 C 
ATOM      2  C   UNL     1      22.110  28.967  14.980  1.00  0.00     0.113 C 
ATOM      3  C   UNL     1      21.638  30.342  15.246  1.00  0.00     0.145 C 
ATOM      4  C   UNL     1      21.278  30.441  16.742  1.00  0.00     0.142 C 
ATOM      5  C   UNL     1      20.685  29.134  17.133  1.00  0.00     0.178 C 
ATOM      6  O   UNL     1      21.730  28.215  17.216  1.00  0.00    -0.332 OA
ENDROOT
BRANCH   1   7
ATOM      7  O   UNL     1      23.837  28.270  16.598  1.00  0.00    -0.338 OA
BRANCH   7   8
ATOM      8  C   UNL     1      25.006  27.768  16.454  1.00  0.00     0.199 C 
BRANCH   8   9
ATOM      9  C   UNL     1      25.524  26.583  17.218  1.00  0.00     0.179 C 
ATOM     10  C   UNL     1      25.157  25.047  18.870  1.00  0.00     0.282 C 
ATOM     11  O   UNL     1      24.604  26.050  18.056  1.00  0.00    -0.341 OA
ATOM     12  C   UNL     1      25.732  23.897  18.108  1.00  0.00     0.202 C 
ATOM     13  C   UNL     1      26.038  24.157  16.680  1.00  0.00     0.179 C 
ATOM     14  C   UNL     1      26.198  25.578  16.316  1.00  0.00     0.177 C 
BRANCH  10  15
ATOM     15  O   UNL     1      24.136  24.585  19.695  1.00  0.00    -0.341 OA
BRANCH  15  16
ATOM     16  C   UNL     1      23.764  25.491  20.650  1.00  0.00     0.184 C 
ATOM     17  C   UNL     1      23.982  24.995  22.032  1.00  0.00     0.178 C 
ATOM     18  O   UNL     1      23.489  25.926  22.985  1.00  0.00    -0.341 OA
ATOM     19  C   UNL     1      22.076  25.858  22.872  1.00  0.00     0.281 C 
ATOM     20  C   UNL     1      22.270  25.805  20.450  1.00  0.00     0.180 C 
ATOM     21  C   UNL     1      21.778  26.649  21.595  1.00  0.00     0.202 C 
BRANCH  17  22
ATOM     22  C   UNL     1      25.438  24.732  22.316  1.00  0.00     0.191 C 
BRANCH  22  23
ATOM     23  O   UNL     1      25.693  23.381  22.155  1.00  0.00    -0.394 OA
ATOM     24  H   UNL     1      24.883  22.827  22.214  1.00  0.00     0.210 HD
ENDBRANCH  22  23
ENDBRANCH  17  22
BRANCH  19  25
ATOM     25  O   UNL     1      21.465  26.385  23.955  1.00  0.00    -0.350 OA
BRANCH  25  26
ATOM     26  C   UNL     1      22.208  26.889  24.976  1.00  0.00     0.169 C 
BRANCH  26  27
ATOM     27  C   UNL     1      21.878  26.436  26.358  1.00  0.00     0.119 C 
BRANCH  27  28
ATOM     28  N   UNL     1      22.344  25.130  26.715  1.00  0.00    -0.092 NA
ATOM     29  N   UNL     1      23.443  24.723  26.354  1.00  0.00     0.001 N 
ATOM     30  N   UNL     1      24.511  24.400  25.825  1.00  0.00    -0.003 NA
ENDBRANCH  27  28
ENDBRANCH  26  27
ENDBRANCH  25  26
ENDBRANCH  19  25
BRANCH  20  31
ATOM     31  O   UNL     1      22.110  26.436  19.230  1.00  0.00    -0.387 OA
ATOM     32  H   UNL     1      21.300  27.029  19.313  1.00  0.00     0.211 HD
ENDBRANCH  20  31
BRANCH  21  33
ATOM     33  O   UNL     1      20.416  26.826  21.513  1.00  0.00    -0.385 OA
ATOM     34  H   UNL     1      19.927  26.023  21.823  1.00  0.00     0.211 HD
ENDBRANCH  21  33
ENDBRANCH  15  16
ENDBRANCH  10  15
BRANCH  12  35
ATOM     35  O   UNL     1      26.919  23.430  18.697  1.00  0.00    -0.385 OA
ATOM     36  H   UNL     1      27.104  23.891  19.545  1.00  0.00     0.211 HD
ENDBRANCH  12  35
BRANCH  13  37
ATOM     37  O   UNL     1      25.136  23.468  15.861  1.00  0.00    -0.387 OA
ATOM     38  H   UNL     1      25.273  22.499  15.863  1.00  0.00     0.211 HD
ENDBRANCH  13  37
BRANCH  14  39
ATOM     39  O   UNL     1      25.819  25.746  14.982  1.00  0.00    -0.387 OA
ATOM     40  H   UNL     1      24.836  25.862  14.976  1.00  0.00     0.211 HD
ENDBRANCH  14  39
ENDBRANCH   8   9
ENDBRANCH   7   8
ENDBRANCH   1   7
BRANCH   1  41
ATOM     41  C   UNL     1      22.448  26.719  15.658  1.00  0.00     0.364 C 
ATOM     42  O   UNL     1      22.700  26.405  14.492  1.00  0.00    -0.246 OA
BRANCH  41  43
ATOM     43  O   UNL     1      22.002  25.828  16.602  1.00  0.00    -0.477 OA
ATOM     44  H   UNL     1      22.460  24.917  16.747  1.00  0.00     0.296 HD
ENDBRANCH  41  43
ENDBRANCH   1  41
BRANCH   3  45
ATOM     45  O   UNL     1      22.444  31.365  14.836  1.00  0.00    -0.391 OA
ATOM     46  H   UNL     1      21.991  32.205  14.602  1.00  0.00     0.211 HD
ENDBRANCH   3  45
BRANCH   5  47
ATOM     47  C   UNL     1      20.059  29.144  18.548  1.00  0.00     0.176 C 
BRANCH  47  48
ATOM     48  O   UNL     1      19.487  27.943  18.835  1.00  0.00    -0.388 OA
ATOM     49  H   UNL     1      19.889  27.242  18.270  1.00  0.00     0.211 HD
ENDBRANCH  47  48
BRANCH  47  50
ATOM     50  C   UNL     1      20.857  29.872  19.503  1.00  0.00     0.165 C 
BRANCH  50  51
ATOM     51  O   UNL     1      22.186  29.404  19.695  1.00  0.00    -0.388 OA
ATOM     52  H   UNL     1      22.357  29.492  20.653  1.00  0.00     0.211 HD
ENDBRANCH  50  51
BRANCH  50  53
ATOM     53  C   UNL     1      20.406  30.253  20.851  1.00  0.00     0.154 C 
BRANCH  53  54
ATOM     54  N   UNL     1      19.293  29.625  21.405  1.00  0.00    -0.319 N 
ATOM     55  C   UNL     1      18.151  30.246  21.932  1.00  0.00     0.407 C 
ATOM     56  H   UNL     1      19.292  28.548  21.442  1.00  0.00     0.167 HD
ATOM     57  O   UNL     1      18.013  31.480  21.934  1.00  0.00    -0.225 OA
BRANCH  55  58
ATOM     58  O   UNL     1      17.121  29.445  22.478  1.00  0.00    -0.443 OA
BRANCH  58  59
ATOM     59  C   UNL     1      15.896  29.413  21.790  1.00  0.00     0.294 C 
BRANCH  59  60
ATOM     60  C   UNL     1      16.117  28.971  20.392  1.00  0.00     0.121 A 
ATOM     61  C   UNL     1      15.919  29.652  19.206  1.00  0.00     0.144 A 
ATOM     62  N   UNL     1      16.593  27.758  20.052  1.00  0.00    -0.131 NA
ATOM     63  N   UNL     1      16.279  28.836  18.209  1.00  0.00    -0.220 N 
ATOM     64  N   UNL     1      16.686  27.684  18.751  1.00  0.00    -0.062 NA
BRANCH  63  65
ATOM     65  C   UNL     1      16.291  29.014  16.800  1.00  0.00     0.067 A 
ATOM     66  C   UNL     1      17.377  28.769  16.004  1.00  0.00     0.032 A 
ATOM     67  C   UNL     1      15.135  29.477  16.174  1.00  0.00     0.032 A 
ATOM     68  C   UNL     1      17.324  28.975  14.633  1.00  0.00     0.048 A 
ATOM     69  C   UNL     1      15.082  29.682  14.810  1.00  0.00     0.048 A 
ATOM     70  C   UNL     1      16.178  29.434  14.010  1.00  0.00     0.119 A 
BRANCH  70  71
ATOM     71  O   UNL     1      16.139  29.640  12.617  1.00  0.00    -0.497 OA
ATOM     72  C   UNL     1      14.957  30.256  12.085  1.00  0.00     0.278 C 
ENDBRANCH  70  71
ENDBRANCH  63  65
ENDBRANCH  59  60
ENDBRANCH  58  59
ENDBRANCH  55  58
ENDBRANCH  53  54
ENDBRANCH  50  53
ENDBRANCH  47  50
ENDBRANCH   5  47
BRANCH   4  73
ATOM     73  N   UNL     1      20.493  31.626  16.946  1.00  0.00    -0.348 N 
ATOM     74  C   UNL     1      21.091  32.842  17.367  1.00  0.00     0.217 C 
ATOM     75  H   UNL     1      19.477  31.602  16.753  1.00  0.00     0.163 HD
ATOM     76  C   UNL     1      20.255  34.054  17.573  1.00  0.00     0.114 C 
ATOM     77  O   UNL     1      22.326  32.954  17.584  1.00  0.00    -0.275 OA
ENDBRANCH   4  73
TORSDOF 31
