REMARK VINA RESULT:    -6.207      0.000      0.000
REMARK INTER + INTRA:         -21.875
REMARK INTER:                 -14.896
REMARK INTRA:                  -6.979
REMARK UNBOUND:                -6.597
REMARK SMILES CC(=O)N[C@@H]1[C@@H](O)C[C@](OC[C@H]2O[C@@H](O[C@H]3[C@H](O)[C@@H](O)[C@H](OCCN=[N+]=[N-])O[C@@H]3CO)[C@H](O)[C@@H](O)[C@H]2O)(C(=O)O)O[C@H]1C(O)[C@H](O)CNC(=O)OCc1cn(-c2ccccc2)nn1
REMARK SMILES IDX 9 1 8 2 6 3 5 4 42 5 41 6 10 7 11 8 12 9 14 10 13 11 32 12
REMARK SMILES IDX 34 13 36 14 15 15 16 16 29 17 28 18 21 19 17 20 19 21 30 22
REMARK SMILES IDX 31 23 22 25 23 26 24 27 25 28 26 29 27 30 18 31 20 33 33 35
REMARK SMILES IDX 35 37 37 39 38 41 39 42 40 43 7 45 43 47 44 48 45 50 46 51
REMARK SMILES IDX 47 53 48 54 49 55 50 57 51 58 52 59 53 60 54 61 63 62 55 63
REMARK SMILES IDX 62 64 56 65 57 66 61 67 58 68 60 69 59 70 4 71 2 72 1 74
REMARK SMILES IDX 3 75
REMARK H PARENT 31 24 18 32 20 34 33 36 35 38 37 40 40 44 7 46 44 49 46 52
REMARK H PARENT 48 56 4 73
REMARK Flexibility Score: inf
ROOT
ATOM      1  C   UNL     1      14.071  30.499  19.317  1.00  0.00     0.272 C 
ATOM      2  C   UNL     1      14.075  29.825  17.996  1.00  0.00     0.113 C 
ATOM      3  C   UNL     1      15.317  29.996  17.203  1.00  0.00     0.145 C 
ATOM      4  C   UNL     1      16.539  29.876  18.094  1.00  0.00     0.142 C 
ATOM      5  C   UNL     1      16.386  30.939  19.158  1.00  0.00     0.178 C 
ATOM      6  O   UNL     1      15.350  30.521  19.952  1.00  0.00    -0.332 OA
ENDROOT
BRANCH   1   7
ATOM      7  O   UNL     1      13.296  29.908  20.273  1.00  0.00    -0.338 OA
BRANCH   7   8
ATOM      8  C   UNL     1      13.752  29.409  21.406  1.00  0.00     0.199 C 
BRANCH   8   9
ATOM      9  C   UNL     1      12.997  29.451  22.677  1.00  0.00     0.179 C 
ATOM     10  C   UNL     1      13.345  30.033  24.910  1.00  0.00     0.282 C 
ATOM     11  O   UNL     1      13.975  29.755  23.677  1.00  0.00    -0.341 OA
ATOM     12  C   UNL     1      11.877  29.764  24.924  1.00  0.00     0.202 C 
ATOM     13  C   UNL     1      11.161  30.568  23.861  1.00  0.00     0.179 C 
ATOM     14  C   UNL     1      12.056  30.663  22.660  1.00  0.00     0.177 C 
BRANCH  10  15
ATOM     15  O   UNL     1      13.561  31.330  25.197  1.00  0.00    -0.341 OA
BRANCH  15  16
ATOM     16  C   UNL     1      14.568  31.733  25.994  1.00  0.00     0.184 C 
ATOM     17  C   UNL     1      14.775  33.228  26.068  1.00  0.00     0.178 C 
ATOM     18  O   UNL     1      16.122  33.405  26.440  1.00  0.00    -0.341 OA
ATOM     19  C   UNL     1      16.851  33.297  25.236  1.00  0.00     0.281 C 
ATOM     20  C   UNL     1      15.906  31.085  25.639  1.00  0.00     0.180 C 
ATOM     21  C   UNL     1      16.639  31.930  24.617  1.00  0.00     0.202 C 
BRANCH  17  22
ATOM     22  C   UNL     1      13.935  33.875  27.148  1.00  0.00     0.191 C 
BRANCH  22  23
ATOM     23  O   UNL     1      13.453  32.871  27.991  1.00  0.00    -0.394 OA
ATOM     24  H   UNL     1      12.462  32.731  27.863  1.00  0.00     0.210 HD
ENDBRANCH  22  23
ENDBRANCH  17  22
BRANCH  19  25
ATOM     25  O   UNL     1      18.185  33.493  25.420  1.00  0.00    -0.350 OA
BRANCH  25  26
ATOM     26  C   UNL     1      19.051  32.754  24.661  1.00  0.00     0.169 C 
BRANCH  26  27
ATOM     27  C   UNL     1      20.167  32.104  25.415  1.00  0.00     0.119 C 
BRANCH  27  28
ATOM     28  N   UNL     1      19.826  30.801  25.855  1.00  0.00    -0.092 NA
ATOM     29  N   UNL     1      19.872  29.815  25.097  1.00  0.00     0.001 N 
ATOM     30  N   UNL     1      19.654  29.040  24.151  1.00  0.00    -0.003 NA
ENDBRANCH  27  28
ENDBRANCH  26  27
ENDBRANCH  25  26
ENDBRANCH  19  25
BRANCH  20  31
ATOM     31  O   UNL     1      16.749  30.945  26.733  1.00  0.00    -0.387 OA
ATOM     32  H   UNL     1      16.383  31.394  27.534  1.00  0.00     0.211 HD
ENDBRANCH  20  31
BRANCH  21  33
ATOM     33  O   UNL     1      15.955  32.030  23.423  1.00  0.00    -0.385 OA
ATOM     34  H   UNL     1      16.527  32.276  22.661  1.00  0.00     0.211 HD
ENDBRANCH  21  33
ENDBRANCH  15  16
ENDBRANCH  10  15
BRANCH  12  35
ATOM     35  O   UNL     1      11.530  28.419  24.936  1.00  0.00    -0.385 OA
ATOM     36  H   UNL     1      12.285  27.915  24.535  1.00  0.00     0.211 HD
ENDBRANCH  12  35
BRANCH  13  37
ATOM     37  O   UNL     1      10.934  31.842  24.347  1.00  0.00    -0.387 OA
ATOM     38  H   UNL     1      11.198  31.971  25.292  1.00  0.00     0.211 HD
ENDBRANCH  13  37
BRANCH  14  39
ATOM     39  O   UNL     1      12.900  31.795  22.746  1.00  0.00    -0.387 OA
ATOM     40  H   UNL     1      13.751  31.573  23.176  1.00  0.00     0.211 HD
ENDBRANCH  14  39
ENDBRANCH   8   9
ENDBRANCH   7   8
ENDBRANCH   1   7
BRANCH   1  41
ATOM     41  C   UNL     1      13.794  31.943  19.145  1.00  0.00     0.364 C 
ATOM     42  O   UNL     1      13.849  32.734  20.085  1.00  0.00    -0.246 OA
BRANCH  41  43
ATOM     43  O   UNL     1      13.450  32.450  17.874  1.00  0.00    -0.477 OA
ATOM     44  H   UNL     1      12.463  32.575  17.658  1.00  0.00     0.296 HD
ENDBRANCH  41  43
ENDBRANCH   1  41
BRANCH   3  45
ATOM     45  O   UNL     1      15.345  29.062  16.169  1.00  0.00    -0.391 OA
ATOM     46  H   UNL     1      14.801  28.306  16.451  1.00  0.00     0.211 HD
ENDBRANCH   3  45
BRANCH   5  47
ATOM     47  C   UNL     1      17.619  31.002  20.054  1.00  0.00     0.176 C 
BRANCH  47  48
ATOM     48  O   UNL     1      17.435  32.019  20.951  1.00  0.00    -0.388 OA
ATOM     49  H   UNL     1      18.257  32.343  21.379  1.00  0.00     0.211 HD
ENDBRANCH  47  48
BRANCH  47  50
ATOM     50  C   UNL     1      18.010  29.737  20.696  1.00  0.00     0.165 C 
BRANCH  50  51
ATOM     51  O   UNL     1      17.636  29.857  22.071  1.00  0.00    -0.388 OA
ATOM     52  H   UNL     1      17.104  29.066  22.275  1.00  0.00     0.211 HD
ENDBRANCH  50  51
BRANCH  50  53
ATOM     53  C   UNL     1      19.538  29.574  20.763  1.00  0.00     0.154 C 
BRANCH  53  54
ATOM     54  N   UNL     1      19.944  28.206  20.555  1.00  0.00    -0.319 N 
ATOM     55  C   UNL     1      21.172  27.878  19.883  1.00  0.00     0.407 C 
ATOM     56  H   UNL     1      19.384  27.390  20.876  1.00  0.00     0.167 HD
ATOM     57  O   UNL     1      21.936  28.778  19.466  1.00  0.00    -0.225 OA
BRANCH  55  58
ATOM     58  O   UNL     1      21.542  26.561  19.682  1.00  0.00    -0.443 OA
BRANCH  58  59
ATOM     59  C   UNL     1      22.582  25.960  20.446  1.00  0.00     0.294 C 
BRANCH  59  60
ATOM     60  C   UNL     1      21.965  25.617  21.762  1.00  0.00     0.121 A 
ATOM     61  C   UNL     1      22.563  25.902  22.982  1.00  0.00     0.144 A 
ATOM     62  N   UNL     1      20.810  25.017  22.059  1.00  0.00    -0.131 NA
ATOM     63  N   UNL     1      21.755  25.466  23.983  1.00  0.00    -0.220 N 
ATOM     64  N   UNL     1      20.708  24.938  23.390  1.00  0.00    -0.062 NA
BRANCH  63  65
ATOM     65  C   UNL     1      22.000  25.561  25.377  1.00  0.00     0.066 A 
ATOM     66  C   UNL     1      21.595  26.651  26.112  1.00  0.00     0.028 A 
ATOM     67  C   UNL     1      22.654  24.541  26.031  1.00  0.00     0.028 A 
ATOM     68  C   UNL     1      21.824  26.747  27.468  1.00  0.00     0.002 A 
ATOM     69  C   UNL     1      22.882  24.641  27.395  1.00  0.00     0.002 A 
ATOM     70  C   UNL     1      22.486  25.721  28.145  1.00  0.00     0.000 A 
ENDBRANCH  63  65
ENDBRANCH  59  60
ENDBRANCH  58  59
ENDBRANCH  55  58
ENDBRANCH  53  54
ENDBRANCH  50  53
ENDBRANCH  47  50
ENDBRANCH   5  47
BRANCH   4  71
ATOM     71  N   UNL     1      17.747  29.896  17.349  1.00  0.00    -0.348 N 
ATOM     72  C   UNL     1      18.544  28.722  17.292  1.00  0.00     0.217 C 
ATOM     73  H   UNL     1      18.068  30.733  16.830  1.00  0.00     0.163 HD
ATOM     74  C   UNL     1      19.820  28.715  16.514  1.00  0.00     0.114 C 
ATOM     75  O   UNL     1      18.217  27.649  17.883  1.00  0.00    -0.275 OA
ENDBRANCH   4  71
TORSDOF 30
