REMARK VINA RESULT:    -6.097      3.134     10.857
REMARK INTER + INTRA:         -20.971
REMARK INTER:                 -14.601
REMARK INTRA:                  -6.370
REMARK UNBOUND:                -5.964
REMARK SMILES CC(=O)N[C@@H]1[C@@H](O)C[C@](OC[C@H]2O[C@@H](O[C@H]3[C@H](O)[C@@H](O)[C@H](OCCN=[N+]=[N-])O[C@@H]3CO)[C@H](O)[C@@H](O)[C@H]2O)(C(=O)O)O[C@H]1C(O)[C@H](O)CNC(=O)OCc1cn(C2CCN(C)CC2)nn1
REMARK SMILES IDX 9 1 8 2 6 3 5 4 42 5 41 6 10 7 11 8 12 9 14 10 13 11 32 12
REMARK SMILES IDX 34 13 36 14 15 15 16 16 29 17 28 18 21 19 17 20 19 21 30 22
REMARK SMILES IDX 31 23 22 25 23 26 24 27 25 28 26 29 27 30 18 31 20 33 33 35
REMARK SMILES IDX 35 37 37 39 38 41 39 42 40 43 7 45 43 47 44 48 45 50 46 51
REMARK SMILES IDX 47 53 48 54 49 55 50 57 51 58 52 59 53 60 54 61 64 62 55 63
REMARK SMILES IDX 63 64 56 65 57 66 62 67 58 68 61 69 59 70 60 71 4 72 2 73
REMARK SMILES IDX 1 75 3 76
REMARK H PARENT 31 24 18 32 20 34 33 36 35 38 37 40 40 44 7 46 44 49 46 52
REMARK H PARENT 48 56 4 74
REMARK Flexibility Score: inf
ROOT
ATOM      1  C   UNL     1      21.938  22.458  12.810  1.00  0.00     0.272 C 
ATOM      2  C   UNL     1      20.432  22.298  12.698  1.00  0.00     0.113 C 
ATOM      3  C   UNL     1      19.954  21.238  11.796  1.00  0.00     0.145 C 
ATOM      4  C   UNL     1      20.770  19.964  11.822  1.00  0.00     0.142 C 
ATOM      5  C   UNL     1      22.146  20.156  12.331  1.00  0.00     0.178 C 
ATOM      6  O   UNL     1      22.438  21.160  13.149  1.00  0.00    -0.332 OA
ENDROOT
BRANCH   1   7
ATOM      7  O   UNL     1      22.206  23.167  13.918  1.00  0.00    -0.338 OA
BRANCH   7   8
ATOM      8  C   UNL     1      23.210  23.204  14.726  1.00  0.00     0.199 C 
BRANCH   8   9
ATOM      9  C   UNL     1      24.273  24.259  14.703  1.00  0.00     0.179 C 
ATOM     10  C   UNL     1      25.446  24.166  16.781  1.00  0.00     0.282 C 
ATOM     11  O   UNL     1      24.457  24.657  15.998  1.00  0.00    -0.341 OA
ATOM     12  C   UNL     1      26.266  23.124  16.154  1.00  0.00     0.202 C 
ATOM     13  C   UNL     1      26.738  23.714  14.815  1.00  0.00     0.179 C 
ATOM     14  C   UNL     1      25.517  23.859  13.982  1.00  0.00     0.177 C 
BRANCH  10  15
ATOM     15  O   UNL     1      24.816  23.870  17.982  1.00  0.00    -0.341 OA
BRANCH  15  16
ATOM     16  C   UNL     1      24.461  24.888  18.767  1.00  0.00     0.184 C 
ATOM     17  C   UNL     1      24.948  24.699  20.162  1.00  0.00     0.178 C 
ATOM     18  O   UNL     1      24.930  25.938  20.812  1.00  0.00    -0.341 OA
ATOM     19  C   UNL     1      23.631  26.355  20.986  1.00  0.00     0.281 C 
ATOM     20  C   UNL     1      22.941  25.052  18.928  1.00  0.00     0.180 C 
ATOM     21  C   UNL     1      22.783  26.333  19.742  1.00  0.00     0.202 C 
BRANCH  17  22
ATOM     22  C   UNL     1      26.261  24.006  20.291  1.00  0.00     0.191 C 
BRANCH  22  23
ATOM     23  O   UNL     1      26.349  23.446  21.558  1.00  0.00    -0.394 OA
ATOM     24  H   UNL     1      26.426  24.136  22.265  1.00  0.00     0.210 HD
ENDBRANCH  22  23
ENDBRANCH  17  22
BRANCH  19  25
ATOM     25  O   UNL     1      23.696  27.698  21.381  1.00  0.00    -0.350 OA
BRANCH  25  26
ATOM     26  C   UNL     1      23.392  27.910  22.702  1.00  0.00     0.169 C 
BRANCH  26  27
ATOM     27  C   UNL     1      21.972  28.385  22.930  1.00  0.00     0.119 C 
BRANCH  27  28
ATOM     28  N   UNL     1      21.179  27.360  23.581  1.00  0.00    -0.092 NA
ATOM     29  N   UNL     1      20.793  27.499  24.741  1.00  0.00     0.001 N 
ATOM     30  N   UNL     1      20.744  27.291  25.955  1.00  0.00    -0.003 NA
ENDBRANCH  27  28
ENDBRANCH  26  27
ENDBRANCH  25  26
ENDBRANCH  19  25
BRANCH  20  31
ATOM     31  O   UNL     1      22.292  25.259  17.741  1.00  0.00    -0.387 OA
ATOM     32  H   UNL     1      21.433  24.784  17.757  1.00  0.00     0.211 HD
ENDBRANCH  20  31
BRANCH  21  33
ATOM     33  O   UNL     1      21.460  26.505  20.063  1.00  0.00    -0.385 OA
ATOM     34  H   UNL     1      20.914  26.771  19.305  1.00  0.00     0.211 HD
ENDBRANCH  21  33
ENDBRANCH  15  16
ENDBRANCH  10  15
BRANCH  12  35
ATOM     35  O   UNL     1      27.460  22.835  16.812  1.00  0.00    -0.385 OA
ATOM     36  H   UNL     1      27.276  22.506  17.727  1.00  0.00     0.211 HD
ENDBRANCH  12  35
BRANCH  13  37
ATOM     37  O   UNL     1      27.709  22.952  14.215  1.00  0.00    -0.387 OA
ATOM     38  H   UNL     1      28.318  22.625  14.925  1.00  0.00     0.211 HD
ENDBRANCH  13  37
BRANCH  14  39
ATOM     39  O   UNL     1      25.288  22.653  13.324  1.00  0.00    -0.387 OA
ATOM     40  H   UNL     1      25.729  21.886  13.755  1.00  0.00     0.211 HD
ENDBRANCH  14  39
ENDBRANCH   8   9
ENDBRANCH   7   8
ENDBRANCH   1   7
BRANCH   1  41
ATOM     41  C   UNL     1      22.474  22.833  11.510  1.00  0.00     0.364 C 
ATOM     42  O   UNL     1      21.708  23.547  10.744  1.00  0.00    -0.246 OA
BRANCH  41  43
ATOM     43  O   UNL     1      23.680  22.555  10.925  1.00  0.00    -0.477 OA
ATOM     44  H   UNL     1      23.968  22.898  10.008  1.00  0.00     0.296 HD
ENDBRANCH  41  43
ENDBRANCH   1  41
BRANCH   3  45
ATOM     45  O   UNL     1      18.607  20.916  12.143  1.00  0.00    -0.391 OA
ATOM     46  H   UNL     1      18.254  21.552  12.801  1.00  0.00     0.211 HD
ENDBRANCH   3  45
BRANCH   5  47
ATOM     47  C   UNL     1      22.669  18.856  13.005  1.00  0.00     0.176 C 
BRANCH  47  48
ATOM     48  O   UNL     1      23.087  19.153  14.295  1.00  0.00    -0.388 OA
ATOM     49  H   UNL     1      22.352  19.416  14.887  1.00  0.00     0.211 HD
ENDBRANCH  47  48
BRANCH  47  50
ATOM     50  C   UNL     1      23.733  18.253  12.210  1.00  0.00     0.165 C 
BRANCH  50  51
ATOM     51  O   UNL     1      23.133  17.117  11.539  1.00  0.00    -0.388 OA
ATOM     52  H   UNL     1      23.161  17.272  10.564  1.00  0.00     0.211 HD
ENDBRANCH  50  51
BRANCH  50  53
ATOM     53  C   UNL     1      24.970  17.775  12.839  1.00  0.00     0.154 C 
BRANCH  53  54
ATOM     54  N   UNL     1      25.935  18.630  13.389  1.00  0.00    -0.319 N 
ATOM     55  C   UNL     1      26.924  19.370  12.695  1.00  0.00     0.407 C 
ATOM     56  H   UNL     1      25.936  18.743  14.460  1.00  0.00     0.167 HD
ATOM     57  O   UNL     1      26.999  19.350  11.452  1.00  0.00    -0.225 OA
BRANCH  55  58
ATOM     58  O   UNL     1      27.837  20.141  13.450  1.00  0.00    -0.443 OA
BRANCH  58  59
ATOM     59  C   UNL     1      28.960  19.507  14.008  1.00  0.00     0.294 C 
BRANCH  59  60
ATOM     60  C   UNL     1      29.112  19.960  15.411  1.00  0.00     0.120 A 
ATOM     61  C   UNL     1      28.656  19.274  16.551  1.00  0.00     0.138 A 
ATOM     62  N   UNL     1      29.692  21.060  15.913  1.00  0.00    -0.132 NA
ATOM     63  N   UNL     1      28.973  19.970  17.656  1.00  0.00    -0.249 N 
ATOM     64  N   UNL     1      29.597  21.042  17.242  1.00  0.00    -0.067 NA
BRANCH  63  65
ATOM     65  C   UNL     1      28.679  19.596  19.019  1.00  0.00     0.111 C 
ATOM     66  C   UNL     1      29.862  18.836  19.549  1.00  0.00     0.043 C 
ATOM     67  C   UNL     1      28.422  20.790  19.896  1.00  0.00     0.043 C 
ATOM     68  C   UNL     1      30.666  19.736  20.458  1.00  0.00     0.086 C 
ATOM     69  C   UNL     1      28.578  20.492  21.363  1.00  0.00     0.086 C 
ATOM     70  N   UNL     1      29.883  19.948  21.675  1.00  0.00    -0.306 NA
ATOM     71  C   UNL     1      29.718  18.657  22.321  1.00  0.00     0.105 C 
ENDBRANCH  63  65
ENDBRANCH  59  60
ENDBRANCH  58  59
ENDBRANCH  55  58
ENDBRANCH  53  54
ENDBRANCH  50  53
ENDBRANCH  47  50
ENDBRANCH   5  47
BRANCH   4  72
ATOM     72  N   UNL     1      20.769  19.303  10.532  1.00  0.00    -0.348 N 
ATOM     73  C   UNL     1      19.761  18.356  10.242  1.00  0.00     0.217 C 
ATOM     74  H   UNL     1      21.493  19.503   9.800  1.00  0.00     0.163 HD
ATOM     75  C   UNL     1      19.716  17.642   8.924  1.00  0.00     0.114 C 
ATOM     76  O   UNL     1      18.867  18.094  11.109  1.00  0.00    -0.275 OA
ENDBRANCH   4  72
TORSDOF 30
