REMARK VINA RESULT:    -6.510      5.674     10.935
REMARK INTER + INTRA:         -22.126
REMARK INTER:                 -14.841
REMARK INTRA:                  -7.285
REMARK UNBOUND:                -5.152
REMARK SMILES CC(=O)N[C@@H]1[C@@H](O)C[C@](OC[C@H]2O[C@@H](O[C@H]3[C@H](O)[C@@H](O)[C@H](OCCN=[N+]=[N-])O[C@@H]3CO)[C@H](O)[C@@H](O)[C@H]2O)(C(=O)O)O[C@H]1C(O)[C@H](O)CNC(=O)OCc1cn(CC(O)c2ccccc2)nn1
REMARK SMILES IDX 9 1 8 2 6 3 5 4 42 5 41 6 10 7 11 8 12 9 14 10 13 11 32 12
REMARK SMILES IDX 34 13 36 14 15 15 16 16 29 17 28 18 21 19 17 20 19 21 30 22
REMARK SMILES IDX 31 23 22 25 23 26 24 27 25 28 26 29 27 30 18 31 20 33 33 35
REMARK SMILES IDX 35 37 37 39 38 41 39 42 40 43 7 45 43 47 44 48 45 50 46 51
REMARK SMILES IDX 47 53 48 54 49 55 50 57 51 58 52 59 53 60 54 61 66 62 55 63
REMARK SMILES IDX 65 64 56 65 57 66 58 67 59 69 60 70 64 71 61 72 63 73 62 74
REMARK SMILES IDX 4 75 2 76 1 78 3 79
REMARK H PARENT 31 24 18 32 20 34 33 36 35 38 37 40 40 44 7 46 44 49 46 52
REMARK H PARENT 48 56 58 68 4 77
REMARK Flexibility Score: inf
ROOT
ATOM      1  C   UNL     1      19.667  29.423  20.053  1.00  0.00     0.272 C 
ATOM      2  C   UNL     1      19.702  30.515  19.051  1.00  0.00     0.113 C 
ATOM      3  C   UNL     1      20.574  31.681  19.358  1.00  0.00     0.145 C 
ATOM      4  C   UNL     1      20.957  31.641  20.803  1.00  0.00     0.142 C 
ATOM      5  C   UNL     1      19.740  31.181  21.587  1.00  0.00     0.178 C 
ATOM      6  O   UNL     1      19.324  29.915  21.317  1.00  0.00    -0.332 OA
ENDROOT
BRANCH   1   7
ATOM      7  O   UNL     1      20.793  28.672  20.213  1.00  0.00    -0.338 OA
BRANCH   7   8
ATOM      8  C   UNL     1      20.927  27.947  21.356  1.00  0.00     0.199 C 
BRANCH   8   9
ATOM      9  C   UNL     1      22.292  27.303  21.443  1.00  0.00     0.179 C 
ATOM     10  C   UNL     1      23.514  26.085  22.965  1.00  0.00     0.282 C 
ATOM     11  O   UNL     1      22.676  27.149  22.760  1.00  0.00    -0.341 OA
ATOM     12  C   UNL     1      22.907  24.731  22.673  1.00  0.00     0.202 C 
ATOM     13  C   UNL     1      21.939  24.892  21.522  1.00  0.00     0.179 C 
ATOM     14  C   UNL     1      22.448  26.037  20.670  1.00  0.00     0.177 C 
BRANCH  10  15
ATOM     15  O   UNL     1      23.954  26.015  24.283  1.00  0.00    -0.341 OA
BRANCH  15  16
ATOM     16  C   UNL     1      23.116  26.562  25.215  1.00  0.00     0.184 C 
ATOM     17  C   UNL     1      23.884  27.699  25.880  1.00  0.00     0.178 C 
ATOM     18  O   UNL     1      24.405  27.306  27.095  1.00  0.00    -0.341 OA
ATOM     19  C   UNL     1      25.093  26.095  26.897  1.00  0.00     0.281 C 
ATOM     20  C   UNL     1      22.786  25.458  26.212  1.00  0.00     0.180 C 
ATOM     21  C   UNL     1      24.044  24.989  26.925  1.00  0.00     0.202 C 
BRANCH  17  22
ATOM     22  C   UNL     1      23.012  28.935  26.011  1.00  0.00     0.191 C 
BRANCH  22  23
ATOM     23  O   UNL     1      21.881  28.845  25.205  1.00  0.00    -0.394 OA
ATOM     24  H   UNL     1      21.490  27.932  25.210  1.00  0.00     0.210 HD
ENDBRANCH  22  23
ENDBRANCH  17  22
BRANCH  19  25
ATOM     25  O   UNL     1      26.010  25.989  27.913  1.00  0.00    -0.350 OA
BRANCH  25  26
ATOM     26  C   UNL     1      25.659  26.599  29.094  1.00  0.00     0.169 C 
BRANCH  26  27
ATOM     27  C   UNL     1      25.730  25.703  30.300  1.00  0.00     0.119 C 
BRANCH  27  28
ATOM     28  N   UNL     1      24.430  25.058  30.517  1.00  0.00    -0.092 NA
ATOM     29  N   UNL     1      23.450  25.795  30.326  1.00  0.00     0.001 N 
ATOM     30  N   UNL     1      22.351  26.272  30.045  1.00  0.00    -0.003 NA
ENDBRANCH  27  28
ENDBRANCH  26  27
ENDBRANCH  25  26
ENDBRANCH  19  25
BRANCH  20  31
ATOM     31  O   UNL     1      21.847  25.905  27.130  1.00  0.00    -0.387 OA
ATOM     32  H   UNL     1      22.214  25.818  28.055  1.00  0.00     0.211 HD
ENDBRANCH  20  31
BRANCH  21  33
ATOM     33  O   UNL     1      24.508  23.803  26.387  1.00  0.00    -0.385 OA
ATOM     34  H   UNL     1      24.090  23.060  26.887  1.00  0.00     0.211 HD
ENDBRANCH  21  33
ENDBRANCH  15  16
ENDBRANCH  10  15
BRANCH  12  35
ATOM     35  O   UNL     1      23.932  23.857  22.293  1.00  0.00    -0.385 OA
ATOM     36  H   UNL     1      24.493  23.694  23.100  1.00  0.00     0.211 HD
ENDBRANCH  12  35
BRANCH  13  37
ATOM     37  O   UNL     1      20.706  25.201  22.092  1.00  0.00    -0.387 OA
ATOM     38  H   UNL     1      20.750  25.860  22.806  1.00  0.00     0.211 HD
ENDBRANCH  13  37
BRANCH  14  39
ATOM     39  O   UNL     1      21.909  26.079  19.406  1.00  0.00    -0.387 OA
ATOM     40  H   UNL     1      21.797  25.187  18.987  1.00  0.00     0.211 HD
ENDBRANCH  14  39
ENDBRANCH   8   9
ENDBRANCH   7   8
ENDBRANCH   1   7
BRANCH   1  41
ATOM     41  C   UNL     1      18.475  28.559  19.669  1.00  0.00     0.364 C 
ATOM     42  O   UNL     1      17.541  28.431  20.444  1.00  0.00    -0.246 OA
BRANCH  41  43
ATOM     43  O   UNL     1      18.537  27.958  18.425  1.00  0.00    -0.477 OA
ATOM     44  H   UNL     1      19.301  27.334  18.264  1.00  0.00     0.296 HD
ENDBRANCH  41  43
ENDBRANCH   1  41
BRANCH   3  45
ATOM     45  O   UNL     1      21.667  31.760  18.494  1.00  0.00    -0.391 OA
ATOM     46  H   UNL     1      22.348  32.314  18.967  1.00  0.00     0.211 HD
ENDBRANCH   3  45
BRANCH   5  47
ATOM     47  C   UNL     1      20.056  31.451  23.036  1.00  0.00     0.176 C 
BRANCH  47  48
ATOM     48  O   UNL     1      21.333  30.940  23.316  1.00  0.00    -0.388 OA
ATOM     49  H   UNL     1      21.696  30.600  22.452  1.00  0.00     0.211 HD
ENDBRANCH  47  48
BRANCH  47  50
ATOM     50  C   UNL     1      19.016  30.909  23.959  1.00  0.00     0.165 C 
BRANCH  50  51
ATOM     51  O   UNL     1      19.068  29.546  24.078  1.00  0.00    -0.388 OA
ATOM     52  H   UNL     1      19.173  29.213  24.983  1.00  0.00     0.211 HD
ENDBRANCH  50  51
BRANCH  50  53
ATOM     53  C   UNL     1      17.641  31.495  23.769  1.00  0.00     0.154 C 
BRANCH  53  54
ATOM     54  N   UNL     1      16.633  30.581  23.320  1.00  0.00    -0.319 N 
ATOM     55  C   UNL     1      15.615  30.024  24.148  1.00  0.00     0.407 C 
ATOM     56  H   UNL     1      16.618  30.285  22.291  1.00  0.00     0.167 HD
ATOM     57  O   UNL     1      15.542  30.323  25.352  1.00  0.00    -0.225 OA
BRANCH  55  58
ATOM     58  O   UNL     1      14.686  29.142  23.641  1.00  0.00    -0.443 OA
BRANCH  58  59
ATOM     59  C   UNL     1      13.469  29.556  23.022  1.00  0.00     0.294 C 
BRANCH  59  60
ATOM     60  C   UNL     1      13.647  29.570  21.535  1.00  0.00     0.120 A 
ATOM     61  C   UNL     1      13.357  30.552  20.624  1.00  0.00     0.138 A 
ATOM     62  N   UNL     1      14.172  28.541  20.835  1.00  0.00    -0.132 NA
ATOM     63  N   UNL     1      13.711  30.111  19.380  1.00  0.00    -0.249 N 
ATOM     64  N   UNL     1      14.190  28.905  19.577  1.00  0.00    -0.067 NA
BRANCH  63  65
ATOM     65  C   UNL     1      13.569  30.859  18.140  1.00  0.00     0.182 C 
BRANCH  65  66
ATOM     66  C   UNL     1      14.938  31.146  17.549  1.00  0.00     0.166 C 
BRANCH  66  67
ATOM     67  O   UNL     1      15.839  30.961  18.624  1.00  0.00    -0.386 OA
ATOM     68  H   UNL     1      15.571  31.541  19.389  1.00  0.00     0.211 HD
ENDBRANCH  66  67
BRANCH  66  69
ATOM     69  C   UNL     1      15.302  30.278  16.425  1.00  0.00    -0.018 A 
ATOM     70  C   UNL     1      14.414  29.879  15.475  1.00  0.00     0.006 A 
ATOM     71  C   UNL     1      16.641  29.861  16.395  1.00  0.00     0.006 A 
ATOM     72  C   UNL     1      14.861  29.043  14.464  1.00  0.00     0.000 A 
ATOM     73  C   UNL     1      17.057  29.034  15.387  1.00  0.00     0.000 A 
ATOM     74  C   UNL     1      16.168  28.620  14.415  1.00  0.00     0.000 A 
ENDBRANCH  66  69
ENDBRANCH  65  66
ENDBRANCH  63  65
ENDBRANCH  59  60
ENDBRANCH  58  59
ENDBRANCH  55  58
ENDBRANCH  53  54
ENDBRANCH  50  53
ENDBRANCH  47  50
ENDBRANCH   5  47
BRANCH   4  75
ATOM     75  N   UNL     1      21.228  33.002  21.294  1.00  0.00    -0.348 N 
ATOM     76  C   UNL     1      22.523  33.576  21.263  1.00  0.00     0.217 C 
ATOM     77  H   UNL     1      20.454  33.580  21.684  1.00  0.00     0.163 HD
ATOM     78  C   UNL     1      22.835  34.944  21.748  1.00  0.00     0.114 C 
ATOM     79  O   UNL     1      23.465  32.880  20.791  1.00  0.00    -0.275 OA
ENDBRANCH   4  75
TORSDOF 33
