REMARK VINA RESULT:    -6.102      3.573      9.113
REMARK INTER + INTRA:         -20.236
REMARK INTER:                 -13.302
REMARK INTRA:                  -6.934
REMARK UNBOUND:                -5.215
REMARK SMILES CC(=O)N[C@@H]1[C@@H](O)C[C@](OC[C@H]2O[C@@H](O[C@H]3[C@H](O)[C@@H](O)[C@H](OCCN=[N+]=[N-])O[C@@H]3CO)[C@H](O)[C@@H](O)[C@H]2O)(C(=O)O)O[C@H]1C(O)[C@H](O)CNC(=O)OCc1cn(C2CCCC2)nn1
REMARK SMILES IDX 9 1 8 2 6 3 5 4 42 5 41 6 10 7 11 8 12 9 14 10 13 11 32 12
REMARK SMILES IDX 34 13 36 14 15 15 16 16 29 17 28 18 21 19 17 20 19 21 30 22
REMARK SMILES IDX 31 23 22 25 23 26 24 27 25 28 26 29 27 30 18 31 20 33 33 35
REMARK SMILES IDX 35 37 37 39 38 41 39 42 40 43 7 45 43 47 44 48 45 50 46 51
REMARK SMILES IDX 47 53 48 54 49 55 50 57 51 58 52 59 53 60 54 61 62 62 55 63
REMARK SMILES IDX 61 64 56 65 57 66 60 67 58 68 59 69 4 70 2 71 1 73 3 74
REMARK H PARENT 31 24 18 32 20 34 33 36 35 38 37 40 40 44 7 46 44 49 46 52
REMARK H PARENT 48 56 4 72
REMARK Flexibility Score: inf
ROOT
ATOM      1  C   UNL     1      14.442  30.297  20.464  1.00  0.00     0.272 C 
ATOM      2  C   UNL     1      13.092  30.906  20.546  1.00  0.00     0.113 C 
ATOM      3  C   UNL     1      13.088  32.382  20.742  1.00  0.00     0.145 C 
ATOM      4  C   UNL     1      14.038  32.770  21.901  1.00  0.00     0.142 C 
ATOM      5  C   UNL     1      14.620  31.512  22.442  1.00  0.00     0.178 C 
ATOM      6  O   UNL     1      15.342  30.964  21.326  1.00  0.00    -0.332 OA
ENDROOT
BRANCH   1   7
ATOM      7  O   UNL     1      14.977  30.309  19.226  1.00  0.00    -0.338 OA
BRANCH   7   8
ATOM      8  C   UNL     1      14.213  29.934  18.151  1.00  0.00     0.199 C 
BRANCH   8   9
ATOM      9  C   UNL     1      14.656  30.783  16.962  1.00  0.00     0.179 C 
ATOM     10  C   UNL     1      16.494  29.613  16.141  1.00  0.00     0.282 C 
ATOM     11  O   UNL     1      15.995  30.763  16.739  1.00  0.00    -0.341 OA
ATOM     12  C   UNL     1      15.542  28.964  15.197  1.00  0.00     0.202 C 
ATOM     13  C   UNL     1      14.500  29.882  14.640  1.00  0.00     0.179 C 
ATOM     14  C   UNL     1      13.775  30.518  15.800  1.00  0.00     0.177 C 
BRANCH  10  15
ATOM     15  O   UNL     1      17.037  28.738  17.079  1.00  0.00    -0.341 OA
BRANCH  15  16
ATOM     16  C   UNL     1      18.296  29.151  17.516  1.00  0.00     0.184 C 
ATOM     17  C   UNL     1      19.437  28.492  16.819  1.00  0.00     0.178 C 
ATOM     18  O   UNL     1      20.626  28.925  17.401  1.00  0.00    -0.341 OA
ATOM     19  C   UNL     1      20.813  28.291  18.616  1.00  0.00     0.281 C 
ATOM     20  C   UNL     1      18.379  28.744  18.982  1.00  0.00     0.180 C 
ATOM     21  C   UNL     1      19.757  28.849  19.552  1.00  0.00     0.202 C 
BRANCH  17  22
ATOM     22  C   UNL     1      19.557  28.874  15.347  1.00  0.00     0.191 C 
BRANCH  22  23
ATOM     23  O   UNL     1      20.819  28.409  14.942  1.00  0.00    -0.394 OA
ATOM     24  H   UNL     1      20.738  27.648  14.343  1.00  0.00     0.210 HD
ENDBRANCH  22  23
ENDBRANCH  17  22
BRANCH  19  25
ATOM     25  O   UNL     1      22.053  28.657  19.131  1.00  0.00    -0.350 OA
BRANCH  25  26
ATOM     26  C   UNL     1      22.834  27.509  19.349  1.00  0.00     0.169 C 
BRANCH  26  27
ATOM     27  C   UNL     1      23.968  27.440  18.341  1.00  0.00     0.119 C 
BRANCH  27  28
ATOM     28  N   UNL     1      23.881  26.250  17.547  1.00  0.00    -0.092 NA
ATOM     29  N   UNL     1      23.020  26.113  16.654  1.00  0.00     0.001 N 
ATOM     30  N   UNL     1      21.919  25.859  16.171  1.00  0.00    -0.003 NA
ENDBRANCH  27  28
ENDBRANCH  26  27
ENDBRANCH  25  26
ENDBRANCH  19  25
BRANCH  20  31
ATOM     31  O   UNL     1      17.546  29.619  19.675  1.00  0.00    -0.387 OA
ATOM     32  H   UNL     1      16.728  29.181  20.019  1.00  0.00     0.211 HD
ENDBRANCH  20  31
BRANCH  21  33
ATOM     33  O   UNL     1      19.803  28.074  20.721  1.00  0.00    -0.385 OA
ATOM     34  H   UNL     1      20.549  28.448  21.258  1.00  0.00     0.211 HD
ENDBRANCH  21  33
ENDBRANCH  15  16
ENDBRANCH  10  15
BRANCH  12  35
ATOM     35  O   UNL     1      16.220  28.425  14.078  1.00  0.00    -0.385 OA
ATOM     36  H   UNL     1      16.684  29.163  13.640  1.00  0.00     0.211 HD
ENDBRANCH  12  35
BRANCH  13  37
ATOM     37  O   UNL     1      13.589  29.151  13.902  1.00  0.00    -0.387 OA
ATOM     38  H   UNL     1      13.637  28.216  14.201  1.00  0.00     0.211 HD
ENDBRANCH  13  37
BRANCH  14  39
ATOM     39  O   UNL     1      12.661  29.743  16.095  1.00  0.00    -0.387 OA
ATOM     40  H   UNL     1      11.853  30.061  15.667  1.00  0.00     0.211 HD
ENDBRANCH  14  39
ENDBRANCH   8   9
ENDBRANCH   7   8
ENDBRANCH   1   7
BRANCH   1  41
ATOM     41  C   UNL     1      14.374  28.903  21.047  1.00  0.00     0.364 C 
ATOM     42  O   UNL     1      13.308  28.381  21.409  1.00  0.00    -0.246 OA
BRANCH  41  43
ATOM     43  O   UNL     1      15.596  28.233  21.158  1.00  0.00    -0.477 OA
ATOM     44  H   UNL     1      15.987  27.777  20.324  1.00  0.00     0.296 HD
ENDBRANCH  41  43
ENDBRANCH   1  41
BRANCH   3  45
ATOM     45  O   UNL     1      13.321  33.136  19.620  1.00  0.00    -0.391 OA
ATOM     46  H   UNL     1      13.546  34.061  19.871  1.00  0.00     0.211 HD
ENDBRANCH   3  45
BRANCH   5  47
ATOM     47  C   UNL     1      15.682  31.694  23.497  1.00  0.00     0.176 C 
BRANCH  47  48
ATOM     48  O   UNL     1      16.353  32.942  23.158  1.00  0.00    -0.388 OA
ATOM     49  H   UNL     1      17.303  32.684  23.178  1.00  0.00     0.211 HD
ENDBRANCH  47  48
BRANCH  47  50
ATOM     50  C   UNL     1      16.820  30.714  23.460  1.00  0.00     0.165 C 
BRANCH  50  51
ATOM     51  O   UNL     1      16.589  29.453  23.881  1.00  0.00    -0.388 OA
ATOM     52  H   UNL     1      16.860  28.739  23.263  1.00  0.00     0.211 HD
ENDBRANCH  50  51
BRANCH  50  53
ATOM     53  C   UNL     1      17.954  31.289  24.301  1.00  0.00     0.154 C 
BRANCH  53  54
ATOM     54  N   UNL     1      19.200  31.164  23.533  1.00  0.00    -0.319 N 
ATOM     55  C   UNL     1      19.961  29.968  23.566  1.00  0.00     0.407 C 
ATOM     56  H   UNL     1      19.561  31.956  22.941  1.00  0.00     0.167 HD
ATOM     57  O   UNL     1      19.555  29.004  24.266  1.00  0.00    -0.225 OA
BRANCH  55  58
ATOM     58  O   UNL     1      21.131  29.836  22.853  1.00  0.00    -0.443 OA
BRANCH  58  59
ATOM     59  C   UNL     1      22.395  29.734  23.481  1.00  0.00     0.294 C 
BRANCH  59  60
ATOM     60  C   UNL     1      22.934  28.355  23.483  1.00  0.00     0.120 A 
ATOM     61  C   UNL     1      22.312  27.148  23.254  1.00  0.00     0.138 A 
ATOM     62  N   UNL     1      24.223  28.038  23.731  1.00  0.00    -0.132 NA
ATOM     63  N   UNL     1      23.212  26.168  23.367  1.00  0.00    -0.249 N 
ATOM     64  N   UNL     1      24.365  26.746  23.657  1.00  0.00    -0.067 NA
BRANCH  63  65
ATOM     65  C   UNL     1      23.014  24.732  23.209  1.00  0.00     0.109 C 
ATOM     66  C   UNL     1      21.941  24.398  22.226  1.00  0.00     0.027 C 
ATOM     67  C   UNL     1      24.273  24.139  22.613  1.00  0.00     0.027 C 
ATOM     68  C   UNL     1      22.597  24.188  20.886  1.00  0.00     0.002 C 
ATOM     69  C   UNL     1      24.084  24.135  21.126  1.00  0.00     0.002 C 
ENDBRANCH  63  65
ENDBRANCH  59  60
ENDBRANCH  58  59
ENDBRANCH  55  58
ENDBRANCH  53  54
ENDBRANCH  50  53
ENDBRANCH  47  50
ENDBRANCH   5  47
BRANCH   4  70
ATOM     70  N   UNL     1      13.306  33.597  22.833  1.00  0.00    -0.348 N 
ATOM     71  C   UNL     1      13.235  35.029  22.628  1.00  0.00     0.217 C 
ATOM     72  H   UNL     1      12.794  33.223  23.658  1.00  0.00     0.163 HD
ATOM     73  C   UNL     1      12.489  35.897  23.572  1.00  0.00     0.114 C 
ATOM     74  O   UNL     1      13.807  35.567  21.641  1.00  0.00    -0.275 OA
ENDBRANCH   4  70
TORSDOF 30
