REMARK VINA RESULT:    -6.291      8.356     14.219
REMARK INTER + INTRA:         -23.003
REMARK INTER:                 -15.184
REMARK INTRA:                  -7.819
REMARK UNBOUND:                -6.784
REMARK SMILES COc1ccc(Cn2cc(COC(=O)NC[C@@H](O)C(O)[C@@H]3O[C@@](OC[C@H]4O[C@@H](O[C@H]5[C@H](O)[C@@H](O)[C@H](OCCN=[N+]=[N-])O[C@@H]5CO)[C@H](O)[C@@H](O)[C@H]4O)(C(=O)O)C[C@H](O)[C@H]3NC(C)=O)nn2)cc1
REMARK SMILES IDX 23 1 55 2 56 3 58 4 21 5 22 6 24 7 25 8 26 9 28 10 27 11
REMARK SMILES IDX 46 12 48 13 50 14 29 15 30 16 43 17 42 18 35 19 31 20 33 21
REMARK SMILES IDX 44 22 45 23 36 25 37 26 38 27 39 28 40 29 41 30 32 31 34 33
REMARK SMILES IDX 47 35 49 37 51 39 52 41 53 42 54 43 57 45 19 47 20 48 17 50
REMARK SMILES IDX 18 51 16 53 15 54 13 55 14 57 12 58 11 59 10 60 9 61 63 62
REMARK SMILES IDX 8 63 64 64 7 65 6 66 5 67 65 68 4 69 66 70 3 71 2 72 1 73
REMARK SMILES IDX 59 74 60 75 61 77 62 78
REMARK H PARENT 45 24 32 32 34 34 47 36 49 38 51 40 54 44 57 46 20 49 18 52
REMARK H PARENT 15 56 59 76
REMARK Flexibility Score: inf
ROOT
ATOM      1  C   UNL     1      13.294  30.809  24.028  1.00  0.00     0.272 C 
ATOM      2  C   UNL     1      12.951  32.229  24.428  1.00  0.00     0.113 C 
ATOM      3  C   UNL     1      12.968  32.356  25.938  1.00  0.00     0.145 C 
ATOM      4  C   UNL     1      14.168  31.727  26.582  1.00  0.00     0.142 C 
ATOM      5  C   UNL     1      15.073  31.006  25.597  1.00  0.00     0.178 C 
ATOM      6  O   UNL     1      14.351  30.293  24.659  1.00  0.00    -0.332 OA
ENDROOT
BRANCH   1   7
ATOM      7  O   UNL     1      13.182  30.614  22.693  1.00  0.00    -0.338 OA
BRANCH   7   8
ATOM      8  C   UNL     1      13.871  31.307  21.780  1.00  0.00     0.199 C 
BRANCH   8   9
ATOM      9  C   UNL     1      14.584  30.428  20.776  1.00  0.00     0.179 C 
ATOM     10  C   UNL     1      16.058  30.657  19.056  1.00  0.00     0.282 C 
ATOM     11  O   UNL     1      15.807  31.045  20.390  1.00  0.00    -0.341 OA
ATOM     12  C   UNL     1      15.753  29.222  18.830  1.00  0.00     0.202 C 
ATOM     13  C   UNL     1      15.581  28.369  20.040  1.00  0.00     0.179 C 
ATOM     14  C   UNL     1      14.940  29.061  21.226  1.00  0.00     0.177 C 
BRANCH  10  15
ATOM     15  O   UNL     1      17.256  31.130  18.601  1.00  0.00    -0.341 OA
BRANCH  15  16
ATOM     16  C   UNL     1      18.380  30.406  18.936  1.00  0.00     0.184 C 
ATOM     17  C   UNL     1      19.406  31.160  19.746  1.00  0.00     0.178 C 
ATOM     18  O   UNL     1      20.689  30.670  19.503  1.00  0.00    -0.341 OA
ATOM     19  C   UNL     1      20.701  29.293  19.216  1.00  0.00     0.281 C 
ATOM     20  C   UNL     1      19.108  30.158  17.601  1.00  0.00     0.180 C 
ATOM     21  C   UNL     1      20.057  29.017  17.845  1.00  0.00     0.202 C 
BRANCH  17  22
ATOM     22  C   UNL     1      19.196  31.121  21.227  1.00  0.00     0.191 C 
BRANCH  22  23
ATOM     23  O   UNL     1      18.131  31.953  21.565  1.00  0.00    -0.394 OA
ATOM     24  H   UNL     1      17.652  31.521  22.328  1.00  0.00     0.210 HD
ENDBRANCH  22  23
ENDBRANCH  17  22
BRANCH  19  25
ATOM     25  O   UNL     1      20.151  28.511  20.179  1.00  0.00    -0.350 OA
BRANCH  25  26
ATOM     26  C   UNL     1      20.932  27.615  20.841  1.00  0.00     0.169 C 
BRANCH  26  27
ATOM     27  C   UNL     1      22.084  28.135  21.616  1.00  0.00     0.119 C 
BRANCH  27  28
ATOM     28  N   UNL     1      21.885  28.180  23.023  1.00  0.00    -0.092 NA
ATOM     29  N   UNL     1      20.886  28.662  23.576  1.00  0.00     0.001 N 
ATOM     30  N   UNL     1      19.804  28.707  24.205  1.00  0.00    -0.003 NA
ENDBRANCH  27  28
ENDBRANCH  26  27
ENDBRANCH  25  26
ENDBRANCH  19  25
BRANCH  20  31
ATOM     31  O   UNL     1      18.240  29.971  16.561  1.00  0.00    -0.387 OA
ATOM     32  H   UNL     1      17.954  30.845  16.142  1.00  0.00     0.211 HD
ENDBRANCH  20  31
BRANCH  21  33
ATOM     33  O   UNL     1      21.018  28.926  16.838  1.00  0.00    -0.385 OA
ATOM     34  H   UNL     1      21.596  29.733  16.871  1.00  0.00     0.211 HD
ENDBRANCH  21  33
ENDBRANCH  15  16
ENDBRANCH  10  15
BRANCH  12  35
ATOM     35  O   UNL     1      14.653  29.046  17.951  1.00  0.00    -0.385 OA
ATOM     36  H   UNL     1      13.830  29.442  18.373  1.00  0.00     0.211 HD
ENDBRANCH  12  35
BRANCH  13  37
ATOM     37  O   UNL     1      16.794  27.743  20.416  1.00  0.00    -0.387 OA
ATOM     38  H   UNL     1      16.584  27.072  21.115  1.00  0.00     0.211 HD
ENDBRANCH  13  37
BRANCH  14  39
ATOM     39  O   UNL     1      15.772  29.047  22.341  1.00  0.00    -0.387 OA
ATOM     40  H   UNL     1      15.266  28.965  23.186  1.00  0.00     0.211 HD
ENDBRANCH  14  39
ENDBRANCH   8   9
ENDBRANCH   7   8
ENDBRANCH   1   7
BRANCH   1  41
ATOM     41  C   UNL     1      12.015  30.038  24.496  1.00  0.00     0.364 C 
ATOM     42  O   UNL     1      10.886  30.450  24.151  1.00  0.00    -0.246 OA
BRANCH  41  43
ATOM     43  O   UNL     1      12.066  28.929  25.267  1.00  0.00    -0.477 OA
ATOM     44  H   UNL     1      11.706  28.779  26.176  1.00  0.00     0.296 HD
ENDBRANCH  41  43
ENDBRANCH   1  41
BRANCH   3  45
ATOM     45  O   UNL     1      12.989  33.765  26.155  1.00  0.00    -0.391 OA
ATOM     46  H   UNL     1      13.466  34.217  25.413  1.00  0.00     0.211 HD
ENDBRANCH   3  45
BRANCH   5  47
ATOM     47  C   UNL     1      16.075  31.981  25.114  1.00  0.00     0.176 C 
BRANCH  47  48
ATOM     48  O   UNL     1      16.831  31.519  23.997  1.00  0.00    -0.388 OA
ATOM     49  H   UNL     1      17.030  30.570  24.150  1.00  0.00     0.211 HD
ENDBRANCH  47  48
BRANCH  47  50
ATOM     50  C   UNL     1      17.268  32.187  26.093  1.00  0.00     0.165 C 
BRANCH  50  51
ATOM     51  O   UNL     1      17.297  33.317  26.807  1.00  0.00    -0.388 OA
ATOM     52  H   UNL     1      16.417  33.771  26.802  1.00  0.00     0.211 HD
ENDBRANCH  50  51
BRANCH  50  53
ATOM     53  C   UNL     1      18.551  32.023  25.249  1.00  0.00     0.154 C 
BRANCH  53  54
ATOM     54  N   UNL     1      19.479  31.107  25.825  1.00  0.00    -0.319 N 
ATOM     55  C   UNL     1      20.402  31.568  26.819  1.00  0.00     0.407 C 
ATOM     56  H   UNL     1      19.507  30.121  25.543  1.00  0.00     0.167 HD
ATOM     57  O   UNL     1      20.372  32.780  27.170  1.00  0.00    -0.225 OA
BRANCH  55  58
ATOM     58  O   UNL     1      21.293  30.657  27.359  1.00  0.00    -0.443 OA
BRANCH  58  59
ATOM     59  C   UNL     1      20.811  29.374  27.801  1.00  0.00     0.294 C 
BRANCH  59  60
ATOM     60  C   UNL     1      21.650  28.330  27.177  1.00  0.00     0.120 A 
ATOM     61  C   UNL     1      21.385  26.957  27.125  1.00  0.00     0.138 A 
ATOM     62  N   UNL     1      22.824  28.490  26.555  1.00  0.00    -0.132 NA
ATOM     63  N   UNL     1      22.407  26.381  26.482  1.00  0.00    -0.248 N 
ATOM     64  N   UNL     1      23.273  27.323  26.141  1.00  0.00    -0.067 NA
BRANCH  63  65
ATOM     65  C   UNL     1      22.548  24.973  26.207  1.00  0.00     0.181 C 
BRANCH  65  66
ATOM     66  C   UNL     1      22.495  24.759  24.744  1.00  0.00    -0.026 A 
ATOM     67  C   UNL     1      21.264  24.729  24.096  1.00  0.00     0.009 A 
ATOM     68  C   UNL     1      23.618  24.601  23.974  1.00  0.00     0.009 A 
ATOM     69  C   UNL     1      21.157  24.550  22.733  1.00  0.00     0.047 A 
ATOM     70  C   UNL     1      23.508  24.419  22.591  1.00  0.00     0.047 A 
ATOM     71  C   UNL     1      22.296  24.391  21.958  1.00  0.00     0.118 A 
BRANCH  71  72
ATOM     72  O   UNL     1      22.137  24.215  20.596  1.00  0.00    -0.497 OA
ATOM     73  C   UNL     1      22.962  24.771  19.614  1.00  0.00     0.278 C 
ENDBRANCH  71  72
ENDBRANCH  65  66
ENDBRANCH  63  65
ENDBRANCH  59  60
ENDBRANCH  58  59
ENDBRANCH  55  58
ENDBRANCH  53  54
ENDBRANCH  50  53
ENDBRANCH  47  50
ENDBRANCH   5  47
BRANCH   4  74
ATOM     74  N   UNL     1      13.887  30.921  27.751  1.00  0.00    -0.348 N 
ATOM     75  C   UNL     1      13.506  31.441  29.018  1.00  0.00     0.217 C 
ATOM     76  H   UNL     1      13.978  29.897  27.682  1.00  0.00     0.163 HD
ATOM     77  C   UNL     1      13.242  30.502  30.174  1.00  0.00     0.114 C 
ATOM     78  O   UNL     1      13.390  32.680  29.175  1.00  0.00    -0.275 OA
ENDBRANCH   4  74
TORSDOF 32
