REMARK VINA RESULT:    -6.171      6.032     12.071
REMARK INTER + INTRA:         -22.577
REMARK INTER:                 -15.558
REMARK INTRA:                  -7.019
REMARK UNBOUND:                -7.387
REMARK SMILES CC(=O)N[C@@H]1[C@@H](O)C[C@](OC[C@H]2O[C@@H](O[C@H]3[C@H](O)[C@@H](O)[C@H](OCCN=[N+]=[N-])O[C@@H]3CO)[C@H](O)[C@@H](O)[C@H]2O)(C(=O)O)O[C@H]1C(O)[C@H](O)CNC(=O)OCc1cn(C23CC4CC(CC(C4)C2)C3)nn1
REMARK SMILES IDX 9 1 8 2 6 3 5 4 42 5 41 6 10 7 11 8 12 9 14 10 13 11 32 12
REMARK SMILES IDX 34 13 36 14 15 15 16 16 29 17 28 18 21 19 17 20 19 21 30 22
REMARK SMILES IDX 31 23 22 25 23 26 24 27 25 28 26 29 27 30 18 31 20 33 33 35
REMARK SMILES IDX 35 37 37 39 38 41 39 42 40 43 7 45 43 47 44 48 45 50 46 51
REMARK SMILES IDX 47 53 48 54 49 55 50 57 51 58 52 59 53 60 54 61 67 62 55 63
REMARK SMILES IDX 66 64 56 65 65 66 64 67 57 68 60 69 62 70 58 71 59 72 61 73
REMARK SMILES IDX 63 74 4 75 2 76 1 78 3 79
REMARK H PARENT 31 24 18 32 20 34 33 36 35 38 37 40 40 44 7 46 44 49 46 52
REMARK H PARENT 48 56 4 77
REMARK Flexibility Score: inf
ROOT
ATOM      1  C   UNL     1      23.620  23.819  12.530  1.00  0.00     0.272 C 
ATOM      2  C   UNL     1      24.554  22.809  13.103  1.00  0.00     0.113 C 
ATOM      3  C   UNL     1      24.003  22.242  14.397  1.00  0.00     0.145 C 
ATOM      4  C   UNL     1      24.180  23.364  15.429  1.00  0.00     0.142 C 
ATOM      5  C   UNL     1      23.689  24.610  14.754  1.00  0.00     0.178 C 
ATOM      6  O   UNL     1      22.914  24.412  13.639  1.00  0.00    -0.332 OA
ENDROOT
BRANCH   1   7
ATOM      7  O   UNL     1      22.655  23.385  11.731  1.00  0.00    -0.338 OA
BRANCH   7   8
ATOM      8  C   UNL     1      22.715  22.656  10.646  1.00  0.00     0.199 C 
BRANCH   8   9
ATOM      9  C   UNL     1      22.003  21.356  10.473  1.00  0.00     0.179 C 
ATOM     10  C   UNL     1      21.616  19.304  11.301  1.00  0.00     0.282 C 
ATOM     11  O   UNL     1      22.327  20.490  11.579  1.00  0.00    -0.341 OA
ATOM     12  C   UNL     1      20.271  19.486  11.925  1.00  0.00     0.202 C 
ATOM     13  C   UNL     1      19.877  20.939  11.738  1.00  0.00     0.179 C 
ATOM     14  C   UNL     1      20.487  21.526  10.489  1.00  0.00     0.177 C 
BRANCH  10  15
ATOM     15  O   UNL     1      22.315  18.188  11.746  1.00  0.00    -0.341 OA
BRANCH  15  16
ATOM     16  C   UNL     1      23.651  18.462  11.761  1.00  0.00     0.184 C 
ATOM     17  C   UNL     1      24.518  17.692  10.832  1.00  0.00     0.178 C 
ATOM     18  O   UNL     1      25.718  18.432  10.715  1.00  0.00    -0.341 OA
ATOM     19  C   UNL     1      26.473  18.355  11.909  1.00  0.00     0.281 C 
ATOM     20  C   UNL     1      24.267  18.253  13.149  1.00  0.00     0.180 C 
ATOM     21  C   UNL     1      25.668  18.753  13.100  1.00  0.00     0.202 C 
BRANCH  17  22
ATOM     22  C   UNL     1      23.951  17.363   9.503  1.00  0.00     0.191 C 
BRANCH  22  23
ATOM     23  O   UNL     1      23.951  18.541   8.738  1.00  0.00    -0.394 OA
ATOM     24  H   UNL     1      23.477  19.278   9.204  1.00  0.00     0.210 HD
ENDBRANCH  22  23
ENDBRANCH  17  22
BRANCH  19  25
ATOM     25  O   UNL     1      27.492  19.264  11.740  1.00  0.00    -0.350 OA
BRANCH  25  26
ATOM     26  C   UNL     1      27.188  20.563  11.917  1.00  0.00     0.169 C 
BRANCH  26  27
ATOM     27  C   UNL     1      28.307  21.347  12.525  1.00  0.00     0.119 C 
BRANCH  27  28
ATOM     28  N   UNL     1      27.869  21.980  13.775  1.00  0.00    -0.092 NA
ATOM     29  N   UNL     1      27.682  21.251  14.740  1.00  0.00     0.001 N 
ATOM     30  N   UNL     1      27.199  20.662  15.730  1.00  0.00    -0.003 NA
ENDBRANCH  27  28
ENDBRANCH  26  27
ENDBRANCH  25  26
ENDBRANCH  19  25
BRANCH  20  31
ATOM     31  O   UNL     1      23.570  18.964  14.124  1.00  0.00    -0.387 OA
ATOM     32  H   UNL     1      22.755  19.339  13.724  1.00  0.00     0.211 HD
ENDBRANCH  20  31
BRANCH  21  33
ATOM     33  O   UNL     1      26.305  18.294  14.252  1.00  0.00    -0.385 OA
ATOM     34  H   UNL     1      26.362  17.319  14.253  1.00  0.00     0.211 HD
ENDBRANCH  21  33
ENDBRANCH  15  16
ENDBRANCH  10  15
BRANCH  12  35
ATOM     35  O   UNL     1      19.293  18.626  11.493  1.00  0.00    -0.385 OA
ATOM     36  H   UNL     1      19.470  17.712  11.819  1.00  0.00     0.211 HD
ENDBRANCH  12  35
BRANCH  13  37
ATOM     37  O   UNL     1      20.158  21.716  12.855  1.00  0.00    -0.387 OA
ATOM     38  H   UNL     1      20.366  22.658  12.553  1.00  0.00     0.211 HD
ENDBRANCH  13  37
BRANCH  14  39
ATOM     39  O   UNL     1      20.216  22.887  10.480  1.00  0.00    -0.387 OA
ATOM     40  H   UNL     1      20.867  23.395  11.031  1.00  0.00     0.211 HD
ENDBRANCH  14  39
ENDBRANCH   8   9
ENDBRANCH   7   8
ENDBRANCH   1   7
BRANCH   1  41
ATOM     41  C   UNL     1      24.379  24.965  12.004  1.00  0.00     0.364 C 
ATOM     42  O   UNL     1      23.904  26.001  11.520  1.00  0.00    -0.246 OA
BRANCH  41  43
ATOM     43  O   UNL     1      25.797  24.830  12.073  1.00  0.00    -0.477 OA
ATOM     44  H   UNL     1      26.209  24.622  12.957  1.00  0.00     0.296 HD
ENDBRANCH  41  43
ENDBRANCH   1  41
BRANCH   3  45
ATOM     45  O   UNL     1      22.638  22.022  14.260  1.00  0.00    -0.391 OA
ATOM     46  H   UNL     1      22.340  21.528  15.065  1.00  0.00     0.211 HD
ENDBRANCH   3  45
BRANCH   5  47
ATOM     47  C   UNL     1      22.736  25.421  15.713  1.00  0.00     0.176 C 
BRANCH  47  48
ATOM     48  O   UNL     1      21.587  24.603  15.693  1.00  0.00    -0.388 OA
ATOM     49  H   UNL     1      20.843  25.209  15.454  1.00  0.00     0.211 HD
ENDBRANCH  47  48
BRANCH  47  50
ATOM     50  C   UNL     1      22.431  26.728  15.134  1.00  0.00     0.165 C 
BRANCH  50  51
ATOM     51  O   UNL     1      23.208  27.095  14.020  1.00  0.00    -0.388 OA
ATOM     52  H   UNL     1      23.462  28.062  14.108  1.00  0.00     0.211 HD
ENDBRANCH  50  51
BRANCH  50  53
ATOM     53  C   UNL     1      22.337  27.888  16.050  1.00  0.00     0.154 C 
BRANCH  53  54
ATOM     54  N   UNL     1      21.229  27.867  16.932  1.00  0.00    -0.319 N 
ATOM     55  C   UNL     1      19.926  28.328  16.699  1.00  0.00     0.407 C 
ATOM     56  H   UNL     1      21.431  27.435  17.920  1.00  0.00     0.167 HD
ATOM     57  O   UNL     1      19.616  28.850  15.616  1.00  0.00    -0.225 OA
BRANCH  55  58
ATOM     58  O   UNL     1      18.963  28.184  17.727  1.00  0.00    -0.443 OA
BRANCH  58  59
ATOM     59  C   UNL     1      17.800  28.968  17.651  1.00  0.00     0.294 C 
BRANCH  59  60
ATOM     60  C   UNL     1      16.963  28.727  18.837  1.00  0.00     0.120 A 
ATOM     61  C   UNL     1      16.237  29.681  19.503  1.00  0.00     0.138 A 
ATOM     62  N   UNL     1      16.748  27.568  19.484  1.00  0.00    -0.132 NA
ATOM     63  N   UNL     1      15.614  29.076  20.518  1.00  0.00    -0.246 N 
ATOM     64  N   UNL     1      15.942  27.799  20.482  1.00  0.00    -0.066 NA
BRANCH  63  65
ATOM     65  C   UNL     1      14.746  29.772  21.448  1.00  0.00     0.065 C 
ATOM     66  C   UNL     1      15.396  29.779  22.796  1.00  0.00     0.034 C 
ATOM     67  C   UNL     1      14.434  31.160  20.929  1.00  0.00     0.034 C 
ATOM     68  C   UNL     1      13.426  29.032  21.565  1.00  0.00     0.034 C 
ATOM     69  C   UNL     1      14.542  30.524  23.790  1.00  0.00    -0.008 C 
ATOM     70  C   UNL     1      13.640  31.905  21.960  1.00  0.00    -0.008 C 
ATOM     71  C   UNL     1      12.562  29.798  22.539  1.00  0.00    -0.008 C 
ATOM     72  C   UNL     1      13.205  29.834  23.897  1.00  0.00     0.007 C 
ATOM     73  C   UNL     1      14.357  31.932  23.275  1.00  0.00     0.007 C 
ATOM     74  C   UNL     1      12.293  31.210  22.099  1.00  0.00     0.007 C 
ENDBRANCH  63  65
ENDBRANCH  59  60
ENDBRANCH  58  59
ENDBRANCH  55  58
ENDBRANCH  53  54
ENDBRANCH  50  53
ENDBRANCH  47  50
ENDBRANCH   5  47
BRANCH   4  75
ATOM     75  N   UNL     1      25.614  23.481  15.720  1.00  0.00    -0.348 N 
ATOM     76  C   UNL     1      26.076  23.884  17.003  1.00  0.00     0.217 C 
ATOM     77  H   UNL     1      26.321  23.270  14.973  1.00  0.00     0.163 HD
ATOM     78  C   UNL     1      27.553  24.005  17.280  1.00  0.00     0.114 C 
ATOM     79  O   UNL     1      25.227  24.132  17.887  1.00  0.00    -0.275 OA
ENDBRANCH   4  75
TORSDOF 30
