REMARK VINA RESULT:    -5.036      4.322      9.066
REMARK INTER + INTRA:         -21.773
REMARK INTER:                 -14.776
REMARK INTRA:                  -6.997
REMARK UNBOUND:                -8.936
REMARK SMILES CC(=O)N[C@@H]1[C@@H](O)C[C@](OC[C@H]2O[C@@H](O[C@H]3[C@H](O)[C@@H](O)[C@H](OCCN=[N+]=[N-])O[C@@H]3CO)[C@H](O)[C@@H](O)[C@H]2O)(C(=O)O)O[C@H]1C(O)[C@H](O)CNC(=O)OCc1cn(-c2ccc(S(N)(=O)=O)cc2)nn1
REMARK SMILES IDX 9 1 8 2 6 3 5 4 42 5 41 6 10 7 11 8 12 9 14 10 13 11 32 12
REMARK SMILES IDX 34 13 36 14 15 15 16 16 29 17 28 18 21 19 17 20 19 21 30 22
REMARK SMILES IDX 31 23 22 25 23 26 24 27 25 28 26 29 27 30 18 31 20 33 33 35
REMARK SMILES IDX 35 37 37 39 38 41 39 42 40 43 7 45 43 47 44 48 45 50 46 51
REMARK SMILES IDX 47 53 48 54 49 55 50 57 51 58 52 59 53 60 54 61 67 62 55 63
REMARK SMILES IDX 66 64 56 65 57 66 65 67 58 68 64 69 59 70 60 71 62 72 63 73
REMARK SMILES IDX 61 74 4 77 2 78 1 80 3 81
REMARK H PARENT 31 24 18 32 20 34 33 36 35 38 37 40 40 44 7 46 44 49 46 52
REMARK H PARENT 48 56 61 75 61 76 4 79
REMARK Flexibility Score: inf
ROOT
ATOM      1  C   UNL     1      22.682  25.522  22.045  1.00  0.00     0.272 C 
ATOM      2  C   UNL     1      23.105  24.081  22.372  1.00  0.00     0.113 C 
ATOM      3  C   UNL     1      24.557  23.857  22.139  1.00  0.00     0.145 C 
ATOM      4  C   UNL     1      24.975  24.581  20.885  1.00  0.00     0.142 C 
ATOM      5  C   UNL     1      23.681  24.783  20.088  1.00  0.00     0.178 C 
ATOM      6  O   UNL     1      22.999  25.809  20.739  1.00  0.00    -0.332 OA
ENDROOT
BRANCH   1   7
ATOM      7  O   UNL     1      23.325  26.319  22.983  1.00  0.00    -0.338 OA
BRANCH   7   8
ATOM      8  C   UNL     1      23.721  27.540  22.515  1.00  0.00     0.199 C 
BRANCH   8   9
ATOM      9  C   UNL     1      23.182  28.604  23.487  1.00  0.00     0.179 C 
ATOM     10  C   UNL     1      21.180  28.990  24.633  1.00  0.00     0.282 C 
ATOM     11  O   UNL     1      21.827  28.514  23.451  1.00  0.00    -0.341 OA
ATOM     12  C   UNL     1      21.605  28.004  25.683  1.00  0.00     0.202 C 
ATOM     13  C   UNL     1      23.087  28.185  25.987  1.00  0.00     0.179 C 
ATOM     14  C   UNL     1      23.866  28.599  24.793  1.00  0.00     0.177 C 
BRANCH  10  15
ATOM     15  O   UNL     1      19.849  28.940  24.406  1.00  0.00    -0.341 OA
BRANCH  15  16
ATOM     16  C   UNL     1      19.266  30.164  23.984  1.00  0.00     0.184 C 
ATOM     17  C   UNL     1      20.099  30.725  22.925  1.00  0.00     0.178 C 
ATOM     18  O   UNL     1      20.305  32.089  22.943  1.00  0.00    -0.341 OA
ATOM     19  C   UNL     1      19.357  32.847  23.570  1.00  0.00     0.281 C 
ATOM     20  C   UNL     1      19.043  31.048  25.189  1.00  0.00     0.180 C 
ATOM     21  C   UNL     1      19.376  32.480  25.030  1.00  0.00     0.202 C 
BRANCH  17  22
ATOM     22  C   UNL     1      19.639  30.383  21.523  1.00  0.00     0.191 C 
BRANCH  22  23
ATOM     23  O   UNL     1      19.702  29.013  21.308  1.00  0.00    -0.394 OA
ATOM     24  H   UNL     1      18.803  28.608  21.226  1.00  0.00     0.210 HD
ENDBRANCH  22  23
ENDBRANCH  17  22
BRANCH  19  25
ATOM     25  O   UNL     1      18.095  32.810  23.027  1.00  0.00    -0.350 OA
BRANCH  25  26
ATOM     26  C   UNL     1      17.332  33.864  23.515  1.00  0.00     0.169 C 
BRANCH  26  27
ATOM     27  C   UNL     1      15.875  33.411  23.545  1.00  0.00     0.119 C 
BRANCH  27  28
ATOM     28  N   UNL     1      15.278  33.734  22.279  1.00  0.00    -0.092 NA
ATOM     29  N   UNL     1      15.294  32.937  21.314  1.00  0.00     0.001 N 
ATOM     30  N   UNL     1      15.751  32.516  20.238  1.00  0.00    -0.003 NA
ENDBRANCH  27  28
ENDBRANCH  26  27
ENDBRANCH  25  26
ENDBRANCH  19  25
BRANCH  20  31
ATOM     31  O   UNL     1      17.722  30.963  25.637  1.00  0.00    -0.387 OA
ATOM     32  H   UNL     1      17.654  31.388  26.523  1.00  0.00     0.211 HD
ENDBRANCH  20  31
BRANCH  21  33
ATOM     33  O   UNL     1      20.592  32.851  25.592  1.00  0.00    -0.385 OA
ATOM     34  H   UNL     1      20.361  33.116  26.540  1.00  0.00     0.211 HD
ENDBRANCH  21  33
ENDBRANCH  15  16
ENDBRANCH  10  15
BRANCH  12  35
ATOM     35  O   UNL     1      20.828  27.964  26.803  1.00  0.00    -0.385 OA
ATOM     36  H   UNL     1      20.109  28.623  26.842  1.00  0.00     0.211 HD
ENDBRANCH  12  35
BRANCH  13  37
ATOM     37  O   UNL     1      23.599  27.100  26.679  1.00  0.00    -0.387 OA
ATOM     38  H   UNL     1      24.418  27.273  27.186  1.00  0.00     0.211 HD
ENDBRANCH  13  37
BRANCH  14  39
ATOM     39  O   UNL     1      24.968  27.715  24.689  1.00  0.00    -0.387 OA
ATOM     40  H   UNL     1      25.652  28.218  24.159  1.00  0.00     0.211 HD
ENDBRANCH  14  39
ENDBRANCH   8   9
ENDBRANCH   7   8
ENDBRANCH   1   7
BRANCH   1  41
ATOM     41  C   UNL     1      21.190  25.522  22.286  1.00  0.00     0.364 C 
ATOM     42  O   UNL     1      20.438  26.328  21.686  1.00  0.00    -0.246 OA
BRANCH  41  43
ATOM     43  O   UNL     1      20.607  24.635  23.169  1.00  0.00    -0.477 OA
ATOM     44  H   UNL     1      21.019  23.720  23.267  1.00  0.00     0.296 HD
ENDBRANCH  41  43
ENDBRANCH   1  41
BRANCH   3  45
ATOM     45  O   UNL     1      25.259  24.263  23.271  1.00  0.00    -0.391 OA
ATOM     46  H   UNL     1      26.220  24.313  23.056  1.00  0.00     0.211 HD
ENDBRANCH   3  45
BRANCH   5  47
ATOM     47  C   UNL     1      23.980  25.210  18.676  1.00  0.00     0.176 C 
BRANCH  47  48
ATOM     48  O   UNL     1      24.517  24.215  17.886  1.00  0.00    -0.388 OA
ATOM     49  H   UNL     1      24.342  23.306  18.236  1.00  0.00     0.211 HD
ENDBRANCH  47  48
BRANCH  47  50
ATOM     50  C   UNL     1      22.738  25.768  18.021  1.00  0.00     0.165 C 
BRANCH  50  51
ATOM     51  O   UNL     1      22.276  24.887  17.020  1.00  0.00    -0.388 OA
ATOM     52  H   UNL     1      22.133  25.385  16.165  1.00  0.00     0.211 HD
ENDBRANCH  50  51
BRANCH  50  53
ATOM     53  C   UNL     1      22.977  27.134  17.428  1.00  0.00     0.154 C 
BRANCH  53  54
ATOM     54  N   UNL     1      21.744  27.859  17.229  1.00  0.00    -0.319 N 
ATOM     55  C   UNL     1      21.196  28.620  18.294  1.00  0.00     0.407 C 
ATOM     56  H   UNL     1      21.231  27.848  16.326  1.00  0.00     0.167 HD
ATOM     57  O   UNL     1      21.807  28.641  19.402  1.00  0.00    -0.225 OA
BRANCH  55  58
ATOM     58  O   UNL     1      20.024  29.352  18.204  1.00  0.00    -0.443 OA
BRANCH  58  59
ATOM     59  C   UNL     1      18.931  28.940  17.420  1.00  0.00     0.294 C 
BRANCH  59  60
ATOM     60  C   UNL     1      17.827  28.507  18.318  1.00  0.00     0.121 A 
ATOM     61  C   UNL     1      17.235  29.282  19.323  1.00  0.00     0.144 A 
ATOM     62  N   UNL     1      17.174  27.334  18.378  1.00  0.00    -0.131 NA
ATOM     63  N   UNL     1      16.268  28.553  19.933  1.00  0.00    -0.220 N 
ATOM     64  N   UNL     1      16.251  27.392  19.350  1.00  0.00    -0.062 NA
BRANCH  63  65
ATOM     65  C   UNL     1      15.430  28.978  21.014  1.00  0.00     0.066 A 
ATOM     66  C   UNL     1      15.968  29.473  22.181  1.00  0.00     0.030 A 
ATOM     67  C   UNL     1      14.059  28.909  20.919  1.00  0.00     0.030 A 
ATOM     68  C   UNL     1      15.150  29.888  23.229  1.00  0.00     0.024 A 
ATOM     69  C   UNL     1      13.232  29.322  21.961  1.00  0.00     0.024 A 
ATOM     70  C   UNL     1      13.775  29.817  23.130  1.00  0.00     0.082 A 
BRANCH  70  71
ATOM     71  S   UNL     1      12.768  30.352  24.475  1.00  0.00     0.238 S 
ATOM     72  O   UNL     1      11.862  31.484  24.054  1.00  0.00    -0.207 OA
ATOM     73  O   UNL     1      11.889  29.234  24.947  1.00  0.00    -0.207 OA
BRANCH  71  74
ATOM     74  N   UNL     1      13.746  30.879  25.809  1.00  0.00    -0.225 NA
ATOM     75  H   UNL     1      13.802  31.936  25.758  1.00  0.00     0.137 HD
ATOM     76  H   UNL     1      14.705  30.461  25.786  1.00  0.00     0.137 HD
ENDBRANCH  71  74
ENDBRANCH  70  71
ENDBRANCH  63  65
ENDBRANCH  59  60
ENDBRANCH  58  59
ENDBRANCH  55  58
ENDBRANCH  53  54
ENDBRANCH  50  53
ENDBRANCH  47  50
ENDBRANCH   5  47
BRANCH   4  77
ATOM     77  N   UNL     1      25.960  23.889  20.098  1.00  0.00    -0.348 N 
ATOM     78  C   UNL     1      27.321  23.928  20.466  1.00  0.00     0.217 C 
ATOM     79  H   UNL     1      25.687  23.352  19.254  1.00  0.00     0.163 HD
ATOM     80  C   UNL     1      28.306  23.202  19.628  1.00  0.00     0.114 C 
ATOM     81  O   UNL     1      27.735  24.549  21.472  1.00  0.00    -0.275 OA
ENDBRANCH   4  77
TORSDOF 32
