REMARK VINA RESULT:    -6.006      2.496     10.318
REMARK INTER + INTRA:         -20.220
REMARK INTER:                 -15.094
REMARK INTRA:                  -5.126
REMARK UNBOUND:                -4.909
REMARK SMILES CC(=O)N[C@@H]1[C@@H](O)C[C@](OC[C@H]2O[C@@H](O[C@H]3[C@H](O)[C@@H](O)[C@H](OCCN=[N+]=[N-])O[C@@H]3CO)[C@H](O)[C@@H](O)[C@H]2O)(C(=O)O)O[C@H]1C(O)[C@H](O)CNC(=O)OCc1cn(CCO)nn1
REMARK SMILES IDX 9 1 8 2 6 3 5 4 42 5 41 6 10 7 11 8 12 9 14 10 13 11 32 12
REMARK SMILES IDX 34 13 36 14 15 15 16 16 29 17 28 18 21 19 17 20 19 21 30 22
REMARK SMILES IDX 31 23 22 25 23 26 24 27 25 28 26 29 27 30 18 31 20 33 33 35
REMARK SMILES IDX 35 37 37 39 38 41 39 42 40 43 7 45 43 47 44 48 45 50 46 51
REMARK SMILES IDX 47 53 48 54 49 55 50 57 51 58 52 59 53 60 54 61 60 62 55 63
REMARK SMILES IDX 59 64 56 65 57 66 58 67 4 69 2 70 1 72 3 73
REMARK H PARENT 31 24 18 32 20 34 33 36 35 38 37 40 40 44 7 46 44 49 46 52
REMARK H PARENT 48 56 58 68 4 71
REMARK Flexibility Score: inf
ROOT
ATOM      1  C   UNL     1       3.713  21.731  33.422  1.00  0.00     0.272 C 
ATOM      2  C   UNL     1       4.700  21.324  32.377  1.00  0.00     0.113 C 
ATOM      3  C   UNL     1       3.985  20.729  31.194  1.00  0.00     0.145 C 
ATOM      4  C   UNL     1       2.993  21.793  30.726  1.00  0.00     0.142 C 
ATOM      5  C   UNL     1       1.975  21.940  31.851  1.00  0.00     0.178 C 
ATOM      6  O   UNL     1       2.730  22.517  32.899  1.00  0.00    -0.332 OA
ENDROOT
BRANCH   1   7
ATOM      7  O   UNL     1       4.341  22.464  34.455  1.00  0.00    -0.338 OA
BRANCH   7   8
ATOM      8  C   UNL     1       3.637  23.512  34.948  1.00  0.00     0.199 C 
BRANCH   8   9
ATOM      9  C   UNL     1       4.564  24.687  35.295  1.00  0.00     0.179 C 
ATOM     10  C   UNL     1       6.793  25.328  35.344  1.00  0.00     0.282 C 
ATOM     11  O   UNL     1       5.879  24.282  35.220  1.00  0.00    -0.341 OA
ATOM     12  C   UNL     1       6.668  26.331  34.227  1.00  0.00     0.202 C 
ATOM     13  C   UNL     1       5.328  26.303  33.535  1.00  0.00     0.179 C 
ATOM     14  C   UNL     1       4.258  25.922  34.518  1.00  0.00     0.177 C 
BRANCH  10  15
ATOM     15  O   UNL     1       8.014  24.772  35.305  1.00  0.00    -0.341 OA
BRANCH  15  16
ATOM     16  C   UNL     1       8.492  24.053  36.333  1.00  0.00     0.184 C 
ATOM     17  C   UNL     1       8.616  24.600  37.684  1.00  0.00     0.178 C 
ATOM     18  O   UNL     1       9.737  24.091  38.317  1.00  0.00    -0.341 OA
ATOM     19  C   UNL     1      10.014  22.771  38.161  1.00  0.00     0.281 C 
ATOM     20  C   UNL     1       9.920  23.637  35.894  1.00  0.00     0.180 C 
ATOM     21  C   UNL     1      10.208  22.380  36.688  1.00  0.00     0.202 C 
BRANCH  17  22
ATOM     22  C   UNL     1       7.416  24.300  38.577  1.00  0.00     0.191 C 
BRANCH  22  23
ATOM     23  O   UNL     1       6.584  23.328  38.018  1.00  0.00    -0.394 OA
ATOM     24  H   UNL     1       6.919  23.116  37.127  1.00  0.00     0.210 HD
ENDBRANCH  22  23
ENDBRANCH  17  22
BRANCH  19  25
ATOM     25  O   UNL     1       9.207  21.883  38.814  1.00  0.00    -0.350 OA
BRANCH  25  26
ATOM     26  C   UNL     1       9.770  21.145  39.811  1.00  0.00     0.169 C 
BRANCH  26  27
ATOM     27  C   UNL     1      10.134  21.999  40.979  1.00  0.00     0.119 C 
BRANCH  27  28
ATOM     28  N   UNL     1      11.431  21.552  41.515  1.00  0.00    -0.092 NA
ATOM     29  N   UNL     1      11.393  20.474  42.136  1.00  0.00     0.001 N 
ATOM     30  N   UNL     1      11.597  19.252  42.248  1.00  0.00    -0.003 NA
ENDBRANCH  27  28
ENDBRANCH  26  27
ENDBRANCH  25  26
ENDBRANCH  19  25
BRANCH  20  31
ATOM     31  O   UNL     1       9.982  23.451  34.538  1.00  0.00    -0.387 OA
ATOM     32  H   UNL     1       9.093  23.293  34.130  1.00  0.00     0.211 HD
ENDBRANCH  20  31
BRANCH  21  33
ATOM     33  O   UNL     1      11.457  21.894  36.412  1.00  0.00    -0.385 OA
ATOM     34  H   UNL     1      11.501  21.408  35.552  1.00  0.00     0.211 HD
ENDBRANCH  21  33
ENDBRANCH  15  16
ENDBRANCH  10  15
BRANCH  12  35
ATOM     35  O   UNL     1       6.775  27.612  34.792  1.00  0.00    -0.385 OA
ATOM     36  H   UNL     1       7.465  28.163  34.371  1.00  0.00     0.211 HD
ENDBRANCH  12  35
BRANCH  13  37
ATOM     37  O   UNL     1       5.394  25.480  32.441  1.00  0.00    -0.387 OA
ATOM     38  H   UNL     1       5.954  24.660  32.619  1.00  0.00     0.211 HD
ENDBRANCH  13  37
BRANCH  14  39
ATOM     39  O   UNL     1       3.085  25.669  33.772  1.00  0.00    -0.387 OA
ATOM     40  H   UNL     1       2.442  25.132  34.298  1.00  0.00     0.211 HD
ENDBRANCH  14  39
ENDBRANCH   8   9
ENDBRANCH   7   8
ENDBRANCH   1   7
BRANCH   1  41
ATOM     41  C   UNL     1       3.209  20.516  34.099  1.00  0.00     0.364 C 
ATOM     42  O   UNL     1       3.945  19.564  34.418  1.00  0.00    -0.246 OA
BRANCH  41  43
ATOM     43  O   UNL     1       1.867  20.387  34.412  1.00  0.00    -0.477 OA
ATOM     44  H   UNL     1       1.524  19.750  35.151  1.00  0.00     0.296 HD
ENDBRANCH  41  43
ENDBRANCH   1  41
BRANCH   3  45
ATOM     45  O   UNL     1       4.881  20.531  30.121  1.00  0.00    -0.391 OA
ATOM     46  H   UNL     1       5.805  20.720  30.437  1.00  0.00     0.211 HD
ENDBRANCH   3  45
BRANCH   5  47
ATOM     47  C   UNL     1       0.988  22.999  31.478  1.00  0.00     0.176 C 
BRANCH  47  48
ATOM     48  O   UNL     1      -0.310  22.654  31.857  1.00  0.00    -0.388 OA
ATOM     49  H   UNL     1      -0.399  21.682  32.041  1.00  0.00     0.211 HD
ENDBRANCH  47  48
BRANCH  47  50
ATOM     50  C   UNL     1       1.275  24.403  31.842  1.00  0.00     0.165 C 
BRANCH  50  51
ATOM     51  O   UNL     1       0.377  24.616  32.977  1.00  0.00    -0.388 OA
ATOM     52  H   UNL     1       0.512  25.536  33.303  1.00  0.00     0.211 HD
ENDBRANCH  50  51
BRANCH  50  53
ATOM     53  C   UNL     1       0.738  25.428  30.859  1.00  0.00     0.154 C 
BRANCH  53  54
ATOM     54  N   UNL     1       1.713  25.905  29.931  1.00  0.00    -0.319 N 
ATOM     55  C   UNL     1       2.587  26.967  30.277  1.00  0.00     0.407 C 
ATOM     56  H   UNL     1       1.805  25.492  28.960  1.00  0.00     0.167 HD
ATOM     57  O   UNL     1       2.438  27.460  31.446  1.00  0.00    -0.225 OA
BRANCH  55  58
ATOM     58  O   UNL     1       3.564  27.501  29.482  1.00  0.00    -0.443 OA
BRANCH  58  59
ATOM     59  C   UNL     1       3.273  27.779  28.125  1.00  0.00     0.294 C 
BRANCH  59  60
ATOM     60  C   UNL     1       4.272  27.235  27.202  1.00  0.00     0.120 A 
ATOM     61  C   UNL     1       5.580  27.643  27.112  1.00  0.00     0.138 A 
ATOM     62  N   UNL     1       4.134  26.265  26.284  1.00  0.00    -0.132 NA
ATOM     63  N   UNL     1       6.203  26.925  26.157  1.00  0.00    -0.250 N 
ATOM     64  N   UNL     1       5.311  26.095  25.667  1.00  0.00    -0.067 NA
BRANCH  63  65
ATOM     65  C   UNL     1       7.612  27.066  25.764  1.00  0.00     0.174 C 
BRANCH  65  66
ATOM     66  C   UNL     1       7.690  28.073  24.644  1.00  0.00     0.179 C 
BRANCH  66  67
ATOM     67  O   UNL     1       7.315  27.415  23.461  1.00  0.00    -0.394 OA
ATOM     68  H   UNL     1       6.846  27.989  22.831  1.00  0.00     0.210 HD
ENDBRANCH  66  67
ENDBRANCH  65  66
ENDBRANCH  63  65
ENDBRANCH  59  60
ENDBRANCH  58  59
ENDBRANCH  55  58
ENDBRANCH  53  54
ENDBRANCH  50  53
ENDBRANCH  47  50
ENDBRANCH   5  47
BRANCH   4  69
ATOM     69  N   UNL     1       2.481  21.558  29.434  1.00  0.00    -0.348 N 
ATOM     70  C   UNL     1       2.447  22.499  28.378  1.00  0.00     0.217 C 
ATOM     71  H   UNL     1       2.101  20.607  29.196  1.00  0.00     0.163 HD
ATOM     72  C   UNL     1       1.876  22.113  27.072  1.00  0.00     0.114 C 
ATOM     73  O   UNL     1       2.890  23.647  28.533  1.00  0.00    -0.275 OA
ENDBRANCH   4  69
TORSDOF 32
