REMARK VINA RESULT:    -4.387      1.668      2.277
REMARK INTER + INTRA:         -22.986
REMARK INTER:                 -15.701
REMARK INTRA:                  -7.285
REMARK UNBOUND:               -11.418
REMARK SMILES CC(=O)N[C@@H]1[C@@H](O)C[C@](OC[C@H]2O[C@@H](O[C@H]3[C@H](O)[C@@H](O)[C@H](OCCN=[N+]=[N-])O[C@@H]3CO)[C@H](O)[C@@H](O)[C@H]2O)(C(=O)O)O[C@H]1C(O)[C@H](O)CNC(=O)OCc1cn(CC(=O)NCc2cccs2)nn1
REMARK SMILES IDX 43 1 42 2 9 3 8 4 41 5 6 6 5 7 10 8 11 9 12 10 14 11 13 12
REMARK SMILES IDX 32 13 34 14 36 15 15 16 16 17 29 18 28 19 21 20 17 21 19 22
REMARK SMILES IDX 30 23 31 24 22 26 23 27 24 28 25 29 26 30 27 31 18 32 20 34
REMARK SMILES IDX 33 36 35 38 37 40 38 42 39 43 40 44 7 46 4 48 2 49 1 51 3 52
REMARK SMILES IDX 44 53 45 55 46 56 47 58 48 59 49 60 50 62 51 63 52 64 53 65
REMARK SMILES IDX 54 66 67 67 55 68 66 69 56 70 57 71 58 72 59 73 60 75 61 76
REMARK SMILES IDX 62 77 65 78 63 79 64 80
REMARK H PARENT 31 25 18 33 20 35 33 37 35 39 37 41 40 45 7 47 4 50 44 54
REMARK H PARENT 46 57 48 61 59 74
REMARK Flexibility Score: inf
ROOT
ATOM      1  C   UNL     1       3.190  24.625  32.223  1.00  0.00     0.176 C 
ENDROOT
BRANCH   1   2
ATOM      2  C   UNL     1       3.915  23.318  32.040  1.00  0.00     0.178 C 
ATOM      3  C   UNL     1       2.551  21.550  31.260  1.00  0.00     0.272 C 
ATOM      4  C   UNL     1       2.168  21.297  32.728  1.00  0.00     0.113 C 
ATOM      5  O   UNL     1       3.308  22.631  31.047  1.00  0.00    -0.332 OA
ATOM      6  C   UNL     1       3.388  21.378  33.553  1.00  0.00     0.145 C 
ATOM      7  C   UNL     1       4.250  22.582  33.279  1.00  0.00     0.142 C 
BRANCH   3   8
ATOM      8  O   UNL     1       1.341  21.650  30.615  1.00  0.00    -0.338 OA
BRANCH   8   9
ATOM      9  C   UNL     1       1.006  22.742  29.924  1.00  0.00     0.199 C 
BRANCH   9  10
ATOM     10  C   UNL     1       0.768  22.643  28.445  1.00  0.00     0.179 C 
ATOM     11  C   UNL     1       0.784  24.089  26.662  1.00  0.00     0.282 C 
ATOM     12  O   UNL     1       1.373  23.803  27.901  1.00  0.00    -0.341 OA
ATOM     13  C   UNL     1       0.633  22.864  25.824  1.00  0.00     0.202 C 
ATOM     14  C   UNL     1       1.394  21.669  26.294  1.00  0.00     0.179 C 
ATOM     15  C   UNL     1       1.501  21.501  27.775  1.00  0.00     0.177 C 
BRANCH  11  16
ATOM     16  O   UNL     1       1.445  25.070  25.977  1.00  0.00    -0.341 OA
BRANCH  16  17
ATOM     17  C   UNL     1       2.536  25.593  26.669  1.00  0.00     0.184 C 
ATOM     18  C   UNL     1       2.485  27.045  26.859  1.00  0.00     0.178 C 
ATOM     19  O   UNL     1       3.377  27.827  26.175  1.00  0.00    -0.341 OA
ATOM     20  C   UNL     1       4.114  27.250  25.192  1.00  0.00     0.281 C 
ATOM     21  C   UNL     1       3.777  25.025  26.043  1.00  0.00     0.180 C 
ATOM     22  C   UNL     1       4.853  26.058  25.826  1.00  0.00     0.202 C 
BRANCH  18  23
ATOM     23  C   UNL     1       2.715  27.393  28.344  1.00  0.00     0.191 C 
BRANCH  23  24
ATOM     24  O   UNL     1       1.834  26.738  29.177  1.00  0.00    -0.394 OA
ATOM     25  H   UNL     1       1.201  27.412  29.545  1.00  0.00     0.210 HD
ENDBRANCH  23  24
ENDBRANCH  18  23
BRANCH  20  26
ATOM     26  O   UNL     1       5.144  28.135  24.830  1.00  0.00    -0.350 OA
BRANCH  26  27
ATOM     27  C   UNL     1       5.645  28.815  25.921  1.00  0.00     0.169 C 
BRANCH  27  28
ATOM     28  C   UNL     1       7.114  29.130  25.621  1.00  0.00     0.119 C 
BRANCH  28  29
ATOM     29  N   UNL     1       7.624  28.161  24.662  1.00  0.00    -0.092 NA
ATOM     30  N   UNL     1       8.669  27.559  24.905  1.00  0.00     0.001 N 
ATOM     31  N   UNL     1       9.601  26.780  25.180  1.00  0.00    -0.003 NA
ENDBRANCH  28  29
ENDBRANCH  27  28
ENDBRANCH  26  27
ENDBRANCH  20  26
BRANCH  21  32
ATOM     32  O   UNL     1       4.278  23.915  26.731  1.00  0.00    -0.387 OA
ATOM     33  H   UNL     1       4.013  23.945  27.701  1.00  0.00     0.211 HD
ENDBRANCH  21  32
BRANCH  22  34
ATOM     34  O   UNL     1       5.787  25.538  24.952  1.00  0.00    -0.385 OA
ATOM     35  H   UNL     1       6.482  25.029  25.442  1.00  0.00     0.211 HD
ENDBRANCH  22  34
ENDBRANCH  16  17
ENDBRANCH  11  16
BRANCH  13  36
ATOM     36  O   UNL     1      -0.726  22.524  25.638  1.00  0.00    -0.385 OA
ATOM     37  H   UNL     1      -1.227  22.458  26.466  1.00  0.00     0.211 HD
ENDBRANCH  13  36
BRANCH  14  38
ATOM     38  O   UNL     1       2.664  21.612  25.671  1.00  0.00    -0.387 OA
ATOM     39  H   UNL     1       2.617  21.025  24.876  1.00  0.00     0.211 HD
ENDBRANCH  14  38
BRANCH  15  40
ATOM     40  O   UNL     1       2.877  21.603  28.090  1.00  0.00    -0.387 OA
ATOM     41  H   UNL     1       3.076  22.400  28.631  1.00  0.00     0.211 HD
ENDBRANCH  15  40
ENDBRANCH   9  10
ENDBRANCH   8   9
ENDBRANCH   3   8
BRANCH   3  42
ATOM     42  C   UNL     1       3.286  20.311  30.856  1.00  0.00     0.364 C 
ATOM     43  O   UNL     1       2.832  19.149  30.963  1.00  0.00    -0.246 OA
BRANCH  42  44
ATOM     44  O   UNL     1       4.561  20.428  30.317  1.00  0.00    -0.477 OA
ATOM     45  H   UNL     1       5.320  19.858  30.668  1.00  0.00     0.296 HD
ENDBRANCH  42  44
ENDBRANCH   3  42
BRANCH   6  46
ATOM     46  O   UNL     1       3.027  21.314  34.929  1.00  0.00    -0.391 OA
ATOM     47  H   UNL     1       2.360  21.999  35.155  1.00  0.00     0.211 HD
ENDBRANCH   6  46
BRANCH   7  48
ATOM     48  N   UNL     1       5.656  22.235  33.339  1.00  0.00    -0.348 N 
ATOM     49  C   UNL     1       6.620  23.223  33.629  1.00  0.00     0.217 C 
ATOM     50  H   UNL     1       5.996  21.252  33.166  1.00  0.00     0.163 HD
ATOM     51  C   UNL     1       8.063  22.846  33.686  1.00  0.00     0.114 C 
ATOM     52  O   UNL     1       6.344  24.426  33.846  1.00  0.00    -0.275 OA
ENDBRANCH   7  48
ENDBRANCH   1   2
BRANCH   1  53
ATOM     53  O   UNL     1       2.712  24.868  33.478  1.00  0.00    -0.388 OA
ATOM     54  H   UNL     1       1.991  24.282  33.794  1.00  0.00     0.211 HD
ENDBRANCH   1  53
BRANCH   1  55
ATOM     55  C   UNL     1       3.867  25.826  31.597  1.00  0.00     0.165 C 
BRANCH  55  56
ATOM     56  O   UNL     1       5.088  25.546  31.065  1.00  0.00    -0.388 OA
ATOM     57  H   UNL     1       5.277  25.973  30.200  1.00  0.00     0.211 HD
ENDBRANCH  55  56
BRANCH  55  58
ATOM     58  C   UNL     1       3.952  26.959  32.605  1.00  0.00     0.154 C 
BRANCH  58  59
ATOM     59  N   UNL     1       5.284  27.185  33.082  1.00  0.00    -0.319 N 
ATOM     60  C   UNL     1       5.661  27.814  34.294  1.00  0.00     0.407 C 
ATOM     61  H   UNL     1       6.137  26.863  32.497  1.00  0.00     0.167 HD
ATOM     62  O   UNL     1       4.830  28.240  35.096  1.00  0.00    -0.225 OA
BRANCH  60  63
ATOM     63  O   UNL     1       7.016  27.983  34.640  1.00  0.00    -0.443 OA
BRANCH  63  64
ATOM     64  C   UNL     1       8.065  28.094  33.734  1.00  0.00     0.294 C 
BRANCH  64  65
ATOM     65  C   UNL     1       9.189  27.180  33.976  1.00  0.00     0.120 A 
ATOM     66  C   UNL     1       9.229  26.128  34.866  1.00  0.00     0.138 A 
ATOM     67  N   UNL     1      10.403  27.195  33.364  1.00  0.00    -0.132 NA
ATOM     68  N   UNL     1      10.430  25.542  34.780  1.00  0.00    -0.243 N 
ATOM     69  N   UNL     1      11.106  26.205  33.872  1.00  0.00    -0.067 NA
BRANCH  68  70
ATOM     70  C   UNL     1      10.973  24.405  35.490  1.00  0.00     0.245 C 
BRANCH  70  71
ATOM     71  C   UNL     1      10.314  24.316  36.805  1.00  0.00     0.242 C 
ATOM     72  O   UNL     1      10.768  24.942  37.780  1.00  0.00    -0.273 OA
ATOM     73  N   UNL     1       9.156  23.518  36.975  1.00  0.00    -0.350 N 
ATOM     74  H   UNL     1       8.738  22.969  36.172  1.00  0.00     0.163 HD
BRANCH  73  75
ATOM     75  C   UNL     1       8.486  23.406  38.234  1.00  0.00     0.162 C 
BRANCH  75  76
ATOM     76  C   UNL     1       7.162  24.038  38.135  1.00  0.00     0.024 A 
ATOM     77  C   UNL     1       6.743  25.155  37.490  1.00  0.00     0.017 A 
ATOM     78  S   UNL     1       5.697  23.429  38.892  1.00  0.00    -0.147 S 
ATOM     79  C   UNL     1       5.451  25.512  37.561  1.00  0.00     0.012 A 
ATOM     80  C   UNL     1       4.582  24.766  38.267  1.00  0.00     0.065 A 
ENDBRANCH  75  76
ENDBRANCH  73  75
ENDBRANCH  70  71
ENDBRANCH  68  70
ENDBRANCH  64  65
ENDBRANCH  63  64
ENDBRANCH  60  63
ENDBRANCH  58  59
ENDBRANCH  55  58
ENDBRANCH   1  55
TORSDOF 33
