REMARK VINA RESULT:    -5.767     10.607     15.462
REMARK INTER + INTRA:         -22.118
REMARK INTER:                 -16.387
REMARK INTRA:                  -5.731
REMARK UNBOUND:                -7.585
REMARK SMILES COc1ccc(-n2cc(COC(=O)NC[C@@H](O)C(O)[C@@H]3O[C@@](OC[C@H]4O[C@@H](O[C@H]5[C@H](O)[C@@H](O)[C@H](OCCN=[N+]=[N-])O[C@@H]5CO)[C@H](O)[C@@H](O)[C@H]4O)(C(=O)O)C[C@H](O)[C@H]3NC(C)=O)nn2)cc1
REMARK SMILES IDX 22 1 54 2 55 3 57 4 20 5 21 6 23 7 24 8 25 9 27 10 26 11
REMARK SMILES IDX 45 12 47 13 49 14 28 15 29 16 42 17 41 18 34 19 30 20 32 21
REMARK SMILES IDX 43 22 44 23 35 25 36 26 37 27 38 28 39 29 40 30 31 31 33 33
REMARK SMILES IDX 46 35 48 37 50 39 51 41 52 42 53 43 56 45 18 47 19 48 16 50
REMARK SMILES IDX 17 51 15 53 14 54 12 55 13 57 11 58 10 59 9 60 8 61 62 62
REMARK SMILES IDX 7 63 63 64 6 65 5 66 64 67 4 68 65 69 3 70 2 71 1 72 58 73
REMARK SMILES IDX 59 74 60 76 61 77
REMARK H PARENT 44 24 31 32 33 34 46 36 48 38 50 40 53 44 56 46 19 49 17 52
REMARK H PARENT 14 56 58 75
REMARK Flexibility Score: inf
ROOT
ATOM      1  C   UNL     1      15.798  29.358  20.454  1.00  0.00     0.272 C 
ATOM      2  C   UNL     1      14.541  28.734  20.933  1.00  0.00     0.113 C 
ATOM      3  C   UNL     1      13.744  29.495  21.918  1.00  0.00     0.145 C 
ATOM      4  C   UNL     1      14.687  30.488  22.628  1.00  0.00     0.142 C 
ATOM      5  C   UNL     1      16.000  29.806  22.782  1.00  0.00     0.178 C 
ATOM      6  O   UNL     1      16.603  29.785  21.526  1.00  0.00    -0.332 OA
ENDROOT
BRANCH   1   7
ATOM      7  O   UNL     1      15.881  30.229  19.499  1.00  0.00    -0.338 OA
BRANCH   7   8
ATOM      8  C   UNL     1      15.232  30.696  18.498  1.00  0.00     0.199 C 
BRANCH   8   9
ATOM      9  C   UNL     1      14.885  29.909  17.267  1.00  0.00     0.179 C 
ATOM     10  C   UNL     1      13.584  29.733  15.397  1.00  0.00     0.282 C 
ATOM     11  O   UNL     1      14.012  30.551  16.457  1.00  0.00    -0.341 OA
ATOM     12  C   UNL     1      14.692  29.258  14.512  1.00  0.00     0.202 C 
ATOM     13  C   UNL     1      16.055  29.327  15.092  1.00  0.00     0.179 C 
ATOM     14  C   UNL     1      16.113  29.384  16.565  1.00  0.00     0.177 C 
BRANCH  10  15
ATOM     15  O   UNL     1      12.686  30.483  14.643  1.00  0.00    -0.341 OA
BRANCH  15  16
ATOM     16  C   UNL     1      11.387  30.082  14.797  1.00  0.00     0.184 C 
ATOM     17  C   UNL     1      10.722  29.771  13.507  1.00  0.00     0.178 C 
ATOM     18  O   UNL     1       9.351  29.458  13.710  1.00  0.00    -0.341 OA
ATOM     19  C   UNL     1       8.739  30.689  14.063  1.00  0.00     0.281 C 
ATOM     20  C   UNL     1      10.622  31.213  15.507  1.00  0.00     0.180 C 
ATOM     21  C   UNL     1       9.152  30.890  15.523  1.00  0.00     0.202 C 
BRANCH  17  22
ATOM     22  C   UNL     1      11.384  28.623  12.791  1.00  0.00     0.191 C 
BRANCH  22  23
ATOM     23  O   UNL     1      12.407  29.113  11.998  1.00  0.00    -0.394 OA
ATOM     24  H   UNL     1      13.244  29.253  12.494  1.00  0.00     0.210 HD
ENDBRANCH  22  23
ENDBRANCH  17  22
BRANCH  19  25
ATOM     25  O   UNL     1       7.397  30.637  13.913  1.00  0.00    -0.350 OA
BRANCH  25  26
ATOM     26  C   UNL     1       6.747  29.447  14.018  1.00  0.00     0.169 C 
BRANCH  26  27
ATOM     27  C   UNL     1       5.595  29.372  14.961  1.00  0.00     0.119 C 
BRANCH  27  28
ATOM     28  N   UNL     1       5.748  30.083  16.194  1.00  0.00    -0.092 NA
ATOM     29  N   UNL     1       4.886  30.044  17.065  1.00  0.00     0.001 N 
ATOM     30  N   UNL     1       3.893  30.014  17.799  1.00  0.00    -0.003 NA
ENDBRANCH  27  28
ENDBRANCH  26  27
ENDBRANCH  25  26
ENDBRANCH  19  25
BRANCH  20  31
ATOM     31  O   UNL     1      11.137  31.366  16.781  1.00  0.00    -0.387 OA
ATOM     32  H   UNL     1      11.888  32.035  16.714  1.00  0.00     0.211 HD
ENDBRANCH  20  31
BRANCH  21  33
ATOM     33  O   UNL     1       8.431  31.949  16.026  1.00  0.00    -0.385 OA
ATOM     34  H   UNL     1       8.264  31.847  16.996  1.00  0.00     0.211 HD
ENDBRANCH  21  33
ENDBRANCH  15  16
ENDBRANCH  10  15
BRANCH  12  35
ATOM     35  O   UNL     1      14.492  27.928  14.106  1.00  0.00    -0.385 OA
ATOM     36  H   UNL     1      13.575  27.628  14.298  1.00  0.00     0.211 HD
ENDBRANCH  12  35
BRANCH  13  37
ATOM     37  O   UNL     1      16.796  30.334  14.463  1.00  0.00    -0.387 OA
ATOM     38  H   UNL     1      16.259  30.893  13.864  1.00  0.00     0.211 HD
ENDBRANCH  13  37
BRANCH  14  39
ATOM     39  O   UNL     1      17.262  30.084  16.943  1.00  0.00    -0.387 OA
ATOM     40  H   UNL     1      17.616  29.637  17.753  1.00  0.00     0.211 HD
ENDBRANCH  14  39
ENDBRANCH   8   9
ENDBRANCH   7   8
ENDBRANCH   1   7
BRANCH   1  41
ATOM     41  C   UNL     1      16.622  28.121  19.973  1.00  0.00     0.364 C 
ATOM     42  O   UNL     1      16.077  27.222  19.327  1.00  0.00    -0.246 OA
BRANCH  41  43
ATOM     43  O   UNL     1      17.952  28.110  20.311  1.00  0.00    -0.477 OA
ATOM     44  H   UNL     1      18.679  28.446  19.664  1.00  0.00     0.296 HD
ENDBRANCH  41  43
ENDBRANCH   1  41
BRANCH   3  45
ATOM     45  O   UNL     1      12.604  30.093  21.465  1.00  0.00    -0.391 OA
ATOM     46  H   UNL     1      12.522  31.057  21.640  1.00  0.00     0.211 HD
ENDBRANCH   3  45
BRANCH   5  47
ATOM     47  C   UNL     1      16.992  30.582  23.680  1.00  0.00     0.176 C 
BRANCH  47  48
ATOM     48  O   UNL     1      16.553  30.621  24.968  1.00  0.00    -0.388 OA
ATOM     49  H   UNL     1      17.084  31.276  25.478  1.00  0.00     0.211 HD
ENDBRANCH  47  48
BRANCH  47  50
ATOM     50  C   UNL     1      18.369  30.329  23.336  1.00  0.00     0.165 C 
BRANCH  50  51
ATOM     51  O   UNL     1      19.114  29.555  24.268  1.00  0.00    -0.388 OA
ATOM     52  H   UNL     1      19.498  30.200  24.894  1.00  0.00     0.211 HD
ENDBRANCH  50  51
BRANCH  50  53
ATOM     53  C   UNL     1      19.317  31.354  22.870  1.00  0.00     0.154 C 
BRANCH  53  54
ATOM     54  N   UNL     1      20.468  30.963  22.190  1.00  0.00    -0.319 N 
ATOM     55  C   UNL     1      20.555  30.546  20.854  1.00  0.00     0.407 C 
ATOM     56  H   UNL     1      21.399  30.977  22.732  1.00  0.00     0.167 HD
ATOM     57  O   UNL     1      19.562  30.503  20.110  1.00  0.00    -0.225 OA
BRANCH  55  58
ATOM     58  O   UNL     1      21.813  30.162  20.333  1.00  0.00    -0.443 OA
BRANCH  58  59
ATOM     59  C   UNL     1      21.955  28.829  19.909  1.00  0.00     0.294 C 
BRANCH  59  60
ATOM     60  C   UNL     1      21.705  27.912  21.046  1.00  0.00     0.121 A 
ATOM     61  C   UNL     1      22.337  27.829  22.273  1.00  0.00     0.144 A 
ATOM     62  N   UNL     1      20.745  26.967  21.057  1.00  0.00    -0.131 NA
ATOM     63  N   UNL     1      21.743  26.851  22.967  1.00  0.00    -0.220 N 
ATOM     64  N   UNL     1      20.774  26.339  22.202  1.00  0.00    -0.062 NA
BRANCH  63  65
ATOM     65  C   UNL     1      21.975  26.343  24.272  1.00  0.00     0.067 A 
ATOM     66  C   UNL     1      21.577  26.970  25.422  1.00  0.00     0.032 A 
ATOM     67  C   UNL     1      22.660  25.137  24.409  1.00  0.00     0.032 A 
ATOM     68  C   UNL     1      21.847  26.423  26.668  1.00  0.00     0.048 A 
ATOM     69  C   UNL     1      22.928  24.593  25.649  1.00  0.00     0.048 A 
ATOM     70  C   UNL     1      22.526  25.226  26.806  1.00  0.00     0.119 A 
BRANCH  70  71
ATOM     71  O   UNL     1      22.794  24.682  28.078  1.00  0.00    -0.497 OA
ATOM     72  C   UNL     1      22.625  25.555  29.205  1.00  0.00     0.278 C 
ENDBRANCH  70  71
ENDBRANCH  63  65
ENDBRANCH  59  60
ENDBRANCH  58  59
ENDBRANCH  55  58
ENDBRANCH  53  54
ENDBRANCH  50  53
ENDBRANCH  47  50
ENDBRANCH   5  47
BRANCH   4  73
ATOM     73  N   UNL     1      14.034  30.970  23.813  1.00  0.00    -0.348 N 
ATOM     74  C   UNL     1      13.637  32.326  23.934  1.00  0.00     0.217 C 
ATOM     75  H   UNL     1      13.822  30.310  24.581  1.00  0.00     0.163 HD
ATOM     76  C   UNL     1      12.965  32.800  25.173  1.00  0.00     0.114 C 
ATOM     77  O   UNL     1      13.829  33.176  23.025  1.00  0.00    -0.275 OA
ENDBRANCH   4  73
TORSDOF 31
