REMARK VINA RESULT:    -6.299     17.060     19.984
REMARK INTER + INTRA:         -21.702
REMARK INTER:                 -14.020
REMARK INTRA:                  -7.682
REMARK UNBOUND:                -5.460
REMARK SMILES CC(=O)N[C@@H]1[C@@H](O)C[C@](OC[C@H]2O[C@@H](O[C@H]3[C@H](O)[C@@H](O)[C@H](OCCN=[N+]=[N-])O[C@@H]3CO)[C@H](O)[C@@H](O)[C@H]2O)(C(=O)O)O[C@H]1C(O)[C@H](O)CNC(=O)OCc1cn(C(c2ccccc2)c2ccccc2)nn1
REMARK SMILES IDX 9 1 8 2 6 3 5 4 42 5 41 6 10 7 11 8 12 9 14 10 13 11 32 12
REMARK SMILES IDX 34 13 36 14 15 15 16 16 29 17 28 18 21 19 17 20 19 21 30 22
REMARK SMILES IDX 31 23 22 25 23 26 24 27 25 28 26 29 27 30 18 31 20 33 33 35
REMARK SMILES IDX 35 37 37 39 38 41 39 42 40 43 7 45 43 47 44 48 45 50 46 51
REMARK SMILES IDX 47 53 48 54 49 55 50 57 51 58 52 59 53 60 54 61 70 62 55 63
REMARK SMILES IDX 69 64 56 65 57 66 58 67 62 68 59 69 61 70 60 71 63 72 64 73
REMARK SMILES IDX 68 74 65 75 67 76 66 77 4 78 2 79 1 81 3 82
REMARK H PARENT 31 24 18 32 20 34 33 36 35 38 37 40 40 44 7 46 44 49 46 52
REMARK H PARENT 48 56 4 80
REMARK Flexibility Score: inf
ROOT
ATOM      1  C   UNL     1       2.031  25.353  26.571  1.00  0.00     0.272 C 
ATOM      2  C   UNL     1       3.447  24.995  26.072  1.00  0.00     0.113 C 
ATOM      3  C   UNL     1       4.241  26.223  25.891  1.00  0.00     0.145 C 
ATOM      4  C   UNL     1       4.320  26.980  27.193  1.00  0.00     0.142 C 
ATOM      5  C   UNL     1       3.228  26.641  28.140  1.00  0.00     0.178 C 
ATOM      6  O   UNL     1       2.058  26.230  27.587  1.00  0.00    -0.332 OA
ENDROOT
BRANCH   1   7
ATOM      7  O   UNL     1       1.425  24.161  26.998  1.00  0.00    -0.338 OA
BRANCH   7   8
ATOM      8  C   UNL     1       2.113  23.059  26.562  1.00  0.00     0.199 C 
BRANCH   8   9
ATOM      9  C   UNL     1       1.489  21.752  27.048  1.00  0.00     0.179 C 
ATOM     10  C   UNL     1       0.958  21.720  29.373  1.00  0.00     0.282 C 
ATOM     11  O   UNL     1       1.754  21.518  28.305  1.00  0.00    -0.341 OA
ATOM     12  C   UNL     1      -0.323  22.347  29.093  1.00  0.00     0.202 C 
ATOM     13  C   UNL     1      -0.906  22.027  27.761  1.00  0.00     0.179 C 
ATOM     14  C   UNL     1       0.027  21.666  26.672  1.00  0.00     0.177 C 
BRANCH  10  15
ATOM     15  O   UNL     1       1.800  22.441  30.275  1.00  0.00    -0.341 OA
BRANCH  15  16
ATOM     16  C   UNL     1       2.264  21.647  31.280  1.00  0.00     0.184 C 
ATOM     17  C   UNL     1       2.159  22.305  32.610  1.00  0.00     0.178 C 
ATOM     18  O   UNL     1       2.439  21.385  33.630  1.00  0.00    -0.341 OA
ATOM     19  C   UNL     1       3.775  21.093  33.638  1.00  0.00     0.281 C 
ATOM     20  C   UNL     1       3.738  21.308  31.088  1.00  0.00     0.180 C 
ATOM     21  C   UNL     1       4.473  21.370  32.369  1.00  0.00     0.202 C 
BRANCH  17  22
ATOM     22  C   UNL     1       0.846  23.015  32.869  1.00  0.00     0.191 C 
BRANCH  22  23
ATOM     23  O   UNL     1       0.870  24.258  32.247  1.00  0.00    -0.394 OA
ATOM     24  H   UNL     1       1.492  24.896  32.655  1.00  0.00     0.210 HD
ENDBRANCH  22  23
ENDBRANCH  17  22
BRANCH  19  25
ATOM     25  O   UNL     1       4.021  19.792  34.110  1.00  0.00    -0.350 OA
BRANCH  25  26
ATOM     26  C   UNL     1       2.910  19.014  34.262  1.00  0.00     0.169 C 
BRANCH  26  27
ATOM     27  C   UNL     1       2.706  18.705  35.727  1.00  0.00     0.119 C 
BRANCH  27  28
ATOM     28  N   UNL     1       3.972  18.674  36.455  1.00  0.00    -0.092 NA
ATOM     29  N   UNL     1       4.029  18.464  37.660  1.00  0.00     0.001 N 
ATOM     30  N   UNL     1       3.955  18.582  38.889  1.00  0.00    -0.003 NA
ENDBRANCH  27  28
ENDBRANCH  26  27
ENDBRANCH  25  26
ENDBRANCH  19  25
BRANCH  20  31
ATOM     31  O   UNL     1       3.791  20.071  30.443  1.00  0.00    -0.387 OA
ATOM     32  H   UNL     1       4.030  20.169  29.482  1.00  0.00     0.211 HD
ENDBRANCH  20  31
BRANCH  21  33
ATOM     33  O   UNL     1       5.105  22.646  32.441  1.00  0.00    -0.385 OA
ATOM     34  H   UNL     1       4.924  22.973  33.367  1.00  0.00     0.211 HD
ENDBRANCH  21  33
ENDBRANCH  15  16
ENDBRANCH  10  15
BRANCH  12  35
ATOM     35  O   UNL     1      -1.331  22.011  30.034  1.00  0.00    -0.385 OA
ATOM     36  H   UNL     1      -0.933  22.192  30.919  1.00  0.00     0.211 HD
ENDBRANCH  12  35
BRANCH  13  37
ATOM     37  O   UNL     1      -1.738  23.082  27.303  1.00  0.00    -0.387 OA
ATOM     38  H   UNL     1      -2.682  22.872  27.526  1.00  0.00     0.211 HD
ENDBRANCH  13  37
BRANCH  14  39
ATOM     39  O   UNL     1      -0.142  22.561  25.603  1.00  0.00    -0.387 OA
ATOM     40  H   UNL     1       0.663  23.111  25.452  1.00  0.00     0.211 HD
ENDBRANCH  14  39
ENDBRANCH   8   9
ENDBRANCH   7   8
ENDBRANCH   1   7
BRANCH   1  41
ATOM     41  C   UNL     1       1.322  25.857  25.394  1.00  0.00     0.364 C 
ATOM     42  O   UNL     1       1.026  27.063  25.288  1.00  0.00    -0.246 OA
BRANCH  41  43
ATOM     43  O   UNL     1       0.941  25.026  24.338  1.00  0.00    -0.477 OA
ATOM     44  H   UNL     1      -0.033  24.884  24.114  1.00  0.00     0.296 HD
ENDBRANCH  41  43
ENDBRANCH   1  41
BRANCH   3  45
ATOM     45  O   UNL     1       5.538  25.826  25.498  1.00  0.00    -0.391 OA
ATOM     46  H   UNL     1       6.212  26.488  25.792  1.00  0.00     0.211 HD
ENDBRANCH   3  45
BRANCH   5  47
ATOM     47  C   UNL     1       3.587  25.751  29.295  1.00  0.00     0.176 C 
BRANCH  47  48
ATOM     48  O   UNL     1       2.372  25.202  29.758  1.00  0.00    -0.388 OA
ATOM     49  H   UNL     1       1.838  25.832  30.272  1.00  0.00     0.211 HD
ENDBRANCH  47  48
BRANCH  47  50
ATOM     50  C   UNL     1       4.261  26.405  30.446  1.00  0.00     0.165 C 
BRANCH  50  51
ATOM     51  O   UNL     1       5.485  25.769  30.619  1.00  0.00    -0.388 OA
ATOM     52  H   UNL     1       5.558  25.297  31.488  1.00  0.00     0.211 HD
ENDBRANCH  50  51
BRANCH  50  53
ATOM     53  C   UNL     1       3.512  26.407  31.733  1.00  0.00     0.154 C 
BRANCH  53  54
ATOM     54  N   UNL     1       3.839  25.371  32.660  1.00  0.00    -0.319 N 
ATOM     55  C   UNL     1       3.650  25.367  34.045  1.00  0.00     0.407 C 
ATOM     56  H   UNL     1       4.283  24.486  32.254  1.00  0.00     0.167 HD
ATOM     57  O   UNL     1       3.158  26.350  34.612  1.00  0.00    -0.225 OA
BRANCH  55  58
ATOM     58  O   UNL     1       4.008  24.266  34.820  1.00  0.00    -0.443 OA
BRANCH  58  59
ATOM     59  C   UNL     1       4.975  24.418  35.870  1.00  0.00     0.294 C 
BRANCH  59  60
ATOM     60  C   UNL     1       6.328  24.452  35.259  1.00  0.00     0.120 A 
ATOM     61  C   UNL     1       7.168  25.525  35.349  1.00  0.00     0.139 A 
ATOM     62  N   UNL     1       6.901  23.475  34.564  1.00  0.00    -0.132 NA
ATOM     63  N   UNL     1       8.279  25.169  34.681  1.00  0.00    -0.240 N 
ATOM     64  N   UNL     1       8.105  23.928  34.213  1.00  0.00    -0.066 NA
BRANCH  63  65
ATOM     65  C   UNL     1       9.501  25.916  34.466  1.00  0.00     0.169 C 
BRANCH  65  66
ATOM     66  C   UNL     1      10.533  25.359  35.350  1.00  0.00    -0.019 A 
ATOM     67  C   UNL     1      11.872  25.530  35.061  1.00  0.00     0.006 A 
ATOM     68  C   UNL     1      10.237  24.636  36.485  1.00  0.00     0.006 A 
ATOM     69  C   UNL     1      12.864  24.999  35.874  1.00  0.00     0.000 A 
ATOM     70  C   UNL     1      11.223  24.098  37.308  1.00  0.00     0.000 A 
ATOM     71  C   UNL     1      12.558  24.280  37.002  1.00  0.00     0.000 A 
ENDBRANCH  65  66
BRANCH  65  72
ATOM     72  C   UNL     1       9.258  27.363  34.625  1.00  0.00    -0.019 A 
ATOM     73  C   UNL     1       8.882  28.069  33.488  1.00  0.00     0.006 A 
ATOM     74  C   UNL     1       9.402  28.057  35.791  1.00  0.00     0.006 A 
ATOM     75  C   UNL     1       8.663  29.420  33.546  1.00  0.00     0.000 A 
ATOM     76  C   UNL     1       9.183  29.421  35.858  1.00  0.00     0.000 A 
ATOM     77  C   UNL     1       8.812  30.110  34.732  1.00  0.00     0.000 A 
ENDBRANCH  65  72
ENDBRANCH  63  65
ENDBRANCH  59  60
ENDBRANCH  58  59
ENDBRANCH  55  58
ENDBRANCH  53  54
ENDBRANCH  50  53
ENDBRANCH  47  50
ENDBRANCH   5  47
BRANCH   4  78
ATOM     78  N   UNL     1       4.225  28.401  26.807  1.00  0.00    -0.348 N 
ATOM     79  C   UNL     1       5.368  29.166  26.442  1.00  0.00     0.217 C 
ATOM     80  H   UNL     1       3.302  28.901  26.787  1.00  0.00     0.163 HD
ATOM     81  C   UNL     1       5.239  30.611  26.050  1.00  0.00     0.114 C 
ATOM     82  O   UNL     1       6.510  28.662  26.435  1.00  0.00    -0.275 OA
ENDBRANCH   4  78
TORSDOF 32
