REMARK VINA RESULT:    -5.614     13.391     19.502
REMARK INTER + INTRA:         -21.778
REMARK INTER:                 -14.434
REMARK INTRA:                  -7.344
REMARK UNBOUND:                -7.468
REMARK SMILES CC(=O)N[C@@H]1[C@@H](O)C[C@](OC[C@H]2O[C@@H](O[C@H]3[C@H](O)[C@@H](O)[C@H](OCCN=[N+]=[N-])O[C@@H]3CO)[C@H](O)[C@@H](O)[C@H]2O)(C(=O)O)O[C@H]1C(O)[C@H](O)CNC(=O)OCc1cn(CC(=O)O)nn1
REMARK SMILES IDX 9 1 8 2 6 3 5 4 42 5 41 6 10 7 11 8 12 9 14 10 13 11 32 12
REMARK SMILES IDX 34 13 36 14 15 15 16 16 29 17 28 18 21 19 17 20 19 21 30 22
REMARK SMILES IDX 31 23 22 25 23 26 24 27 25 28 26 29 27 30 18 31 20 33 33 35
REMARK SMILES IDX 35 37 37 39 38 41 39 42 40 43 7 45 43 47 44 48 45 50 46 51
REMARK SMILES IDX 47 53 48 54 49 55 50 57 51 58 52 59 53 60 54 61 61 62 55 63
REMARK SMILES IDX 60 64 56 65 57 66 58 67 59 68 4 70 2 71 1 73 3 74
REMARK H PARENT 31 24 18 32 20 34 33 36 35 38 37 40 40 44 7 46 44 49 46 52
REMARK H PARENT 48 56 59 69 4 72
REMARK Flexibility Score: inf
ROOT
ATOM      1  C   UNL     1      17.779  29.202  19.299  1.00  0.00     0.272 C 
ATOM      2  C   UNL     1      17.898  28.312  18.095  1.00  0.00     0.113 C 
ATOM      3  C   UNL     1      17.748  28.954  16.779  1.00  0.00     0.145 C 
ATOM      4  C   UNL     1      17.103  30.335  16.775  1.00  0.00     0.142 C 
ATOM      5  C   UNL     1      16.293  30.423  18.032  1.00  0.00     0.178 C 
ATOM      6  O   UNL     1      17.290  30.445  19.043  1.00  0.00    -0.332 OA
ENDROOT
BRANCH   1   7
ATOM      7  O   UNL     1      19.014  29.337  19.970  1.00  0.00    -0.338 OA
BRANCH   7   8
ATOM      8  C   UNL     1      19.934  28.380  19.673  1.00  0.00     0.199 C 
BRANCH   8   9
ATOM      9  C   UNL     1      20.914  28.229  20.848  1.00  0.00     0.179 C 
ATOM     10  C   UNL     1      21.583  26.374  22.044  1.00  0.00     0.282 C 
ATOM     11  O   UNL     1      20.513  27.278  21.751  1.00  0.00    -0.341 OA
ATOM     12  C   UNL     1      21.823  25.654  20.768  1.00  0.00     0.202 C 
ATOM     13  C   UNL     1      22.602  26.632  19.872  1.00  0.00     0.179 C 
ATOM     14  C   UNL     1      22.323  28.040  20.323  1.00  0.00     0.177 C 
BRANCH  10  15
ATOM     15  O   UNL     1      21.211  25.635  23.127  1.00  0.00    -0.341 OA
BRANCH  15  16
ATOM     16  C   UNL     1      21.849  26.006  24.311  1.00  0.00     0.184 C 
ATOM     17  C   UNL     1      22.504  24.789  24.895  1.00  0.00     0.178 C 
ATOM     18  O   UNL     1      22.570  24.866  26.260  1.00  0.00    -0.341 OA
ATOM     19  C   UNL     1      22.808  26.102  26.804  1.00  0.00     0.281 C 
ATOM     20  C   UNL     1      20.860  26.546  25.322  1.00  0.00     0.180 C 
ATOM     21  C   UNL     1      21.684  27.077  26.498  1.00  0.00     0.202 C 
BRANCH  17  22
ATOM     22  C   UNL     1      23.905  24.654  24.326  1.00  0.00     0.191 C 
BRANCH  22  23
ATOM     23  O   UNL     1      24.638  23.934  25.273  1.00  0.00    -0.394 OA
ATOM     24  H   UNL     1      25.223  24.530  25.792  1.00  0.00     0.210 HD
ENDBRANCH  22  23
ENDBRANCH  17  22
BRANCH  19  25
ATOM     25  O   UNL     1      24.035  26.577  26.430  1.00  0.00    -0.350 OA
BRANCH  25  26
ATOM     26  C   UNL     1      24.951  26.657  27.448  1.00  0.00     0.169 C 
BRANCH  26  27
ATOM     27  C   UNL     1      26.142  27.532  27.156  1.00  0.00     0.119 C 
BRANCH  27  28
ATOM     28  N   UNL     1      27.358  26.989  27.766  1.00  0.00    -0.092 NA
ATOM     29  N   UNL     1      27.178  26.092  28.614  1.00  0.00     0.001 N 
ATOM     30  N   UNL     1      27.352  25.495  29.694  1.00  0.00    -0.003 NA
ENDBRANCH  27  28
ENDBRANCH  26  27
ENDBRANCH  25  26
ENDBRANCH  19  25
BRANCH  20  31
ATOM     31  O   UNL     1      20.107  27.592  24.851  1.00  0.00    -0.387 OA
ATOM     32  H   UNL     1      20.440  28.479  25.059  1.00  0.00     0.211 HD
ENDBRANCH  20  31
BRANCH  21  33
ATOM     33  O   UNL     1      20.900  27.248  27.622  1.00  0.00    -0.385 OA
ATOM     34  H   UNL     1      19.977  27.527  27.389  1.00  0.00     0.211 HD
ENDBRANCH  21  33
ENDBRANCH  15  16
ENDBRANCH  10  15
BRANCH  12  35
ATOM     35  O   UNL     1      22.414  24.426  20.842  1.00  0.00    -0.385 OA
ATOM     36  H   UNL     1      23.014  24.380  21.604  1.00  0.00     0.211 HD
ENDBRANCH  12  35
BRANCH  13  37
ATOM     37  O   UNL     1      22.158  26.429  18.574  1.00  0.00    -0.387 OA
ATOM     38  H   UNL     1      21.263  26.837  18.404  1.00  0.00     0.211 HD
ENDBRANCH  13  37
BRANCH  14  39
ATOM     39  O   UNL     1      22.472  28.850  19.197  1.00  0.00    -0.387 OA
ATOM     40  H   UNL     1      22.636  29.793  19.431  1.00  0.00     0.211 HD
ENDBRANCH  14  39
ENDBRANCH   8   9
ENDBRANCH   7   8
ENDBRANCH   1   7
BRANCH   1  41
ATOM     41  C   UNL     1      16.887  28.536  20.275  1.00  0.00     0.364 C 
ATOM     42  O   UNL     1      16.453  27.384  20.085  1.00  0.00    -0.246 OA
BRANCH  41  43
ATOM     43  O   UNL     1      16.492  29.162  21.445  1.00  0.00    -0.477 OA
ATOM     44  H   UNL     1      15.632  29.721  21.516  1.00  0.00     0.296 HD
ENDBRANCH  41  43
ENDBRANCH   1  41
BRANCH   3  45
ATOM     45  O   UNL     1      18.900  28.920  15.986  1.00  0.00    -0.391 OA
ATOM     46  H   UNL     1      18.767  29.251  15.082  1.00  0.00     0.211 HD
ENDBRANCH   3  45
BRANCH   5  47
ATOM     47  C   UNL     1      15.414  31.615  18.201  1.00  0.00     0.176 C 
BRANCH  47  48
ATOM     48  O   UNL     1      16.325  32.722  18.255  1.00  0.00    -0.388 OA
ATOM     49  H   UNL     1      16.268  33.234  17.399  1.00  0.00     0.211 HD
ENDBRANCH  47  48
BRANCH  47  50
ATOM     50  C   UNL     1      14.608  31.619  19.481  1.00  0.00     0.165 C 
BRANCH  50  51
ATOM     51  O   UNL     1      15.498  31.747  20.579  1.00  0.00    -0.388 OA
ATOM     52  H   UNL     1      16.188  31.058  20.471  1.00  0.00     0.211 HD
ENDBRANCH  50  51
BRANCH  50  53
ATOM     53  C   UNL     1      13.780  30.407  19.663  1.00  0.00     0.154 C 
BRANCH  53  54
ATOM     54  N   UNL     1      13.028  30.427  20.883  1.00  0.00    -0.319 N 
ATOM     55  C   UNL     1      12.987  29.427  21.880  1.00  0.00     0.407 C 
ATOM     56  H   UNL     1      12.404  31.280  21.123  1.00  0.00     0.167 HD
ATOM     57  O   UNL     1      13.629  28.379  21.772  1.00  0.00    -0.225 OA
BRANCH  55  58
ATOM     58  O   UNL     1      12.218  29.566  23.041  1.00  0.00    -0.443 OA
BRANCH  58  59
ATOM     59  C   UNL     1      12.826  29.847  24.290  1.00  0.00     0.294 C 
BRANCH  59  60
ATOM     60  C   UNL     1      14.072  30.652  24.098  1.00  0.00     0.120 A 
ATOM     61  C   UNL     1      15.352  30.307  24.506  1.00  0.00     0.139 A 
ATOM     62  N   UNL     1      14.195  31.848  23.503  1.00  0.00    -0.132 NA
ATOM     63  N   UNL     1      16.188  31.298  24.145  1.00  0.00    -0.241 N 
ATOM     64  N   UNL     1      15.462  32.223  23.538  1.00  0.00    -0.066 NA
BRANCH  63  65
ATOM     65  C   UNL     1      17.636  31.373  24.364  1.00  0.00     0.268 C 
BRANCH  65  66
ATOM     66  C   UNL     1      18.306  30.813  23.177  1.00  0.00     0.325 C 
ATOM     67  O   UNL     1      18.965  29.766  23.266  1.00  0.00    -0.250 OA
BRANCH  66  68
ATOM     68  O   UNL     1      18.199  31.459  21.963  1.00  0.00    -0.480 OA
ATOM     69  H   UNL     1      18.057  32.444  21.879  1.00  0.00     0.296 HD
ENDBRANCH  66  68
ENDBRANCH  65  66
ENDBRANCH  63  65
ENDBRANCH  59  60
ENDBRANCH  58  59
ENDBRANCH  55  58
ENDBRANCH  53  54
ENDBRANCH  50  53
ENDBRANCH  47  50
ENDBRANCH   5  47
BRANCH   4  70
ATOM     70  N   UNL     1      16.445  30.595  15.542  1.00  0.00    -0.348 N 
ATOM     71  C   UNL     1      16.896  31.608  14.627  1.00  0.00     0.217 C 
ATOM     72  H   UNL     1      15.615  30.043  15.249  1.00  0.00     0.163 HD
ATOM     73  C   UNL     1      16.150  31.810  13.363  1.00  0.00     0.114 C 
ATOM     74  O   UNL     1      17.900  32.311  14.886  1.00  0.00    -0.275 OA
ENDBRANCH   4  70
TORSDOF 32
