REMARK VINA RESULT:    -5.770      3.520      9.578
REMARK INTER + INTRA:         -20.642
REMARK INTER:                 -14.192
REMARK INTRA:                  -6.450
REMARK UNBOUND:                -5.091
REMARK SMILES C=CCCCCn1cc(COC(=O)NC[C@@H](O)C(O)[C@@H]2O[C@@](OC[C@H]3O[C@@H](O[C@H]4[C@H](O)[C@@H](O)[C@H](OCCN=[N+]=[N-])O[C@@H]4CO)[C@H](O)[C@@H](O)[C@H]3O)(C(=O)O)C[C@H](O)[C@H]2NC(C)=O)nn1
REMARK SMILES IDX 18 1 20 2 22 3 54 4 21 5 55 6 57 7 23 8 24 9 25 10 27 11
REMARK SMILES IDX 26 12 45 13 47 14 49 15 28 16 29 17 42 18 41 19 34 20 30 21
REMARK SMILES IDX 32 22 43 23 44 24 35 26 36 27 37 28 38 29 39 30 40 31 31 32
REMARK SMILES IDX 33 34 46 36 48 38 50 40 51 42 52 43 53 44 56 46 58 48 59 49
REMARK SMILES IDX 60 51 61 52 19 53 16 55 17 56 15 58 14 59 12 60 13 62 11 63
REMARK SMILES IDX 10 64 9 65 8 66 62 67 7 68 63 69 6 70 5 71 4 72 3 73 2 74
REMARK SMILES IDX 1 75
REMARK H PARENT 44 25 31 33 33 35 46 37 48 39 50 41 53 45 56 47 58 50 19 54
REMARK H PARENT 17 57 14 61
REMARK Flexibility Score: inf
ROOT
ATOM      1  C   UNL     1      23.735  28.234  21.341  1.00  0.00     0.176 C 
ENDROOT
BRANCH   1   2
ATOM      2  C   UNL     1      23.624  26.718  21.520  1.00  0.00     0.178 C 
ATOM      3  C   UNL     1      23.039  25.129  23.076  1.00  0.00     0.272 C 
ATOM      4  C   UNL     1      24.144  24.265  22.631  1.00  0.00     0.113 C 
ATOM      5  O   UNL     1      23.465  26.491  22.841  1.00  0.00    -0.332 OA
ATOM      6  C   UNL     1      24.574  24.442  21.240  1.00  0.00     0.145 C 
ATOM      7  C   UNL     1      24.486  25.867  20.718  1.00  0.00     0.142 C 
BRANCH   3   8
ATOM      8  O   UNL     1      22.881  25.179  24.454  1.00  0.00    -0.338 OA
BRANCH   8   9
ATOM      9  C   UNL     1      23.590  24.451  25.292  1.00  0.00     0.199 C 
BRANCH   9  10
ATOM     10  C   UNL     1      24.029  24.973  26.606  1.00  0.00     0.179 C 
ATOM     11  C   UNL     1      24.365  27.020  27.695  1.00  0.00     0.282 C 
ATOM     12  O   UNL     1      24.366  26.344  26.506  1.00  0.00    -0.341 OA
ATOM     13  C   UNL     1      24.417  26.155  28.893  1.00  0.00     0.202 C 
ATOM     14  C   UNL     1      23.370  25.074  28.933  1.00  0.00     0.179 C 
ATOM     15  C   UNL     1      22.833  24.888  27.547  1.00  0.00     0.177 C 
BRANCH  11  16
ATOM     16  O   UNL     1      23.392  27.981  27.631  1.00  0.00    -0.341 OA
BRANCH  16  17
ATOM     17  C   UNL     1      23.527  28.942  26.675  1.00  0.00     0.184 C 
ATOM     18  C   UNL     1      23.413  30.301  27.323  1.00  0.00     0.178 C 
ATOM     19  O   UNL     1      22.689  31.189  26.510  1.00  0.00    -0.341 OA
ATOM     20  C   UNL     1      21.343  30.863  26.648  1.00  0.00     0.281 C 
ATOM     21  C   UNL     1      22.374  28.877  25.647  1.00  0.00     0.180 C 
ATOM     22  C   UNL     1      21.110  29.433  26.262  1.00  0.00     0.202 C 
BRANCH  18  23
ATOM     23  C   UNL     1      24.761  30.898  27.692  1.00  0.00     0.191 C 
BRANCH  23  24
ATOM     24  O   UNL     1      25.685  30.694  26.682  1.00  0.00    -0.394 OA
ATOM     25  H   UNL     1      25.697  31.488  26.096  1.00  0.00     0.210 HD
ENDBRANCH  23  24
ENDBRANCH  18  23
BRANCH  20  26
ATOM     26  O   UNL     1      20.636  31.721  25.804  1.00  0.00    -0.350 OA
BRANCH  26  27
ATOM     27  C   UNL     1      19.322  31.916  26.186  1.00  0.00     0.169 C 
BRANCH  27  28
ATOM     28  C   UNL     1      18.455  31.675  24.963  1.00  0.00     0.119 C 
BRANCH  28  29
ATOM     29  N   UNL     1      19.239  31.576  23.761  1.00  0.00    -0.092 NA
ATOM     30  N   UNL     1      19.122  30.627  22.995  1.00  0.00     0.001 N 
ATOM     31  N   UNL     1      18.781  29.725  22.229  1.00  0.00    -0.003 NA
ENDBRANCH  28  29
ENDBRANCH  27  28
ENDBRANCH  26  27
ENDBRANCH  20  26
BRANCH  21  32
ATOM     32  O   UNL     1      22.743  29.732  24.611  1.00  0.00    -0.387 OA
ATOM     33  H   UNL     1      22.185  30.532  24.531  1.00  0.00     0.211 HD
ENDBRANCH  21  32
BRANCH  22  34
ATOM     34  O   UNL     1      20.689  28.633  27.321  1.00  0.00    -0.385 OA
ATOM     35  H   UNL     1      20.846  27.687  27.054  1.00  0.00     0.211 HD
ENDBRANCH  22  34
ENDBRANCH  16  17
ENDBRANCH  11  16
BRANCH  13  36
ATOM     36  O   UNL     1      25.673  25.532  28.912  1.00  0.00    -0.385 OA
ATOM     37  H   UNL     1      25.702  24.730  28.360  1.00  0.00     0.211 HD
ENDBRANCH  13  36
BRANCH  14  38
ATOM     38  O   UNL     1      22.351  25.360  29.843  1.00  0.00    -0.387 OA
ATOM     39  H   UNL     1      22.458  26.295  30.110  1.00  0.00     0.211 HD
ENDBRANCH  14  38
BRANCH  15  40
ATOM     40  O   UNL     1      21.875  25.853  27.216  1.00  0.00    -0.387 OA
ATOM     41  H   UNL     1      22.260  26.659  26.824  1.00  0.00     0.211 HD
ENDBRANCH  15  40
ENDBRANCH   9  10
ENDBRANCH   8   9
ENDBRANCH   3   8
BRANCH   3  42
ATOM     42  C   UNL     1      21.837  24.975  22.267  1.00  0.00     0.364 C 
ATOM     43  O   UNL     1      20.809  25.648  22.501  1.00  0.00    -0.246 OA
BRANCH  42  44
ATOM     44  O   UNL     1      21.762  24.095  21.229  1.00  0.00    -0.477 OA
ATOM     45  H   UNL     1      22.455  24.060  20.502  1.00  0.00     0.296 HD
ENDBRANCH  42  44
ENDBRANCH   3  42
BRANCH   6  46
ATOM     46  O   UNL     1      25.904  23.968  21.113  1.00  0.00    -0.391 OA
ATOM     47  H   UNL     1      25.929  23.005  20.885  1.00  0.00     0.211 HD
ENDBRANCH   6  46
BRANCH   7  48
ATOM     48  N   UNL     1      23.997  25.829  19.327  1.00  0.00    -0.348 N 
ATOM     49  C   UNL     1      24.840  25.600  18.215  1.00  0.00     0.217 C 
ATOM     50  H   UNL     1      22.977  25.977  19.095  1.00  0.00     0.163 HD
ATOM     51  C   UNL     1      24.280  25.583  16.813  1.00  0.00     0.114 C 
ATOM     52  O   UNL     1      26.067  25.412  18.414  1.00  0.00    -0.275 OA
ENDBRANCH   7  48
ENDBRANCH   1   2
BRANCH   1  53
ATOM     53  O   UNL     1      23.927  28.383  19.868  1.00  0.00    -0.388 OA
ATOM     54  H   UNL     1      23.402  29.234  19.722  1.00  0.00     0.211 HD
ENDBRANCH   1  53
BRANCH   1  55
ATOM     55  C   UNL     1      22.497  28.987  21.532  1.00  0.00     0.165 C 
BRANCH  55  56
ATOM     56  O   UNL     1      21.453  28.289  22.180  1.00  0.00    -0.388 OA
ATOM     57  H   UNL     1      21.271  27.509  21.601  1.00  0.00     0.211 HD
ENDBRANCH  55  56
BRANCH  55  58
ATOM     58  C   UNL     1      21.940  29.777  20.423  1.00  0.00     0.154 C 
BRANCH  58  59
ATOM     59  N   UNL     1      20.762  29.274  19.830  1.00  0.00    -0.319 N 
ATOM     60  C   UNL     1      20.543  28.203  18.956  1.00  0.00     0.407 C 
ATOM     61  H   UNL     1      19.852  29.811  20.098  1.00  0.00     0.167 HD
ATOM     62  O   UNL     1      21.482  27.497  18.554  1.00  0.00    -0.225 OA
BRANCH  60  63
ATOM     63  O   UNL     1      19.256  27.884  18.500  1.00  0.00    -0.443 OA
BRANCH  63  64
ATOM     64  C   UNL     1      18.323  28.951  18.326  1.00  0.00     0.294 C 
BRANCH  64  65
ATOM     65  C   UNL     1      17.128  28.749  19.183  1.00  0.00     0.120 A 
ATOM     66  C   UNL     1      16.020  29.595  19.211  1.00  0.00     0.138 A 
ATOM     67  N   UNL     1      16.865  27.773  20.065  1.00  0.00    -0.132 NA
ATOM     68  N   UNL     1      15.156  29.093  20.099  1.00  0.00    -0.252 N 
ATOM     69  N   UNL     1      15.665  28.002  20.609  1.00  0.00    -0.067 NA
BRANCH  68  70
ATOM     70  C   UNL     1      13.859  29.712  20.407  1.00  0.00     0.146 C 
BRANCH  70  71
ATOM     71  C   UNL     1      13.354  29.157  21.712  1.00  0.00     0.024 C 
BRANCH  71  72
ATOM     72  C   UNL     1      13.881  30.025  22.834  1.00  0.00     0.006 C 
BRANCH  72  73
ATOM     73  C   UNL     1      12.748  30.815  23.448  1.00  0.00     0.027 C 
BRANCH  73  74
ATOM     74  C   UNL     1      11.555  29.966  23.666  1.00  0.00    -0.035 C 
ATOM     75  C   UNL     1      11.435  29.253  24.768  1.00  0.00     0.004 C 
ENDBRANCH  73  74
ENDBRANCH  72  73
ENDBRANCH  71  72
ENDBRANCH  70  71
ENDBRANCH  68  70
ENDBRANCH  64  65
ENDBRANCH  63  64
ENDBRANCH  60  63
ENDBRANCH  58  59
ENDBRANCH  55  58
ENDBRANCH   1  55
TORSDOF 34
