REMARK VINA RESULT:    -5.486     14.850     19.767
REMARK INTER + INTRA:         -21.453
REMARK INTER:                 -16.182
REMARK INTRA:                  -5.271
REMARK UNBOUND:                -7.468
REMARK SMILES CC(=O)N[C@@H]1[C@@H](O)C[C@](OC[C@H]2O[C@@H](O[C@H]3[C@H](O)[C@@H](O)[C@H](OCCN=[N+]=[N-])O[C@@H]3CO)[C@H](O)[C@@H](O)[C@H]2O)(C(=O)O)O[C@H]1C(O)[C@H](O)CNC(=O)OCc1cn(CC(=O)O)nn1
REMARK SMILES IDX 9 1 8 2 6 3 5 4 42 5 41 6 10 7 11 8 12 9 14 10 13 11 32 12
REMARK SMILES IDX 34 13 36 14 15 15 16 16 29 17 28 18 21 19 17 20 19 21 30 22
REMARK SMILES IDX 31 23 22 25 23 26 24 27 25 28 26 29 27 30 18 31 20 33 33 35
REMARK SMILES IDX 35 37 37 39 38 41 39 42 40 43 7 45 43 47 44 48 45 50 46 51
REMARK SMILES IDX 47 53 48 54 49 55 50 57 51 58 52 59 53 60 54 61 61 62 55 63
REMARK SMILES IDX 60 64 56 65 57 66 58 67 59 68 4 70 2 71 1 73 3 74
REMARK H PARENT 31 24 18 32 20 34 33 36 35 38 37 40 40 44 7 46 44 49 46 52
REMARK H PARENT 48 56 59 69 4 72
REMARK Flexibility Score: inf
ROOT
ATOM      1  C   UNL     1      19.290  28.847  20.214  1.00  0.00     0.272 C 
ATOM      2  C   UNL     1      19.792  30.154  20.759  1.00  0.00     0.113 C 
ATOM      3  C   UNL     1      19.011  30.761  21.848  1.00  0.00     0.145 C 
ATOM      4  C   UNL     1      17.593  30.233  22.033  1.00  0.00     0.142 C 
ATOM      5  C   UNL     1      17.189  29.645  20.716  1.00  0.00     0.178 C 
ATOM      6  O   UNL     1      18.034  28.508  20.611  1.00  0.00    -0.332 OA
ENDROOT
BRANCH   1   7
ATOM      7  O   UNL     1      20.161  27.783  20.532  1.00  0.00    -0.338 OA
BRANCH   7   8
ATOM      8  C   UNL     1      21.486  28.084  20.452  1.00  0.00     0.199 C 
BRANCH   8   9
ATOM      9  C   UNL     1      22.176  27.712  21.774  1.00  0.00     0.179 C 
ATOM     10  C   UNL     1      21.462  26.431  23.556  1.00  0.00     0.282 C 
ATOM     11  O   UNL     1      21.301  27.653  22.828  1.00  0.00    -0.341 OA
ATOM     12  C   UNL     1      21.034  25.373  22.607  1.00  0.00     0.202 C 
ATOM     13  C   UNL     1      22.199  25.196  21.619  1.00  0.00     0.179 C 
ATOM     14  C   UNL     1      23.012  26.462  21.585  1.00  0.00     0.177 C 
BRANCH  10  15
ATOM     15  O   UNL     1      20.769  26.553  24.723  1.00  0.00    -0.341 OA
BRANCH  15  16
ATOM     16  C   UNL     1      21.577  26.581  25.861  1.00  0.00     0.184 C 
ATOM     17  C   UNL     1      22.257  27.917  25.923  1.00  0.00     0.178 C 
ATOM     18  O   UNL     1      23.473  27.828  26.544  1.00  0.00    -0.341 OA
ATOM     19  C   UNL     1      23.571  26.958  27.600  1.00  0.00     0.281 C 
ATOM     20  C   UNL     1      22.642  25.507  25.805  1.00  0.00     0.180 C 
ATOM     21  C   UNL     1      23.345  25.520  27.165  1.00  0.00     0.202 C 
BRANCH  17  22
ATOM     22  C   UNL     1      21.372  28.894  26.676  1.00  0.00     0.191 C 
BRANCH  22  23
ATOM     23  O   UNL     1      20.397  29.312  25.766  1.00  0.00    -0.394 OA
ATOM     24  H   UNL     1      20.719  30.069  25.230  1.00  0.00     0.210 HD
ENDBRANCH  22  23
ENDBRANCH  17  22
BRANCH  19  25
ATOM     25  O   UNL     1      22.750  27.334  28.627  1.00  0.00    -0.350 OA
BRANCH  25  26
ATOM     26  C   UNL     1      22.521  26.356  29.561  1.00  0.00     0.169 C 
BRANCH  26  27
ATOM     27  C   UNL     1      23.424  26.412  30.765  1.00  0.00     0.119 C 
BRANCH  27  28
ATOM     28  N   UNL     1      24.215  25.185  30.889  1.00  0.00    -0.092 NA
ATOM     29  N   UNL     1      25.444  25.350  31.018  1.00  0.00     0.001 N 
ATOM     30  N   UNL     1      26.651  25.133  30.799  1.00  0.00    -0.003 NA
ENDBRANCH  27  28
ENDBRANCH  26  27
ENDBRANCH  25  26
ENDBRANCH  19  25
BRANCH  20  31
ATOM     31  O   UNL     1      22.139  24.243  25.622  1.00  0.00    -0.387 OA
ATOM     32  H   UNL     1      21.359  24.179  25.048  1.00  0.00     0.211 HD
ENDBRANCH  20  31
BRANCH  21  33
ATOM     33  O   UNL     1      24.556  24.857  27.109  1.00  0.00    -0.385 OA
ATOM     34  H   UNL     1      24.531  24.001  27.609  1.00  0.00     0.211 HD
ENDBRANCH  21  33
ENDBRANCH  15  16
ENDBRANCH  10  15
BRANCH  12  35
ATOM     35  O   UNL     1      20.612  24.189  23.137  1.00  0.00    -0.385 OA
ATOM     36  H   UNL     1      21.125  23.449  22.775  1.00  0.00     0.211 HD
ENDBRANCH  12  35
BRANCH  13  37
ATOM     37  O   UNL     1      21.638  24.933  20.378  1.00  0.00    -0.387 OA
ATOM     38  H   UNL     1      22.323  24.814  19.662  1.00  0.00     0.211 HD
ENDBRANCH  13  37
BRANCH  14  39
ATOM     39  O   UNL     1      23.592  26.523  20.319  1.00  0.00    -0.387 OA
ATOM     40  H   UNL     1      23.416  25.714  19.783  1.00  0.00     0.211 HD
ENDBRANCH  14  39
ENDBRANCH   8   9
ENDBRANCH   7   8
ENDBRANCH   1   7
BRANCH   1  41
ATOM     41  C   UNL     1      19.312  28.928  18.736  1.00  0.00     0.364 C 
ATOM     42  O   UNL     1      18.982  27.962  18.022  1.00  0.00    -0.246 OA
BRANCH  41  43
ATOM     43  O   UNL     1      19.700  30.082  18.076  1.00  0.00    -0.477 OA
ATOM     44  H   UNL     1      20.058  30.080  17.112  1.00  0.00     0.296 HD
ENDBRANCH  41  43
ENDBRANCH   1  41
BRANCH   3  45
ATOM     45  O   UNL     1      19.692  30.850  23.067  1.00  0.00    -0.391 OA
ATOM     46  H   UNL     1      19.744  31.752  23.425  1.00  0.00     0.211 HD
ENDBRANCH   3  45
BRANCH   5  47
ATOM     47  C   UNL     1      15.774  29.204  20.566  1.00  0.00     0.176 C 
BRANCH  47  48
ATOM     48  O   UNL     1      15.567  28.297  21.659  1.00  0.00    -0.388 OA
ATOM     49  H   UNL     1      14.652  28.441  22.034  1.00  0.00     0.211 HD
ENDBRANCH  47  48
BRANCH  47  50
ATOM     50  C   UNL     1      15.487  28.452  19.284  1.00  0.00     0.165 C 
BRANCH  50  51
ATOM     51  O   UNL     1      16.255  27.258  19.275  1.00  0.00    -0.388 OA
ATOM     52  H   UNL     1      17.097  27.463  18.814  1.00  0.00     0.211 HD
ENDBRANCH  50  51
BRANCH  50  53
ATOM     53  C   UNL     1      15.782  29.231  18.063  1.00  0.00     0.154 C 
BRANCH  53  54
ATOM     54  N   UNL     1      14.623  29.437  17.243  1.00  0.00    -0.319 N 
ATOM     55  C   UNL     1      13.609  30.404  17.421  1.00  0.00     0.407 C 
ATOM     56  H   UNL     1      14.454  28.812  16.374  1.00  0.00     0.167 HD
ATOM     57  O   UNL     1      13.631  31.198  18.365  1.00  0.00    -0.225 OA
BRANCH  55  58
ATOM     58  O   UNL     1      12.526  30.515  16.543  1.00  0.00    -0.443 OA
BRANCH  58  59
ATOM     59  C   UNL     1      12.726  30.794  15.168  1.00  0.00     0.294 C 
BRANCH  59  60
ATOM     60  C   UNL     1      12.474  29.573  14.342  1.00  0.00     0.120 A 
ATOM     61  C   UNL     1      11.843  29.524  13.107  1.00  0.00     0.139 A 
ATOM     62  N   UNL     1      12.803  28.304  14.627  1.00  0.00    -0.132 NA
ATOM     63  N   UNL     1      11.816  28.242  12.701  1.00  0.00    -0.241 N 
ATOM     64  N   UNL     1      12.404  27.519  13.642  1.00  0.00    -0.066 NA
BRANCH  63  65
ATOM     65  C   UNL     1      11.252  27.707  11.458  1.00  0.00     0.268 C 
BRANCH  65  66
ATOM     66  C   UNL     1       9.872  28.209  11.330  1.00  0.00     0.325 C 
ATOM     67  O   UNL     1       9.587  29.043  10.459  1.00  0.00    -0.250 OA
BRANCH  66  68
ATOM     68  O   UNL     1       8.895  27.746  12.187  1.00  0.00    -0.480 OA
ATOM     69  H   UNL     1       8.286  26.987  11.963  1.00  0.00     0.296 HD
ENDBRANCH  66  68
ENDBRANCH  65  66
ENDBRANCH  63  65
ENDBRANCH  59  60
ENDBRANCH  58  59
ENDBRANCH  55  58
ENDBRANCH  53  54
ENDBRANCH  50  53
ENDBRANCH  47  50
ENDBRANCH   5  47
BRANCH   4  70
ATOM     70  N   UNL     1      16.745  31.217  22.609  1.00  0.00    -0.348 N 
ATOM     71  C   UNL     1      15.949  30.960  23.779  1.00  0.00     0.217 C 
ATOM     72  H   UNL     1      16.683  32.174  22.208  1.00  0.00     0.163 HD
ATOM     73  C   UNL     1      15.094  32.047  24.311  1.00  0.00     0.114 C 
ATOM     74  O   UNL     1      15.972  29.841  24.342  1.00  0.00    -0.275 OA
ENDBRANCH   4  70
TORSDOF 32
