REMARK VINA RESULT:    -6.352     16.670     22.982
REMARK INTER + INTRA:         -21.932
REMARK INTER:                 -16.572
REMARK INTRA:                  -5.360
REMARK UNBOUND:                -6.298
REMARK SMILES CC(=O)N[C@@H]1[C@@H](O)C[C@](OC[C@H]2O[C@@H](O[C@H]3[C@H](O)[C@@H](O)[C@H](OCCN=[N+]=[N-])O[C@@H]3CO)[C@H](O)[C@@H](O)[C@H]2O)(C(=O)O)O[C@H]1C(O)[C@H](O)CNC(=O)OCc1cn(-c2c(C)cc(C)cc2C)nn1
REMARK SMILES IDX 9 1 8 2 6 3 5 4 42 5 41 6 10 7 11 8 12 9 14 10 13 11 32 12
REMARK SMILES IDX 34 13 36 14 15 15 16 16 29 17 28 18 21 19 17 20 19 21 30 22
REMARK SMILES IDX 31 23 22 25 23 26 24 27 25 28 26 29 27 30 18 31 20 33 33 35
REMARK SMILES IDX 35 37 37 39 38 41 39 42 40 43 7 45 43 47 44 48 45 50 46 51
REMARK SMILES IDX 47 53 48 54 49 55 50 57 51 58 52 59 53 60 54 61 66 62 55 63
REMARK SMILES IDX 65 64 56 65 57 66 63 67 58 68 59 69 62 70 64 71 60 72 61 73
REMARK SMILES IDX 4 74 2 75 1 77 3 78
REMARK H PARENT 31 24 18 32 20 34 33 36 35 38 37 40 40 44 7 46 44 49 46 52
REMARK H PARENT 48 56 4 76
REMARK Flexibility Score: inf
ROOT
ATOM      1  C   UNL     1       4.711  24.574  33.554  1.00  0.00     0.272 C 
ATOM      2  C   UNL     1       3.338  24.628  34.102  1.00  0.00     0.113 C 
ATOM      3  C   UNL     1       2.930  23.493  35.008  1.00  0.00     0.145 C 
ATOM      4  C   UNL     1       3.579  22.223  34.560  1.00  0.00     0.142 C 
ATOM      5  C   UNL     1       3.889  22.426  33.072  1.00  0.00     0.178 C 
ATOM      6  O   UNL     1       5.003  23.308  33.026  1.00  0.00    -0.332 OA
ENDROOT
BRANCH   1   7
ATOM      7  O   UNL     1       5.732  24.987  34.356  1.00  0.00    -0.338 OA
BRANCH   7   8
ATOM      8  C   UNL     1       6.657  24.112  34.792  1.00  0.00     0.199 C 
BRANCH   8   9
ATOM      9  C   UNL     1       7.522  24.835  35.836  1.00  0.00     0.179 C 
ATOM     10  C   UNL     1       8.792  24.253  37.665  1.00  0.00     0.282 C 
ATOM     11  O   UNL     1       7.579  24.108  37.009  1.00  0.00    -0.341 OA
ATOM     12  C   UNL     1       9.812  23.538  36.817  1.00  0.00     0.202 C 
ATOM     13  C   UNL     1       9.927  24.342  35.530  1.00  0.00     0.179 C 
ATOM     14  C   UNL     1       8.822  25.314  35.307  1.00  0.00     0.177 C 
BRANCH  10  15
ATOM     15  O   UNL     1       8.761  23.917  38.965  1.00  0.00    -0.341 OA
BRANCH  15  16
ATOM     16  C   UNL     1       8.131  22.788  39.345  1.00  0.00     0.184 C 
ATOM     17  C   UNL     1       6.988  23.138  40.281  1.00  0.00     0.178 C 
ATOM     18  O   UNL     1       7.272  22.891  41.591  1.00  0.00    -0.341 OA
ATOM     19  C   UNL     1       7.509  21.559  41.893  1.00  0.00     0.281 C 
ATOM     20  C   UNL     1       9.130  21.893  40.085  1.00  0.00     0.180 C 
ATOM     21  C   UNL     1       8.388  20.864  40.918  1.00  0.00     0.202 C 
BRANCH  17  22
ATOM     22  C   UNL     1       5.690  22.498  39.817  1.00  0.00     0.191 C 
BRANCH  22  23
ATOM     23  O   UNL     1       5.475  22.750  38.465  1.00  0.00    -0.394 OA
ATOM     24  H   UNL     1       6.304  22.871  37.949  1.00  0.00     0.210 HD
ENDBRANCH  22  23
ENDBRANCH  17  22
BRANCH  19  25
ATOM     25  O   UNL     1       6.306  20.849  42.022  1.00  0.00    -0.350 OA
BRANCH  25  26
ATOM     26  C   UNL     1       6.390  19.542  41.615  1.00  0.00     0.169 C 
BRANCH  26  27
ATOM     27  C   UNL     1       5.149  18.988  40.985  1.00  0.00     0.119 C 
BRANCH  27  28
ATOM     28  N   UNL     1       5.312  17.604  40.575  1.00  0.00    -0.092 NA
ATOM     29  N   UNL     1       5.520  17.313  39.380  1.00  0.00     0.001 N 
ATOM     30  N   UNL     1       5.778  17.239  38.173  1.00  0.00    -0.003 NA
ENDBRANCH  27  28
ENDBRANCH  26  27
ENDBRANCH  25  26
ENDBRANCH  19  25
BRANCH  20  31
ATOM     31  O   UNL     1       9.982  21.223  39.243  1.00  0.00    -0.387 OA
ATOM     32  H   UNL     1       9.671  20.324  38.964  1.00  0.00     0.211 HD
ENDBRANCH  20  31
BRANCH  21  33
ATOM     33  O   UNL     1       9.350  20.135  41.613  1.00  0.00    -0.385 OA
ATOM     34  H   UNL     1      10.211  20.106  41.109  1.00  0.00     0.211 HD
ENDBRANCH  21  33
ENDBRANCH  15  16
ENDBRANCH  10  15
BRANCH  12  35
ATOM     35  O   UNL     1      11.075  23.515  37.401  1.00  0.00    -0.385 OA
ATOM     36  H   UNL     1      11.669  22.987  36.787  1.00  0.00     0.211 HD
ENDBRANCH  12  35
BRANCH  13  37
ATOM     37  O   UNL     1      10.025  23.507  34.418  1.00  0.00    -0.387 OA
ATOM     38  H   UNL     1       9.181  23.443  33.902  1.00  0.00     0.211 HD
ENDBRANCH  13  37
BRANCH  14  39
ATOM     39  O   UNL     1       8.721  25.523  33.910  1.00  0.00    -0.387 OA
ATOM     40  H   UNL     1       8.972  26.446  33.678  1.00  0.00     0.211 HD
ENDBRANCH  14  39
ENDBRANCH   8   9
ENDBRANCH   7   8
ENDBRANCH   1   7
BRANCH   1  41
ATOM     41  C   UNL     1       4.701  25.444  32.317  1.00  0.00     0.364 C 
ATOM     42  O   UNL     1       5.058  26.622  32.414  1.00  0.00    -0.246 OA
BRANCH  41  43
ATOM     43  O   UNL     1       4.304  24.949  31.090  1.00  0.00    -0.477 OA
ATOM     44  H   UNL     1       4.887  24.898  30.274  1.00  0.00     0.296 HD
ENDBRANCH  41  43
ENDBRANCH   1  41
BRANCH   3  45
ATOM     45  O   UNL     1       3.261  23.869  36.309  1.00  0.00    -0.391 OA
ATOM     46  H   UNL     1       3.810  24.717  36.266  1.00  0.00     0.211 HD
ENDBRANCH   3  45
BRANCH   5  47
ATOM     47  C   UNL     1       4.350  21.217  32.359  1.00  0.00     0.176 C 
BRANCH  47  48
ATOM     48  O   UNL     1       5.558  21.595  31.665  1.00  0.00    -0.388 OA
ATOM     49  H   UNL     1       6.234  20.883  31.805  1.00  0.00     0.211 HD
ENDBRANCH  47  48
BRANCH  47  50
ATOM     50  C   UNL     1       3.492  20.703  31.220  1.00  0.00     0.165 C 
BRANCH  50  51
ATOM     51  O   UNL     1       4.475  20.521  30.173  1.00  0.00    -0.388 OA
ATOM     52  H   UNL     1       4.054  20.061  29.421  1.00  0.00     0.211 HD
ENDBRANCH  50  51
BRANCH  50  53
ATOM     53  C   UNL     1       2.606  21.786  30.654  1.00  0.00     0.154 C 
BRANCH  53  54
ATOM     54  N   UNL     1       3.167  22.573  29.599  1.00  0.00    -0.319 N 
ATOM     55  C   UNL     1       2.431  22.755  28.388  1.00  0.00     0.407 C 
ATOM     56  H   UNL     1       4.122  23.020  29.701  1.00  0.00     0.167 HD
ATOM     57  O   UNL     1       1.308  22.185  28.320  1.00  0.00    -0.225 OA
BRANCH  55  58
ATOM     58  O   UNL     1       2.910  23.516  27.329  1.00  0.00    -0.443 OA
BRANCH  58  59
ATOM     59  C   UNL     1       2.534  24.859  27.139  1.00  0.00     0.294 C 
BRANCH  59  60
ATOM     60  C   UNL     1       3.665  25.821  27.246  1.00  0.00     0.121 A 
ATOM     61  C   UNL     1       4.243  26.576  26.252  1.00  0.00     0.144 A 
ATOM     62  N   UNL     1       4.354  26.138  28.381  1.00  0.00    -0.131 NA
ATOM     63  N   UNL     1       5.237  27.309  26.780  1.00  0.00    -0.220 N 
ATOM     64  N   UNL     1       5.265  27.008  28.078  1.00  0.00    -0.062 NA
BRANCH  63  65
ATOM     65  C   UNL     1       6.121  28.236  26.121  1.00  0.00     0.072 A 
ATOM     66  C   UNL     1       7.121  27.697  25.350  1.00  0.00    -0.025 A 
ATOM     67  C   UNL     1       5.948  29.567  26.277  1.00  0.00    -0.025 A 
ATOM     68  C   UNL     1       7.280  26.209  25.203  1.00  0.00     0.047 C 
ATOM     69  C   UNL     1       7.981  28.569  24.713  1.00  0.00     0.009 A 
ATOM     70  C   UNL     1       6.845  30.411  25.612  1.00  0.00     0.009 A 
ATOM     71  C   UNL     1       4.876  30.186  27.100  1.00  0.00     0.047 C 
ATOM     72  C   UNL     1       7.864  29.930  24.827  1.00  0.00    -0.050 A 
ATOM     73  C   UNL     1       8.820  30.813  24.114  1.00  0.00     0.044 C 
ENDBRANCH  63  65
ENDBRANCH  59  60
ENDBRANCH  58  59
ENDBRANCH  55  58
ENDBRANCH  53  54
ENDBRANCH  50  53
ENDBRANCH  47  50
ENDBRANCH   5  47
BRANCH   4  74
ATOM     74  N   UNL     1       2.896  21.034  34.839  1.00  0.00    -0.348 N 
ATOM     75  C   UNL     1       2.910  20.401  36.115  1.00  0.00     0.217 C 
ATOM     76  H   UNL     1       2.326  20.578  34.105  1.00  0.00     0.163 HD
ATOM     77  C   UNL     1       2.167  19.132  36.381  1.00  0.00     0.114 C 
ATOM     78  O   UNL     1       3.566  20.946  37.018  1.00  0.00    -0.275 OA
ENDBRANCH   4  74
TORSDOF 30
