REMARK VINA RESULT:    -6.441      9.025     13.616
REMARK INTER + INTRA:         -21.053
REMARK INTER:                 -14.231
REMARK INTRA:                  -6.822
REMARK UNBOUND:                -4.822
REMARK SMILES CC(=O)N[C@@H]1[C@@H](O)C[C@](OC[C@H]2O[C@@H](O[C@H]3[C@H](O)[C@@H](O)[C@H](OCCN=[N+]=[N-])O[C@@H]3CO)[C@H](O)[C@@H](O)[C@H]2O)(C(=O)O)O[C@H]1C(O)[C@H](O)CNC(=O)OCc1cn(Cc2ccccc2Br)nn1
REMARK SMILES IDX 9 1 8 2 6 3 5 4 42 5 41 6 10 7 11 8 12 9 14 10 13 11 32 12
REMARK SMILES IDX 34 13 36 14 15 15 16 16 29 17 28 18 21 19 17 20 19 21 30 22
REMARK SMILES IDX 31 23 22 25 23 26 24 27 25 28 26 29 27 30 18 31 20 33 33 35
REMARK SMILES IDX 35 37 37 39 38 41 39 42 40 43 7 45 43 47 44 48 45 50 46 51
REMARK SMILES IDX 47 53 48 54 49 55 50 57 51 58 52 59 53 60 54 61 65 62 55 63
REMARK SMILES IDX 64 64 56 65 57 66 58 67 62 68 59 69 61 70 63 71 60 72 4 73
REMARK SMILES IDX 2 74 1 76 3 77
REMARK H PARENT 31 24 18 32 20 34 33 36 35 38 37 40 40 44 7 46 44 49 46 52
REMARK H PARENT 48 56 4 75
REMARK Flexibility Score: inf
ROOT
ATOM      1  C   UNL     1      13.522  30.768  21.407  1.00  0.00     0.272 C 
ATOM      2  C   UNL     1      12.326  31.315  22.081  1.00  0.00     0.113 C 
ATOM      3  C   UNL     1      12.410  31.159  23.557  1.00  0.00     0.145 C 
ATOM      4  C   UNL     1      13.662  31.824  24.057  1.00  0.00     0.142 C 
ATOM      5  C   UNL     1      14.813  31.727  23.131  1.00  0.00     0.178 C 
ATOM      6  O   UNL     1      14.578  31.716  21.802  1.00  0.00    -0.332 OA
ENDROOT
BRANCH   1   7
ATOM      7  O   UNL     1      13.522  30.839  20.063  1.00  0.00    -0.338 OA
BRANCH   7   8
ATOM      8  C   UNL     1      14.470  31.129  19.231  1.00  0.00     0.199 C 
BRANCH   8   9
ATOM      9  C   UNL     1      15.677  30.386  18.865  1.00  0.00     0.179 C 
ATOM     10  C   UNL     1      17.962  30.202  18.779  1.00  0.00     0.282 C 
ATOM     11  O   UNL     1      16.871  30.743  19.501  1.00  0.00    -0.341 OA
ATOM     12  C   UNL     1      18.026  28.745  19.147  1.00  0.00     0.202 C 
ATOM     13  C   UNL     1      16.702  28.082  18.994  1.00  0.00     0.179 C 
ATOM     14  C   UNL     1      15.566  28.946  18.521  1.00  0.00     0.177 C 
BRANCH  10  15
ATOM     15  O   UNL     1      19.065  30.907  19.156  1.00  0.00    -0.341 OA
BRANCH  15  16
ATOM     16  C   UNL     1      20.003  31.190  18.209  1.00  0.00     0.184 C 
ATOM     17  C   UNL     1      21.418  30.913  18.578  1.00  0.00     0.178 C 
ATOM     18  O   UNL     1      22.178  32.039  18.275  1.00  0.00    -0.341 OA
ATOM     19  C   UNL     1      21.709  33.064  19.135  1.00  0.00     0.281 C 
ATOM     20  C   UNL     1      19.868  32.591  17.635  1.00  0.00     0.180 C 
ATOM     21  C   UNL     1      20.423  33.628  18.592  1.00  0.00     0.202 C 
BRANCH  17  22
ATOM     22  C   UNL     1      22.013  29.763  17.767  1.00  0.00     0.191 C 
BRANCH  22  23
ATOM     23  O   UNL     1      21.192  29.454  16.683  1.00  0.00    -0.394 OA
ATOM     24  H   UNL     1      20.462  30.103  16.564  1.00  0.00     0.210 HD
ENDBRANCH  22  23
ENDBRANCH  17  22
BRANCH  19  25
ATOM     25  O   UNL     1      22.736  34.001  19.201  1.00  0.00    -0.350 OA
BRANCH  25  26
ATOM     26  C   UNL     1      23.932  33.427  19.636  1.00  0.00     0.169 C 
BRANCH  26  27
ATOM     27  C   UNL     1      24.236  33.983  21.016  1.00  0.00     0.119 C 
BRANCH  27  28
ATOM     28  N   UNL     1      23.964  32.949  21.983  1.00  0.00    -0.092 NA
ATOM     29  N   UNL     1      22.898  32.905  22.604  1.00  0.00     0.001 N 
ATOM     30  N   UNL     1      22.023  33.212  23.441  1.00  0.00    -0.003 NA
ENDBRANCH  27  28
ENDBRANCH  26  27
ENDBRANCH  25  26
ENDBRANCH  19  25
BRANCH  20  31
ATOM     31  O   UNL     1      20.605  32.717  16.456  1.00  0.00    -0.387 OA
ATOM     32  H   UNL     1      19.991  32.460  15.713  1.00  0.00     0.211 HD
ENDBRANCH  20  31
BRANCH  21  33
ATOM     33  O   UNL     1      19.525  34.013  19.553  1.00  0.00    -0.385 OA
ATOM     34  H   UNL     1      18.607  33.846  19.234  1.00  0.00     0.211 HD
ENDBRANCH  21  33
ENDBRANCH  15  16
ENDBRANCH  10  15
BRANCH  12  35
ATOM     35  O   UNL     1      18.916  28.049  18.313  1.00  0.00    -0.385 OA
ATOM     36  H   UNL     1      18.561  28.126  17.398  1.00  0.00     0.211 HD
ENDBRANCH  12  35
BRANCH  13  37
ATOM     37  O   UNL     1      16.332  27.515  20.222  1.00  0.00    -0.387 OA
ATOM     38  H   UNL     1      17.106  27.222  20.743  1.00  0.00     0.211 HD
ENDBRANCH  13  37
BRANCH  14  39
ATOM     39  O   UNL     1      14.400  28.362  18.993  1.00  0.00    -0.387 OA
ATOM     40  H   UNL     1      13.641  28.952  19.108  1.00  0.00     0.211 HD
ENDBRANCH  14  39
ENDBRANCH   8   9
ENDBRANCH   7   8
ENDBRANCH   1   7
BRANCH   1  41
ATOM     41  C   UNL     1      14.094  29.509  21.929  1.00  0.00     0.364 C 
ATOM     42  O   UNL     1      15.269  29.335  22.326  1.00  0.00    -0.246 OA
BRANCH  41  43
ATOM     43  O   UNL     1      13.283  28.389  21.993  1.00  0.00    -0.477 OA
ATOM     44  H   UNL     1      12.265  28.457  21.942  1.00  0.00     0.296 HD
ENDBRANCH  41  43
ENDBRANCH   1  41
BRANCH   3  45
ATOM     45  O   UNL     1      11.289  31.887  24.075  1.00  0.00    -0.391 OA
ATOM     46  H   UNL     1      10.614  31.275  24.427  1.00  0.00     0.211 HD
ENDBRANCH   3  45
BRANCH   5  47
ATOM     47  C   UNL     1      15.775  32.889  23.393  1.00  0.00     0.176 C 
BRANCH  47  48
ATOM     48  O   UNL     1      15.293  33.987  22.696  1.00  0.00    -0.388 OA
ATOM     49  H   UNL     1      14.322  34.039  22.669  1.00  0.00     0.211 HD
ENDBRANCH  47  48
BRANCH  47  50
ATOM     50  C   UNL     1      17.167  32.595  22.956  1.00  0.00     0.165 C 
BRANCH  50  51
ATOM     51  O   UNL     1      17.230  31.462  22.127  1.00  0.00    -0.388 OA
ATOM     52  H   UNL     1      16.834  31.663  21.241  1.00  0.00     0.211 HD
ENDBRANCH  50  51
BRANCH  50  53
ATOM     53  C   UNL     1      18.040  32.277  24.142  1.00  0.00     0.154 C 
BRANCH  53  54
ATOM     54  N   UNL     1      19.290  31.752  23.722  1.00  0.00    -0.319 N 
ATOM     55  C   UNL     1      19.603  30.378  23.687  1.00  0.00     0.407 C 
ATOM     56  H   UNL     1      20.035  32.446  23.416  1.00  0.00     0.167 HD
ATOM     57  O   UNL     1      18.767  29.506  24.034  1.00  0.00    -0.225 OA
BRANCH  55  58
ATOM     58  O   UNL     1      20.860  29.926  23.264  1.00  0.00    -0.443 OA
BRANCH  58  59
ATOM     59  C   UNL     1      21.119  29.613  21.922  1.00  0.00     0.294 C 
BRANCH  59  60
ATOM     60  C   UNL     1      21.167  28.161  21.634  1.00  0.00     0.120 A 
ATOM     61  C   UNL     1      21.362  27.177  22.615  1.00  0.00     0.138 A 
ATOM     62  N   UNL     1      21.049  27.499  20.480  1.00  0.00    -0.132 NA
ATOM     63  N   UNL     1      21.352  25.991  22.017  1.00  0.00    -0.248 N 
ATOM     64  N   UNL     1      21.160  26.208  20.712  1.00  0.00    -0.067 NA
BRANCH  63  65
ATOM     65  C   UNL     1      21.500  24.657  22.599  1.00  0.00     0.182 C 
BRANCH  65  66
ATOM     66  C   UNL     1      22.443  24.611  23.736  1.00  0.00    -0.012 A 
ATOM     67  C   UNL     1      21.892  24.670  25.028  1.00  0.00     0.007 A 
ATOM     68  C   UNL     1      23.804  24.543  23.610  1.00  0.00     0.023 A 
ATOM     69  C   UNL     1      22.727  24.660  26.103  1.00  0.00     0.000 A 
ATOM     70  C   UNL     1      24.640  24.535  24.715  1.00  0.00     0.016 A 
ATOM     71  Br  UNL     1      24.608  24.399  21.895  1.00  0.00    -0.050 Br
ATOM     72  C   UNL     1      24.087  24.594  25.967  1.00  0.00     0.001 A 
ENDBRANCH  65  66
ENDBRANCH  63  65
ENDBRANCH  59  60
ENDBRANCH  58  59
ENDBRANCH  55  58
ENDBRANCH  53  54
ENDBRANCH  50  53
ENDBRANCH  47  50
ENDBRANCH   5  47
BRANCH   4  73
ATOM     73  N   UNL     1      14.005  31.271  25.341  1.00  0.00    -0.348 N 
ATOM     74  C   UNL     1      13.590  31.847  26.580  1.00  0.00     0.217 C 
ATOM     75  H   UNL     1      14.584  30.410  25.434  1.00  0.00     0.163 HD
ATOM     76  C   UNL     1      13.985  31.219  27.880  1.00  0.00     0.114 C 
ATOM     77  O   UNL     1      12.899  32.874  26.545  1.00  0.00    -0.275 OA
ENDBRANCH   4  73
TORSDOF 31
