REMARK VINA RESULT:    -5.001      3.012     10.698
REMARK INTER + INTRA:         -22.662
REMARK INTER:                 -15.463
REMARK INTRA:                  -7.199
REMARK UNBOUND:                -9.623
REMARK SMILES CC(=O)N[C@@H]1[C@@H](O)C[C@](OC[C@H]2O[C@@H](O[C@H]3[C@H](O)[C@@H](O)[C@H](OCCN=[N+]=[N-])O[C@@H]3CO)[C@H](O)[C@@H](O)[C@H]2O)(C(=O)O)O[C@H]1C(O)[C@H](O)CNC(=O)OCc1cn(Cc2ccc(C(=O)O)cc2)nn1
REMARK SMILES IDX 43 1 42 2 9 3 8 4 41 5 6 6 5 7 10 8 11 9 12 10 14 11 13 12
REMARK SMILES IDX 32 13 34 14 36 15 15 16 16 17 29 18 28 19 21 20 17 21 19 22
REMARK SMILES IDX 30 23 31 24 22 26 23 27 24 28 25 29 26 30 27 31 18 32 20 34
REMARK SMILES IDX 33 36 35 38 37 40 38 42 39 43 40 44 7 46 4 48 2 49 1 51 3 52
REMARK SMILES IDX 44 53 45 55 46 56 47 58 48 59 49 60 50 62 51 63 52 64 53 65
REMARK SMILES IDX 54 66 67 67 55 68 66 69 56 70 57 71 58 72 65 73 59 74 64 75
REMARK SMILES IDX 60 76 61 77 62 78 63 79
REMARK H PARENT 31 25 18 33 20 35 33 37 35 39 37 41 40 45 7 47 4 50 44 54
REMARK H PARENT 46 57 48 61 63 80
REMARK Flexibility Score: inf
ROOT
ATOM      1  C   UNL     1      21.167  28.046  24.652  1.00  0.00     0.176 C 
ENDROOT
BRANCH   1   2
ATOM      2  C   UNL     1      22.309  27.006  24.623  1.00  0.00     0.178 C 
ATOM      3  C   UNL     1      23.187  25.708  22.850  1.00  0.00     0.272 C 
ATOM      4  C   UNL     1      22.873  24.497  23.634  1.00  0.00     0.113 C 
ATOM      5  O   UNL     1      22.633  26.867  23.329  1.00  0.00    -0.332 OA
ATOM      6  C   UNL     1      21.629  24.638  24.485  1.00  0.00     0.145 C 
ATOM      7  C   UNL     1      21.849  25.825  25.376  1.00  0.00     0.142 C 
BRANCH   3   8
ATOM      8  O   UNL     1      22.748  25.600  21.557  1.00  0.00    -0.338 OA
BRANCH   8   9
ATOM      9  C   UNL     1      22.735  24.399  20.943  1.00  0.00     0.199 C 
BRANCH   9  10
ATOM     10  C   UNL     1      23.042  24.569  19.435  1.00  0.00     0.179 C 
ATOM     11  C   UNL     1      22.694  26.061  17.680  1.00  0.00     0.282 C 
ATOM     12  O   UNL     1      22.365  25.660  18.974  1.00  0.00    -0.341 OA
ATOM     13  C   UNL     1      23.557  25.100  16.943  1.00  0.00     0.202 C 
ATOM     14  C   UNL     1      24.805  24.857  17.766  1.00  0.00     0.179 C 
ATOM     15  C   UNL     1      24.531  24.668  19.225  1.00  0.00     0.177 C 
BRANCH  11  16
ATOM     16  O   UNL     1      23.299  27.315  17.762  1.00  0.00    -0.341 OA
BRANCH  16  17
ATOM     17  C   UNL     1      22.413  28.327  17.530  1.00  0.00     0.184 C 
ATOM     18  C   UNL     1      21.888  28.933  18.779  1.00  0.00     0.178 C 
ATOM     19  O   UNL     1      21.203  30.127  18.510  1.00  0.00    -0.341 OA
ATOM     20  C   UNL     1      20.396  29.996  17.377  1.00  0.00     0.281 C 
ATOM     21  C   UNL     1      21.246  27.709  16.736  1.00  0.00     0.180 C 
ATOM     22  C   UNL     1      20.044  28.578  17.040  1.00  0.00     0.202 C 
BRANCH  18  23
ATOM     23  C   UNL     1      23.007  29.251  19.730  1.00  0.00     0.191 C 
BRANCH  23  24
ATOM     24  O   UNL     1      23.210  28.076  20.490  1.00  0.00    -0.394 OA
ATOM     25  H   UNL     1      23.959  28.195  21.104  1.00  0.00     0.210 HD
ENDBRANCH  23  24
ENDBRANCH  18  23
BRANCH  20  26
ATOM     26  O   UNL     1      20.990  30.652  16.325  1.00  0.00    -0.350 OA
BRANCH  26  27
ATOM     27  C   UNL     1      20.138  31.398  15.543  1.00  0.00     0.169 C 
BRANCH  27  28
ATOM     28  C   UNL     1      20.427  31.383  14.079  1.00  0.00     0.119 C 
BRANCH  28  29
ATOM     29  N   UNL     1      20.785  29.997  13.737  1.00  0.00    -0.092 NA
ATOM     30  N   UNL     1      21.036  29.645  12.590  1.00  0.00     0.001 N 
ATOM     31  N   UNL     1      21.115  29.512  11.374  1.00  0.00    -0.003 NA
ENDBRANCH  28  29
ENDBRANCH  27  28
ENDBRANCH  26  27
ENDBRANCH  20  26
BRANCH  21  32
ATOM     32  O   UNL     1      21.539  27.691  15.390  1.00  0.00    -0.387 OA
ATOM     33  H   UNL     1      20.909  28.284  14.866  1.00  0.00     0.211 HD
ENDBRANCH  21  32
BRANCH  22  34
ATOM     34  O   UNL     1      19.280  27.985  18.019  1.00  0.00    -0.385 OA
ATOM     35  H   UNL     1      19.248  28.506  18.841  1.00  0.00     0.211 HD
ENDBRANCH  22  34
ENDBRANCH  16  17
ENDBRANCH  11  16
BRANCH  13  36
ATOM     36  O   UNL     1      22.898  23.886  16.697  1.00  0.00    -0.385 OA
ATOM     37  H   UNL     1      23.317  23.510  15.876  1.00  0.00     0.211 HD
ENDBRANCH  13  36
BRANCH  14  38
ATOM     38  O   UNL     1      25.732  25.886  17.599  1.00  0.00    -0.387 OA
ATOM     39  H   UNL     1      26.227  25.718  16.749  1.00  0.00     0.211 HD
ENDBRANCH  14  38
BRANCH  15  40
ATOM     40  O   UNL     1      25.095  25.685  20.007  1.00  0.00    -0.387 OA
ATOM     41  H   UNL     1      26.081  25.595  19.928  1.00  0.00     0.211 HD
ENDBRANCH  15  40
ENDBRANCH   9  10
ENDBRANCH   8   9
ENDBRANCH   3   8
BRANCH   3  42
ATOM     42  C   UNL     1      24.680  25.925  22.893  1.00  0.00     0.364 C 
ATOM     43  O   UNL     1      25.168  27.066  22.694  1.00  0.00    -0.246 OA
BRANCH  42  44
ATOM     44  O   UNL     1      25.559  24.887  23.151  1.00  0.00    -0.477 OA
ATOM     45  H   UNL     1      26.263  24.677  22.426  1.00  0.00     0.296 HD
ENDBRANCH  42  44
ENDBRANCH   3  42
BRANCH   6  46
ATOM     46  O   UNL     1      20.553  24.761  23.633  1.00  0.00    -0.391 OA
ATOM     47  H   UNL     1      20.476  23.947  23.069  1.00  0.00     0.211 HD
ENDBRANCH   6  46
BRANCH   7  48
ATOM     48  N   UNL     1      22.846  25.467  26.376  1.00  0.00    -0.348 N 
ATOM     49  C   UNL     1      22.671  25.812  27.761  1.00  0.00     0.217 C 
ATOM     50  H   UNL     1      23.729  24.954  26.167  1.00  0.00     0.163 HD
ATOM     51  C   UNL     1      23.719  25.426  28.758  1.00  0.00     0.114 C 
ATOM     52  O   UNL     1      21.646  26.427  28.096  1.00  0.00    -0.275 OA
ENDBRANCH   7  48
ENDBRANCH   1   2
BRANCH   1  53
ATOM     53  O   UNL     1      19.929  27.502  24.762  1.00  0.00    -0.388 OA
ATOM     54  H   UNL     1      19.244  27.834  24.140  1.00  0.00     0.211 HD
ENDBRANCH   1  53
BRANCH   1  55
ATOM     55  C   UNL     1      21.445  29.134  25.661  1.00  0.00     0.165 C 
BRANCH  55  56
ATOM     56  O   UNL     1      20.804  28.846  26.824  1.00  0.00    -0.388 OA
ATOM     57  H   UNL     1      21.368  28.589  27.580  1.00  0.00     0.211 HD
ENDBRANCH  55  56
BRANCH  55  58
ATOM     58  C   UNL     1      21.237  30.464  25.048  1.00  0.00     0.154 C 
BRANCH  58  59
ATOM     59  N   UNL     1      20.084  30.499  24.192  1.00  0.00    -0.319 N 
ATOM     60  C   UNL     1      20.056  31.112  22.919  1.00  0.00     0.407 C 
ATOM     61  H   UNL     1      19.183  30.046  24.511  1.00  0.00     0.167 HD
ATOM     62  O   UNL     1      21.049  31.675  22.436  1.00  0.00    -0.225 OA
BRANCH  60  63
ATOM     63  O   UNL     1      18.904  31.124  22.106  1.00  0.00    -0.443 OA
BRANCH  63  64
ATOM     64  C   UNL     1      18.964  30.594  20.794  1.00  0.00     0.294 C 
BRANCH  64  65
ATOM     65  C   UNL     1      17.829  29.706  20.486  1.00  0.00     0.120 A 
ATOM     66  C   UNL     1      16.533  30.017  20.181  1.00  0.00     0.138 A 
ATOM     67  N   UNL     1      17.910  28.362  20.480  1.00  0.00    -0.132 NA
ATOM     68  N   UNL     1      15.865  28.857  20.000  1.00  0.00    -0.248 N 
ATOM     69  N   UNL     1      16.721  27.869  20.187  1.00  0.00    -0.067 NA
BRANCH  68  70
ATOM     70  C   UNL     1      14.467  28.755  19.668  1.00  0.00     0.181 C 
BRANCH  70  71
ATOM     71  C   UNL     1      13.645  29.513  20.632  1.00  0.00    -0.026 A 
ATOM     72  C   UNL     1      13.210  30.782  20.317  1.00  0.00     0.006 A 
ATOM     73  C   UNL     1      13.322  28.960  21.868  1.00  0.00     0.006 A 
ATOM     74  C   UNL     1      12.460  31.444  21.273  1.00  0.00     0.016 A 
ATOM     75  C   UNL     1      12.577  29.625  22.816  1.00  0.00     0.016 A 
ATOM     76  C   UNL     1      12.143  30.891  22.498  1.00  0.00     0.059 A 
BRANCH  76  77
ATOM     77  C   UNL     1      11.355  31.643  23.461  1.00  0.00     0.335 C 
ATOM     78  O   UNL     1      10.118  31.597  23.427  1.00  0.00    -0.246 OA
BRANCH  77  79
ATOM     79  O   UNL     1      11.989  32.408  24.414  1.00  0.00    -0.478 OA
ATOM     80  H   UNL     1      11.743  33.382  24.581  1.00  0.00     0.297 HD
ENDBRANCH  77  79
ENDBRANCH  76  77
ENDBRANCH  70  71
ENDBRANCH  68  70
ENDBRANCH  64  65
ENDBRANCH  63  64
ENDBRANCH  60  63
ENDBRANCH  58  59
ENDBRANCH  55  58
ENDBRANCH   1  55
TORSDOF 33
