REMARK VINA RESULT:    -5.557      9.797     14.527
REMARK INTER + INTRA:         -24.255
REMARK INTER:                 -17.088
REMARK INTRA:                  -7.166
REMARK UNBOUND:                -7.166
REMARK SMILES CC(=O)N[C@@H]1[C@@H](O)C[C@](OC[C@H]2O[C@@H](O[C@H]3[C@H](O)[C@@H](O)[C@H](OCCN=[N+]=[N-])O[C@@H]3CO)[C@H](O)[C@@H](O)[C@H]2O)(C(=O)O)O[C@H]1C(O)[C@H](O)CNC(=O)OCc1cn(CCCCCCCCCCC(=O)O)nn1
REMARK SMILES IDX 51 1 49 2 48 3 50 5 47 6 45 7 43 8 42 9 9 10 8 11 41 12 6 13
REMARK SMILES IDX 5 14 10 15 11 16 12 17 14 18 13 19 32 20 34 21 36 22 15 23
REMARK SMILES IDX 16 24 29 25 28 26 21 27 17 28 19 29 30 30 31 31 22 33 23 34
REMARK SMILES IDX 24 35 25 36 26 37 27 38 18 39 20 41 33 43 35 45 37 47 38 49
REMARK SMILES IDX 39 50 40 51 7 53 4 55 2 56 1 58 3 59 44 60 46 62 52 64 53 65
REMARK SMILES IDX 54 66 70 67 55 68 69 69 56 70 57 71 58 72 59 73 60 74 61 75
REMARK SMILES IDX 62 76 63 77 64 78 65 79 66 80 67 81 68 82
REMARK H PARENT 48 4 31 32 18 40 20 42 33 44 35 46 37 48 40 52 7 54 4 57 44 61
REMARK H PARENT 46 63 68 83
REMARK Flexibility Score: inf
ROOT
ATOM      1  O   UNL     1       4.318  20.852  31.118  1.00  0.00    -0.443 OA
ENDROOT
BRANCH   1   2
ATOM      2  C   UNL     1       3.272  20.784  30.171  1.00  0.00     0.407 C 
ATOM      3  N   UNL     1       3.193  21.719  29.109  1.00  0.00    -0.319 N 
ATOM      4  H   UNL     1       3.929  22.472  29.047  1.00  0.00     0.167 HD
ATOM      5  O   UNL     1       2.392  19.897  30.244  1.00  0.00    -0.225 OA
BRANCH   3   6
ATOM      6  C   UNL     1       2.157  21.682  28.122  1.00  0.00     0.154 C 
BRANCH   6   7
ATOM      7  C   UNL     1       2.085  22.922  27.237  1.00  0.00     0.165 C 
BRANCH   7   8
ATOM      8  C   UNL     1       3.319  23.704  27.525  1.00  0.00     0.176 C 
BRANCH   8   9
ATOM      9  C   UNL     1       3.123  25.172  27.819  1.00  0.00     0.178 C 
ATOM     10  C   UNL     1       3.849  27.246  27.058  1.00  0.00     0.272 C 
ATOM     11  C   UNL     1       3.793  27.697  28.502  1.00  0.00     0.113 C 
ATOM     12  O   UNL     1       4.017  25.874  27.060  1.00  0.00    -0.332 OA
ATOM     13  C   UNL     1       4.110  26.615  29.484  1.00  0.00     0.145 C 
ATOM     14  C   UNL     1       3.130  25.478  29.284  1.00  0.00     0.142 C 
BRANCH  10  15
ATOM     15  O   UNL     1       4.915  27.867  26.387  1.00  0.00    -0.338 OA
BRANCH  15  16
ATOM     16  C   UNL     1       6.143  27.323  26.558  1.00  0.00     0.199 C 
BRANCH  16  17
ATOM     17  C   UNL     1       6.697  27.051  25.143  1.00  0.00     0.179 C 
ATOM     18  C   UNL     1       7.349  29.127  24.215  1.00  0.00     0.282 C 
ATOM     19  O   UNL     1       6.510  28.066  24.291  1.00  0.00    -0.341 OA
ATOM     20  C   UNL     1       8.657  28.916  24.876  1.00  0.00     0.202 C 
ATOM     21  C   UNL     1       9.103  27.478  24.640  1.00  0.00     0.179 C 
ATOM     22  C   UNL     1       8.105  26.507  25.238  1.00  0.00     0.177 C 
BRANCH  18  23
ATOM     23  O   UNL     1       6.631  30.245  24.712  1.00  0.00    -0.341 OA
BRANCH  23  24
ATOM     24  C   UNL     1       6.136  30.938  23.616  1.00  0.00     0.184 C 
ATOM     25  C   UNL     1       6.479  32.391  23.575  1.00  0.00     0.178 C 
ATOM     26  O   UNL     1       5.810  33.018  22.565  1.00  0.00    -0.341 OA
ATOM     27  C   UNL     1       5.113  32.317  21.653  1.00  0.00     0.281 C 
ATOM     28  C   UNL     1       4.601  30.862  23.610  1.00  0.00     0.180 C 
ATOM     29  C   UNL     1       4.170  31.285  22.224  1.00  0.00     0.202 C 
BRANCH  25  30
ATOM     30  C   UNL     1       7.967  32.662  23.450  1.00  0.00     0.191 C 
BRANCH  30  31
ATOM     31  O   UNL     1       8.665  32.463  24.612  1.00  0.00    -0.394 OA
ATOM     32  H   UNL     1       9.233  33.260  24.779  1.00  0.00     0.210 HD
ENDBRANCH  30  31
ENDBRANCH  25  30
BRANCH  27  33
ATOM     33  O   UNL     1       5.978  31.673  20.778  1.00  0.00    -0.350 OA
BRANCH  33  34
ATOM     34  C   UNL     1       5.317  31.176  19.655  1.00  0.00     0.169 C 
BRANCH  34  35
ATOM     35  C   UNL     1       4.913  32.269  18.707  1.00  0.00     0.119 C 
BRANCH  35  36
ATOM     36  N   UNL     1       5.355  31.904  17.359  1.00  0.00    -0.092 NA
ATOM     37  N   UNL     1       6.524  31.510  17.156  1.00  0.00     0.001 N 
ATOM     38  N   UNL     1       7.726  31.176  17.244  1.00  0.00    -0.003 NA
ENDBRANCH  35  36
ENDBRANCH  34  35
ENDBRANCH  33  34
ENDBRANCH  27  33
BRANCH  28  39
ATOM     39  O   UNL     1       4.131  29.594  23.879  1.00  0.00    -0.387 OA
ATOM     40  H   UNL     1       4.596  28.883  23.371  1.00  0.00     0.211 HD
ENDBRANCH  28  39
BRANCH  29  41
ATOM     41  O   UNL     1       2.917  31.880  22.341  1.00  0.00    -0.385 OA
ATOM     42  H   UNL     1       2.759  32.409  21.499  1.00  0.00     0.211 HD
ENDBRANCH  29  41
ENDBRANCH  23  24
ENDBRANCH  18  23
BRANCH  20  43
ATOM     43  O   UNL     1       9.677  29.701  24.320  1.00  0.00    -0.385 OA
ATOM     44  H   UNL     1      10.525  29.383  24.752  1.00  0.00     0.211 HD
ENDBRANCH  20  43
BRANCH  21  45
ATOM     45  O   UNL     1      10.360  27.256  25.197  1.00  0.00    -0.387 OA
ATOM     46  H   UNL     1      10.775  28.148  25.315  1.00  0.00     0.211 HD
ENDBRANCH  21  45
BRANCH  22  47
ATOM     47  O   UNL     1       8.452  26.302  26.551  1.00  0.00    -0.387 OA
ATOM     48  H   UNL     1       9.136  26.972  26.805  1.00  0.00     0.211 HD
ENDBRANCH  22  47
ENDBRANCH  16  17
ENDBRANCH  15  16
ENDBRANCH  10  15
BRANCH  10  49
ATOM     49  C   UNL     1       2.653  27.642  26.309  1.00  0.00     0.364 C 
ATOM     50  O   UNL     1       2.621  27.700  25.069  1.00  0.00    -0.246 OA
BRANCH  49  51
ATOM     51  O   UNL     1       1.485  27.974  26.976  1.00  0.00    -0.477 OA
ATOM     52  H   UNL     1       0.814  27.267  27.288  1.00  0.00     0.296 HD
ENDBRANCH  49  51
ENDBRANCH  10  49
BRANCH  13  53
ATOM     53  O   UNL     1       5.420  26.190  29.502  1.00  0.00    -0.391 OA
ATOM     54  H   UNL     1       5.984  26.648  30.188  1.00  0.00     0.211 HD
ENDBRANCH  13  53
BRANCH  14  55
ATOM     55  N   UNL     1       1.878  25.892  29.826  1.00  0.00    -0.348 N 
ATOM     56  C   UNL     1       0.977  25.033  30.516  1.00  0.00     0.217 C 
ATOM     57  H   UNL     1       1.562  26.887  29.731  1.00  0.00     0.163 HD
ATOM     58  C   UNL     1      -0.302  25.536  31.048  1.00  0.00     0.114 C 
ATOM     59  O   UNL     1       1.307  23.841  30.655  1.00  0.00    -0.275 OA
ENDBRANCH  14  55
ENDBRANCH   8   9
BRANCH   8  60
ATOM     60  O   UNL     1       4.253  23.438  26.560  1.00  0.00    -0.388 OA
ATOM     61  H   UNL     1       4.319  24.095  25.850  1.00  0.00     0.211 HD
ENDBRANCH   8  60
ENDBRANCH   7   8
BRANCH   7  62
ATOM     62  O   UNL     1       0.897  23.573  27.548  1.00  0.00    -0.388 OA
ATOM     63  H   UNL     1       0.683  23.519  28.511  1.00  0.00     0.211 HD
ENDBRANCH   7  62
ENDBRANCH   6   7
ENDBRANCH   3   6
ENDBRANCH   1   2
BRANCH   1  64
ATOM     64  C   UNL     1       4.088  21.686  32.262  1.00  0.00     0.294 C 
BRANCH  64  65
ATOM     65  C   UNL     1       5.413  22.064  32.797  1.00  0.00     0.120 A 
ATOM     66  C   UNL     1       5.702  23.262  33.425  1.00  0.00     0.138 A 
ATOM     67  N   UNL     1       6.545  21.347  32.787  1.00  0.00    -0.132 NA
ATOM     68  N   UNL     1       7.004  23.208  33.766  1.00  0.00    -0.252 N 
ATOM     69  N   UNL     1       7.500  22.022  33.363  1.00  0.00    -0.067 NA
BRANCH  68  70
ATOM     70  C   UNL     1       7.796  24.188  34.441  1.00  0.00     0.146 C 
BRANCH  70  71
ATOM     71  C   UNL     1       9.264  24.115  34.205  1.00  0.00     0.024 C 
BRANCH  71  72
ATOM     72  C   UNL     1      10.015  25.393  34.325  1.00  0.00     0.002 C 
BRANCH  72  73
ATOM     73  C   UNL     1       9.219  26.577  34.751  1.00  0.00     0.000 C 
BRANCH  73  74
ATOM     74  C   UNL     1       9.013  27.625  33.712  1.00  0.00     0.000 C 
BRANCH  74  75
ATOM     75  C   UNL     1       7.761  28.406  34.003  1.00  0.00     0.000 C 
BRANCH  75  76
ATOM     76  C   UNL     1       6.500  27.581  33.863  1.00  0.00     0.000 C 
BRANCH  76  77
ATOM     77  C   UNL     1       5.698  27.922  32.651  1.00  0.00     0.001 C 
BRANCH  77  78
ATOM     78  C   UNL     1       6.226  29.073  31.851  1.00  0.00     0.012 C 
BRANCH  78  79
ATOM     79  C   UNL     1       5.048  29.790  31.214  1.00  0.00     0.122 C 
BRANCH  79  80
ATOM     80  C   UNL     1       5.442  31.176  30.905  1.00  0.00     0.303 C 
ATOM     81  O   UNL     1       5.462  31.585  29.726  1.00  0.00    -0.252 OA
BRANCH  80  82
ATOM     82  O   UNL     1       5.803  32.065  31.908  1.00  0.00    -0.481 OA
ATOM     83  H   UNL     1       6.745  32.137  32.247  1.00  0.00     0.296 HD
ENDBRANCH  80  82
ENDBRANCH  79  80
ENDBRANCH  78  79
ENDBRANCH  77  78
ENDBRANCH  76  77
ENDBRANCH  75  76
ENDBRANCH  74  75
ENDBRANCH  73  74
ENDBRANCH  72  73
ENDBRANCH  71  72
ENDBRANCH  70  71
ENDBRANCH  68  70
ENDBRANCH  64  65
ENDBRANCH   1  64
TORSDOF 41
