REMARK VINA RESULT:    -6.335      4.421     10.699
REMARK INTER + INTRA:         -21.161
REMARK INTER:                 -13.669
REMARK INTRA:                  -7.492
REMARK UNBOUND:                -4.828
REMARK SMILES CC(=O)N[C@@H]1[C@@H](O)C[C@](OC[C@H]2O[C@@H](O[C@H]3[C@H](O)[C@@H](O)[C@H](OCCN=[N+]=[N-])O[C@@H]3CO)[C@H](O)[C@@H](O)[C@H]2O)(C(=O)O)O[C@H]1C(O)[C@H](O)CNC(=O)OCc1cn(CCN2CCCC2)nn1
REMARK SMILES IDX 9 1 8 2 6 3 5 4 42 5 41 6 10 7 11 8 12 9 14 10 13 11 32 12
REMARK SMILES IDX 34 13 36 14 15 15 16 16 29 17 28 18 21 19 17 20 19 21 30 22
REMARK SMILES IDX 31 23 22 25 23 26 24 27 25 28 26 29 27 30 18 31 20 33 33 35
REMARK SMILES IDX 35 37 37 39 38 41 39 42 40 43 7 45 43 47 44 48 45 50 46 51
REMARK SMILES IDX 47 53 48 54 49 55 50 57 51 58 52 59 53 60 54 61 64 62 55 63
REMARK SMILES IDX 63 64 56 65 57 66 58 67 59 68 62 69 60 70 61 71 4 72 2 73
REMARK SMILES IDX 1 75 3 76
REMARK H PARENT 31 24 18 32 20 34 33 36 35 38 37 40 40 44 7 46 44 49 46 52
REMARK H PARENT 48 56 4 74
REMARK Flexibility Score: inf
ROOT
ATOM      1  C   UNL     1      15.001  31.799  16.872  1.00  0.00     0.272 C 
ATOM      2  C   UNL     1      13.899  31.305  17.756  1.00  0.00     0.113 C 
ATOM      3  C   UNL     1      13.697  29.794  17.577  1.00  0.00     0.145 C 
ATOM      4  C   UNL     1      13.211  29.616  16.111  1.00  0.00     0.142 C 
ATOM      5  C   UNL     1      14.225  30.269  15.245  1.00  0.00     0.178 C 
ATOM      6  O   UNL     1      15.303  30.752  15.992  1.00  0.00    -0.332 OA
ENDROOT
BRANCH   1   7
ATOM      7  O   UNL     1      16.197  31.969  17.574  1.00  0.00    -0.338 OA
BRANCH   7   8
ATOM      8  C   UNL     1      17.338  31.560  16.986  1.00  0.00     0.199 C 
BRANCH   8   9
ATOM      9  C   UNL     1      18.134  30.581  17.844  1.00  0.00     0.179 C 
ATOM     10  C   UNL     1      18.329  29.725  19.963  1.00  0.00     0.282 C 
ATOM     11  O   UNL     1      17.479  30.212  19.006  1.00  0.00    -0.341 OA
ATOM     12  C   UNL     1      19.387  28.876  19.344  1.00  0.00     0.202 C 
ATOM     13  C   UNL     1      18.857  28.289  18.048  1.00  0.00     0.179 C 
ATOM     14  C   UNL     1      18.558  29.373  17.032  1.00  0.00     0.177 C 
BRANCH  10  15
ATOM     15  O   UNL     1      17.731  29.193  21.066  1.00  0.00    -0.341 OA
BRANCH  15  16
ATOM     16  C   UNL     1      16.599  29.671  21.571  1.00  0.00     0.184 C 
ATOM     17  C   UNL     1      16.631  30.202  22.990  1.00  0.00     0.178 C 
ATOM     18  O   UNL     1      15.571  31.107  23.107  1.00  0.00    -0.341 OA
ATOM     19  C   UNL     1      14.400  30.304  23.224  1.00  0.00     0.281 C 
ATOM     20  C   UNL     1      15.398  28.742  21.526  1.00  0.00     0.180 C 
ATOM     21  C   UNL     1      14.218  29.626  21.882  1.00  0.00     0.202 C 
BRANCH  17  22
ATOM     22  C   UNL     1      17.924  30.827  23.389  1.00  0.00     0.191 C 
BRANCH  22  23
ATOM     23  O   UNL     1      18.780  29.814  23.812  1.00  0.00    -0.394 OA
ATOM     24  H   UNL     1      18.376  28.924  23.618  1.00  0.00     0.210 HD
ENDBRANCH  22  23
ENDBRANCH  17  22
BRANCH  19  25
ATOM     25  O   UNL     1      13.374  31.179  23.391  1.00  0.00    -0.350 OA
BRANCH  25  26
ATOM     26  C   UNL     1      12.645  31.161  24.530  1.00  0.00     0.169 C 
BRANCH  26  27
ATOM     27  C   UNL     1      12.126  29.850  25.009  1.00  0.00     0.119 C 
BRANCH  27  28
ATOM     28  N   UNL     1      10.990  29.349  24.275  1.00  0.00    -0.092 NA
ATOM     29  N   UNL     1      10.447  28.316  24.639  1.00  0.00     0.001 N 
ATOM     30  N   UNL     1       9.940  27.316  25.158  1.00  0.00    -0.003 NA
ENDBRANCH  27  28
ENDBRANCH  26  27
ENDBRANCH  25  26
ENDBRANCH  19  25
BRANCH  20  31
ATOM     31  O   UNL     1      15.166  28.277  20.241  1.00  0.00    -0.387 OA
ATOM     32  H   UNL     1      15.020  27.313  20.179  1.00  0.00     0.211 HD
ENDBRANCH  20  31
BRANCH  21  33
ATOM     33  O   UNL     1      13.006  28.986  21.765  1.00  0.00    -0.385 OA
ATOM     34  H   UNL     1      12.320  29.441  21.248  1.00  0.00     0.211 HD
ENDBRANCH  21  33
ENDBRANCH  15  16
ENDBRANCH  10  15
BRANCH  12  35
ATOM     35  O   UNL     1      20.550  29.585  19.020  1.00  0.00    -0.385 OA
ATOM     36  H   UNL     1      20.374  30.570  19.045  1.00  0.00     0.211 HD
ENDBRANCH  12  35
BRANCH  13  37
ATOM     37  O   UNL     1      17.655  27.617  18.290  1.00  0.00    -0.387 OA
ATOM     38  H   UNL     1      16.914  28.286  18.440  1.00  0.00     0.211 HD
ENDBRANCH  13  37
BRANCH  14  39
ATOM     39  O   UNL     1      17.520  28.896  16.235  1.00  0.00    -0.387 OA
ATOM     40  H   UNL     1      17.244  29.677  15.671  1.00  0.00     0.211 HD
ENDBRANCH  14  39
ENDBRANCH   8   9
ENDBRANCH   7   8
ENDBRANCH   1   7
BRANCH   1  41
ATOM     41  C   UNL     1      14.658  33.023  16.101  1.00  0.00     0.364 C 
ATOM     42  O   UNL     1      15.529  33.476  15.297  1.00  0.00    -0.246 OA
BRANCH  41  43
ATOM     43  O   UNL     1      13.481  33.720  16.176  1.00  0.00    -0.477 OA
ATOM     44  H   UNL     1      12.583  33.383  16.435  1.00  0.00     0.296 HD
ENDBRANCH  41  43
ENDBRANCH   1  41
BRANCH   3  45
ATOM     45  O   UNL     1      14.884  29.112  17.678  1.00  0.00    -0.391 OA
ATOM     46  H   UNL     1      15.378  29.058  16.816  1.00  0.00     0.211 HD
ENDBRANCH   3  45
BRANCH   5  47
ATOM     47  C   UNL     1      14.860  29.263  14.314  1.00  0.00     0.176 C 
BRANCH  47  48
ATOM     48  O   UNL     1      14.243  28.027  14.293  1.00  0.00    -0.388 OA
ATOM     49  H   UNL     1      14.738  27.313  13.836  1.00  0.00     0.211 HD
ENDBRANCH  47  48
BRANCH  47  50
ATOM     50  C   UNL     1      15.251  29.697  12.955  1.00  0.00     0.165 C 
BRANCH  50  51
ATOM     51  O   UNL     1      14.286  29.622  11.978  1.00  0.00    -0.388 OA
ATOM     52  H   UNL     1      13.616  30.341  11.979  1.00  0.00     0.211 HD
ENDBRANCH  50  51
BRANCH  50  53
ATOM     53  C   UNL     1      16.666  29.450  12.546  1.00  0.00     0.154 C 
BRANCH  53  54
ATOM     54  N   UNL     1      17.625  29.984  13.439  1.00  0.00    -0.319 N 
ATOM     55  C   UNL     1      18.275  31.247  13.217  1.00  0.00     0.407 C 
ATOM     56  H   UNL     1      17.889  29.460  14.309  1.00  0.00     0.167 HD
ATOM     57  O   UNL     1      18.044  31.965  12.227  1.00  0.00    -0.225 OA
BRANCH  55  58
ATOM     58  O   UNL     1      19.211  31.726  14.135  1.00  0.00    -0.443 OA
BRANCH  58  59
ATOM     59  C   UNL     1      20.607  31.675  13.825  1.00  0.00     0.294 C 
BRANCH  59  60
ATOM     60  C   UNL     1      21.242  30.501  14.456  1.00  0.00     0.120 A 
ATOM     61  C   UNL     1      21.975  30.346  15.598  1.00  0.00     0.138 A 
ATOM     62  N   UNL     1      21.176  29.247  13.922  1.00  0.00    -0.132 NA
ATOM     63  N   UNL     1      22.325  29.067  15.734  1.00  0.00    -0.251 N 
ATOM     64  N   UNL     1      21.814  28.404  14.675  1.00  0.00    -0.067 NA
BRANCH  63  65
ATOM     65  C   UNL     1      23.087  28.420  16.755  1.00  0.00     0.161 C 
BRANCH  65  66
ATOM     66  C   UNL     1      22.386  27.304  17.437  1.00  0.00     0.108 C 
BRANCH  66  67
ATOM     67  N   UNL     1      22.988  26.674  18.536  1.00  0.00    -0.301 NA
ATOM     68  C   UNL     1      22.315  26.573  19.768  1.00  0.00     0.084 C 
ATOM     69  C   UNL     1      23.721  25.477  18.252  1.00  0.00     0.084 C 
ATOM     70  C   UNL     1      22.439  25.135  20.251  1.00  0.00     0.017 C 
ATOM     71  C   UNL     1      23.532  24.545  19.408  1.00  0.00     0.017 C 
ENDBRANCH  66  67
ENDBRANCH  65  66
ENDBRANCH  63  65
ENDBRANCH  59  60
ENDBRANCH  58  59
ENDBRANCH  55  58
ENDBRANCH  53  54
ENDBRANCH  50  53
ENDBRANCH  47  50
ENDBRANCH   5  47
BRANCH   4  72
ATOM     72  N   UNL     1      11.888  30.210  16.058  1.00  0.00    -0.348 N 
ATOM     73  C   UNL     1      10.876  29.809  15.139  1.00  0.00     0.217 C 
ATOM     74  H   UNL     1      11.627  30.971  16.710  1.00  0.00     0.163 HD
ATOM     75  C   UNL     1       9.541  30.502  15.166  1.00  0.00     0.114 C 
ATOM     76  O   UNL     1      11.111  28.903  14.337  1.00  0.00    -0.275 OA
ENDBRANCH   4  72
TORSDOF 32
