REMARK VINA RESULT:    -5.376      7.247     12.532
REMARK INTER + INTRA:         -21.795
REMARK INTER:                 -14.766
REMARK INTRA:                  -7.028
REMARK UNBOUND:                -8.561
REMARK SMILES CC(=O)N[C@@H]1[C@@H](O)C[C@](OC[C@H]2O[C@@H](O[C@H]3[C@H](O)[C@@H](O)[C@H](OCCN=[N+]=[N-])O[C@@H]3CO)[C@H](O)[C@@H](O)[C@H]2O)(C(=O)O)O[C@H]1C(O)[C@H](O)CNC(=O)OCc1cn(-c2cnc3ccccc3c2)nn1
REMARK SMILES IDX 9 1 8 2 6 3 5 4 42 5 41 6 10 7 11 8 12 9 14 10 13 11 32 12
REMARK SMILES IDX 34 13 36 14 15 15 16 16 29 17 28 18 21 19 17 20 19 21 30 22
REMARK SMILES IDX 31 23 22 25 23 26 24 27 25 28 26 29 27 30 18 31 20 33 33 35
REMARK SMILES IDX 35 37 37 39 38 41 39 42 40 43 7 45 43 47 44 48 45 50 46 51
REMARK SMILES IDX 47 53 48 54 49 55 50 57 51 58 52 59 53 60 54 61 67 62 55 63
REMARK SMILES IDX 66 64 56 65 57 66 65 67 58 68 64 69 59 70 63 71 60 72 62 73
REMARK SMILES IDX 61 74 4 75 2 76 1 78 3 79
REMARK H PARENT 31 24 18 32 20 34 33 36 35 38 37 40 40 44 7 46 44 49 46 52
REMARK H PARENT 48 56 4 77
REMARK Flexibility Score: inf
ROOT
ATOM      1  C   UNL     1      18.209  31.153  22.978  1.00  0.00     0.272 C 
ATOM      2  C   UNL     1      18.177  32.479  22.308  1.00  0.00     0.113 C 
ATOM      3  C   UNL     1      19.515  32.848  21.698  1.00  0.00     0.145 C 
ATOM      4  C   UNL     1      19.940  31.620  20.892  1.00  0.00     0.142 C 
ATOM      5  C   UNL     1      20.222  30.519  21.926  1.00  0.00     0.178 C 
ATOM      6  O   UNL     1      18.927  30.170  22.363  1.00  0.00    -0.332 OA
ENDROOT
BRANCH   1   7
ATOM      7  O   UNL     1      16.909  30.620  23.114  1.00  0.00    -0.338 OA
BRANCH   7   8
ATOM      8  C   UNL     1      16.006  31.469  23.689  1.00  0.00     0.199 C 
BRANCH   8   9
ATOM      9  C   UNL     1      14.656  31.247  23.041  1.00  0.00     0.179 C 
ATOM     10  C   UNL     1      13.496  31.247  21.060  1.00  0.00     0.282 C 
ATOM     11  O   UNL     1      14.722  31.055  21.676  1.00  0.00    -0.341 OA
ATOM     12  C   UNL     1      12.340  30.980  21.980  1.00  0.00     0.202 C 
ATOM     13  C   UNL     1      12.609  29.942  23.010  1.00  0.00     0.179 C 
ATOM     14  C   UNL     1      13.817  30.322  23.817  1.00  0.00     0.177 C 
BRANCH  10  15
ATOM     15  O   UNL     1      13.446  30.505  19.901  1.00  0.00    -0.341 OA
BRANCH  15  16
ATOM     16  C   UNL     1      14.708  30.126  19.444  1.00  0.00     0.184 C 
ATOM     17  C   UNL     1      15.008  30.631  18.054  1.00  0.00     0.178 C 
ATOM     18  O   UNL     1      15.504  29.711  17.184  1.00  0.00    -0.341 OA
ATOM     19  C   UNL     1      16.483  28.868  17.633  1.00  0.00     0.281 C 
ATOM     20  C   UNL     1      14.963  28.656  19.623  1.00  0.00     0.180 C 
ATOM     21  C   UNL     1      16.272  28.290  18.998  1.00  0.00     0.202 C 
BRANCH  17  22
ATOM     22  C   UNL     1      15.817  31.929  18.114  1.00  0.00     0.191 C 
BRANCH  22  23
ATOM     23  O   UNL     1      16.690  31.952  19.198  1.00  0.00    -0.394 OA
ATOM     24  H   UNL     1      17.624  32.074  18.934  1.00  0.00     0.210 HD
ENDBRANCH  22  23
ENDBRANCH  17  22
BRANCH  19  25
ATOM     25  O   UNL     1      17.770  29.394  17.487  1.00  0.00    -0.350 OA
BRANCH  25  26
ATOM     26  C   UNL     1      18.521  28.707  16.557  1.00  0.00     0.169 C 
BRANCH  26  27
ATOM     27  C   UNL     1      18.950  29.593  15.410  1.00  0.00     0.119 C 
BRANCH  27  28
ATOM     28  N   UNL     1      20.083  29.021  14.713  1.00  0.00    -0.092 NA
ATOM     29  N   UNL     1      21.231  29.094  15.150  1.00  0.00     0.001 N 
ATOM     30  N   UNL     1      22.267  28.816  15.757  1.00  0.00    -0.003 NA
ENDBRANCH  27  28
ENDBRANCH  26  27
ENDBRANCH  25  26
ENDBRANCH  19  25
BRANCH  20  31
ATOM     31  O   UNL     1      15.068  28.400  21.008  1.00  0.00    -0.387 OA
ATOM     32  H   UNL     1      14.165  28.418  21.426  1.00  0.00     0.211 HD
ENDBRANCH  20  31
BRANCH  21  33
ATOM     33  O   UNL     1      16.343  26.877  18.994  1.00  0.00    -0.385 OA
ATOM     34  H   UNL     1      16.996  26.579  18.294  1.00  0.00     0.211 HD
ENDBRANCH  21  33
ENDBRANCH  15  16
ENDBRANCH  10  15
BRANCH  12  35
ATOM     35  O   UNL     1      11.853  32.122  22.610  1.00  0.00    -0.385 OA
ATOM     36  H   UNL     1      12.197  32.948  22.193  1.00  0.00     0.211 HD
ENDBRANCH  12  35
BRANCH  13  37
ATOM     37  O   UNL     1      12.753  28.682  22.423  1.00  0.00    -0.387 OA
ATOM     38  H   UNL     1      12.071  28.556  21.743  1.00  0.00     0.211 HD
ENDBRANCH  13  37
BRANCH  14  39
ATOM     39  O   UNL     1      14.449  29.139  24.185  1.00  0.00    -0.387 OA
ATOM     40  H   UNL     1      14.837  28.656  23.432  1.00  0.00     0.211 HD
ENDBRANCH  14  39
ENDBRANCH   8   9
ENDBRANCH   7   8
ENDBRANCH   1   7
BRANCH   1  41
ATOM     41  C   UNL     1      18.804  31.331  24.348  1.00  0.00     0.364 C 
ATOM     42  O   UNL     1      18.978  32.496  24.835  1.00  0.00    -0.246 OA
BRANCH  41  43
ATOM     43  O   UNL     1      19.199  30.296  25.162  1.00  0.00    -0.477 OA
ATOM     44  H   UNL     1      18.561  29.546  25.468  1.00  0.00     0.296 HD
ENDBRANCH  41  43
ENDBRANCH   1  41
BRANCH   3  45
ATOM     45  O   UNL     1      19.445  33.976  20.916  1.00  0.00    -0.391 OA
ATOM     46  H   UNL     1      19.640  33.720  19.990  1.00  0.00     0.211 HD
ENDBRANCH   3  45
BRANCH   5  47
ATOM     47  C   UNL     1      20.771  29.280  21.275  1.00  0.00     0.176 C 
BRANCH  47  48
ATOM     48  O   UNL     1      22.131  29.544  20.961  1.00  0.00    -0.388 OA
ATOM     49  H   UNL     1      22.378  30.470  21.211  1.00  0.00     0.211 HD
ENDBRANCH  47  48
BRANCH  47  50
ATOM     50  C   UNL     1      20.113  28.914  19.951  1.00  0.00     0.165 C 
BRANCH  50  51
ATOM     51  O   UNL     1      19.081  28.001  20.368  1.00  0.00    -0.388 OA
ATOM     52  H   UNL     1      19.279  27.135  19.941  1.00  0.00     0.211 HD
ENDBRANCH  50  51
BRANCH  50  53
ATOM     53  C   UNL     1      21.028  28.024  19.138  1.00  0.00     0.154 C 
BRANCH  53  54
ATOM     54  N   UNL     1      21.687  26.986  19.837  1.00  0.00    -0.319 N 
ATOM     55  C   UNL     1      22.724  26.190  19.305  1.00  0.00     0.407 C 
ATOM     56  H   UNL     1      21.367  26.798  20.840  1.00  0.00     0.167 HD
ATOM     57  O   UNL     1      23.098  26.386  18.133  1.00  0.00    -0.225 OA
BRANCH  55  58
ATOM     58  O   UNL     1      23.278  25.223  20.112  1.00  0.00    -0.443 OA
BRANCH  58  59
ATOM     59  C   UNL     1      22.514  24.231  20.743  1.00  0.00     0.294 C 
BRANCH  59  60
ATOM     60  C   UNL     1      22.077  24.708  22.093  1.00  0.00     0.121 A 
ATOM     61  C   UNL     1      22.756  24.663  23.264  1.00  0.00     0.144 A 
ATOM     62  N   UNL     1      20.872  25.275  22.340  1.00  0.00    -0.131 NA
ATOM     63  N   UNL     1      21.946  25.204  24.194  1.00  0.00    -0.219 N 
ATOM     64  N   UNL     1      20.799  25.575  23.619  1.00  0.00    -0.062 NA
BRANCH  63  65
ATOM     65  C   UNL     1      22.284  25.345  25.571  1.00  0.00     0.085 A 
ATOM     66  C   UNL     1      23.301  24.615  26.096  1.00  0.00     0.140 A 
ATOM     67  C   UNL     1      21.562  26.240  26.344  1.00  0.00     0.040 A 
ATOM     68  N   UNL     1      23.612  24.765  27.400  1.00  0.00    -0.254 NA
ATOM     69  C   UNL     1      21.892  26.379  27.662  1.00  0.00     0.002 A 
ATOM     70  C   UNL     1      22.920  25.627  28.154  1.00  0.00     0.070 A 
ATOM     71  C   UNL     1      21.188  27.263  28.452  1.00  0.00     0.010 A 
ATOM     72  C   UNL     1      23.252  25.775  29.501  1.00  0.00     0.029 A 
ATOM     73  C   UNL     1      21.535  27.394  29.786  1.00  0.00     0.001 A 
ATOM     74  C   UNL     1      22.582  26.639  30.319  1.00  0.00     0.002 A 
ENDBRANCH  63  65
ENDBRANCH  59  60
ENDBRANCH  58  59
ENDBRANCH  55  58
ENDBRANCH  53  54
ENDBRANCH  50  53
ENDBRANCH  47  50
ENDBRANCH   5  47
BRANCH   4  75
ATOM     75  N   UNL     1      21.000  31.907  20.003  1.00  0.00    -0.348 N 
ATOM     76  C   UNL     1      20.738  32.181  18.609  1.00  0.00     0.217 C 
ATOM     77  H   UNL     1      22.004  31.958  20.274  1.00  0.00     0.163 HD
ATOM     78  C   UNL     1      21.825  32.480  17.675  1.00  0.00     0.114 C 
ATOM     79  O   UNL     1      19.525  32.147  18.242  1.00  0.00    -0.275 OA
ENDBRANCH   4  75
TORSDOF 30
