REMARK VINA RESULT:    -5.619     10.637     15.582
REMARK INTER + INTRA:         -22.783
REMARK INTER:                 -16.387
REMARK INTRA:                  -6.396
REMARK UNBOUND:                -8.458
REMARK SMILES CC(=O)N[C@@H]1[C@@H](O)C[C@](OC[C@H]2O[C@@H](O[C@H]3[C@H](O)[C@@H](O)[C@H](OCCN=[N+]=[N-])O[C@@H]3CO)[C@H](O)[C@@H](O)[C@H]2O)(C(=O)O)O[C@H]1C(O)[C@H](O)CNC(=O)OCc1cn(-c2ccc(O)c([N+](=O)[O-])c2)nn1
REMARK SMILES IDX 9 1 8 2 6 3 5 4 42 5 41 6 10 7 11 8 12 9 14 10 13 11 32 12
REMARK SMILES IDX 34 13 36 14 15 15 16 16 29 17 28 18 21 19 17 20 19 21 30 22
REMARK SMILES IDX 31 23 22 25 23 26 24 27 25 28 26 29 27 30 18 31 20 33 33 35
REMARK SMILES IDX 35 37 37 39 38 41 39 42 40 43 7 45 43 47 44 48 45 50 46 51
REMARK SMILES IDX 47 53 48 54 49 55 50 57 51 58 52 59 53 60 54 61 67 62 55 63
REMARK SMILES IDX 66 64 56 65 57 66 65 67 58 68 61 69 59 70 62 71 63 72 64 73
REMARK SMILES IDX 60 74 4 76 2 77 1 79 3 80
REMARK H PARENT 31 24 18 32 20 34 33 36 35 38 37 40 40 44 7 46 44 49 46 52
REMARK H PARENT 48 56 60 75 4 78
REMARK Flexibility Score: inf
ROOT
ATOM      1  C   UNL     1      24.119  23.163  14.794  1.00  0.00     0.272 C 
ATOM      2  C   UNL     1      23.588  23.871  13.532  1.00  0.00     0.113 C 
ATOM      3  C   UNL     1      22.277  23.214  13.113  1.00  0.00     0.145 C 
ATOM      4  C   UNL     1      22.699  21.800  12.637  1.00  0.00     0.142 C 
ATOM      5  C   UNL     1      23.736  21.244  13.573  1.00  0.00     0.178 C 
ATOM      6  O   UNL     1      23.657  21.866  14.833  1.00  0.00    -0.332 OA
ENDROOT
BRANCH   1   7
ATOM      7  O   UNL     1      23.574  23.875  15.846  1.00  0.00    -0.338 OA
BRANCH   7   8
ATOM      8  C   UNL     1      23.538  25.231  15.720  1.00  0.00     0.199 C 
BRANCH   8   9
ATOM      9  C   UNL     1      24.044  25.786  17.074  1.00  0.00     0.179 C 
ATOM     10  C   UNL     1      24.870  24.922  19.002  1.00  0.00     0.282 C 
ATOM     11  O   UNL     1      23.997  24.726  17.929  1.00  0.00    -0.341 OA
ATOM     12  C   UNL     1      26.251  24.745  18.476  1.00  0.00     0.202 C 
ATOM     13  C   UNL     1      26.539  25.830  17.471  1.00  0.00     0.179 C 
ATOM     14  C   UNL     1      25.343  26.454  16.856  1.00  0.00     0.177 C 
BRANCH  10  15
ATOM     15  O   UNL     1      24.539  24.044  20.043  1.00  0.00    -0.341 OA
BRANCH  15  16
ATOM     16  C   UNL     1      23.954  24.772  21.061  1.00  0.00     0.184 C 
ATOM     17  C   UNL     1      24.432  24.452  22.435  1.00  0.00     0.178 C 
ATOM     18  O   UNL     1      23.977  25.458  23.277  1.00  0.00    -0.341 OA
ATOM     19  C   UNL     1      22.566  25.348  23.458  1.00  0.00     0.281 C 
ATOM     20  C   UNL     1      22.431  24.476  21.089  1.00  0.00     0.180 C 
ATOM     21  C   UNL     1      21.857  25.405  22.156  1.00  0.00     0.202 C 
BRANCH  17  22
ATOM     22  C   UNL     1      25.907  24.292  22.594  1.00  0.00     0.191 C 
BRANCH  22  23
ATOM     23  O   UNL     1      26.360  23.153  21.951  1.00  0.00    -0.394 OA
ATOM     24  H   UNL     1      27.072  23.440  21.295  1.00  0.00     0.210 HD
ENDBRANCH  22  23
ENDBRANCH  17  22
BRANCH  19  25
ATOM     25  O   UNL     1      22.257  26.461  24.230  1.00  0.00    -0.350 OA
BRANCH  25  26
ATOM     26  C   UNL     1      22.968  26.535  25.412  1.00  0.00     0.169 C 
BRANCH  26  27
ATOM     27  C   UNL     1      22.079  26.395  26.609  1.00  0.00     0.119 C 
BRANCH  27  28
ATOM     28  N   UNL     1      22.715  25.472  27.545  1.00  0.00    -0.092 NA
ATOM     29  N   UNL     1      23.929  25.615  27.815  1.00  0.00     0.001 N 
ATOM     30  N   UNL     1      24.936  25.849  28.507  1.00  0.00    -0.003 NA
ENDBRANCH  27  28
ENDBRANCH  26  27
ENDBRANCH  25  26
ENDBRANCH  19  25
BRANCH  20  31
ATOM     31  O   UNL     1      21.841  24.816  19.883  1.00  0.00    -0.387 OA
ATOM     32  H   UNL     1      21.149  24.156  19.603  1.00  0.00     0.211 HD
ENDBRANCH  20  31
BRANCH  21  33
ATOM     33  O   UNL     1      20.533  24.999  22.310  1.00  0.00    -0.385 OA
ATOM     34  H   UNL     1      20.309  24.843  23.248  1.00  0.00     0.211 HD
ENDBRANCH  21  33
ENDBRANCH  15  16
ENDBRANCH  10  15
BRANCH  12  35
ATOM     35  O   UNL     1      27.226  24.747  19.468  1.00  0.00    -0.385 OA
ATOM     36  H   UNL     1      27.153  25.562  20.043  1.00  0.00     0.211 HD
ENDBRANCH  12  35
BRANCH  13  37
ATOM     37  O   UNL     1      27.452  25.300  16.551  1.00  0.00    -0.387 OA
ATOM     38  H   UNL     1      27.617  24.357  16.823  1.00  0.00     0.211 HD
ENDBRANCH  13  37
BRANCH  14  39
ATOM     39  O   UNL     1      25.613  26.665  15.487  1.00  0.00    -0.387 OA
ATOM     40  H   UNL     1      25.736  27.612  15.270  1.00  0.00     0.211 HD
ENDBRANCH  14  39
ENDBRANCH   8   9
ENDBRANCH   7   8
ENDBRANCH   1   7
BRANCH   1  41
ATOM     41  C   UNL     1      25.566  23.344  14.769  1.00  0.00     0.364 C 
ATOM     42  O   UNL     1      26.399  22.762  15.514  1.00  0.00    -0.246 OA
BRANCH  41  43
ATOM     43  O   UNL     1      26.124  24.234  13.850  1.00  0.00    -0.477 OA
ATOM     44  H   UNL     1      26.993  24.728  14.022  1.00  0.00     0.296 HD
ENDBRANCH  41  43
ENDBRANCH   1  41
BRANCH   3  45
ATOM     45  O   UNL     1      21.399  23.124  14.161  1.00  0.00    -0.391 OA
ATOM     46  H   UNL     1      21.791  23.562  14.954  1.00  0.00     0.211 HD
ENDBRANCH   3  45
BRANCH   5  47
ATOM     47  C   UNL     1      23.462  19.779  13.809  1.00  0.00     0.176 C 
BRANCH  47  48
ATOM     48  O   UNL     1      23.007  19.630  15.110  1.00  0.00    -0.388 OA
ATOM     49  H   UNL     1      22.116  20.036  15.252  1.00  0.00     0.211 HD
ENDBRANCH  47  48
BRANCH  47  50
ATOM     50  C   UNL     1      22.455  19.177  12.863  1.00  0.00     0.165 C 
BRANCH  50  51
ATOM     51  O   UNL     1      21.473  18.601  13.714  1.00  0.00    -0.388 OA
ATOM     52  H   UNL     1      21.901  18.119  14.477  1.00  0.00     0.211 HD
ENDBRANCH  50  51
BRANCH  50  53
ATOM     53  C   UNL     1      23.037  18.038  12.076  1.00  0.00     0.154 C 
BRANCH  53  54
ATOM     54  N   UNL     1      24.364  17.736  12.542  1.00  0.00    -0.319 N 
ATOM     55  C   UNL     1      25.555  17.907  11.806  1.00  0.00     0.407 C 
ATOM     56  H   UNL     1      24.487  17.348  13.527  1.00  0.00     0.167 HD
ATOM     57  O   UNL     1      25.460  18.350  10.654  1.00  0.00    -0.225 OA
BRANCH  55  58
ATOM     58  O   UNL     1      26.814  17.620  12.278  1.00  0.00    -0.443 OA
BRANCH  58  59
ATOM     59  C   UNL     1      27.835  18.585  12.256  1.00  0.00     0.294 C 
BRANCH  59  60
ATOM     60  C   UNL     1      28.460  18.629  13.611  1.00  0.00     0.121 A 
ATOM     61  C   UNL     1      27.937  19.278  14.733  1.00  0.00     0.144 A 
ATOM     62  N   UNL     1      29.605  18.101  14.061  1.00  0.00    -0.131 NA
ATOM     63  N   UNL     1      28.769  19.109  15.754  1.00  0.00    -0.220 N 
ATOM     64  N   UNL     1      29.780  18.381  15.303  1.00  0.00    -0.062 NA
BRANCH  63  65
ATOM     65  C   UNL     1      28.609  19.621  17.089  1.00  0.00     0.073 A 
ATOM     66  C   UNL     1      28.054  20.845  17.308  1.00  0.00     0.033 A 
ATOM     67  C   UNL     1      29.003  18.902  18.184  1.00  0.00     0.118 A 
ATOM     68  C   UNL     1      27.878  21.376  18.564  1.00  0.00     0.056 A 
ATOM     69  C   UNL     1      28.835  19.421  19.484  1.00  0.00     0.312 A 
ATOM     70  C   UNL     1      28.277  20.650  19.709  1.00  0.00     0.194 A 
BRANCH  69  71
ATOM     71  N   UNL     1      29.264  18.613  20.552  1.00  0.00     0.066 N 
ATOM     72  O   UNL     1      30.276  17.872  20.351  1.00  0.00    -0.258 OA
ATOM     73  O   UNL     1      28.630  18.611  21.753  1.00  0.00    -0.258 OA
ENDBRANCH  69  71
BRANCH  70  74
ATOM     74  O   UNL     1      28.073  21.230  20.949  1.00  0.00    -0.502 OA
ATOM     75  H   UNL     1      27.991  22.186  21.087  1.00  0.00     0.293 HD
ENDBRANCH  70  74
ENDBRANCH  63  65
ENDBRANCH  59  60
ENDBRANCH  58  59
ENDBRANCH  55  58
ENDBRANCH  53  54
ENDBRANCH  50  53
ENDBRANCH  47  50
ENDBRANCH   5  47
BRANCH   4  76
ATOM     76  N   UNL     1      23.215  22.019  11.300  1.00  0.00    -0.348 N 
ATOM     77  C   UNL     1      22.415  21.752  10.141  1.00  0.00     0.217 C 
ATOM     78  H   UNL     1      24.176  22.374  11.147  1.00  0.00     0.163 HD
ATOM     79  C   UNL     1      22.964  21.983   8.784  1.00  0.00     0.114 C 
ATOM     80  O   UNL     1      21.236  21.318  10.309  1.00  0.00    -0.275 OA
ENDBRANCH   4  76
TORSDOF 32
