REMARK VINA RESULT:    -6.082      8.344     13.810
REMARK INTER + INTRA:         -23.262
REMARK INTER:                 -15.822
REMARK INTRA:                  -7.439
REMARK UNBOUND:                -7.402
REMARK SMILES CC(=O)N[C@@H]1[C@@H](O)C[C@](OC[C@H]2O[C@@H](O[C@H]3[C@H](O)[C@@H](O)[C@H](OCCN=[N+]=[N-])O[C@@H]3CO)[C@H](O)[C@@H](O)[C@H]2O)(C(=O)O)O[C@H]1C(O)[C@H](O)CNC(=O)OCc1cn(-c2ccc(S(=O)(=O)c3ccc(N)cc3)cc2)nn1
REMARK SMILES IDX 43 1 42 2 9 3 8 4 41 5 6 6 5 7 10 8 11 9 12 10 14 11 13 12
REMARK SMILES IDX 32 13 34 14 36 15 15 16 16 17 29 18 28 19 21 20 17 21 19 22
REMARK SMILES IDX 30 23 31 24 22 26 23 27 24 28 25 29 26 30 27 31 18 32 20 34
REMARK SMILES IDX 33 36 35 38 37 40 38 42 39 43 40 44 7 46 4 48 2 49 1 51 3 52
REMARK SMILES IDX 44 53 45 55 46 56 47 58 48 59 49 60 50 62 51 63 52 64 53 65
REMARK SMILES IDX 54 66 73 67 55 68 72 69 56 70 57 71 71 72 58 73 70 74 59 75
REMARK SMILES IDX 60 76 61 77 62 78 63 79 64 80 69 81 65 82 68 83 66 84 67 85
REMARK H PARENT 31 25 18 33 20 35 33 37 35 39 37 41 40 45 7 47 4 50 44 54
REMARK H PARENT 46 57 48 61 67 86 67 87
REMARK Flexibility Score: inf
ROOT
ATOM      1  C   UNL     1      28.995  21.645  22.060  1.00  0.00     0.176 C 
ENDROOT
BRANCH   1   2
ATOM      2  C   UNL     1      30.059  20.745  21.431  1.00  0.00     0.178 C 
ATOM      3  C   UNL     1      30.622  19.577  19.515  1.00  0.00     0.272 C 
ATOM      4  C   UNL     1      31.033  18.398  20.335  1.00  0.00     0.113 C 
ATOM      5  O   UNL     1      29.656  20.343  20.194  1.00  0.00    -0.332 OA
ATOM      6  C   UNL     1      30.128  18.317  21.554  1.00  0.00     0.145 C 
ATOM      7  C   UNL     1      30.317  19.553  22.367  1.00  0.00     0.142 C 
BRANCH   3   8
ATOM      8  O   UNL     1      30.011  19.265  18.297  1.00  0.00    -0.338 OA
BRANCH   8   9
ATOM      9  C   UNL     1      28.731  19.700  18.132  1.00  0.00     0.199 C 
BRANCH   9  10
ATOM     10  C   UNL     1      28.584  20.324  16.762  1.00  0.00     0.179 C 
ATOM     11  C   UNL     1      27.072  20.900  15.152  1.00  0.00     0.282 C 
ATOM     12  O   UNL     1      27.217  20.461  16.494  1.00  0.00    -0.341 OA
ATOM     13  C   UNL     1      27.511  22.337  15.155  1.00  0.00     0.202 C 
ATOM     14  C   UNL     1      28.996  22.393  15.433  1.00  0.00     0.179 C 
ATOM     15  C   UNL     1      29.293  21.633  16.716  1.00  0.00     0.177 C 
BRANCH  11  16
ATOM     16  O   UNL     1      25.771  20.680  14.780  1.00  0.00    -0.341 OA
BRANCH  16  17
ATOM     17  C   UNL     1      25.709  19.887  13.610  1.00  0.00     0.184 C 
ATOM     18  C   UNL     1      25.315  20.776  12.474  1.00  0.00     0.178 C 
ATOM     19  O   UNL     1      24.236  20.355  11.744  1.00  0.00    -0.341 OA
ATOM     20  C   UNL     1      23.107  20.009  12.427  1.00  0.00     0.281 C 
ATOM     21  C   UNL     1      24.637  18.848  13.913  1.00  0.00     0.180 C 
ATOM     22  C   UNL     1      23.325  19.606  13.868  1.00  0.00     0.202 C 
BRANCH  18  23
ATOM     23  C   UNL     1      26.508  20.761  11.500  1.00  0.00     0.191 C 
BRANCH  23  24
ATOM     24  O   UNL     1      27.392  19.743  11.758  1.00  0.00    -0.394 OA
ATOM     25  H   UNL     1      27.006  18.834  11.701  1.00  0.00     0.210 HD
ENDBRANCH  23  24
ENDBRANCH  18  23
BRANCH  20  26
ATOM     26  O   UNL     1      22.549  18.908  11.787  1.00  0.00    -0.350 OA
BRANCH  26  27
ATOM     27  C   UNL     1      21.822  19.188  10.662  1.00  0.00     0.169 C 
BRANCH  27  28
ATOM     28  C   UNL     1      20.960  20.389  10.862  1.00  0.00     0.119 C 
BRANCH  28  29
ATOM     29  N   UNL     1      19.567  20.057  10.518  1.00  0.00    -0.092 NA
ATOM     30  N   UNL     1      18.982  19.127  11.071  1.00  0.00     0.001 N 
ATOM     31  N   UNL     1      18.261  18.526  11.887  1.00  0.00    -0.003 NA
ENDBRANCH  28  29
ENDBRANCH  27  28
ENDBRANCH  26  27
ENDBRANCH  20  26
BRANCH  21  32
ATOM     32  O   UNL     1      24.628  17.875  12.942  1.00  0.00    -0.387 OA
ATOM     33  H   UNL     1      25.435  17.948  12.364  1.00  0.00     0.211 HD
ENDBRANCH  21  32
BRANCH  22  34
ATOM     34  O   UNL     1      23.292  20.664  14.746  1.00  0.00    -0.385 OA
ATOM     35  H   UNL     1      22.368  20.963  14.957  1.00  0.00     0.211 HD
ENDBRANCH  22  34
ENDBRANCH  16  17
ENDBRANCH  11  16
BRANCH  13  36
ATOM     36  O   UNL     1      27.185  22.999  13.973  1.00  0.00    -0.385 OA
ATOM     37  H   UNL     1      26.680  23.830  14.245  1.00  0.00     0.211 HD
ENDBRANCH  13  36
BRANCH  14  38
ATOM     38  O   UNL     1      29.345  23.725  15.696  1.00  0.00    -0.387 OA
ATOM     39  H   UNL     1      29.023  24.306  14.983  1.00  0.00     0.211 HD
ENDBRANCH  14  38
BRANCH  15  40
ATOM     40  O   UNL     1      29.018  22.415  17.828  1.00  0.00    -0.387 OA
ATOM     41  H   UNL     1      29.849  22.618  18.317  1.00  0.00     0.211 HD
ENDBRANCH  15  40
ENDBRANCH   9  10
ENDBRANCH   8   9
ENDBRANCH   3   8
BRANCH   3  42
ATOM     42  C   UNL     1      31.747  20.494  19.189  1.00  0.00     0.364 C 
ATOM     43  O   UNL     1      31.656  21.540  18.505  1.00  0.00    -0.246 OA
BRANCH  42  44
ATOM     44  O   UNL     1      33.012  20.195  19.665  1.00  0.00    -0.477 OA
ATOM     45  H   UNL     1      33.151  19.717  20.569  1.00  0.00     0.296 HD
ENDBRANCH  42  44
ENDBRANCH   3  42
BRANCH   6  46
ATOM     46  O   UNL     1      28.819  18.331  21.060  1.00  0.00    -0.391 OA
ATOM     47  H   UNL     1      28.540  17.436  20.727  1.00  0.00     0.211 HD
ENDBRANCH   6  46
BRANCH   7  48
ATOM     48  N   UNL     1      31.593  19.691  22.993  1.00  0.00    -0.348 N 
ATOM     49  C   UNL     1      31.784  20.057  24.355  1.00  0.00     0.217 C 
ATOM     50  H   UNL     1      32.458  19.509  22.428  1.00  0.00     0.163 HD
ATOM     51  C   UNL     1      33.163  20.167  24.892  1.00  0.00     0.114 C 
ATOM     52  O   UNL     1      30.779  20.272  25.045  1.00  0.00    -0.275 OA
ENDBRANCH   7  48
ENDBRANCH   1   2
BRANCH   1  53
ATOM     53  O   UNL     1      29.052  21.592  23.443  1.00  0.00    -0.388 OA
ATOM     54  H   UNL     1      28.459  22.297  23.840  1.00  0.00     0.211 HD
ENDBRANCH   1  53
BRANCH   1  55
ATOM     55  C   UNL     1      29.001  23.015  21.499  1.00  0.00     0.165 C 
BRANCH  55  56
ATOM     56  O   UNL     1      28.243  23.083  20.327  1.00  0.00    -0.388 OA
ATOM     57  H   UNL     1      28.338  23.917  19.840  1.00  0.00     0.211 HD
ENDBRANCH  55  56
BRANCH  55  58
ATOM     58  C   UNL     1      30.399  23.443  21.109  1.00  0.00     0.154 C 
BRANCH  58  59
ATOM     59  N   UNL     1      30.474  24.052  19.810  1.00  0.00    -0.319 N 
ATOM     60  C   UNL     1      30.729  25.443  19.723  1.00  0.00     0.407 C 
ATOM     61  H   UNL     1      30.347  23.503  18.946  1.00  0.00     0.167 HD
ATOM     62  O   UNL     1      30.893  26.096  20.794  1.00  0.00    -0.225 OA
BRANCH  60  63
ATOM     63  O   UNL     1      30.812  26.150  18.545  1.00  0.00    -0.443 OA
BRANCH  63  64
ATOM     64  C   UNL     1      29.719  26.786  17.917  1.00  0.00     0.294 C 
BRANCH  64  65
ATOM     65  C   UNL     1      28.465  26.161  18.406  1.00  0.00     0.121 A 
ATOM     66  C   UNL     1      27.613  26.544  19.422  1.00  0.00     0.144 A 
ATOM     67  N   UNL     1      27.890  25.031  17.884  1.00  0.00    -0.131 NA
ATOM     68  N   UNL     1      26.570  25.660  19.485  1.00  0.00    -0.220 N 
ATOM     69  N   UNL     1      26.783  24.774  18.544  1.00  0.00    -0.062 NA
BRANCH  68  70
ATOM     70  C   UNL     1      25.465  25.680  20.362  1.00  0.00     0.066 A 
ATOM     71  C   UNL     1      24.662  24.546  20.518  1.00  0.00     0.030 A 
ATOM     72  C   UNL     1      25.110  26.781  21.099  1.00  0.00     0.030 A 
ATOM     73  C   UNL     1      23.576  24.515  21.358  1.00  0.00     0.023 A 
ATOM     74  C   UNL     1      24.007  26.756  21.955  1.00  0.00     0.023 A 
ATOM     75  C   UNL     1      23.231  25.627  22.093  1.00  0.00     0.072 A 
BRANCH  75  76
ATOM     76  S   UNL     1      21.851  25.597  23.170  1.00  0.00     0.206 S 
ATOM     77  O   UNL     1      21.042  24.344  22.874  1.00  0.00    -0.219 OA
ATOM     78  O   UNL     1      21.011  26.826  23.079  1.00  0.00    -0.219 OA
BRANCH  76  79
ATOM     79  C   UNL     1      22.431  25.399  24.824  1.00  0.00     0.072 A 
ATOM     80  C   UNL     1      23.495  24.582  25.091  1.00  0.00     0.023 A 
ATOM     81  C   UNL     1      21.822  26.060  25.866  1.00  0.00     0.023 A 
ATOM     82  C   UNL     1      23.934  24.435  26.375  1.00  0.00     0.027 A 
ATOM     83  C   UNL     1      22.273  25.902  27.151  1.00  0.00     0.027 A 
ATOM     84  C   UNL     1      23.333  25.093  27.447  1.00  0.00     0.031 A 
BRANCH  84  85
ATOM     85  N   UNL     1      23.818  24.910  28.760  1.00  0.00    -0.399 N 
ATOM     86  H   UNL     1      24.669  24.361  28.944  1.00  0.00     0.156 HD
ATOM     87  H   UNL     1      23.311  25.335  29.556  1.00  0.00     0.156 HD
ENDBRANCH  84  85
ENDBRANCH  76  79
ENDBRANCH  75  76
ENDBRANCH  68  70
ENDBRANCH  64  65
ENDBRANCH  63  64
ENDBRANCH  60  63
ENDBRANCH  58  59
ENDBRANCH  55  58
ENDBRANCH   1  55
TORSDOF 33
