REMARK VINA RESULT:    -6.623      2.351      6.649
REMARK INTER + INTRA:         -22.414
REMARK INTER:                 -15.039
REMARK INTRA:                  -7.375
REMARK UNBOUND:                -5.144
REMARK SMILES CC(=O)N[C@@H]1[C@@H](O)C[C@](OC[C@H]2O[C@@H](O[C@H]3[C@H](O)[C@@H](O)[C@H](OCCN=[N+]=[N-])O[C@@H]3CO)[C@H](O)[C@@H](O)[C@H]2O)(C(=O)O)O[C@H]1C(O)[C@H](O)CNC(=O)OCc1cn(-c2cccc(C=CC(=O)O)c2)nn1
REMARK SMILES IDX 43 1 42 2 9 3 8 4 41 5 6 6 5 7 10 8 11 9 12 10 14 11 13 12
REMARK SMILES IDX 32 13 34 14 36 15 15 16 16 17 29 18 28 19 21 20 17 21 19 22
REMARK SMILES IDX 30 23 31 24 22 26 23 27 24 28 25 29 26 30 27 31 18 32 20 34
REMARK SMILES IDX 33 36 35 38 37 40 38 42 39 43 40 44 7 46 4 48 2 49 1 51 3 52
REMARK SMILES IDX 44 53 45 55 46 56 47 58 48 59 49 60 50 62 51 63 52 64 53 65
REMARK SMILES IDX 54 66 68 67 55 68 67 69 56 70 66 71 57 72 60 73 58 74 59 75
REMARK SMILES IDX 61 76 62 77 63 78 64 79 65 80
REMARK H PARENT 31 25 18 33 20 35 33 37 35 39 37 41 40 45 7 47 4 50 44 54
REMARK H PARENT 46 57 48 61 65 81
REMARK Flexibility Score: inf
ROOT
ATOM      1  C   UNL     1      15.598  29.944  23.729  1.00  0.00     0.176 C 
ENDROOT
BRANCH   1   2
ATOM      2  C   UNL     1      15.043  29.404  22.426  1.00  0.00     0.178 C 
ATOM      3  C   UNL     1      15.683  29.333  20.158  1.00  0.00     0.272 C 
ATOM      4  C   UNL     1      14.251  28.613  20.199  1.00  0.00     0.113 C 
ATOM      5  O   UNL     1      15.906  29.793  21.439  1.00  0.00    -0.332 OA
ATOM      6  C   UNL     1      13.314  29.639  20.726  1.00  0.00     0.145 C 
ATOM      7  C   UNL     1      13.673  29.965  22.163  1.00  0.00     0.142 C 
BRANCH   3   8
ATOM      8  O   UNL     1      15.455  30.370  19.344  1.00  0.00    -0.338 OA
BRANCH   8   9
ATOM      9  C   UNL     1      16.238  30.800  18.371  1.00  0.00     0.199 C 
BRANCH   9  10
ATOM     10  C   UNL     1      15.640  31.100  17.013  1.00  0.00     0.179 C 
ATOM     11  C   UNL     1      16.579  30.776  14.867  1.00  0.00     0.282 C 
ATOM     12  O   UNL     1      16.649  31.291  16.146  1.00  0.00    -0.341 OA
ATOM     13  C   UNL     1      15.175  30.753  14.409  1.00  0.00     0.202 C 
ATOM     14  C   UNL     1      14.220  30.010  15.291  1.00  0.00     0.179 C 
ATOM     15  C   UNL     1      14.840  29.856  16.655  1.00  0.00     0.177 C 
BRANCH  11  16
ATOM     16  O   UNL     1      17.273  29.586  14.889  1.00  0.00    -0.341 OA
BRANCH  16  17
ATOM     17  C   UNL     1      18.605  29.675  15.106  1.00  0.00     0.184 C 
ATOM     18  C   UNL     1      19.378  29.560  13.828  1.00  0.00     0.178 C 
ATOM     19  O   UNL     1      20.671  30.045  14.139  1.00  0.00    -0.341 OA
ATOM     20  C   UNL     1      21.345  29.108  14.926  1.00  0.00     0.281 C 
ATOM     21  C   UNL     1      19.137  28.543  15.990  1.00  0.00     0.180 C 
ATOM     22  C   UNL     1      20.620  28.771  16.188  1.00  0.00     0.202 C 
BRANCH  18  23
ATOM     23  C   UNL     1      18.829  30.332  12.683  1.00  0.00     0.191 C 
BRANCH  23  24
ATOM     24  O   UNL     1      19.382  31.610  12.686  1.00  0.00    -0.394 OA
ATOM     25  H   UNL     1      19.297  32.022  13.602  1.00  0.00     0.210 HD
ENDBRANCH  23  24
ENDBRANCH  18  23
BRANCH  20  26
ATOM     26  O   UNL     1      22.583  29.654  15.252  1.00  0.00    -0.350 OA
BRANCH  26  27
ATOM     27  C   UNL     1      22.531  30.396  16.430  1.00  0.00     0.169 C 
BRANCH  27  28
ATOM     28  C   UNL     1      23.945  30.784  16.800  1.00  0.00     0.119 C 
BRANCH  28  29
ATOM     29  N   UNL     1      24.726  29.590  17.022  1.00  0.00    -0.092 NA
ATOM     30  N   UNL     1      24.217  28.598  17.574  1.00  0.00     0.001 N 
ATOM     31  N   UNL     1      23.877  27.789  18.450  1.00  0.00    -0.003 NA
ENDBRANCH  28  29
ENDBRANCH  27  28
ENDBRANCH  26  27
ENDBRANCH  20  26
BRANCH  21  32
ATOM     32  O   UNL     1      18.556  28.542  17.252  1.00  0.00    -0.387 OA
ATOM     33  H   UNL     1      17.972  29.341  17.274  1.00  0.00     0.211 HD
ENDBRANCH  21  32
BRANCH  22  34
ATOM     34  O   UNL     1      21.140  27.537  16.645  1.00  0.00    -0.385 OA
ATOM     35  H   UNL     1      21.781  27.148  16.010  1.00  0.00     0.211 HD
ENDBRANCH  22  34
ENDBRANCH  16  17
ENDBRANCH  11  16
BRANCH  13  36
ATOM     36  O   UNL     1      14.694  32.092  14.319  1.00  0.00    -0.385 OA
ATOM     37  H   UNL     1      14.820  32.544  15.200  1.00  0.00     0.211 HD
ENDBRANCH  13  36
BRANCH  14  38
ATOM     38  O   UNL     1      13.807  28.781  14.770  1.00  0.00    -0.387 OA
ATOM     39  H   UNL     1      13.143  28.893  14.043  1.00  0.00     0.211 HD
ENDBRANCH  14  38
BRANCH  15  40
ATOM     40  O   UNL     1      15.644  28.733  16.663  1.00  0.00    -0.387 OA
ATOM     41  H   UNL     1      15.497  28.168  17.484  1.00  0.00     0.211 HD
ENDBRANCH  15  40
ENDBRANCH   9  10
ENDBRANCH   8   9
ENDBRANCH   3   8
BRANCH   3  42
ATOM     42  C   UNL     1      16.623  28.282  19.807  1.00  0.00     0.364 C 
ATOM     43  O   UNL     1      16.471  27.327  19.023  1.00  0.00    -0.246 OA
BRANCH  42  44
ATOM     44  O   UNL     1      17.897  28.320  20.425  1.00  0.00    -0.477 OA
ATOM     45  H   UNL     1      18.178  27.498  20.982  1.00  0.00     0.296 HD
ENDBRANCH  42  44
ENDBRANCH   3  42
BRANCH   6  46
ATOM     46  O   UNL     1      13.534  30.815  19.933  1.00  0.00    -0.391 OA
ATOM     47  H   UNL     1      12.861  31.508  20.179  1.00  0.00     0.211 HD
ENDBRANCH   6  46
BRANCH   7  48
ATOM     48  N   UNL     1      12.677  29.657  23.125  1.00  0.00    -0.348 N 
ATOM     49  C   UNL     1      11.516  30.370  23.433  1.00  0.00     0.217 C 
ATOM     50  H   UNL     1      12.824  28.771  23.734  1.00  0.00     0.163 HD
ATOM     51  C   UNL     1      10.602  29.848  24.525  1.00  0.00     0.114 C 
ATOM     52  O   UNL     1      11.162  31.436  22.860  1.00  0.00    -0.275 OA
ENDBRANCH   7  48
ENDBRANCH   1   2
BRANCH   1  53
ATOM     53  O   UNL     1      16.632  29.134  24.159  1.00  0.00    -0.388 OA
ATOM     54  H   UNL     1      17.126  29.467  24.930  1.00  0.00     0.211 HD
ENDBRANCH   1  53
BRANCH   1  55
ATOM     55  C   UNL     1      16.197  31.340  23.556  1.00  0.00     0.165 C 
BRANCH  55  56
ATOM     56  O   UNL     1      15.765  31.991  22.433  1.00  0.00    -0.388 OA
ATOM     57  H   UNL     1      15.049  32.650  22.587  1.00  0.00     0.211 HD
ENDBRANCH  55  56
BRANCH  55  58
ATOM     58  C   UNL     1      17.690  31.302  23.641  1.00  0.00     0.154 C 
BRANCH  58  59
ATOM     59  N   UNL     1      18.282  30.818  22.446  1.00  0.00    -0.319 N 
ATOM     60  C   UNL     1      18.748  31.674  21.422  1.00  0.00     0.407 C 
ATOM     61  H   UNL     1      18.396  29.782  22.280  1.00  0.00     0.167 HD
ATOM     62  O   UNL     1      18.652  32.927  21.527  1.00  0.00    -0.225 OA
BRANCH  60  63
ATOM     63  O   UNL     1      19.334  31.191  20.254  1.00  0.00    -0.443 OA
BRANCH  63  64
ATOM     64  C   UNL     1      20.742  30.937  20.305  1.00  0.00     0.294 C 
BRANCH  64  65
ATOM     65  C   UNL     1      20.916  29.473  20.352  1.00  0.00     0.121 A 
ATOM     66  C   UNL     1      21.525  28.718  21.350  1.00  0.00     0.144 A 
ATOM     67  N   UNL     1      20.499  28.596  19.425  1.00  0.00    -0.131 NA
ATOM     68  N   UNL     1      21.450  27.416  20.990  1.00  0.00    -0.220 N 
ATOM     69  N   UNL     1      20.830  27.376  19.828  1.00  0.00    -0.062 NA
BRANCH  68  70
ATOM     70  C   UNL     1      21.961  26.352  21.776  1.00  0.00     0.067 A 
ATOM     71  C   UNL     1      21.896  26.429  23.168  1.00  0.00     0.036 A 
ATOM     72  C   UNL     1      22.512  25.253  21.208  1.00  0.00     0.028 A 
ATOM     73  C   UNL     1      22.371  25.434  23.965  1.00  0.00    -0.023 A 
ATOM     74  C   UNL     1      23.011  24.210  21.984  1.00  0.00     0.003 A 
ATOM     75  C   UNL     1      22.926  24.328  23.352  1.00  0.00     0.008 A 
BRANCH  73  76
ATOM     76  C   UNL     1      22.309  25.512  25.409  1.00  0.00     0.015 C 
ATOM     77  C   UNL     1      22.712  24.519  26.160  1.00  0.00     0.094 C 
BRANCH  77  78
ATOM     78  C   UNL     1      22.631  24.642  27.617  1.00  0.00     0.328 C 
ATOM     79  O   UNL     1      22.244  25.685  28.157  1.00  0.00    -0.247 OA
BRANCH  78  80
ATOM     80  O   UNL     1      22.993  23.572  28.433  1.00  0.00    -0.478 OA
ATOM     81  H   UNL     1      22.643  22.647  28.174  1.00  0.00     0.297 HD
ENDBRANCH  78  80
ENDBRANCH  77  78
ENDBRANCH  73  76
ENDBRANCH  68  70
ENDBRANCH  64  65
ENDBRANCH  63  64
ENDBRANCH  60  63
ENDBRANCH  58  59
ENDBRANCH  55  58
ENDBRANCH   1  55
TORSDOF 33
