REMARK VINA RESULT:    -5.891     14.682     20.390
REMARK INTER + INTRA:         -22.678
REMARK INTER:                 -14.136
REMARK INTRA:                  -8.543
REMARK UNBOUND:                -6.283
REMARK SMILES CC(=O)N[C@@H]1[C@@H](O)C[C@](OC[C@H]2O[C@@H](O[C@H]3[C@H](O)[C@@H](O)[C@H](OCCN=[N+]=[N-])O[C@@H]3CO)[C@H](O)[C@@H](O)[C@H]2O)(C(=O)O)O[C@H]1C(O)[C@H](O)CNC(=O)OCc1cn(C[C@H](CC(=O)O)CC(C)C)nn1
REMARK SMILES IDX 43 1 42 2 9 3 8 4 41 5 6 6 5 7 10 8 11 9 12 10 14 11 13 12
REMARK SMILES IDX 32 13 34 14 36 15 15 16 16 17 29 18 28 19 21 20 17 21 19 22
REMARK SMILES IDX 30 23 31 24 22 26 23 27 24 28 25 29 26 30 27 31 18 32 20 34
REMARK SMILES IDX 33 36 35 38 37 40 38 42 39 43 40 44 7 46 4 48 2 49 1 51 3 52
REMARK SMILES IDX 44 53 45 55 46 56 47 58 48 59 49 60 50 62 51 63 52 64 53 65
REMARK SMILES IDX 54 66 67 67 55 68 66 69 56 70 57 71 58 72 59 73 60 74 61 75
REMARK SMILES IDX 62 77 63 78 64 79 65 80
REMARK H PARENT 31 25 18 33 20 35 33 37 35 39 37 41 40 45 7 47 4 50 44 54
REMARK H PARENT 46 57 48 61 61 76
REMARK Flexibility Score: inf
ROOT
ATOM      1  C   UNL     1      20.680  28.466  19.916  1.00  0.00     0.176 C 
ENDROOT
BRANCH   1   2
ATOM      2  C   UNL     1      21.341  27.801  18.742  1.00  0.00     0.178 C 
ATOM      3  C   UNL     1      23.245  26.369  19.110  1.00  0.00     0.272 C 
ATOM      4  C   UNL     1      24.173  27.469  18.738  1.00  0.00     0.113 C 
ATOM      5  O   UNL     1      21.981  26.713  19.243  1.00  0.00    -0.332 OA
ATOM      6  C   UNL     1      23.610  28.826  18.608  1.00  0.00     0.145 C 
ATOM      7  C   UNL     1      22.183  28.821  18.056  1.00  0.00     0.142 C 
BRANCH   3   8
ATOM      8  O   UNL     1      23.685  25.776  20.325  1.00  0.00    -0.338 OA
BRANCH   8   9
ATOM      9  C   UNL     1      22.782  24.948  20.915  1.00  0.00     0.199 C 
BRANCH   9  10
ATOM     10  C   UNL     1      22.821  25.126  22.449  1.00  0.00     0.179 C 
ATOM     11  C   UNL     1      23.180  26.729  24.088  1.00  0.00     0.282 C 
ATOM     12  O   UNL     1      22.777  26.464  22.789  1.00  0.00    -0.341 OA
ATOM     13  C   UNL     1      22.715  25.540  24.943  1.00  0.00     0.202 C 
ATOM     14  C   UNL     1      21.393  25.011  24.425  1.00  0.00     0.179 C 
ATOM     15  C   UNL     1      21.566  24.473  23.045  1.00  0.00     0.177 C 
BRANCH  11  16
ATOM     16  O   UNL     1      22.470  27.806  24.559  1.00  0.00    -0.341 OA
BRANCH  16  17
ATOM     17  C   UNL     1      22.447  28.920  23.763  1.00  0.00     0.184 C 
ATOM     18  C   UNL     1      23.426  29.988  24.151  1.00  0.00     0.178 C 
ATOM     19  O   UNL     1      22.875  31.164  24.568  1.00  0.00    -0.341 OA
ATOM     20  C   UNL     1      21.997  31.757  23.681  1.00  0.00     0.281 C 
ATOM     21  C   UNL     1      21.058  29.515  23.862  1.00  0.00     0.180 C 
ATOM     22  C   UNL     1      21.046  30.809  23.037  1.00  0.00     0.202 C 
BRANCH  18  23
ATOM     23  C   UNL     1      24.403  30.160  23.002  1.00  0.00     0.191 C 
BRANCH  23  24
ATOM     24  O   UNL     1      24.658  28.946  22.369  1.00  0.00    -0.394 OA
ATOM     25  H   UNL     1      25.355  28.414  22.841  1.00  0.00     0.210 HD
ENDBRANCH  23  24
ENDBRANCH  18  23
BRANCH  20  26
ATOM     26  O   UNL     1      22.743  32.517  22.793  1.00  0.00    -0.350 OA
BRANCH  26  27
ATOM     27  C   UNL     1      22.746  33.868  23.099  1.00  0.00     0.169 C 
BRANCH  27  28
ATOM     28  C   UNL     1      22.505  34.616  21.795  1.00  0.00     0.119 C 
BRANCH  28  29
ATOM     29  N   UNL     1      21.656  33.748  20.991  1.00  0.00    -0.092 NA
ATOM     30  N   UNL     1      20.485  34.026  20.877  1.00  0.00     0.001 N 
ATOM     31  N   UNL     1      19.258  33.983  20.720  1.00  0.00    -0.003 NA
ENDBRANCH  28  29
ENDBRANCH  27  28
ENDBRANCH  26  27
ENDBRANCH  20  26
BRANCH  21  32
ATOM     32  O   UNL     1      20.115  28.611  23.408  1.00  0.00    -0.387 OA
ATOM     33  H   UNL     1      20.517  28.150  22.606  1.00  0.00     0.211 HD
ENDBRANCH  21  32
BRANCH  22  34
ATOM     34  O   UNL     1      19.709  31.257  23.091  1.00  0.00    -0.385 OA
ATOM     35  H   UNL     1      19.618  31.796  23.905  1.00  0.00     0.211 HD
ENDBRANCH  22  34
ENDBRANCH  16  17
ENDBRANCH  11  16
BRANCH  13  36
ATOM     36  O   UNL     1      23.682  24.578  25.093  1.00  0.00    -0.385 OA
ATOM     37  H   UNL     1      24.545  24.909  25.398  1.00  0.00     0.211 HD
ENDBRANCH  13  36
BRANCH  14  38
ATOM     38  O   UNL     1      20.535  26.128  24.375  1.00  0.00    -0.387 OA
ATOM     39  H   UNL     1      20.941  26.886  23.926  1.00  0.00     0.211 HD
ENDBRANCH  14  38
BRANCH  15  40
ATOM     40  O   UNL     1      20.434  24.860  22.297  1.00  0.00    -0.387 OA
ATOM     41  H   UNL     1      20.262  25.810  22.391  1.00  0.00     0.211 HD
ENDBRANCH  15  40
ENDBRANCH   9  10
ENDBRANCH   8   9
ENDBRANCH   3   8
BRANCH   3  42
ATOM     42  C   UNL     1      23.396  25.227  18.123  1.00  0.00     0.364 C 
ATOM     43  O   UNL     1      24.515  24.768  17.861  1.00  0.00    -0.246 OA
BRANCH  42  44
ATOM     44  O   UNL     1      22.299  24.692  17.511  1.00  0.00    -0.477 OA
ATOM     45  H   UNL     1      21.968  24.993  16.596  1.00  0.00     0.296 HD
ENDBRANCH  42  44
ENDBRANCH   3  42
BRANCH   6  46
ATOM     46  O   UNL     1      23.665  29.635  19.723  1.00  0.00    -0.391 OA
ATOM     47  H   UNL     1      24.137  30.461  19.453  1.00  0.00     0.211 HD
ENDBRANCH   6  46
BRANCH   7  48
ATOM     48  N   UNL     1      22.325  28.672  16.632  1.00  0.00    -0.348 N 
ATOM     49  C   UNL     1      21.516  29.511  15.777  1.00  0.00     0.217 C 
ATOM     50  H   UNL     1      22.961  28.004  16.145  1.00  0.00     0.163 HD
ATOM     51  C   UNL     1      21.670  29.358  14.288  1.00  0.00     0.114 C 
ATOM     52  O   UNL     1      20.701  30.349  16.234  1.00  0.00    -0.275 OA
ENDBRANCH   7  48
ENDBRANCH   1   2
BRANCH   1  53
ATOM     53  O   UNL     1      20.425  27.471  20.907  1.00  0.00    -0.388 OA
ATOM     54  H   UNL     1      20.482  26.574  20.487  1.00  0.00     0.211 HD
ENDBRANCH   1  53
BRANCH   1  55
ATOM     55  C   UNL     1      19.321  29.086  19.682  1.00  0.00     0.165 C 
BRANCH  55  56
ATOM     56  O   UNL     1      18.557  28.484  20.774  1.00  0.00    -0.388 OA
ATOM     57  H   UNL     1      18.119  27.706  20.300  1.00  0.00     0.211 HD
ENDBRANCH  55  56
BRANCH  55  58
ATOM     58  C   UNL     1      18.636  28.544  18.475  1.00  0.00     0.154 C 
BRANCH  58  59
ATOM     59  N   UNL     1      17.221  28.602  18.577  1.00  0.00    -0.319 N 
ATOM     60  C   UNL     1      16.536  29.336  17.538  1.00  0.00     0.407 C 
ATOM     61  H   UNL     1      16.610  28.191  19.305  1.00  0.00     0.167 HD
ATOM     62  O   UNL     1      17.203  29.874  16.609  1.00  0.00    -0.225 OA
BRANCH  60  63
ATOM     63  O   UNL     1      15.169  29.496  17.498  1.00  0.00    -0.443 OA
BRANCH  63  64
ATOM     64  C   UNL     1      14.418  30.378  18.306  1.00  0.00     0.294 C 
BRANCH  64  65
ATOM     65  C   UNL     1      14.047  29.790  19.625  1.00  0.00     0.120 A 
ATOM     66  C   UNL     1      13.451  30.402  20.702  1.00  0.00     0.138 A 
ATOM     67  N   UNL     1      14.248  28.514  19.968  1.00  0.00    -0.132 NA
ATOM     68  N   UNL     1      13.301  29.470  21.693  1.00  0.00    -0.252 N 
ATOM     69  N   UNL     1      13.795  28.359  21.199  1.00  0.00    -0.067 NA
BRANCH  68  70
ATOM     70  C   UNL     1      12.755  29.671  22.985  1.00  0.00     0.150 C 
BRANCH  70  71
ATOM     71  C   UNL     1      13.676  30.216  23.993  1.00  0.00     0.022 C 
BRANCH  71  72
ATOM     72  C   UNL     1      14.964  29.508  24.190  1.00  0.00     0.128 C 
BRANCH  72  73
ATOM     73  C   UNL     1      16.155  30.101  23.568  1.00  0.00     0.303 C 
ATOM     74  O   UNL     1      16.064  31.227  23.012  1.00  0.00    -0.252 OA
BRANCH  73  75
ATOM     75  O   UNL     1      17.401  29.488  23.553  1.00  0.00    -0.481 OA
ATOM     76  H   UNL     1      18.190  29.927  24.007  1.00  0.00     0.296 HD
ENDBRANCH  73  75
ENDBRANCH  72  73
ENDBRANCH  71  72
BRANCH  71  77
ATOM     77  C   UNL     1      13.027  30.624  25.284  1.00  0.00     0.009 C 
BRANCH  77  78
ATOM     78  C   UNL     1      12.936  32.041  25.632  1.00  0.00    -0.017 C 
ATOM     79  C   UNL     1      14.148  32.893  25.509  1.00  0.00     0.007 C 
ATOM     80  C   UNL     1      11.778  32.775  24.981  1.00  0.00     0.007 C 
ENDBRANCH  77  78
ENDBRANCH  71  77
ENDBRANCH  70  71
ENDBRANCH  68  70
ENDBRANCH  64  65
ENDBRANCH  63  64
ENDBRANCH  60  63
ENDBRANCH  58  59
ENDBRANCH  55  58
ENDBRANCH   1  55
TORSDOF 36
