REMARK VINA RESULT:    -6.929      0.000      0.000
REMARK INTER + INTRA:         -23.904
REMARK INTER:                 -13.668
REMARK INTRA:                 -10.235
REMARK UNBOUND:                -5.634
REMARK SMILES CC(=O)N[C@@H]1[C@@H](O)C[C@](OC[C@H]2O[C@@H](O[C@H]3[C@H](O)[C@@H](O)[C@H](OCCN=[N+]=[N-])O[C@@H]3CO)[C@H](O)[C@@H](O)[C@H]2O)(C(=O)O)O[C@H]1C(O)[C@H](O)CNC(=O)OCc1cn(Cc2ccccc2OC(C)=O)nn1
REMARK SMILES IDX 43 1 42 2 9 3 8 4 41 5 6 6 5 7 10 8 11 9 12 10 14 11 13 12
REMARK SMILES IDX 32 13 34 14 36 15 15 16 16 17 29 18 28 19 21 20 17 21 19 22
REMARK SMILES IDX 30 23 31 24 22 26 23 27 24 28 25 29 26 30 27 31 18 32 20 34
REMARK SMILES IDX 33 36 35 38 37 40 38 42 39 43 40 44 7 46 4 48 2 49 1 51 3 52
REMARK SMILES IDX 44 53 45 55 46 56 47 58 48 59 49 60 50 62 51 63 52 64 53 65
REMARK SMILES IDX 54 66 68 67 55 68 67 69 56 70 57 71 62 72 58 73 61 74 59 75
REMARK SMILES IDX 60 76 63 77 64 78 66 79 65 80
REMARK H PARENT 31 25 18 33 20 35 33 37 35 39 37 41 40 45 7 47 4 50 44 54
REMARK H PARENT 46 57 48 61
REMARK Flexibility Score: inf
ROOT
ATOM      1  C   UNL     1      15.814  29.804  23.718  1.00  0.00     0.176 C 
ENDROOT
BRANCH   1   2
ATOM      2  C   UNL     1      15.330  29.351  22.349  1.00  0.00     0.178 C 
ATOM      3  C   UNL     1      15.951  29.395  20.102  1.00  0.00     0.272 C 
ATOM      4  C   UNL     1      14.471  29.042  19.998  1.00  0.00     0.113 C 
ATOM      5  O   UNL     1      16.206  29.857  21.416  1.00  0.00    -0.332 OA
ATOM      6  C   UNL     1      13.720  30.147  20.723  1.00  0.00     0.145 C 
ATOM      7  C   UNL     1      13.939  29.963  22.175  1.00  0.00     0.142 C 
BRANCH   3   8
ATOM      8  O   UNL     1      16.323  30.411  19.273  1.00  0.00    -0.338 OA
BRANCH   8   9
ATOM      9  C   UNL     1      16.388  30.175  17.937  1.00  0.00     0.199 C 
BRANCH   9  10
ATOM     10  C   UNL     1      17.829  30.465  17.481  1.00  0.00     0.179 C 
ATOM     11  C   UNL     1      19.995  30.458  18.250  1.00  0.00     0.282 C 
ATOM     12  O   UNL     1      18.639  30.099  18.561  1.00  0.00    -0.341 OA
ATOM     13  C   UNL     1      20.440  29.450  17.251  1.00  0.00     0.202 C 
ATOM     14  C   UNL     1      19.617  29.716  15.978  1.00  0.00     0.179 C 
ATOM     15  C   UNL     1      18.151  29.684  16.248  1.00  0.00     0.177 C 
BRANCH  11  16
ATOM     16  O   UNL     1      20.622  30.470  19.473  1.00  0.00    -0.341 OA
BRANCH  16  17
ATOM     17  C   UNL     1      20.359  31.664  20.170  1.00  0.00     0.184 C 
ATOM     18  C   UNL     1      21.546  32.538  20.341  1.00  0.00     0.178 C 
ATOM     19  O   UNL     1      21.674  33.038  21.641  1.00  0.00    -0.341 OA
ATOM     20  C   UNL     1      20.498  33.548  22.173  1.00  0.00     0.281 C 
ATOM     21  C   UNL     1      19.992  31.227  21.638  1.00  0.00     0.180 C 
ATOM     22  C   UNL     1      19.424  32.466  22.274  1.00  0.00     0.202 C 
BRANCH  18  23
ATOM     23  C   UNL     1      21.734  33.606  19.311  1.00  0.00     0.191 C 
BRANCH  23  24
ATOM     24  O   UNL     1      20.521  33.858  18.686  1.00  0.00    -0.394 OA
ATOM     25  H   UNL     1      19.949  34.410  19.259  1.00  0.00     0.210 HD
ENDBRANCH  23  24
ENDBRANCH  18  23
BRANCH  20  26
ATOM     26  O   UNL     1      20.002  34.549  21.414  1.00  0.00    -0.350 OA
BRANCH  26  27
ATOM     27  C   UNL     1      20.083  35.834  21.805  1.00  0.00     0.169 C 
BRANCH  27  28
ATOM     28  C   UNL     1      18.850  36.525  22.263  1.00  0.00     0.119 C 
BRANCH  28  29
ATOM     29  N   UNL     1      18.644  36.342  23.660  1.00  0.00    -0.092 NA
ATOM     30  N   UNL     1      17.818  35.582  24.112  1.00  0.00     0.001 N 
ATOM     31  N   UNL     1      17.145  34.602  24.447  1.00  0.00    -0.003 NA
ENDBRANCH  28  29
ENDBRANCH  27  28
ENDBRANCH  26  27
ENDBRANCH  20  26
BRANCH  21  32
ATOM     32  O   UNL     1      19.122  30.166  21.593  1.00  0.00    -0.387 OA
ATOM     33  H   UNL     1      19.577  29.365  21.180  1.00  0.00     0.211 HD
ENDBRANCH  21  32
BRANCH  22  34
ATOM     34  O   UNL     1      18.993  32.250  23.564  1.00  0.00    -0.385 OA
ATOM     35  H   UNL     1      19.552  31.512  23.942  1.00  0.00     0.211 HD
ENDBRANCH  22  34
ENDBRANCH  16  17
ENDBRANCH  11  16
BRANCH  13  36
ATOM     36  O   UNL     1      21.761  29.599  16.858  1.00  0.00    -0.385 OA
ATOM     37  H   UNL     1      22.419  29.380  17.550  1.00  0.00     0.211 HD
ENDBRANCH  13  36
BRANCH  14  38
ATOM     38  O   UNL     1      19.991  28.820  14.974  1.00  0.00    -0.387 OA
ATOM     39  H   UNL     1      19.879  27.905  15.362  1.00  0.00     0.211 HD
ENDBRANCH  14  38
BRANCH  15  40
ATOM     40  O   UNL     1      17.752  28.352  16.333  1.00  0.00    -0.387 OA
ATOM     41  H   UNL     1      16.920  28.163  15.860  1.00  0.00     0.211 HD
ENDBRANCH  15  40
ENDBRANCH   9  10
ENDBRANCH   8   9
ENDBRANCH   3   8
BRANCH   3  42
ATOM     42  C   UNL     1      16.686  28.129  19.893  1.00  0.00     0.364 C 
ATOM     43  O   UNL     1      16.188  27.163  19.320  1.00  0.00    -0.246 OA
BRANCH  42  44
ATOM     44  O   UNL     1      17.996  28.032  20.367  1.00  0.00    -0.477 OA
ATOM     45  H   UNL     1      18.802  28.277  19.773  1.00  0.00     0.296 HD
ENDBRANCH  42  44
ENDBRANCH   3  42
BRANCH   6  46
ATOM     46  O   UNL     1      14.337  31.341  20.336  1.00  0.00    -0.391 OA
ATOM     47  H   UNL     1      14.113  31.622  19.417  1.00  0.00     0.211 HD
ENDBRANCH   6  46
BRANCH   7  48
ATOM     48  N   UNL     1      12.982  29.235  22.899  1.00  0.00    -0.348 N 
ATOM     49  C   UNL     1      11.976  29.824  23.715  1.00  0.00     0.217 C 
ATOM     50  H   UNL     1      13.015  28.178  22.831  1.00  0.00     0.163 HD
ATOM     51  C   UNL     1      10.989  29.026  24.459  1.00  0.00     0.114 C 
ATOM     52  O   UNL     1      11.963  31.061  23.773  1.00  0.00    -0.275 OA
ENDBRANCH   7  48
ENDBRANCH   1   2
BRANCH   1  53
ATOM     53  O   UNL     1      17.170  29.539  23.765  1.00  0.00    -0.388 OA
ATOM     54  H   UNL     1      17.653  29.721  22.932  1.00  0.00     0.211 HD
ENDBRANCH   1  53
BRANCH   1  55
ATOM     55  C   UNL     1      15.431  31.206  24.058  1.00  0.00     0.165 C 
BRANCH  55  56
ATOM     56  O   UNL     1      16.111  32.057  23.183  1.00  0.00    -0.388 OA
ATOM     57  H   UNL     1      15.562  32.803  22.895  1.00  0.00     0.211 HD
ENDBRANCH  55  56
BRANCH  55  58
ATOM     58  C   UNL     1      15.717  31.565  25.496  1.00  0.00     0.154 C 
BRANCH  58  59
ATOM     59  N   UNL     1      17.053  31.994  25.746  1.00  0.00    -0.319 N 
ATOM     60  C   UNL     1      17.781  31.698  26.928  1.00  0.00     0.407 C 
ATOM     61  H   UNL     1      17.553  32.571  25.017  1.00  0.00     0.167 HD
ATOM     62  O   UNL     1      17.207  31.016  27.813  1.00  0.00    -0.225 OA
BRANCH  60  63
ATOM     63  O   UNL     1      19.070  32.117  27.156  1.00  0.00    -0.443 OA
BRANCH  63  64
ATOM     64  C   UNL     1      20.149  31.207  27.364  1.00  0.00     0.294 C 
BRANCH  64  65
ATOM     65  C   UNL     1      20.364  30.349  26.190  1.00  0.00     0.120 A 
ATOM     66  C   UNL     1      21.557  29.730  25.900  1.00  0.00     0.138 A 
ATOM     67  N   UNL     1      19.521  29.995  25.213  1.00  0.00    -0.132 NA
ATOM     68  N   UNL     1      21.417  29.028  24.775  1.00  0.00    -0.248 N 
ATOM     69  N   UNL     1      20.144  29.215  24.376  1.00  0.00    -0.067 NA
BRANCH  68  70
ATOM     70  C   UNL     1      22.376  28.215  24.051  1.00  0.00     0.185 C 
BRANCH  70  71
ATOM     71  C   UNL     1      22.626  26.937  24.726  1.00  0.00     0.016 A 
ATOM     72  C   UNL     1      21.882  25.835  24.481  1.00  0.00     0.135 A 
ATOM     73  C   UNL     1      23.689  26.899  25.633  1.00  0.00     0.009 A 
ATOM     74  C   UNL     1      22.191  24.650  25.151  1.00  0.00     0.047 A 
ATOM     75  C   UNL     1      23.983  25.730  26.286  1.00  0.00     0.001 A 
ATOM     76  C   UNL     1      23.238  24.597  26.050  1.00  0.00     0.004 A 
BRANCH  72  77
ATOM     77  O   UNL     1      20.823  25.824  23.596  1.00  0.00    -0.426 OA
BRANCH  77  78
ATOM     78  C   UNL     1      21.113  25.752  22.230  1.00  0.00     0.308 C 
ATOM     79  O   UNL     1      20.643  26.626  21.469  1.00  0.00    -0.252 OA
ATOM     80  C   UNL     1      21.953  24.666  21.717  1.00  0.00     0.139 C 
ENDBRANCH  77  78
ENDBRANCH  72  77
ENDBRANCH  70  71
ENDBRANCH  68  70
ENDBRANCH  64  65
ENDBRANCH  63  64
ENDBRANCH  60  63
ENDBRANCH  58  59
ENDBRANCH  55  58
ENDBRANCH   1  55
TORSDOF 33
