REMARK VINA RESULT:    -5.464      3.081     10.028
REMARK INTER + INTRA:         -20.799
REMARK INTER:                 -11.847
REMARK INTRA:                  -8.952
REMARK UNBOUND:                -6.390
REMARK SMILES CCOC(=O)Cn1cc(COC(=O)NC[C@@H](O)C(O)[C@@H]2O[C@@](OC[C@H]3O[C@@H](O[C@H]4[C@H](O)[C@@H](O)[C@H](OCCN=[N+]=[N-])O[C@@H]4CO)[C@H](O)[C@@H](O)[C@H]3O)(C(=O)O)C[C@H](O)[C@H]2NC(C)=O)nn1
REMARK SMILES IDX 18 1 20 2 22 3 54 4 21 5 55 6 57 7 23 8 24 9 25 10 27 11
REMARK SMILES IDX 26 12 45 13 47 14 49 15 28 16 29 17 42 18 41 19 34 20 30 21
REMARK SMILES IDX 32 22 43 23 44 24 35 26 36 27 37 28 38 29 39 30 40 31 31 32
REMARK SMILES IDX 33 34 46 36 48 38 50 40 51 42 52 43 53 44 56 46 58 48 59 49
REMARK SMILES IDX 60 51 61 52 19 53 16 55 17 56 15 58 14 59 12 60 13 62 11 63
REMARK SMILES IDX 10 64 9 65 8 66 62 67 7 68 63 69 6 70 4 71 5 72 3 73 2 74
REMARK SMILES IDX 1 75
REMARK H PARENT 44 25 31 33 33 35 46 37 48 39 50 41 53 45 56 47 58 50 19 54
REMARK H PARENT 17 57 14 61
REMARK Flexibility Score: inf
ROOT
ATOM      1  C   UNL     1      16.992  31.478  24.812  1.00  0.00     0.176 C 
ENDROOT
BRANCH   1   2
ATOM      2  C   UNL     1      15.709  31.119  24.117  1.00  0.00     0.178 C 
ATOM      3  C   UNL     1      14.901  30.350  22.061  1.00  0.00     0.272 C 
ATOM      4  C   UNL     1      13.597  30.774  22.643  1.00  0.00     0.113 C 
ATOM      5  O   UNL     1      15.925  30.310  23.032  1.00  0.00    -0.332 OA
ATOM      6  C   UNL     1      13.632  32.106  23.320  1.00  0.00     0.145 C 
ATOM      7  C   UNL     1      15.079  32.424  23.663  1.00  0.00     0.142 C 
BRANCH   3   8
ATOM      8  O   UNL     1      15.342  31.090  20.986  1.00  0.00    -0.338 OA
BRANCH   8   9
ATOM      9  C   UNL     1      14.585  31.113  19.865  1.00  0.00     0.199 C 
BRANCH   9  10
ATOM     10  C   UNL     1      15.514  30.907  18.653  1.00  0.00     0.179 C 
ATOM     11  C   UNL     1      17.437  29.811  17.961  1.00  0.00     0.282 C 
ATOM     12  O   UNL     1      16.660  30.267  19.002  1.00  0.00    -0.341 OA
ATOM     13  C   UNL     1      16.685  28.994  16.954  1.00  0.00     0.202 C 
ATOM     14  C   UNL     1      15.623  29.889  16.369  1.00  0.00     0.179 C 
ATOM     15  C   UNL     1      14.753  30.334  17.495  1.00  0.00     0.177 C 
BRANCH  11  16
ATOM     16  O   UNL     1      18.534  29.078  18.383  1.00  0.00    -0.341 OA
BRANCH  16  17
ATOM     17  C   UNL     1      19.424  29.755  19.176  1.00  0.00     0.184 C 
ATOM     18  C   UNL     1      20.785  29.934  18.537  1.00  0.00     0.178 C 
ATOM     19  O   UNL     1      21.751  29.163  19.167  1.00  0.00    -0.341 OA
ATOM     20  C   UNL     1      21.982  29.587  20.497  1.00  0.00     0.281 C 
ATOM     21  C   UNL     1      19.607  29.000  20.493  1.00  0.00     0.180 C 
ATOM     22  C   UNL     1      20.701  29.733  21.255  1.00  0.00     0.202 C 
BRANCH  18  23
ATOM     23  C   UNL     1      21.132  31.398  18.458  1.00  0.00     0.191 C 
BRANCH  23  24
ATOM     24  O   UNL     1      19.968  32.186  18.388  1.00  0.00    -0.394 OA
ATOM     25  H   UNL     1      19.915  32.668  17.540  1.00  0.00     0.210 HD
ENDBRANCH  23  24
ENDBRANCH  18  23
BRANCH  20  26
ATOM     26  O   UNL     1      22.742  30.727  20.516  1.00  0.00    -0.350 OA
BRANCH  26  27
ATOM     27  C   UNL     1      24.083  30.654  20.352  1.00  0.00     0.169 C 
BRANCH  27  28
ATOM     28  C   UNL     1      24.950  30.369  21.521  1.00  0.00     0.119 C 
BRANCH  28  29
ATOM     29  N   UNL     1      24.646  31.032  22.743  1.00  0.00    -0.092 NA
ATOM     30  N   UNL     1      23.828  30.552  23.554  1.00  0.00     0.001 N 
ATOM     31  N   UNL     1      23.153  29.814  24.294  1.00  0.00    -0.003 NA
ENDBRANCH  28  29
ENDBRANCH  27  28
ENDBRANCH  26  27
ENDBRANCH  20  26
BRANCH  21  32
ATOM     32  O   UNL     1      18.413  29.046  21.218  1.00  0.00    -0.387 OA
ATOM     33  H   UNL     1      18.480  29.844  21.828  1.00  0.00     0.211 HD
ENDBRANCH  21  32
BRANCH  22  34
ATOM     34  O   UNL     1      20.774  29.228  22.556  1.00  0.00    -0.385 OA
ATOM     35  H   UNL     1      21.273  28.376  22.620  1.00  0.00     0.211 HD
ENDBRANCH  22  34
ENDBRANCH  16  17
ENDBRANCH  11  16
BRANCH  13  36
ATOM     36  O   UNL     1      17.569  28.583  15.964  1.00  0.00    -0.385 OA
ATOM     37  H   UNL     1      17.711  27.627  15.902  1.00  0.00     0.211 HD
ENDBRANCH  13  36
BRANCH  14  38
ATOM     38  O   UNL     1      14.856  29.113  15.471  1.00  0.00    -0.387 OA
ATOM     39  H   UNL     1      15.198  29.221  14.548  1.00  0.00     0.211 HD
ENDBRANCH  14  38
BRANCH  15  40
ATOM     40  O   UNL     1      13.975  29.222  17.892  1.00  0.00    -0.387 OA
ATOM     41  H   UNL     1      14.602  28.450  17.830  1.00  0.00     0.211 HD
ENDBRANCH  15  40
ENDBRANCH   9  10
ENDBRANCH   8   9
ENDBRANCH   3   8
BRANCH   3  42
ATOM     42  C   UNL     1      14.765  28.932  21.648  1.00  0.00     0.364 C 
ATOM     43  O   UNL     1      15.776  28.299  21.272  1.00  0.00    -0.246 OA
BRANCH  42  44
ATOM     44  O   UNL     1      13.548  28.309  21.671  1.00  0.00    -0.477 OA
ATOM     45  H   UNL     1      12.770  28.613  21.091  1.00  0.00     0.296 HD
ENDBRANCH  42  44
ENDBRANCH   3  42
BRANCH   6  46
ATOM     46  O   UNL     1      13.025  33.127  22.630  1.00  0.00    -0.391 OA
ATOM     47  H   UNL     1      12.800  33.857  23.274  1.00  0.00     0.211 HD
ENDBRANCH   6  46
BRANCH   7  48
ATOM     48  N   UNL     1      15.150  33.437  24.707  1.00  0.00    -0.348 N 
ATOM     49  C   UNL     1      15.531  34.772  24.436  1.00  0.00     0.217 C 
ATOM     50  H   UNL     1      14.908  33.169  25.676  1.00  0.00     0.163 HD
ATOM     51  C   UNL     1      15.609  35.820  25.497  1.00  0.00     0.114 C 
ATOM     52  O   UNL     1      15.816  35.078  23.246  1.00  0.00    -0.275 OA
ENDBRANCH   7  48
ENDBRANCH   1   2
BRANCH   1  53
ATOM     53  O   UNL     1      17.023  30.948  26.087  1.00  0.00    -0.388 OA
ATOM     54  H   UNL     1      16.305  31.307  26.683  1.00  0.00     0.211 HD
ENDBRANCH   1  53
BRANCH   1  55
ATOM     55  C   UNL     1      18.227  31.011  24.060  1.00  0.00     0.165 C 
BRANCH  55  56
ATOM     56  O   UNL     1      18.369  29.644  24.055  1.00  0.00    -0.388 OA
ATOM     57  H   UNL     1      19.194  29.323  24.488  1.00  0.00     0.211 HD
ENDBRANCH  55  56
BRANCH  55  58
ATOM     58  C   UNL     1      19.421  31.687  24.646  1.00  0.00     0.154 C 
BRANCH  58  59
ATOM     59  N   UNL     1      20.356  30.816  25.265  1.00  0.00    -0.319 N 
ATOM     60  C   UNL     1      20.448  30.563  26.660  1.00  0.00     0.407 C 
ATOM     61  H   UNL     1      21.075  30.281  24.663  1.00  0.00     0.167 HD
ATOM     62  O   UNL     1      19.685  31.101  27.479  1.00  0.00    -0.225 OA
BRANCH  60  63
ATOM     63  O   UNL     1      21.430  29.673  27.130  1.00  0.00    -0.443 OA
BRANCH  63  64
ATOM     64  C   UNL     1      21.119  28.347  27.405  1.00  0.00     0.294 C 
BRANCH  64  65
ATOM     65  C   UNL     1      21.083  27.476  26.214  1.00  0.00     0.120 A 
ATOM     66  C   UNL     1      21.786  26.300  26.037  1.00  0.00     0.139 A 
ATOM     67  N   UNL     1      20.387  27.649  25.084  1.00  0.00    -0.132 NA
ATOM     68  N   UNL     1      21.505  25.791  24.814  1.00  0.00    -0.241 N 
ATOM     69  N   UNL     1      20.654  26.633  24.267  1.00  0.00    -0.066 NA
BRANCH  68  70
ATOM     70  C   UNL     1      22.072  24.559  24.278  1.00  0.00     0.268 C 
BRANCH  70  71
ATOM     71  C   UNL     1      23.488  24.863  23.864  1.00  0.00     0.327 C 
ATOM     72  O   UNL     1      24.469  24.492  24.536  1.00  0.00    -0.250 OA
BRANCH  71  73
ATOM     73  O   UNL     1      23.756  25.575  22.708  1.00  0.00    -0.465 OA
BRANCH  73  74
ATOM     74  C   UNL     1      24.378  26.827  22.669  1.00  0.00     0.229 C 
ATOM     75  C   UNL     1      25.825  26.753  22.248  1.00  0.00     0.049 C 
ENDBRANCH  73  74
ENDBRANCH  71  73
ENDBRANCH  70  71
ENDBRANCH  68  70
ENDBRANCH  64  65
ENDBRANCH  63  64
ENDBRANCH  60  63
ENDBRANCH  58  59
ENDBRANCH  55  58
ENDBRANCH   1  55
TORSDOF 33
