REMARK VINA RESULT:    -4.902      3.328      8.761
REMARK INTER + INTRA:         -22.405
REMARK INTER:                 -14.786
REMARK INTRA:                  -7.619
REMARK UNBOUND:                -9.623
REMARK SMILES CC(=O)N[C@@H]1[C@@H](O)C[C@](OC[C@H]2O[C@@H](O[C@H]3[C@H](O)[C@@H](O)[C@H](OCCN=[N+]=[N-])O[C@@H]3CO)[C@H](O)[C@@H](O)[C@H]2O)(C(=O)O)O[C@H]1C(O)[C@H](O)CNC(=O)OCc1cn(Cc2ccc(C(=O)O)cc2)nn1
REMARK SMILES IDX 43 1 42 2 9 3 8 4 41 5 6 6 5 7 10 8 11 9 12 10 14 11 13 12
REMARK SMILES IDX 32 13 34 14 36 15 15 16 16 17 29 18 28 19 21 20 17 21 19 22
REMARK SMILES IDX 30 23 31 24 22 26 23 27 24 28 25 29 26 30 27 31 18 32 20 34
REMARK SMILES IDX 33 36 35 38 37 40 38 42 39 43 40 44 7 46 4 48 2 49 1 51 3 52
REMARK SMILES IDX 44 53 45 55 46 56 47 58 48 59 49 60 50 62 51 63 52 64 53 65
REMARK SMILES IDX 54 66 67 67 55 68 66 69 56 70 57 71 58 72 65 73 59 74 64 75
REMARK SMILES IDX 60 76 61 77 62 78 63 79
REMARK H PARENT 31 25 18 33 20 35 33 37 35 39 37 41 40 45 7 47 4 50 44 54
REMARK H PARENT 46 57 48 61 63 80
REMARK Flexibility Score: inf
ROOT
ATOM      1  C   UNL     1      17.070  32.477  19.066  1.00  0.00     0.176 C 
ENDROOT
BRANCH   1   2
ATOM      2  C   UNL     1      17.079  30.934  19.133  1.00  0.00     0.178 C 
ATOM      3  C   UNL     1      18.161  29.325  17.777  1.00  0.00     0.272 C 
ATOM      4  C   UNL     1      16.839  28.735  17.489  1.00  0.00     0.113 C 
ATOM      5  O   UNL     1      18.128  30.551  18.390  1.00  0.00    -0.332 OA
ATOM      6  C   UNL     1      15.724  29.758  17.439  1.00  0.00     0.145 C 
ATOM      7  C   UNL     1      15.731  30.469  18.760  1.00  0.00     0.142 C 
BRANCH   3   8
ATOM      8  O   UNL     1      18.892  29.508  16.633  1.00  0.00    -0.338 OA
BRANCH   8   9
ATOM      9  C   UNL     1      19.337  30.738  16.302  1.00  0.00     0.199 C 
BRANCH   9  10
ATOM     10  C   UNL     1      20.607  30.625  15.424  1.00  0.00     0.179 C 
ATOM     11  C   UNL     1      22.386  29.182  15.000  1.00  0.00     0.282 C 
ATOM     12  O   UNL     1      21.318  29.532  15.824  1.00  0.00    -0.341 OA
ATOM     13  C   UNL     1      22.707  30.190  13.955  1.00  0.00     0.202 C 
ATOM     14  C   UNL     1      21.457  30.441  13.139  1.00  0.00     0.179 C 
ATOM     15  C   UNL     1      20.219  30.574  13.969  1.00  0.00     0.177 C 
BRANCH  11  16
ATOM     16  O   UNL     1      22.098  27.943  14.429  1.00  0.00    -0.341 OA
BRANCH  16  17
ATOM     17  C   UNL     1      22.938  26.965  14.875  1.00  0.00     0.184 C 
ATOM     18  C   UNL     1      23.538  26.172  13.774  1.00  0.00     0.178 C 
ATOM     19  O   UNL     1      24.587  25.369  14.245  1.00  0.00    -0.341 OA
ATOM     20  C   UNL     1      24.252  24.774  15.464  1.00  0.00     0.281 C 
ATOM     21  C   UNL     1      22.090  26.038  15.767  1.00  0.00     0.180 C 
ATOM     22  C   UNL     1      22.777  24.689  15.716  1.00  0.00     0.202 C 
BRANCH  18  23
ATOM     23  C   UNL     1      24.094  27.073  12.707  1.00  0.00     0.191 C 
BRANCH  23  24
ATOM     24  O   UNL     1      23.067  27.203  11.743  1.00  0.00    -0.394 OA
ATOM     25  H   UNL     1      22.527  26.390  11.711  1.00  0.00     0.210 HD
ENDBRANCH  23  24
ENDBRANCH  18  23
BRANCH  20  26
ATOM     26  O   UNL     1      24.921  25.420  16.477  1.00  0.00    -0.350 OA
BRANCH  26  27
ATOM     27  C   UNL     1      25.216  24.642  17.574  1.00  0.00     0.169 C 
BRANCH  27  28
ATOM     28  C   UNL     1      25.415  25.382  18.854  1.00  0.00     0.119 C 
BRANCH  28  29
ATOM     29  N   UNL     1      24.080  25.802  19.307  1.00  0.00    -0.092 NA
ATOM     30  N   UNL     1      23.127  25.032  19.356  1.00  0.00     0.001 N 
ATOM     31  N   UNL     1      22.317  24.125  19.197  1.00  0.00    -0.003 NA
ENDBRANCH  28  29
ENDBRANCH  27  28
ENDBRANCH  26  27
ENDBRANCH  20  26
BRANCH  21  32
ATOM     32  O   UNL     1      22.028  26.533  17.051  1.00  0.00    -0.387 OA
ATOM     33  H   UNL     1      21.869  27.532  17.055  1.00  0.00     0.211 HD
ENDBRANCH  21  32
BRANCH  22  34
ATOM     34  O   UNL     1      22.139  23.878  14.805  1.00  0.00    -0.385 OA
ATOM     35  H   UNL     1      22.596  23.842  13.946  1.00  0.00     0.211 HD
ENDBRANCH  22  34
ENDBRANCH  16  17
ENDBRANCH  11  16
BRANCH  13  36
ATOM     36  O   UNL     1      23.168  31.393  14.511  1.00  0.00    -0.385 OA
ATOM     37  H   UNL     1      22.546  32.100  14.188  1.00  0.00     0.211 HD
ENDBRANCH  13  36
BRANCH  14  38
ATOM     38  O   UNL     1      21.266  29.443  12.182  1.00  0.00    -0.387 OA
ATOM     39  H   UNL     1      21.290  29.873  11.282  1.00  0.00     0.211 HD
ENDBRANCH  14  38
BRANCH  15  40
ATOM     40  O   UNL     1      19.298  29.548  13.717  1.00  0.00    -0.387 OA
ATOM     41  H   UNL     1      18.758  29.831  12.933  1.00  0.00     0.211 HD
ENDBRANCH  15  40
ENDBRANCH   9  10
ENDBRANCH   8   9
ENDBRANCH   3   8
BRANCH   3  42
ATOM     42  C   UNL     1      18.888  28.413  18.736  1.00  0.00     0.364 C 
ATOM     43  O   UNL     1      20.045  27.999  18.476  1.00  0.00    -0.246 OA
BRANCH  42  44
ATOM     44  O   UNL     1      18.312  28.003  19.927  1.00  0.00    -0.477 OA
ATOM     45  H   UNL     1      17.393  28.407  20.167  1.00  0.00     0.296 HD
ENDBRANCH  42  44
ENDBRANCH   3  42
BRANCH   6  46
ATOM     46  O   UNL     1      15.957  30.575  16.355  1.00  0.00    -0.391 OA
ATOM     47  H   UNL     1      16.134  30.023  15.549  1.00  0.00     0.211 HD
ENDBRANCH   6  46
BRANCH   7  48
ATOM     48  N   UNL     1      15.236  29.549  19.776  1.00  0.00    -0.348 N 
ATOM     49  C   UNL     1      14.006  29.802  20.477  1.00  0.00     0.217 C 
ATOM     50  H   UNL     1      15.722  28.672  20.060  1.00  0.00     0.163 HD
ATOM     51  C   UNL     1      13.531  28.833  21.514  1.00  0.00     0.114 C 
ATOM     52  O   UNL     1      13.364  30.829  20.200  1.00  0.00    -0.275 OA
ENDBRANCH   7  48
ENDBRANCH   1   2
BRANCH   1  53
ATOM     53  O   UNL     1      15.849  33.031  19.278  1.00  0.00    -0.388 OA
ATOM     54  H   UNL     1      15.524  33.042  20.205  1.00  0.00     0.211 HD
ENDBRANCH   1  53
BRANCH   1  55
ATOM     55  C   UNL     1      18.162  33.067  19.925  1.00  0.00     0.165 C 
BRANCH  55  56
ATOM     56  O   UNL     1      19.340  33.027  19.249  1.00  0.00    -0.388 OA
ATOM     57  H   UNL     1      19.294  32.761  18.310  1.00  0.00     0.211 HD
ENDBRANCH  55  56
BRANCH  55  58
ATOM     58  C   UNL     1      18.107  32.494  21.288  1.00  0.00     0.154 C 
BRANCH  58  59
ATOM     59  N   UNL     1      19.341  31.863  21.667  1.00  0.00    -0.319 N 
ATOM     60  C   UNL     1      19.451  30.518  22.086  1.00  0.00     0.407 C 
ATOM     61  H   UNL     1      20.240  32.418  21.641  1.00  0.00     0.167 HD
ATOM     62  O   UNL     1      18.468  29.767  22.158  1.00  0.00    -0.225 OA
BRANCH  60  63
ATOM     63  O   UNL     1      20.681  29.933  22.450  1.00  0.00    -0.443 OA
BRANCH  63  64
ATOM     64  C   UNL     1      21.412  29.184  21.497  1.00  0.00     0.294 C 
BRANCH  64  65
ATOM     65  C   UNL     1      21.462  27.747  21.817  1.00  0.00     0.120 A 
ATOM     66  C   UNL     1      22.477  27.005  22.354  1.00  0.00     0.138 A 
ATOM     67  N   UNL     1      20.445  26.893  21.592  1.00  0.00    -0.132 NA
ATOM     68  N   UNL     1      22.051  25.726  22.439  1.00  0.00    -0.248 N 
ATOM     69  N   UNL     1      20.817  25.685  21.971  1.00  0.00    -0.067 NA
BRANCH  68  70
ATOM     70  C   UNL     1      22.833  24.629  22.949  1.00  0.00     0.181 C 
BRANCH  70  71
ATOM     71  C   UNL     1      23.072  24.788  24.397  1.00  0.00    -0.026 A 
ATOM     72  C   UNL     1      22.027  24.652  25.286  1.00  0.00     0.006 A 
ATOM     73  C   UNL     1      24.345  25.093  24.870  1.00  0.00     0.006 A 
ATOM     74  C   UNL     1      22.317  24.832  26.627  1.00  0.00     0.016 A 
ATOM     75  C   UNL     1      24.626  25.272  26.206  1.00  0.00     0.016 A 
ATOM     76  C   UNL     1      23.581  25.135  27.090  1.00  0.00     0.059 A 
BRANCH  76  77
ATOM     77  C   UNL     1      23.818  25.318  28.514  1.00  0.00     0.335 C 
ATOM     78  O   UNL     1      24.906  25.753  28.915  1.00  0.00    -0.246 OA
BRANCH  77  79
ATOM     79  O   UNL     1      22.827  25.003  29.417  1.00  0.00    -0.478 OA
ATOM     80  H   UNL     1      22.064  24.369  29.187  1.00  0.00     0.297 HD
ENDBRANCH  77  79
ENDBRANCH  76  77
ENDBRANCH  70  71
ENDBRANCH  68  70
ENDBRANCH  64  65
ENDBRANCH  63  64
ENDBRANCH  60  63
ENDBRANCH  58  59
ENDBRANCH  55  58
ENDBRANCH   1  55
TORSDOF 33
