REMARK VINA RESULT:    -6.053     16.757     21.024
REMARK INTER + INTRA:         -20.115
REMARK INTER:                 -14.101
REMARK INTRA:                  -6.014
REMARK UNBOUND:                -5.215
REMARK SMILES CC(=O)N[C@@H]1[C@@H](O)C[C@](OC[C@H]2O[C@@H](O[C@H]3[C@H](O)[C@@H](O)[C@H](OCCN=[N+]=[N-])O[C@@H]3CO)[C@H](O)[C@@H](O)[C@H]2O)(C(=O)O)O[C@H]1C(O)[C@H](O)CNC(=O)OCc1cn(C2CCCC2)nn1
REMARK SMILES IDX 9 1 8 2 6 3 5 4 42 5 41 6 10 7 11 8 12 9 14 10 13 11 32 12
REMARK SMILES IDX 34 13 36 14 15 15 16 16 29 17 28 18 21 19 17 20 19 21 30 22
REMARK SMILES IDX 31 23 22 25 23 26 24 27 25 28 26 29 27 30 18 31 20 33 33 35
REMARK SMILES IDX 35 37 37 39 38 41 39 42 40 43 7 45 43 47 44 48 45 50 46 51
REMARK SMILES IDX 47 53 48 54 49 55 50 57 51 58 52 59 53 60 54 61 62 62 55 63
REMARK SMILES IDX 61 64 56 65 57 66 60 67 58 68 59 69 4 70 2 71 1 73 3 74
REMARK H PARENT 31 24 18 32 20 34 33 36 35 38 37 40 40 44 7 46 44 49 46 52
REMARK H PARENT 48 56 4 72
REMARK Flexibility Score: inf
ROOT
ATOM      1  C   UNL     1       5.168  23.165  33.832  1.00  0.00     0.272 C 
ATOM      2  C   UNL     1       6.239  23.197  32.806  1.00  0.00     0.113 C 
ATOM      3  C   UNL     1       7.573  22.744  33.286  1.00  0.00     0.145 C 
ATOM      4  C   UNL     1       7.935  23.459  34.611  1.00  0.00     0.142 C 
ATOM      5  C   UNL     1       6.815  24.382  34.941  1.00  0.00     0.178 C 
ATOM      6  O   UNL     1       5.687  23.505  35.103  1.00  0.00    -0.332 OA
ENDROOT
BRANCH   1   7
ATOM      7  O   UNL     1       4.552  21.972  33.949  1.00  0.00    -0.338 OA
BRANCH   7   8
ATOM      8  C   UNL     1       3.979  21.392  32.846  1.00  0.00     0.199 C 
BRANCH   8   9
ATOM      9  C   UNL     1       2.586  20.919  33.254  1.00  0.00     0.179 C 
ATOM     10  C   UNL     1       1.747  20.003  31.285  1.00  0.00     0.282 C 
ATOM     11  O   UNL     1       1.666  20.990  32.259  1.00  0.00    -0.341 OA
ATOM     12  C   UNL     1       2.234  18.692  31.796  1.00  0.00     0.202 C 
ATOM     13  C   UNL     1       2.031  18.486  33.265  1.00  0.00     0.179 C 
ATOM     14  C   UNL     1       2.687  19.636  33.988  1.00  0.00     0.177 C 
BRANCH  10  15
ATOM     15  O   UNL     1       2.425  20.450  30.152  1.00  0.00    -0.341 OA
BRANCH  15  16
ATOM     16  C   UNL     1       1.751  21.490  29.513  1.00  0.00     0.184 C 
ATOM     17  C   UNL     1       1.116  21.110  28.219  1.00  0.00     0.178 C 
ATOM     18  O   UNL     1       0.553  22.248  27.646  1.00  0.00    -0.341 OA
ATOM     19  C   UNL     1       1.547  23.036  27.094  1.00  0.00     0.281 C 
ATOM     20  C   UNL     1       2.812  22.536  29.194  1.00  0.00     0.180 C 
ATOM     21  C   UNL     1       2.336  23.601  28.260  1.00  0.00     0.202 C 
BRANCH  17  22
ATOM     22  C   UNL     1      -0.044  20.131  28.372  1.00  0.00     0.191 C 
BRANCH  22  23
ATOM     23  O   UNL     1      -1.025  20.827  29.098  1.00  0.00    -0.394 OA
ATOM     24  H   UNL     1      -1.917  20.515  28.873  1.00  0.00     0.210 HD
ENDBRANCH  22  23
ENDBRANCH  17  22
BRANCH  19  25
ATOM     25  O   UNL     1       0.957  24.113  26.437  1.00  0.00    -0.350 OA
BRANCH  25  26
ATOM     26  C   UNL     1      -0.269  23.714  25.880  1.00  0.00     0.169 C 
BRANCH  26  27
ATOM     27  C   UNL     1      -0.147  23.572  24.373  1.00  0.00     0.119 C 
BRANCH  27  28
ATOM     28  N   UNL     1      -0.464  22.238  23.953  1.00  0.00    -0.092 NA
ATOM     29  N   UNL     1       0.217  21.254  24.308  1.00  0.00     0.001 N 
ATOM     30  N   UNL     1       1.150  20.454  24.284  1.00  0.00    -0.003 NA
ENDBRANCH  27  28
ENDBRANCH  26  27
ENDBRANCH  25  26
ENDBRANCH  19  25
BRANCH  20  31
ATOM     31  O   UNL     1       3.149  23.130  30.408  1.00  0.00    -0.387 OA
ATOM     32  H   UNL     1       2.815  24.057  30.490  1.00  0.00     0.211 HD
ENDBRANCH  20  31
BRANCH  21  33
ATOM     33  O   UNL     1       3.464  24.236  27.714  1.00  0.00    -0.385 OA
ATOM     34  H   UNL     1       3.173  25.161  27.508  1.00  0.00     0.211 HD
ENDBRANCH  21  33
ENDBRANCH  15  16
ENDBRANCH  10  15
BRANCH  12  35
ATOM     35  O   UNL     1       1.570  17.617  31.160  1.00  0.00    -0.385 OA
ATOM     36  H   UNL     1       2.254  17.071  30.728  1.00  0.00     0.211 HD
ENDBRANCH  12  35
BRANCH  13  37
ATOM     37  O   UNL     1       2.649  17.313  33.655  1.00  0.00    -0.387 OA
ATOM     38  H   UNL     1       2.663  17.290  34.638  1.00  0.00     0.211 HD
ENDBRANCH  13  37
BRANCH  14  39
ATOM     39  O   UNL     1       3.985  19.264  34.311  1.00  0.00    -0.387 OA
ATOM     40  H   UNL     1       4.146  19.233  35.264  1.00  0.00     0.211 HD
ENDBRANCH  14  39
ENDBRANCH   8   9
ENDBRANCH   7   8
ENDBRANCH   1   7
BRANCH   1  41
ATOM     41  C   UNL     1       4.197  24.289  33.546  1.00  0.00     0.364 C 
ATOM     42  O   UNL     1       3.360  24.677  34.376  1.00  0.00    -0.246 OA
BRANCH  41  43
ATOM     43  O   UNL     1       4.298  24.868  32.277  1.00  0.00    -0.477 OA
ATOM     44  H   UNL     1       4.303  24.254  31.452  1.00  0.00     0.296 HD
ENDBRANCH  41  43
ENDBRANCH   1  41
BRANCH   3  45
ATOM     45  O   UNL     1       7.749  21.387  33.376  1.00  0.00    -0.391 OA
ATOM     46  H   UNL     1       8.389  21.080  32.694  1.00  0.00     0.211 HD
ENDBRANCH   3  45
BRANCH   5  47
ATOM     47  C   UNL     1       6.922  25.074  36.277  1.00  0.00     0.176 C 
BRANCH  47  48
ATOM     48  O   UNL     1       6.035  24.334  37.166  1.00  0.00    -0.388 OA
ATOM     49  H   UNL     1       5.229  24.900  37.180  1.00  0.00     0.211 HD
ENDBRANCH  47  48
BRANCH  47  50
ATOM     50  C   UNL     1       6.341  26.458  36.348  1.00  0.00     0.165 C 
BRANCH  50  51
ATOM     51  O   UNL     1       5.069  26.637  35.935  1.00  0.00    -0.388 OA
ATOM     52  H   UNL     1       4.382  26.592  36.636  1.00  0.00     0.211 HD
ENDBRANCH  50  51
BRANCH  50  53
ATOM     53  C   UNL     1       7.235  27.378  35.524  1.00  0.00     0.154 C 
BRANCH  53  54
ATOM     54  N   UNL     1       6.472  27.823  34.350  1.00  0.00    -0.319 N 
ATOM     55  C   UNL     1       7.129  28.357  33.212  1.00  0.00     0.407 C 
ATOM     56  H   UNL     1       5.422  27.760  34.323  1.00  0.00     0.167 HD
ATOM     57  O   UNL     1       8.384  28.446  33.216  1.00  0.00    -0.225 OA
BRANCH  55  58
ATOM     58  O   UNL     1       6.427  28.780  32.106  1.00  0.00    -0.443 OA
BRANCH  58  59
ATOM     59  C   UNL     1       5.146  28.275  31.782  1.00  0.00     0.294 C 
BRANCH  59  60
ATOM     60  C   UNL     1       5.040  27.813  30.379  1.00  0.00     0.120 A 
ATOM     61  C   UNL     1       4.938  28.525  29.205  1.00  0.00     0.138 A 
ATOM     62  N   UNL     1       5.026  26.517  30.000  1.00  0.00    -0.132 NA
ATOM     63  N   UNL     1       4.865  27.668  28.183  1.00  0.00    -0.249 N 
ATOM     64  N   UNL     1       4.923  26.453  28.704  1.00  0.00    -0.067 NA
BRANCH  63  65
ATOM     65  C   UNL     1       4.748  27.961  26.760  1.00  0.00     0.109 C 
ATOM     66  C   UNL     1       5.456  29.215  26.365  1.00  0.00     0.027 C 
ATOM     67  C   UNL     1       5.453  26.867  25.986  1.00  0.00     0.027 C 
ATOM     68  C   UNL     1       6.839  28.834  25.903  1.00  0.00     0.002 C 
ATOM     69  C   UNL     1       6.861  27.332  25.771  1.00  0.00     0.002 C 
ENDBRANCH  63  65
ENDBRANCH  59  60
ENDBRANCH  58  59
ENDBRANCH  55  58
ENDBRANCH  53  54
ENDBRANCH  50  53
ENDBRANCH  47  50
ENDBRANCH   5  47
BRANCH   4  70
ATOM     70  N   UNL     1       9.243  24.055  34.466  1.00  0.00    -0.348 N 
ATOM     71  C   UNL     1      10.243  23.863  35.495  1.00  0.00     0.217 C 
ATOM     72  H   UNL     1       9.533  24.615  33.638  1.00  0.00     0.163 HD
ATOM     73  C   UNL     1      11.592  24.466  35.366  1.00  0.00     0.114 C 
ATOM     74  O   UNL     1       9.987  23.179  36.523  1.00  0.00    -0.275 OA
ENDBRANCH   4  70
TORSDOF 30
