REMARK VINA RESULT:    -5.323     15.929     20.542
REMARK INTER + INTRA:         -21.037
REMARK INTER:                 -13.999
REMARK INTRA:                  -7.038
REMARK UNBOUND:                -7.468
REMARK SMILES CC(=O)N[C@@H]1[C@@H](O)C[C@](OC[C@H]2O[C@@H](O[C@H]3[C@H](O)[C@@H](O)[C@H](OCCN=[N+]=[N-])O[C@@H]3CO)[C@H](O)[C@@H](O)[C@H]2O)(C(=O)O)O[C@H]1C(O)[C@H](O)CNC(=O)OCc1cn(CC(=O)O)nn1
REMARK SMILES IDX 9 1 8 2 6 3 5 4 42 5 41 6 10 7 11 8 12 9 14 10 13 11 32 12
REMARK SMILES IDX 34 13 36 14 15 15 16 16 29 17 28 18 21 19 17 20 19 21 30 22
REMARK SMILES IDX 31 23 22 25 23 26 24 27 25 28 26 29 27 30 18 31 20 33 33 35
REMARK SMILES IDX 35 37 37 39 38 41 39 42 40 43 7 45 43 47 44 48 45 50 46 51
REMARK SMILES IDX 47 53 48 54 49 55 50 57 51 58 52 59 53 60 54 61 61 62 55 63
REMARK SMILES IDX 60 64 56 65 57 66 58 67 59 68 4 70 2 71 1 73 3 74
REMARK H PARENT 31 24 18 32 20 34 33 36 35 38 37 40 40 44 7 46 44 49 46 52
REMARK H PARENT 48 56 59 69 4 72
REMARK Flexibility Score: inf
ROOT
ATOM      1  C   UNL     1      19.806  28.704  19.193  1.00  0.00     0.272 C 
ATOM      2  C   UNL     1      20.399  29.928  19.830  1.00  0.00     0.113 C 
ATOM      3  C   UNL     1      19.765  30.402  21.070  1.00  0.00     0.145 C 
ATOM      4  C   UNL     1      18.367  29.867  21.356  1.00  0.00     0.142 C 
ATOM      5  C   UNL     1      17.797  29.452  20.035  1.00  0.00     0.178 C 
ATOM      6  O   UNL     1      18.597  28.330  19.691  1.00  0.00    -0.332 OA
ENDROOT
BRANCH   1   7
ATOM      7  O   UNL     1      20.683  27.600  19.271  1.00  0.00    -0.338 OA
BRANCH   7   8
ATOM      8  C   UNL     1      22.004  27.911  19.169  1.00  0.00     0.199 C 
BRANCH   8   9
ATOM      9  C   UNL     1      22.726  27.505  20.464  1.00  0.00     0.179 C 
ATOM     10  C   UNL     1      22.362  25.758  21.926  1.00  0.00     0.282 C 
ATOM     11  O   UNL     1      21.871  26.998  21.409  1.00  0.00    -0.341 OA
ATOM     12  C   UNL     1      22.302  24.823  20.774  1.00  0.00     0.202 C 
ATOM     13  C   UNL     1      23.501  25.178  19.879  1.00  0.00     0.179 C 
ATOM     14  C   UNL     1      23.902  26.605  20.138  1.00  0.00     0.177 C 
BRANCH  10  15
ATOM     15  O   UNL     1      21.623  25.451  23.030  1.00  0.00    -0.341 OA
BRANCH  15  16
ATOM     16  C   UNL     1      22.098  26.029  24.207  1.00  0.00     0.184 C 
ATOM     17  C   UNL     1      22.395  24.932  25.186  1.00  0.00     0.178 C 
ATOM     18  O   UNL     1      22.228  25.357  26.476  1.00  0.00    -0.341 OA
ATOM     19  C   UNL     1      22.596  26.647  26.760  1.00  0.00     0.281 C 
ATOM     20  C   UNL     1      21.065  26.949  24.823  1.00  0.00     0.180 C 
ATOM     21  C   UNL     1      21.751  27.653  25.996  1.00  0.00     0.202 C 
BRANCH  17  22
ATOM     22  C   UNL     1      23.823  24.458  24.987  1.00  0.00     0.191 C 
BRANCH  22  23
ATOM     23  O   UNL     1      24.396  25.336  24.063  1.00  0.00    -0.394 OA
ATOM     24  H   UNL     1      25.370  25.387  24.186  1.00  0.00     0.210 HD
ENDBRANCH  22  23
ENDBRANCH  17  22
BRANCH  19  25
ATOM     25  O   UNL     1      23.938  26.831  26.566  1.00  0.00    -0.350 OA
BRANCH  25  26
ATOM     26  C   UNL     1      24.303  28.125  26.292  1.00  0.00     0.169 C 
BRANCH  26  27
ATOM     27  C   UNL     1      25.470  28.264  25.351  1.00  0.00     0.119 C 
BRANCH  27  28
ATOM     28  N   UNL     1      25.019  28.364  23.961  1.00  0.00    -0.092 NA
ATOM     29  N   UNL     1      24.152  29.232  23.740  1.00  0.00     0.001 N 
ATOM     30  N   UNL     1      23.101  29.694  23.255  1.00  0.00    -0.003 NA
ENDBRANCH  27  28
ENDBRANCH  26  27
ENDBRANCH  25  26
ENDBRANCH  19  25
BRANCH  20  31
ATOM     31  O   UNL     1      20.621  27.928  23.968  1.00  0.00    -0.387 OA
ATOM     32  H   UNL     1      19.659  28.040  23.919  1.00  0.00     0.211 HD
ENDBRANCH  20  31
BRANCH  21  33
ATOM     33  O   UNL     1      20.826  28.223  26.849  1.00  0.00    -0.385 OA
ATOM     34  H   UNL     1      19.929  28.284  26.431  1.00  0.00     0.211 HD
ENDBRANCH  21  33
ENDBRANCH  15  16
ENDBRANCH  10  15
BRANCH  12  35
ATOM     35  O   UNL     1      22.232  23.489  21.052  1.00  0.00    -0.385 OA
ATOM     36  H   UNL     1      22.204  22.969  20.232  1.00  0.00     0.211 HD
ENDBRANCH  12  35
BRANCH  13  37
ATOM     37  O   UNL     1      23.088  25.009  18.567  1.00  0.00    -0.387 OA
ATOM     38  H   UNL     1      22.475  25.734  18.258  1.00  0.00     0.211 HD
ENDBRANCH  13  37
BRANCH  14  39
ATOM     39  O   UNL     1      24.482  27.071  18.958  1.00  0.00    -0.387 OA
ATOM     40  H   UNL     1      25.177  26.463  18.615  1.00  0.00     0.211 HD
ENDBRANCH  14  39
ENDBRANCH   8   9
ENDBRANCH   7   8
ENDBRANCH   1   7
BRANCH   1  41
ATOM     41  C   UNL     1      19.656  28.969  17.743  1.00  0.00     0.364 C 
ATOM     42  O   UNL     1      19.956  30.070  17.244  1.00  0.00    -0.246 OA
BRANCH  41  43
ATOM     43  O   UNL     1      19.177  28.004  16.873  1.00  0.00    -0.477 OA
ATOM     44  H   UNL     1      18.324  27.462  17.056  1.00  0.00     0.296 HD
ENDBRANCH  41  43
ENDBRANCH   1  41
BRANCH   3  45
ATOM     45  O   UNL     1      20.586  30.332  22.201  1.00  0.00    -0.391 OA
ATOM     46  H   UNL     1      20.353  30.968  22.897  1.00  0.00     0.211 HD
ENDBRANCH   3  45
BRANCH   5  47
ATOM     47  C   UNL     1      16.364  29.046  20.002  1.00  0.00     0.176 C 
BRANCH  47  48
ATOM     48  O   UNL     1      16.276  27.977  20.954  1.00  0.00    -0.388 OA
ATOM     49  H   UNL     1      16.941  27.270  20.715  1.00  0.00     0.211 HD
ENDBRANCH  47  48
BRANCH  47  50
ATOM     50  C   UNL     1      15.898  28.510  18.665  1.00  0.00     0.165 C 
BRANCH  50  51
ATOM     51  O   UNL     1      16.572  27.289  18.405  1.00  0.00    -0.388 OA
ATOM     52  H   UNL     1      16.657  27.210  17.430  1.00  0.00     0.211 HD
ENDBRANCH  50  51
BRANCH  50  53
ATOM     53  C   UNL     1      16.128  29.444  17.542  1.00  0.00     0.154 C 
BRANCH  53  54
ATOM     54  N   UNL     1      15.745  28.891  16.275  1.00  0.00    -0.319 N 
ATOM     55  C   UNL     1      14.874  29.462  15.321  1.00  0.00     0.407 C 
ATOM     56  H   UNL     1      16.137  27.932  15.959  1.00  0.00     0.167 HD
ATOM     57  O   UNL     1      14.325  30.549  15.514  1.00  0.00    -0.225 OA
BRANCH  55  58
ATOM     58  O   UNL     1      14.583  28.828  14.107  1.00  0.00    -0.443 OA
BRANCH  58  59
ATOM     59  C   UNL     1      14.069  29.560  13.007  1.00  0.00     0.294 C 
BRANCH  59  60
ATOM     60  C   UNL     1      12.669  29.132  12.699  1.00  0.00     0.120 A 
ATOM     61  C   UNL     1      12.234  28.490  11.548  1.00  0.00     0.139 A 
ATOM     62  N   UNL     1      11.576  29.282  13.462  1.00  0.00    -0.132 NA
ATOM     63  N   UNL     1      10.910  28.281  11.661  1.00  0.00    -0.241 N 
ATOM     64  N   UNL     1      10.533  28.771  12.831  1.00  0.00    -0.066 NA
BRANCH  63  65
ATOM     65  C   UNL     1      10.020  27.634  10.692  1.00  0.00     0.268 C 
BRANCH  65  66
ATOM     66  C   UNL     1       8.768  27.282  11.388  1.00  0.00     0.325 C 
ATOM     67  O   UNL     1       8.575  26.122  11.780  1.00  0.00    -0.250 OA
BRANCH  66  68
ATOM     68  O   UNL     1       7.809  28.251  11.600  1.00  0.00    -0.480 OA
ATOM     69  H   UNL     1       7.377  28.764  10.861  1.00  0.00     0.296 HD
ENDBRANCH  66  68
ENDBRANCH  65  66
ENDBRANCH  63  65
ENDBRANCH  59  60
ENDBRANCH  58  59
ENDBRANCH  55  58
ENDBRANCH  53  54
ENDBRANCH  50  53
ENDBRANCH  47  50
ENDBRANCH   5  47
BRANCH   4  70
ATOM     70  N   UNL     1      17.615  30.781  22.146  1.00  0.00    -0.348 N 
ATOM     71  C   UNL     1      17.555  30.692  23.580  1.00  0.00     0.217 C 
ATOM     72  H   UNL     1      17.090  31.563  21.708  1.00  0.00     0.163 HD
ATOM     73  C   UNL     1      16.748  31.687  24.322  1.00  0.00     0.114 C 
ATOM     74  O   UNL     1      18.171  29.792  24.197  1.00  0.00    -0.275 OA
ENDBRANCH   4  70
TORSDOF 32
