REMARK VINA RESULT:    -6.678     14.531     21.687
REMARK INTER + INTRA:         -24.251
REMARK INTER:                 -17.758
REMARK INTRA:                  -6.493
REMARK UNBOUND:                -7.033
REMARK SMILES CC(=O)N[C@@H]1[C@@H](O)C[C@](OC[C@H]2O[C@@H](O[C@H]3[C@H](O)[C@@H](O)[C@H](OCCN=[N+]=[N-])O[C@@H]3CO)[C@H](O)[C@@H](O)[C@H]2O)(C(=O)O)O[C@H]1C(O)[C@H](O)CNC(=O)OCc1cn(C(C)(C)C(=O)c2c[nH]c3ccccc23)nn1
REMARK SMILES IDX 9 1 8 2 6 3 5 4 42 5 41 6 10 7 11 8 12 9 14 10 13 11 32 12
REMARK SMILES IDX 34 13 36 14 15 15 16 16 29 17 28 18 21 19 17 20 19 21 30 22
REMARK SMILES IDX 31 23 22 25 23 26 24 27 25 28 26 29 27 30 18 31 20 33 33 35
REMARK SMILES IDX 35 37 37 39 38 41 39 42 40 43 7 45 43 47 44 48 45 50 46 51
REMARK SMILES IDX 47 53 48 54 49 55 50 57 51 58 52 59 53 60 54 61 71 62 55 63
REMARK SMILES IDX 70 64 56 65 57 66 58 67 59 68 60 69 61 70 62 71 69 72 63 73
REMARK SMILES IDX 64 74 68 75 65 77 67 78 66 79 4 80 2 81 1 83 3 84
REMARK H PARENT 31 24 18 32 20 34 33 36 35 38 37 40 40 44 7 46 44 49 46 52
REMARK H PARENT 48 56 63 76 4 82
REMARK Flexibility Score: inf
ROOT
ATOM      1  C   UNL     1       4.001  24.779  33.087  1.00  0.00     0.272 C 
ATOM      2  C   UNL     1       2.954  24.384  34.115  1.00  0.00     0.113 C 
ATOM      3  C   UNL     1       3.496  23.389  35.111  1.00  0.00     0.145 C 
ATOM      4  C   UNL     1       3.758  22.036  34.361  1.00  0.00     0.142 C 
ATOM      5  C   UNL     1       4.242  22.435  33.005  1.00  0.00     0.178 C 
ATOM      6  O   UNL     1       4.851  23.672  33.042  1.00  0.00    -0.332 OA
ENDROOT
BRANCH   1   7
ATOM      7  O   UNL     1       4.662  25.921  33.291  1.00  0.00    -0.338 OA
BRANCH   7   8
ATOM      8  C   UNL     1       5.855  26.242  33.665  1.00  0.00     0.199 C 
BRANCH   8   9
ATOM      9  C   UNL     1       5.934  27.424  34.634  1.00  0.00     0.179 C 
ATOM     10  C   UNL     1       6.967  26.384  36.500  1.00  0.00     0.282 C 
ATOM     11  O   UNL     1       5.917  27.005  35.921  1.00  0.00    -0.341 OA
ATOM     12  C   UNL     1       8.299  27.013  36.195  1.00  0.00     0.202 C 
ATOM     13  C   UNL     1       8.092  28.341  35.477  1.00  0.00     0.179 C 
ATOM     14  C   UNL     1       7.171  28.220  34.322  1.00  0.00     0.177 C 
BRANCH  10  15
ATOM     15  O   UNL     1       7.009  25.051  36.133  1.00  0.00    -0.341 OA
BRANCH  15  16
ATOM     16  C   UNL     1       8.206  24.447  36.387  1.00  0.00     0.184 C 
ATOM     17  C   UNL     1       8.697  23.446  35.405  1.00  0.00     0.178 C 
ATOM     18  O   UNL     1      10.083  23.314  35.628  1.00  0.00    -0.341 OA
ATOM     19  C   UNL     1      10.399  22.835  36.866  1.00  0.00     0.281 C 
ATOM     20  C   UNL     1       8.268  23.800  37.757  1.00  0.00     0.180 C 
ATOM     21  C   UNL     1       9.738  23.557  38.021  1.00  0.00     0.202 C 
BRANCH  17  22
ATOM     22  C   UNL     1       8.563  23.868  33.956  1.00  0.00     0.191 C 
BRANCH  22  23
ATOM     23  O   UNL     1       9.252  25.078  33.811  1.00  0.00    -0.394 OA
ATOM     24  H   UNL     1       9.942  25.208  34.502  1.00  0.00     0.210 HD
ENDBRANCH  22  23
ENDBRANCH  17  22
BRANCH  19  25
ATOM     25  O   UNL     1      11.775  23.005  37.049  1.00  0.00    -0.350 OA
BRANCH  25  26
ATOM     26  C   UNL     1      12.004  24.302  37.471  1.00  0.00     0.169 C 
BRANCH  26  27
ATOM     27  C   UNL     1      13.300  24.859  36.947  1.00  0.00     0.119 C 
BRANCH  27  28
ATOM     28  N   UNL     1      13.276  25.135  35.527  1.00  0.00    -0.092 NA
ATOM     29  N   UNL     1      12.318  25.742  35.007  1.00  0.00     0.001 N 
ATOM     30  N   UNL     1      11.644  26.715  34.661  1.00  0.00    -0.003 NA
ENDBRANCH  27  28
ENDBRANCH  26  27
ENDBRANCH  25  26
ENDBRANCH  19  25
BRANCH  20  31
ATOM     31  O   UNL     1       7.740  24.590  38.751  1.00  0.00    -0.387 OA
ATOM     32  H   UNL     1       7.568  24.024  39.534  1.00  0.00     0.211 HD
ENDBRANCH  20  31
BRANCH  21  33
ATOM     33  O   UNL     1       9.837  22.725  39.136  1.00  0.00    -0.385 OA
ATOM     34  H   UNL     1       9.351  21.866  39.004  1.00  0.00     0.211 HD
ENDBRANCH  21  33
ENDBRANCH  15  16
ENDBRANCH  10  15
BRANCH  12  35
ATOM     35  O   UNL     1       9.110  27.187  37.316  1.00  0.00    -0.385 OA
ATOM     36  H   UNL     1       8.928  26.473  37.962  1.00  0.00     0.211 HD
ENDBRANCH  12  35
BRANCH  13  37
ATOM     37  O   UNL     1       9.386  28.734  35.063  1.00  0.00    -0.387 OA
ATOM     38  H   UNL     1       9.987  28.840  35.840  1.00  0.00     0.211 HD
ENDBRANCH  13  37
BRANCH  14  39
ATOM     39  O   UNL     1       7.816  27.570  33.240  1.00  0.00    -0.387 OA
ATOM     40  H   UNL     1       8.213  26.719  33.561  1.00  0.00     0.211 HD
ENDBRANCH  14  39
ENDBRANCH   8   9
ENDBRANCH   7   8
ENDBRANCH   1   7
BRANCH   1  41
ATOM     41  C   UNL     1       3.314  24.915  31.784  1.00  0.00     0.364 C 
ATOM     42  O   UNL     1       2.057  24.973  31.765  1.00  0.00    -0.246 OA
BRANCH  41  43
ATOM     43  O   UNL     1       3.959  24.978  30.590  1.00  0.00    -0.477 OA
ATOM     44  H   UNL     1       3.754  25.604  29.814  1.00  0.00     0.296 HD
ENDBRANCH  41  43
ENDBRANCH   1  41
BRANCH   3  45
ATOM     45  O   UNL     1       4.722  23.695  35.652  1.00  0.00    -0.391 OA
ATOM     46  H   UNL     1       5.343  22.913  35.698  1.00  0.00     0.211 HD
ENDBRANCH   3  45
BRANCH   5  47
ATOM     47  C   UNL     1       5.181  21.517  32.315  1.00  0.00     0.176 C 
BRANCH  47  48
ATOM     48  O   UNL     1       5.984  20.800  33.173  1.00  0.00    -0.388 OA
ATOM     49  H   UNL     1       6.571  21.354  33.759  1.00  0.00     0.211 HD
ENDBRANCH  47  48
BRANCH  47  50
ATOM     50  C   UNL     1       4.624  20.707  31.165  1.00  0.00     0.165 C 
BRANCH  50  51
ATOM     51  O   UNL     1       5.533  20.447  30.193  1.00  0.00    -0.388 OA
ATOM     52  H   UNL     1       5.888  19.547  30.233  1.00  0.00     0.211 HD
ENDBRANCH  50  51
BRANCH  50  53
ATOM     53  C   UNL     1       3.327  21.318  30.745  1.00  0.00     0.154 C 
BRANCH  53  54
ATOM     54  N   UNL     1       3.141  21.577  29.367  1.00  0.00    -0.319 N 
ATOM     55  C   UNL     1       2.037  21.066  28.598  1.00  0.00     0.407 C 
ATOM     56  H   UNL     1       3.837  22.180  28.833  1.00  0.00     0.167 HD
ATOM     57  O   UNL     1       1.170  20.330  29.110  1.00  0.00    -0.225 OA
BRANCH  55  58
ATOM     58  O   UNL     1       1.904  21.377  27.258  1.00  0.00    -0.443 OA
BRANCH  58  59
ATOM     59  C   UNL     1       1.319  22.572  26.824  1.00  0.00     0.294 C 
BRANCH  59  60
ATOM     60  C   UNL     1       2.402  23.595  26.684  1.00  0.00     0.120 A 
ATOM     61  C   UNL     1       2.206  24.989  26.705  1.00  0.00     0.139 A 
ATOM     62  N   UNL     1       3.719  23.455  26.492  1.00  0.00    -0.132 NA
ATOM     63  N   UNL     1       3.379  25.610  26.528  1.00  0.00    -0.239 N 
ATOM     64  N   UNL     1       4.286  24.672  26.401  1.00  0.00    -0.066 NA
BRANCH  63  65
ATOM     65  C   UNL     1       3.562  27.046  26.493  1.00  0.00     0.122 C 
ATOM     66  C   UNL     1       4.520  27.391  27.685  1.00  0.00     0.046 C 
ATOM     67  C   UNL     1       2.309  27.823  26.818  1.00  0.00     0.046 C 
BRANCH  65  68
ATOM     68  C   UNL     1       4.232  27.489  25.286  1.00  0.00     0.192 C 
ATOM     69  O   UNL     1       3.566  27.252  24.186  1.00  0.00    -0.291 OA
BRANCH  68  70
ATOM     70  C   UNL     1       5.493  28.137  25.095  1.00  0.00     0.045 A 
ATOM     71  C   UNL     1       5.627  29.499  24.796  1.00  0.00     0.095 A 
ATOM     72  C   UNL     1       6.772  27.618  25.130  1.00  0.00     0.010 A 
ATOM     73  N   UNL     1       6.913  29.760  24.663  1.00  0.00    -0.360 N 
ATOM     74  C   UNL     1       7.653  28.668  24.852  1.00  0.00     0.046 A 
ATOM     75  C   UNL     1       7.307  26.381  25.361  1.00  0.00     0.011 A 
ATOM     76  H   UNL     1       7.281  30.727  24.434  1.00  0.00     0.166 HD
ATOM     77  C   UNL     1       9.021  28.465  24.812  1.00  0.00     0.027 A 
ATOM     78  C   UNL     1       8.686  26.182  25.319  1.00  0.00     0.001 A 
ATOM     79  C   UNL     1       9.527  27.220  25.046  1.00  0.00     0.002 A 
ENDBRANCH  68  70
ENDBRANCH  65  68
ENDBRANCH  63  65
ENDBRANCH  59  60
ENDBRANCH  58  59
ENDBRANCH  55  58
ENDBRANCH  53  54
ENDBRANCH  50  53
ENDBRANCH  47  50
ENDBRANCH   5  47
BRANCH   4  80
ATOM     80  N   UNL     1       2.420  21.455  34.285  1.00  0.00    -0.348 N 
ATOM     81  C   UNL     1       2.164  20.064  34.194  1.00  0.00     0.217 C 
ATOM     82  H   UNL     1       1.585  22.102  34.295  1.00  0.00     0.163 HD
ATOM     83  C   UNL     1       0.801  19.477  34.112  1.00  0.00     0.114 C 
ATOM     84  O   UNL     1       3.190  19.301  34.183  1.00  0.00    -0.275 OA
ENDBRANCH   4  80
TORSDOF 32
