REMARK VINA RESULT:    -5.224     15.517     20.953
REMARK INTER + INTRA:         -21.213
REMARK INTER:                 -15.972
REMARK INTRA:                  -5.241
REMARK UNBOUND:                -8.354
REMARK SMILES CC(=O)N[C@@H]1[C@@H](O)C[C@](OC[C@H]2O[C@@H](O[C@H]3[C@H](O)[C@@H](O)[C@H](OCCN=[N+]=[N-])O[C@@H]3CO)[C@H](O)[C@@H](O)[C@H]2O)(C(=O)O)O[C@H]1C(O)[C@H](O)CNC(=O)OCc1cn(-c2cccc(Cl)c2)nn1
REMARK SMILES IDX 9 1 8 2 6 3 5 4 42 5 41 6 10 7 11 8 12 9 14 10 13 11 32 12
REMARK SMILES IDX 34 13 36 14 15 15 16 16 29 17 28 18 21 19 17 20 19 21 30 22
REMARK SMILES IDX 31 23 22 25 23 26 24 27 25 28 26 29 27 30 18 31 20 33 33 35
REMARK SMILES IDX 35 37 37 39 38 41 39 42 40 43 7 45 43 47 44 48 45 50 46 51
REMARK SMILES IDX 47 53 48 54 49 55 50 57 51 58 52 59 53 60 54 61 64 62 55 63
REMARK SMILES IDX 63 64 56 65 57 66 62 67 58 68 60 69 59 70 61 71 4 72 2 73
REMARK SMILES IDX 1 75 3 76
REMARK H PARENT 31 24 18 32 20 34 33 36 35 38 37 40 40 44 7 46 44 49 46 52
REMARK H PARENT 48 56 4 74
REMARK Flexibility Score: inf
ROOT
ATOM      1  C   UNL     1       2.622  21.502  31.101  1.00  0.00     0.272 C 
ATOM      2  C   UNL     1       1.730  20.952  32.123  1.00  0.00     0.113 C 
ATOM      3  C   UNL     1       1.788  21.509  33.506  1.00  0.00     0.145 C 
ATOM      4  C   UNL     1       2.845  22.570  33.681  1.00  0.00     0.142 C 
ATOM      5  C   UNL     1       4.008  22.119  32.783  1.00  0.00     0.178 C 
ATOM      6  O   UNL     1       3.596  22.413  31.517  1.00  0.00    -0.332 OA
ENDROOT
BRANCH   1   7
ATOM      7  O   UNL     1       2.111  22.012  29.947  1.00  0.00    -0.338 OA
BRANCH   7   8
ATOM      8  C   UNL     1       0.810  22.149  29.695  1.00  0.00     0.199 C 
BRANCH   8   9
ATOM      9  C   UNL     1       0.341  22.519  28.326  1.00  0.00     0.179 C 
ATOM     10  C   UNL     1       0.610  24.102  26.667  1.00  0.00     0.282 C 
ATOM     11  O   UNL     1       1.116  23.612  27.885  1.00  0.00    -0.341 OA
ATOM     12  C   UNL     1       0.700  23.026  25.629  1.00  0.00     0.202 C 
ATOM     13  C   UNL     1       0.172  21.678  26.004  1.00  0.00     0.179 C 
ATOM     14  C   UNL     1       0.678  21.336  27.388  1.00  0.00     0.177 C 
BRANCH  10  15
ATOM     15  O   UNL     1       1.485  25.092  26.303  1.00  0.00    -0.341 OA
BRANCH  15  16
ATOM     16  C   UNL     1       2.569  25.343  27.143  1.00  0.00     0.184 C 
ATOM     17  C   UNL     1       2.534  26.628  27.829  1.00  0.00     0.178 C 
ATOM     18  O   UNL     1       3.716  27.328  27.789  1.00  0.00    -0.341 OA
ATOM     19  C   UNL     1       4.445  27.185  26.612  1.00  0.00     0.281 C 
ATOM     20  C   UNL     1       3.775  24.906  26.387  1.00  0.00     0.180 C 
ATOM     21  C   UNL     1       4.971  25.755  26.686  1.00  0.00     0.202 C 
BRANCH  17  22
ATOM     22  C   UNL     1       2.246  26.438  29.328  1.00  0.00     0.191 C 
BRANCH  22  23
ATOM     23  O   UNL     1       3.399  25.836  29.892  1.00  0.00    -0.394 OA
ATOM     24  H   UNL     1       3.688  26.363  30.660  1.00  0.00     0.210 HD
ENDBRANCH  22  23
ENDBRANCH  17  22
BRANCH  19  25
ATOM     25  O   UNL     1       5.485  28.070  26.636  1.00  0.00    -0.350 OA
BRANCH  25  26
ATOM     26  C   UNL     1       5.432  29.103  25.736  1.00  0.00     0.169 C 
BRANCH  26  27
ATOM     27  C   UNL     1       5.454  28.694  24.287  1.00  0.00     0.119 C 
BRANCH  27  28
ATOM     28  N   UNL     1       6.855  28.764  23.843  1.00  0.00    -0.092 NA
ATOM     29  N   UNL     1       7.621  27.890  24.302  1.00  0.00     0.001 N 
ATOM     30  N   UNL     1       8.322  26.864  24.366  1.00  0.00    -0.003 NA
ENDBRANCH  27  28
ENDBRANCH  26  27
ENDBRANCH  25  26
ENDBRANCH  19  25
BRANCH  20  31
ATOM     31  O   UNL     1       4.042  23.546  26.635  1.00  0.00    -0.387 OA
ATOM     32  H   UNL     1       4.481  23.207  25.814  1.00  0.00     0.211 HD
ENDBRANCH  20  31
BRANCH  21  33
ATOM     33  O   UNL     1       5.911  25.552  25.670  1.00  0.00    -0.385 OA
ATOM     34  H   UNL     1       6.126  26.373  25.198  1.00  0.00     0.211 HD
ENDBRANCH  21  33
ENDBRANCH  15  16
ENDBRANCH  10  15
BRANCH  12  35
ATOM     35  O   UNL     1       0.012  23.385  24.460  1.00  0.00    -0.385 OA
ATOM     36  H   UNL     1      -0.796  23.910  24.657  1.00  0.00     0.211 HD
ENDBRANCH  12  35
BRANCH  13  37
ATOM     37  O   UNL     1       0.707  20.736  25.124  1.00  0.00    -0.387 OA
ATOM     38  H   UNL     1       0.223  20.650  24.285  1.00  0.00     0.211 HD
ENDBRANCH  13  37
BRANCH  14  39
ATOM     39  O   UNL     1       2.089  21.386  27.299  1.00  0.00    -0.387 OA
ATOM     40  H   UNL     1       2.407  22.088  26.712  1.00  0.00     0.211 HD
ENDBRANCH  14  39
ENDBRANCH   8   9
ENDBRANCH   7   8
ENDBRANCH   1   7
BRANCH   1  41
ATOM     41  C   UNL     1       3.474  20.322  30.610  1.00  0.00     0.364 C 
ATOM     42  O   UNL     1       3.051  19.153  30.576  1.00  0.00    -0.246 OA
BRANCH  41  43
ATOM     43  O   UNL     1       4.784  20.568  30.181  1.00  0.00    -0.477 OA
ATOM     44  H   UNL     1       4.933  21.333  29.512  1.00  0.00     0.296 HD
ENDBRANCH  41  43
ENDBRANCH   1  41
BRANCH   3  45
ATOM     45  O   UNL     1       0.580  22.010  33.959  1.00  0.00    -0.391 OA
ATOM     46  H   UNL     1       0.533  22.992  33.893  1.00  0.00     0.211 HD
ENDBRANCH   3  45
BRANCH   5  47
ATOM     47  C   UNL     1       5.316  22.766  33.205  1.00  0.00     0.176 C 
BRANCH  47  48
ATOM     48  O   UNL     1       6.231  22.349  32.202  1.00  0.00    -0.388 OA
ATOM     49  H   UNL     1       7.138  22.669  32.486  1.00  0.00     0.211 HD
ENDBRANCH  47  48
BRANCH  47  50
ATOM     50  C   UNL     1       5.192  24.266  33.044  1.00  0.00     0.165 C 
BRANCH  50  51
ATOM     51  O   UNL     1       5.516  24.627  31.747  1.00  0.00    -0.388 OA
ATOM     52  H   UNL     1       4.732  24.784  31.175  1.00  0.00     0.211 HD
ENDBRANCH  50  51
BRANCH  50  53
ATOM     53  C   UNL     1       6.205  24.948  33.970  1.00  0.00     0.154 C 
BRANCH  53  54
ATOM     54  N   UNL     1       7.421  24.192  34.087  1.00  0.00    -0.319 N 
ATOM     55  C   UNL     1       8.679  24.702  34.440  1.00  0.00     0.407 C 
ATOM     56  H   UNL     1       7.368  23.143  33.887  1.00  0.00     0.167 HD
ATOM     57  O   UNL     1       8.809  25.920  34.711  1.00  0.00    -0.225 OA
BRANCH  55  58
ATOM     58  O   UNL     1       9.833  23.871  34.504  1.00  0.00    -0.443 OA
BRANCH  58  59
ATOM     59  C   UNL     1      10.322  23.455  35.751  1.00  0.00     0.294 C 
BRANCH  59  60
ATOM     60  C   UNL     1      11.494  24.232  36.233  1.00  0.00     0.121 A 
ATOM     61  C   UNL     1      12.370  25.008  35.467  1.00  0.00     0.144 A 
ATOM     62  N   UNL     1      11.976  24.351  37.481  1.00  0.00    -0.131 NA
ATOM     63  N   UNL     1      13.313  25.544  36.261  1.00  0.00    -0.220 N 
ATOM     64  N   UNL     1      13.064  25.139  37.478  1.00  0.00    -0.062 NA
BRANCH  63  65
ATOM     65  C   UNL     1      14.357  26.377  35.772  1.00  0.00     0.068 A 
ATOM     66  C   UNL     1      14.148  27.461  34.950  1.00  0.00     0.028 A 
ATOM     67  C   UNL     1      15.692  26.116  36.121  1.00  0.00     0.049 A 
ATOM     68  C   UNL     1      15.204  28.246  34.498  1.00  0.00     0.004 A 
ATOM     69  C   UNL     1      16.733  26.892  35.673  1.00  0.00     0.043 A 
ATOM     70  C   UNL     1      16.508  27.973  34.852  1.00  0.00     0.020 A 
ATOM     71  Cl  UNL     1      18.398  26.552  36.121  1.00  0.00    -0.084 Cl
ENDBRANCH  63  65
ENDBRANCH  59  60
ENDBRANCH  58  59
ENDBRANCH  55  58
ENDBRANCH  53  54
ENDBRANCH  50  53
ENDBRANCH  47  50
ENDBRANCH   5  47
BRANCH   4  72
ATOM     72  N   UNL     1       3.223  22.770  35.041  1.00  0.00    -0.348 N 
ATOM     73  C   UNL     1       2.668  23.843  35.824  1.00  0.00     0.217 C 
ATOM     74  H   UNL     1       3.905  22.175  35.568  1.00  0.00     0.163 HD
ATOM     75  C   UNL     1       3.040  24.070  37.228  1.00  0.00     0.114 C 
ATOM     76  O   UNL     1       1.840  24.603  35.278  1.00  0.00    -0.275 OA
ENDBRANCH   4  72
TORSDOF 30
