REMARK VINA RESULT:    -6.335     13.882     19.326
REMARK INTER + INTRA:         -22.182
REMARK INTER:                 -13.743
REMARK INTRA:                  -8.439
REMARK UNBOUND:                -6.033
REMARK SMILES CC(=O)N[C@@H]1[C@@H](O)C[C@](OC[C@H]2O[C@@H](O[C@H]3[C@H](O)[C@@H](O)[C@H](OCCN=[N+]=[N-])O[C@@H]3CO)[C@H](O)[C@@H](O)[C@H]2O)(C(=O)O)O[C@H]1C(O)[C@H](O)CNC(=O)OCc1cn(-c2cccc(S(N)(=O)=O)c2)nn1
REMARK SMILES IDX 9 1 8 2 6 3 5 4 42 5 41 6 10 7 11 8 12 9 14 10 13 11 32 12
REMARK SMILES IDX 34 13 36 14 15 15 16 16 29 17 28 18 21 19 17 20 19 21 30 22
REMARK SMILES IDX 31 23 22 25 23 26 24 27 25 28 26 29 27 30 18 31 20 33 33 35
REMARK SMILES IDX 35 37 37 39 38 41 39 42 40 43 7 45 43 47 44 48 45 50 46 51
REMARK SMILES IDX 47 53 48 54 49 55 50 57 51 58 52 59 53 60 54 61 67 62 55 63
REMARK SMILES IDX 66 64 56 65 65 66 57 67 60 68 58 69 59 70 61 71 63 72 64 73
REMARK SMILES IDX 62 74 4 77 2 78 1 80 3 81
REMARK H PARENT 31 24 18 32 20 34 33 36 35 38 37 40 40 44 7 46 44 49 46 52
REMARK H PARENT 48 56 62 75 62 76 4 79
REMARK Flexibility Score: inf
ROOT
ATOM      1  C   UNL     1      14.511  30.329  21.789  1.00  0.00     0.272 C 
ATOM      2  C   UNL     1      13.343  29.732  22.598  1.00  0.00     0.113 C 
ATOM      3  C   UNL     1      13.761  29.664  24.025  1.00  0.00     0.145 C 
ATOM      4  C   UNL     1      14.115  31.013  24.542  1.00  0.00     0.142 C 
ATOM      5  C   UNL     1      14.710  31.900  23.507  1.00  0.00     0.178 C 
ATOM      6  O   UNL     1      14.732  31.571  22.211  1.00  0.00    -0.332 OA
ENDROOT
BRANCH   1   7
ATOM      7  O   UNL     1      14.010  30.309  20.459  1.00  0.00    -0.338 OA
BRANCH   7   8
ATOM      8  C   UNL     1      14.480  31.402  19.799  1.00  0.00     0.199 C 
BRANCH   8   9
ATOM      9  C   UNL     1      15.348  31.047  18.612  1.00  0.00     0.179 C 
ATOM     10  C   UNL     1      17.497  31.049  17.991  1.00  0.00     0.282 C 
ATOM     11  O   UNL     1      16.611  30.611  19.007  1.00  0.00    -0.341 OA
ATOM     12  C   UNL     1      16.984  30.730  16.634  1.00  0.00     0.202 C 
ATOM     13  C   UNL     1      15.816  29.778  16.601  1.00  0.00     0.179 C 
ATOM     14  C   UNL     1      14.778  30.058  17.671  1.00  0.00     0.177 C 
BRANCH  10  15
ATOM     15  O   UNL     1      18.789  30.679  18.262  1.00  0.00    -0.341 OA
BRANCH  15  16
ATOM     16  C   UNL     1      19.038  30.315  19.564  1.00  0.00     0.184 C 
ATOM     17  C   UNL     1      20.319  30.967  20.025  1.00  0.00     0.178 C 
ATOM     18  O   UNL     1      21.097  30.069  20.766  1.00  0.00    -0.341 OA
ATOM     19  C   UNL     1      21.647  29.163  19.891  1.00  0.00     0.281 C 
ATOM     20  C   UNL     1      19.155  28.808  19.584  1.00  0.00     0.180 C 
ATOM     21  C   UNL     1      20.546  28.319  19.335  1.00  0.00     0.202 C 
BRANCH  17  22
ATOM     22  C   UNL     1      20.110  32.171  20.888  1.00  0.00     0.191 C 
BRANCH  22  23
ATOM     23  O   UNL     1      18.872  32.109  21.557  1.00  0.00    -0.394 OA
ATOM     24  H   UNL     1      18.719  32.919  22.099  1.00  0.00     0.210 HD
ENDBRANCH  22  23
ENDBRANCH  17  22
BRANCH  19  25
ATOM     25  O   UNL     1      22.584  28.329  20.502  1.00  0.00    -0.350 OA
BRANCH  25  26
ATOM     26  C   UNL     1      23.328  28.918  21.487  1.00  0.00     0.169 C 
BRANCH  26  27
ATOM     27  C   UNL     1      23.894  27.955  22.509  1.00  0.00     0.119 C 
BRANCH  27  28
ATOM     28  N   UNL     1      24.015  26.617  21.966  1.00  0.00    -0.092 NA
ATOM     29  N   UNL     1      25.079  26.004  21.950  1.00  0.00     0.001 N 
ATOM     30  N   UNL     1      26.082  25.316  21.876  1.00  0.00    -0.003 NA
ENDBRANCH  27  28
ENDBRANCH  26  27
ENDBRANCH  25  26
ENDBRANCH  19  25
BRANCH  20  31
ATOM     31  O   UNL     1      18.767  28.349  20.856  1.00  0.00    -0.387 OA
ATOM     32  H   UNL     1      19.114  28.924  21.583  1.00  0.00     0.211 HD
ENDBRANCH  20  31
BRANCH  21  33
ATOM     33  O   UNL     1      20.773  28.192  17.944  1.00  0.00    -0.385 OA
ATOM     34  H   UNL     1      20.851  29.104  17.581  1.00  0.00     0.211 HD
ENDBRANCH  21  33
ENDBRANCH  15  16
ENDBRANCH  10  15
BRANCH  12  35
ATOM     35  O   UNL     1      16.707  31.881  15.858  1.00  0.00    -0.385 OA
ATOM     36  H   UNL     1      15.905  31.605  15.310  1.00  0.00     0.211 HD
ENDBRANCH  12  35
BRANCH  13  37
ATOM     37  O   UNL     1      16.224  28.458  16.557  1.00  0.00    -0.387 OA
ATOM     38  H   UNL     1      17.106  28.421  17.048  1.00  0.00     0.211 HD
ENDBRANCH  13  37
BRANCH  14  39
ATOM     39  O   UNL     1      14.561  28.855  18.354  1.00  0.00    -0.387 OA
ATOM     40  H   UNL     1      14.303  28.122  17.741  1.00  0.00     0.211 HD
ENDBRANCH  14  39
ENDBRANCH   8   9
ENDBRANCH   7   8
ENDBRANCH   1   7
BRANCH   1  41
ATOM     41  C   UNL     1      15.622  29.353  21.913  1.00  0.00     0.364 C 
ATOM     42  O   UNL     1      15.560  28.277  21.214  1.00  0.00    -0.246 OA
BRANCH  41  43
ATOM     43  O   UNL     1      16.729  29.470  22.700  1.00  0.00    -0.477 OA
ATOM     44  H   UNL     1      17.674  29.616  22.320  1.00  0.00     0.296 HD
ENDBRANCH  41  43
ENDBRANCH   1  41
BRANCH   3  45
ATOM     45  O   UNL     1      12.642  29.131  24.725  1.00  0.00    -0.391 OA
ATOM     46  H   UNL     1      12.995  28.976  25.656  1.00  0.00     0.211 HD
ENDBRANCH   3  45
BRANCH   5  47
ATOM     47  C   UNL     1      14.069  33.298  23.676  1.00  0.00     0.176 C 
BRANCH  47  48
ATOM     48  O   UNL     1      12.998  33.398  22.808  1.00  0.00    -0.388 OA
ATOM     49  H   UNL     1      12.325  34.061  23.038  1.00  0.00     0.211 HD
ENDBRANCH  47  48
BRANCH  47  50
ATOM     50  C   UNL     1      15.097  34.358  23.574  1.00  0.00     0.165 C 
BRANCH  50  51
ATOM     51  O   UNL     1      15.766  34.228  22.359  1.00  0.00    -0.388 OA
ATOM     52  H   UNL     1      15.064  34.385  21.664  1.00  0.00     0.211 HD
ENDBRANCH  50  51
BRANCH  50  53
ATOM     53  C   UNL     1      16.139  34.267  24.676  1.00  0.00     0.154 C 
BRANCH  53  54
ATOM     54  N   UNL     1      17.372  33.800  24.088  1.00  0.00    -0.319 N 
ATOM     55  C   UNL     1      18.347  33.131  24.919  1.00  0.00     0.407 C 
ATOM     56  H   UNL     1      17.599  33.930  23.076  1.00  0.00     0.167 HD
ATOM     57  O   UNL     1      18.138  32.949  26.147  1.00  0.00    -0.225 OA
BRANCH  55  58
ATOM     58  O   UNL     1      19.500  32.708  24.292  1.00  0.00    -0.443 OA
BRANCH  58  59
ATOM     59  C   UNL     1      20.425  31.890  24.944  1.00  0.00     0.294 C 
BRANCH  59  60
ATOM     60  C   UNL     1      20.280  30.479  24.557  1.00  0.00     0.121 A 
ATOM     61  C   UNL     1      21.068  29.442  25.079  1.00  0.00     0.144 A 
ATOM     62  N   UNL     1      19.440  29.915  23.699  1.00  0.00    -0.131 NA
ATOM     63  N   UNL     1      20.660  28.314  24.507  1.00  0.00    -0.220 N 
ATOM     64  N   UNL     1      19.691  28.619  23.691  1.00  0.00    -0.062 NA
BRANCH  63  65
ATOM     65  C   UNL     1      21.222  27.027  24.795  1.00  0.00     0.068 A 
ATOM     66  C   UNL     1      21.954  26.860  25.973  1.00  0.00     0.050 A 
ATOM     67  C   UNL     1      21.050  25.979  23.941  1.00  0.00     0.028 A 
ATOM     68  C   UNL     1      22.511  25.647  26.295  1.00  0.00     0.084 A 
ATOM     69  C   UNL     1      21.596  24.775  24.248  1.00  0.00     0.004 A 
ATOM     70  C   UNL     1      22.332  24.584  25.421  1.00  0.00     0.022 A 
BRANCH  68  71
ATOM     71  S   UNL     1      23.433  25.368  27.745  1.00  0.00     0.238 S 
ATOM     72  O   UNL     1      23.142  26.474  28.720  1.00  0.00    -0.207 OA
ATOM     73  O   UNL     1      24.896  25.368  27.440  1.00  0.00    -0.207 OA
BRANCH  71  74
ATOM     74  N   UNL     1      22.955  23.837  28.419  1.00  0.00    -0.225 NA
ATOM     75  H   UNL     1      23.709  23.513  29.065  1.00  0.00     0.137 HD
ATOM     76  H   UNL     1      22.702  23.151  27.678  1.00  0.00     0.137 HD
ENDBRANCH  71  74
ENDBRANCH  68  71
ENDBRANCH  63  65
ENDBRANCH  59  60
ENDBRANCH  58  59
ENDBRANCH  55  58
ENDBRANCH  53  54
ENDBRANCH  50  53
ENDBRANCH  47  50
ENDBRANCH   5  47
BRANCH   4  77
ATOM     77  N   UNL     1      15.106  30.813  25.612  1.00  0.00    -0.348 N 
ATOM     78  C   UNL     1      14.876  31.211  26.956  1.00  0.00     0.217 C 
ATOM     79  H   UNL     1      16.016  30.363  25.382  1.00  0.00     0.163 HD
ATOM     80  C   UNL     1      15.914  30.981  27.992  1.00  0.00     0.114 C 
ATOM     81  O   UNL     1      13.769  31.760  27.231  1.00  0.00    -0.275 OA
ENDBRANCH   4  77
TORSDOF 32
