REMARK VINA RESULT:    -4.494      2.958      9.658
REMARK INTER + INTRA:         -21.316
REMARK INTER:                 -13.949
REMARK INTRA:                  -7.367
REMARK UNBOUND:                -8.679
REMARK SMILES CCOC(CCn1cc(COC(=O)NC[C@@H](O)C(O)[C@@H]2O[C@@](OC[C@H]3O[C@@H](O[C@H]4[C@H](O)[C@@H](O)[C@H](OCCN=[N+]=[N-])O[C@@H]4CO)[C@H](O)[C@@H](O)[C@H]3O)(C(=O)O)C[C@H](O)[C@H]2NC(C)=O)nn1)OCC
REMARK SMILES IDX 18 1 20 2 22 3 54 4 21 5 55 6 57 7 23 8 24 9 25 10 27 11
REMARK SMILES IDX 26 12 45 13 47 14 49 15 28 16 29 17 42 18 41 19 34 20 30 21
REMARK SMILES IDX 32 22 43 23 44 24 35 26 36 27 37 28 38 29 39 30 40 31 31 32
REMARK SMILES IDX 33 34 46 36 48 38 50 40 51 42 52 43 53 44 56 46 58 48 59 49
REMARK SMILES IDX 60 51 61 52 19 53 16 55 17 56 15 58 14 59 12 60 13 62 11 63
REMARK SMILES IDX 10 64 9 65 8 66 62 67 7 68 63 69 6 70 5 71 4 72 3 73 2 74
REMARK SMILES IDX 1 75 64 76 65 77 66 78
REMARK H PARENT 44 25 31 33 33 35 46 37 48 39 50 41 53 45 56 47 58 50 19 54
REMARK H PARENT 17 57 14 61
REMARK Flexibility Score: inf
ROOT
ATOM      1  C   UNL     1      16.305  28.949  19.578  1.00  0.00     0.176 C 
ENDROOT
BRANCH   1   2
ATOM      2  C   UNL     1      17.600  29.407  20.180  1.00  0.00     0.178 C 
ATOM      3  C   UNL     1      19.782  28.785  20.635  1.00  0.00     0.272 C 
ATOM      4  C   UNL     1      19.812  30.208  21.067  1.00  0.00     0.113 C 
ATOM      5  O   UNL     1      18.519  28.369  20.156  1.00  0.00    -0.332 OA
ATOM      6  C   UNL     1      18.671  30.664  21.909  1.00  0.00     0.145 C 
ATOM      7  C   UNL     1      17.453  29.763  21.663  1.00  0.00     0.142 C 
BRANCH   3   8
ATOM      8  O   UNL     1      20.229  27.849  21.476  1.00  0.00    -0.338 OA
BRANCH   8   9
ATOM      9  C   UNL     1      21.316  28.039  22.246  1.00  0.00     0.199 C 
BRANCH   9  10
ATOM     10  C   UNL     1      22.241  26.844  22.193  1.00  0.00     0.179 C 
ATOM     11  C   UNL     1      23.920  25.721  23.175  1.00  0.00     0.282 C 
ATOM     12  O   UNL     1      22.739  26.470  23.428  1.00  0.00    -0.341 OA
ATOM     13  C   UNL     1      23.520  24.413  22.603  1.00  0.00     0.202 C 
ATOM     14  C   UNL     1      22.700  24.632  21.354  1.00  0.00     0.179 C 
ATOM     15  C   UNL     1      21.594  25.641  21.515  1.00  0.00     0.177 C 
BRANCH  11  16
ATOM     16  O   UNL     1      24.668  25.653  24.355  1.00  0.00    -0.341 OA
BRANCH  16  17
ATOM     17  C   UNL     1      24.045  26.380  25.319  1.00  0.00     0.184 C 
ATOM     18  C   UNL     1      24.750  27.539  25.909  1.00  0.00     0.178 C 
ATOM     19  O   UNL     1      23.799  28.340  26.557  1.00  0.00    -0.341 OA
ATOM     20  C   UNL     1      23.284  27.673  27.679  1.00  0.00     0.281 C 
ATOM     21  C   UNL     1      23.699  25.477  26.546  1.00  0.00     0.180 C 
ATOM     22  C   UNL     1      22.687  26.328  27.326  1.00  0.00     0.202 C 
BRANCH  18  23
ATOM     23  C   UNL     1      25.421  28.370  24.857  1.00  0.00     0.191 C 
BRANCH  23  24
ATOM     24  O   UNL     1      24.513  28.895  23.937  1.00  0.00    -0.394 OA
ATOM     25  H   UNL     1      23.998  29.641  24.294  1.00  0.00     0.210 HD
ENDBRANCH  23  24
ENDBRANCH  18  23
BRANCH  20  26
ATOM     26  O   UNL     1      22.270  28.470  28.181  1.00  0.00    -0.350 OA
BRANCH  26  27
ATOM     27  C   UNL     1      22.581  29.254  29.250  1.00  0.00     0.169 C 
BRANCH  27  28
ATOM     28  C   UNL     1      21.567  29.071  30.348  1.00  0.00     0.119 C 
BRANCH  28  29
ATOM     29  N   UNL     1      21.593  27.680  30.798  1.00  0.00    -0.092 NA
ATOM     30  N   UNL     1      22.703  27.289  31.214  1.00  0.00     0.001 N 
ATOM     31  N   UNL     1      23.730  26.611  31.289  1.00  0.00    -0.003 NA
ENDBRANCH  28  29
ENDBRANCH  27  28
ENDBRANCH  26  27
ENDBRANCH  20  26
BRANCH  21  32
ATOM     32  O   UNL     1      23.135  24.294  26.149  1.00  0.00    -0.387 OA
ATOM     33  H   UNL     1      22.563  23.885  26.844  1.00  0.00     0.211 HD
ENDBRANCH  21  32
BRANCH  22  34
ATOM     34  O   UNL     1      22.289  25.696  28.474  1.00  0.00    -0.385 OA
ATOM     35  H   UNL     1      21.295  25.546  28.396  1.00  0.00     0.211 HD
ENDBRANCH  22  34
ENDBRANCH  16  17
ENDBRANCH  11  16
BRANCH  13  36
ATOM     36  O   UNL     1      24.638  23.667  22.197  1.00  0.00    -0.385 OA
ATOM     37  H   UNL     1      25.451  23.938  22.679  1.00  0.00     0.211 HD
ENDBRANCH  13  36
BRANCH  14  38
ATOM     38  O   UNL     1      22.249  23.434  20.810  1.00  0.00    -0.387 OA
ATOM     39  H   UNL     1      23.006  22.815  20.624  1.00  0.00     0.211 HD
ENDBRANCH  14  38
BRANCH  15  40
ATOM     40  O   UNL     1      20.554  25.173  22.303  1.00  0.00    -0.387 OA
ATOM     41  H   UNL     1      20.894  24.762  23.129  1.00  0.00     0.211 HD
ENDBRANCH  15  40
ENDBRANCH   9  10
ENDBRANCH   8   9
ENDBRANCH   3   8
BRANCH   3  42
ATOM     42  C   UNL     1      20.646  28.700  19.414  1.00  0.00     0.364 C 
ATOM     43  O   UNL     1      21.521  29.551  19.170  1.00  0.00    -0.246 OA
BRANCH  42  44
ATOM     44  O   UNL     1      20.504  27.662  18.499  1.00  0.00    -0.477 OA
ATOM     45  H   UNL     1      20.474  26.711  18.851  1.00  0.00     0.296 HD
ENDBRANCH  42  44
ENDBRANCH   3  42
BRANCH   6  46
ATOM     46  O   UNL     1      18.943  30.766  23.250  1.00  0.00    -0.391 OA
ATOM     47  H   UNL     1      19.804  30.363  23.523  1.00  0.00     0.211 HD
ENDBRANCH   6  46
BRANCH   7  48
ATOM     48  N   UNL     1      16.222  30.415  21.971  1.00  0.00    -0.348 N 
ATOM     49  C   UNL     1      15.626  30.164  23.239  1.00  0.00     0.217 C 
ATOM     50  H   UNL     1      15.740  31.065  21.321  1.00  0.00     0.163 HD
ATOM     51  C   UNL     1      14.344  30.827  23.590  1.00  0.00     0.114 C 
ATOM     52  O   UNL     1      16.173  29.378  24.085  1.00  0.00    -0.275 OA
ENDBRANCH   7  48
ENDBRANCH   1   2
BRANCH   1  53
ATOM     53  O   UNL     1      15.505  30.098  19.432  1.00  0.00    -0.388 OA
ATOM     54  H   UNL     1      15.373  30.544  20.319  1.00  0.00     0.211 HD
ENDBRANCH   1  53
BRANCH   1  55
ATOM     55  C   UNL     1      16.597  28.441  18.180  1.00  0.00     0.165 C 
BRANCH  55  56
ATOM     56  O   UNL     1      17.526  27.442  18.200  1.00  0.00    -0.388 OA
ATOM     57  H   UNL     1      18.454  27.735  18.022  1.00  0.00     0.211 HD
ENDBRANCH  55  56
BRANCH  55  58
ATOM     58  C   UNL     1      17.050  29.570  17.296  1.00  0.00     0.154 C 
BRANCH  58  59
ATOM     59  N   UNL     1      18.469  29.722  17.160  1.00  0.00    -0.319 N 
ATOM     60  C   UNL     1      19.202  29.468  15.990  1.00  0.00     0.407 C 
ATOM     61  H   UNL     1      18.980  30.056  18.034  1.00  0.00     0.167 HD
ATOM     62  O   UNL     1      18.680  29.084  14.930  1.00  0.00    -0.225 OA
BRANCH  60  63
ATOM     63  O   UNL     1      20.604  29.643  15.972  1.00  0.00    -0.443 OA
BRANCH  63  64
ATOM     64  C   UNL     1      21.385  28.892  15.031  1.00  0.00     0.294 C 
BRANCH  64  65
ATOM     65  C   UNL     1      22.017  27.754  15.747  1.00  0.00     0.120 A 
ATOM     66  C   UNL     1      23.244  27.734  16.365  1.00  0.00     0.138 A 
ATOM     67  N   UNL     1      21.492  26.537  15.904  1.00  0.00    -0.132 NA
ATOM     68  N   UNL     1      23.408  26.494  16.872  1.00  0.00    -0.252 N 
ATOM     69  N   UNL     1      22.327  25.795  16.576  1.00  0.00    -0.067 NA
BRANCH  68  70
ATOM     70  C   UNL     1      24.568  26.067  17.598  1.00  0.00     0.151 C 
BRANCH  70  71
ATOM     71  C   UNL     1      24.528  24.641  18.066  1.00  0.00     0.086 C 
BRANCH  71  72
ATOM     72  C   UNL     1      25.747  24.371  18.948  1.00  0.00     0.251 C 
BRANCH  72  73
ATOM     73  O   UNL     1      25.725  25.322  19.951  1.00  0.00    -0.353 OA
BRANCH  73  74
ATOM     74  C   UNL     1      26.996  25.624  20.422  1.00  0.00     0.160 C 
ATOM     75  C   UNL     1      27.116  27.087  20.799  1.00  0.00     0.035 C 
ENDBRANCH  73  74
ENDBRANCH  72  73
BRANCH  72  76
ATOM     76  O   UNL     1      26.899  24.290  18.225  1.00  0.00    -0.353 OA
BRANCH  76  77
ATOM     77  C   UNL     1      27.235  23.066  17.712  1.00  0.00     0.160 C 
ATOM     78  C   UNL     1      27.642  22.148  18.841  1.00  0.00     0.035 C 
ENDBRANCH  76  77
ENDBRANCH  72  76
ENDBRANCH  71  72
ENDBRANCH  70  71
ENDBRANCH  68  70
ENDBRANCH  64  65
ENDBRANCH  63  64
ENDBRANCH  60  63
ENDBRANCH  58  59
ENDBRANCH  55  58
ENDBRANCH   1  55
TORSDOF 36
