REMARK VINA RESULT:    -4.519      3.095      9.460
REMARK INTER + INTRA:         -21.388
REMARK INTER:                 -13.474
REMARK INTRA:                  -7.914
REMARK UNBOUND:                -8.679
REMARK SMILES CCOC(CCn1cc(COC(=O)NC[C@@H](O)C(O)[C@@H]2O[C@@](OC[C@H]3O[C@@H](O[C@H]4[C@H](O)[C@@H](O)[C@H](OCCN=[N+]=[N-])O[C@@H]4CO)[C@H](O)[C@@H](O)[C@H]3O)(C(=O)O)C[C@H](O)[C@H]2NC(C)=O)nn1)OCC
REMARK SMILES IDX 18 1 20 2 22 3 54 4 21 5 55 6 57 7 23 8 24 9 25 10 27 11
REMARK SMILES IDX 26 12 45 13 47 14 49 15 28 16 29 17 42 18 41 19 34 20 30 21
REMARK SMILES IDX 32 22 43 23 44 24 35 26 36 27 37 28 38 29 39 30 40 31 31 32
REMARK SMILES IDX 33 34 46 36 48 38 50 40 51 42 52 43 53 44 56 46 58 48 59 49
REMARK SMILES IDX 60 51 61 52 19 53 16 55 17 56 15 58 14 59 12 60 13 62 11 63
REMARK SMILES IDX 10 64 9 65 8 66 62 67 7 68 63 69 6 70 5 71 4 72 3 73 2 74
REMARK SMILES IDX 1 75 64 76 65 77 66 78
REMARK H PARENT 44 25 31 33 33 35 46 37 48 39 50 41 53 45 56 47 58 50 19 54
REMARK H PARENT 17 57 14 61
REMARK Flexibility Score: inf
ROOT
ATOM      1  C   UNL     1      22.465  27.266  20.370  1.00  0.00     0.176 C 
ENDROOT
BRANCH   1   2
ATOM      2  C   UNL     1      22.767  26.369  21.534  1.00  0.00     0.178 C 
ATOM      3  C   UNL     1      22.456  26.075  23.807  1.00  0.00     0.272 C 
ATOM      4  C   UNL     1      23.154  24.807  23.466  1.00  0.00     0.113 C 
ATOM      5  O   UNL     1      22.269  26.932  22.699  1.00  0.00    -0.332 OA
ATOM      6  C   UNL     1      24.355  24.932  22.595  1.00  0.00     0.145 C 
ATOM      7  C   UNL     1      24.273  26.230  21.780  1.00  0.00     0.142 C 
BRANCH   3   8
ATOM      8  O   UNL     1      22.922  26.812  24.820  1.00  0.00    -0.338 OA
BRANCH   8   9
ATOM      9  C   UNL     1      23.613  27.948  24.619  1.00  0.00     0.199 C 
BRANCH   9  10
ATOM     10  C   UNL     1      23.139  29.049  25.541  1.00  0.00     0.179 C 
ATOM     11  C   UNL     1      21.416  30.316  26.226  1.00  0.00     0.282 C 
ATOM     12  O   UNL     1      21.782  29.010  25.804  1.00  0.00    -0.341 OA
ATOM     13  C   UNL     1      21.979  30.536  27.580  1.00  0.00     0.202 C 
ATOM     14  C   UNL     1      23.477  30.341  27.547  1.00  0.00     0.179 C 
ATOM     15  C   UNL     1      23.916  29.079  26.853  1.00  0.00     0.177 C 
BRANCH  11  16
ATOM     16  O   UNL     1      20.026  30.446  26.130  1.00  0.00    -0.341 OA
BRANCH  16  17
ATOM     17  C   UNL     1      19.714  30.989  24.924  1.00  0.00     0.184 C 
ATOM     18  C   UNL     1      18.847  32.187  24.881  1.00  0.00     0.178 C 
ATOM     19  O   UNL     1      18.990  32.779  23.618  1.00  0.00    -0.341 OA
ATOM     20  C   UNL     1      18.440  31.952  22.627  1.00  0.00     0.281 C 
ATOM     21  C   UNL     1      18.967  29.945  24.033  1.00  0.00     0.180 C 
ATOM     22  C   UNL     1      19.049  30.566  22.631  1.00  0.00     0.202 C 
BRANCH  18  23
ATOM     23  C   UNL     1      19.248  33.194  25.917  1.00  0.00     0.191 C 
BRANCH  23  24
ATOM     24  O   UNL     1      20.595  33.544  25.823  1.00  0.00    -0.394 OA
ATOM     25  H   UNL     1      21.190  32.774  25.829  1.00  0.00     0.210 HD
ENDBRANCH  23  24
ENDBRANCH  18  23
BRANCH  20  26
ATOM     26  O   UNL     1      18.735  32.543  21.412  1.00  0.00    -0.350 OA
BRANCH  26  27
ATOM     27  C   UNL     1      17.682  33.029  20.697  1.00  0.00     0.169 C 
BRANCH  27  28
ATOM     28  C   UNL     1      17.434  32.175  19.481  1.00  0.00     0.119 C 
BRANCH  28  29
ATOM     29  N   UNL     1      18.581  32.277  18.582  1.00  0.00    -0.092 NA
ATOM     30  N   UNL     1      18.845  33.437  18.205  1.00  0.00     0.001 N 
ATOM     31  N   UNL     1      19.033  34.383  17.436  1.00  0.00    -0.003 NA
ENDBRANCH  28  29
ENDBRANCH  27  28
ENDBRANCH  26  27
ENDBRANCH  20  26
BRANCH  21  32
ATOM     32  O   UNL     1      19.594  28.728  24.061  1.00  0.00    -0.387 OA
ATOM     33  H   UNL     1      20.518  28.776  24.411  1.00  0.00     0.211 HD
ENDBRANCH  21  32
BRANCH  22  34
ATOM     34  O   UNL     1      18.407  29.788  21.706  1.00  0.00    -0.385 OA
ATOM     35  H   UNL     1      18.984  29.778  20.880  1.00  0.00     0.211 HD
ENDBRANCH  22  34
ENDBRANCH  16  17
ENDBRANCH  11  16
BRANCH  13  36
ATOM     36  O   UNL     1      21.778  31.857  28.012  1.00  0.00    -0.385 OA
ATOM     37  H   UNL     1      21.180  32.350  27.407  1.00  0.00     0.211 HD
ENDBRANCH  13  36
BRANCH  14  38
ATOM     38  O   UNL     1      24.047  30.478  28.808  1.00  0.00    -0.387 OA
ATOM     39  H   UNL     1      24.744  31.188  28.814  1.00  0.00     0.211 HD
ENDBRANCH  14  38
BRANCH  15  40
ATOM     40  O   UNL     1      23.626  27.938  27.585  1.00  0.00    -0.387 OA
ATOM     41  H   UNL     1      23.882  28.048  28.528  1.00  0.00     0.211 HD
ENDBRANCH  15  40
ENDBRANCH   9  10
ENDBRANCH   8   9
ENDBRANCH   3   8
BRANCH   3  42
ATOM     42  C   UNL     1      21.053  25.696  24.175  1.00  0.00     0.364 C 
ATOM     43  O   UNL     1      20.401  26.337  25.019  1.00  0.00    -0.246 OA
BRANCH  42  44
ATOM     44  O   UNL     1      20.421  24.607  23.583  1.00  0.00    -0.477 OA
ATOM     45  H   UNL     1      19.834  24.019  24.165  1.00  0.00     0.296 HD
ENDBRANCH  42  44
ENDBRANCH   3  42
BRANCH   6  46
ATOM     46  O   UNL     1      25.558  24.839  23.249  1.00  0.00    -0.391 OA
ATOM     47  H   UNL     1      25.610  25.366  24.084  1.00  0.00     0.211 HD
ENDBRANCH   6  46
BRANCH   7  48
ATOM     48  N   UNL     1      25.041  26.168  20.580  1.00  0.00    -0.348 N 
ATOM     49  C   UNL     1      24.836  25.065  19.704  1.00  0.00     0.217 C 
ATOM     50  H   UNL     1      25.740  26.887  20.310  1.00  0.00     0.163 HD
ATOM     51  C   UNL     1      25.622  24.971  18.447  1.00  0.00     0.114 C 
ATOM     52  O   UNL     1      23.988  24.149  19.978  1.00  0.00    -0.275 OA
ENDBRANCH   7  48
ENDBRANCH   1   2
BRANCH   1  53
ATOM     53  O   UNL     1      21.880  26.454  19.382  1.00  0.00    -0.388 OA
ATOM     54  H   UNL     1      21.278  25.773  19.803  1.00  0.00     0.211 HD
ENDBRANCH   1  53
BRANCH   1  55
ATOM     55  C   UNL     1      21.402  28.254  20.809  1.00  0.00     0.165 C 
BRANCH  55  56
ATOM     56  O   UNL     1      20.211  27.630  21.040  1.00  0.00    -0.388 OA
ATOM     57  H   UNL     1      20.091  27.295  21.964  1.00  0.00     0.211 HD
ENDBRANCH  55  56
BRANCH  55  58
ATOM     58  C   UNL     1      21.243  29.341  19.783  1.00  0.00     0.154 C 
BRANCH  58  59
ATOM     59  N   UNL     1      19.941  29.454  19.193  1.00  0.00    -0.319 N 
ATOM     60  C   UNL     1      19.506  28.761  18.053  1.00  0.00     0.407 C 
ATOM     61  H   UNL     1      19.274  30.127  19.682  1.00  0.00     0.167 HD
ATOM     62  O   UNL     1      20.220  27.956  17.432  1.00  0.00    -0.225 OA
BRANCH  60  63
ATOM     63  O   UNL     1      18.199  28.958  17.552  1.00  0.00    -0.443 OA
BRANCH  63  64
ATOM     64  C   UNL     1      17.226  27.918  17.725  1.00  0.00     0.294 C 
BRANCH  64  65
ATOM     65  C   UNL     1      16.417  28.228  18.932  1.00  0.00     0.120 A 
ATOM     66  C   UNL     1      15.296  29.019  19.006  1.00  0.00     0.138 A 
ATOM     67  N   UNL     1      16.653  27.788  20.170  1.00  0.00    -0.132 NA
ATOM     68  N   UNL     1      14.902  29.023  20.297  1.00  0.00    -0.252 N 
ATOM     69  N   UNL     1      15.746  28.266  20.974  1.00  0.00    -0.067 NA
BRANCH  68  70
ATOM     70  C   UNL     1      13.761  29.737  20.789  1.00  0.00     0.151 C 
BRANCH  70  71
ATOM     71  C   UNL     1      13.101  29.119  21.988  1.00  0.00     0.086 C 
BRANCH  71  72
ATOM     72  C   UNL     1      13.348  30.008  23.206  1.00  0.00     0.251 C 
BRANCH  72  73
ATOM     73  O   UNL     1      14.383  29.427  23.915  1.00  0.00    -0.353 OA
BRANCH  73  74
ATOM     74  C   UNL     1      15.428  30.311  24.148  1.00  0.00     0.160 C 
ATOM     75  C   UNL     1      15.363  30.891  25.547  1.00  0.00     0.035 C 
ENDBRANCH  73  74
ENDBRANCH  72  73
BRANCH  72  76
ATOM     76  O   UNL     1      12.206  30.253  23.907  1.00  0.00    -0.353 OA
BRANCH  76  77
ATOM     77  C   UNL     1      11.912  29.411  24.945  1.00  0.00     0.160 C 
ATOM     78  C   UNL     1      10.596  28.722  24.668  1.00  0.00     0.035 C 
ENDBRANCH  76  77
ENDBRANCH  72  76
ENDBRANCH  71  72
ENDBRANCH  70  71
ENDBRANCH  68  70
ENDBRANCH  64  65
ENDBRANCH  63  64
ENDBRANCH  60  63
ENDBRANCH  58  59
ENDBRANCH  55  58
ENDBRANCH   1  55
TORSDOF 36
