REMARK VINA RESULT:    -5.925      4.574      8.283
REMARK INTER + INTRA:         -24.019
REMARK INTER:                 -18.550
REMARK INTRA:                  -5.469
REMARK UNBOUND:                -7.877
REMARK SMILES CC(=O)N[C@@H]1[C@@H](O)C[C@](OC[C@H]2O[C@@H](O[C@H]3[C@H](O)[C@@H](O)[C@H](OCCN=[N+]=[N-])O[C@@H]3CO)[C@H](O)[C@@H](O)[C@H]2O)(C(=O)O)O[C@H]1C(O)[C@H](O)CNC(=O)OCc1cn(CC(O)CCc2ccccc2)nn1
REMARK SMILES IDX 43 1 42 2 9 3 8 4 41 5 6 6 5 7 10 8 11 9 12 10 14 11 13 12
REMARK SMILES IDX 32 13 34 14 36 15 15 16 16 17 29 18 28 19 21 20 17 21 19 22
REMARK SMILES IDX 30 23 31 24 22 26 23 27 24 28 25 29 26 30 27 31 18 32 20 34
REMARK SMILES IDX 33 36 35 38 37 40 38 42 39 43 40 44 7 46 4 48 2 49 1 51 3 52
REMARK SMILES IDX 44 53 45 55 46 56 47 58 48 59 49 60 50 62 51 63 52 64 53 65
REMARK SMILES IDX 54 66 68 67 55 68 67 69 56 70 57 71 58 72 59 74 60 75 61 76
REMARK SMILES IDX 62 77 66 78 63 79 65 80 64 81
REMARK H PARENT 31 25 18 33 20 35 33 37 35 39 37 41 40 45 7 47 4 50 44 54
REMARK H PARENT 46 57 48 61 58 73
REMARK Flexibility Score: inf
ROOT
ATOM      1  C   UNL     1      22.423  23.658  13.948  1.00  0.00     0.176 C 
ENDROOT
BRANCH   1   2
ATOM      2  C   UNL     1      22.661  22.161  13.675  1.00  0.00     0.178 C 
ATOM      3  C   UNL     1      24.612  20.909  14.181  1.00  0.00     0.272 C 
ATOM      4  C   UNL     1      25.162  21.394  12.880  1.00  0.00     0.113 C 
ATOM      5  O   UNL     1      23.559  21.703  14.549  1.00  0.00    -0.332 OA
ATOM      6  C   UNL     1      24.131  21.350  11.809  1.00  0.00     0.145 C 
ATOM      7  C   UNL     1      22.829  21.973  12.215  1.00  0.00     0.142 C 
BRANCH   3   8
ATOM      8  O   UNL     1      25.617  20.884  15.168  1.00  0.00    -0.338 OA
BRANCH   8   9
ATOM      9  C   UNL     1      26.728  21.608  14.923  1.00  0.00     0.199 C 
BRANCH   9  10
ATOM     10  C   UNL     1      27.901  21.161  15.827  1.00  0.00     0.179 C 
ATOM     11  C   UNL     1      28.497  20.431  17.891  1.00  0.00     0.282 C 
ATOM     12  O   UNL     1      27.528  21.012  17.115  1.00  0.00    -0.341 OA
ATOM     13  C   UNL     1      28.701  19.017  17.279  1.00  0.00     0.202 C 
ATOM     14  C   UNL     1      29.536  19.325  16.032  1.00  0.00     0.179 C 
ATOM     15  C   UNL     1      28.583  20.048  15.120  1.00  0.00     0.177 C 
BRANCH  11  16
ATOM     16  O   UNL     1      28.080  20.263  19.164  1.00  0.00    -0.341 OA
BRANCH  16  17
ATOM     17  C   UNL     1      28.805  20.813  20.194  1.00  0.00     0.184 C 
ATOM     18  C   UNL     1      30.283  20.729  20.001  1.00  0.00     0.178 C 
ATOM     19  O   UNL     1      31.006  20.110  20.970  1.00  0.00    -0.341 OA
ATOM     20  C   UNL     1      30.559  20.177  22.255  1.00  0.00     0.281 C 
ATOM     21  C   UNL     1      28.266  20.234  21.471  1.00  0.00     0.180 C 
ATOM     22  C   UNL     1      29.225  19.472  22.311  1.00  0.00     0.202 C 
BRANCH  18  23
ATOM     23  C   UNL     1      30.843  22.125  19.834  1.00  0.00     0.191 C 
BRANCH  23  24
ATOM     24  O   UNL     1      29.828  23.078  19.769  1.00  0.00    -0.394 OA
ATOM     25  H   UNL     1      28.968  22.563  19.828  1.00  0.00     0.210 HD
ENDBRANCH  23  24
ENDBRANCH  18  23
BRANCH  20  26
ATOM     26  O   UNL     1      30.506  21.460  22.773  1.00  0.00    -0.350 OA
BRANCH  26  27
ATOM     27  C   UNL     1      30.539  21.403  24.168  1.00  0.00     0.169 C 
BRANCH  27  28
ATOM     28  C   UNL     1      31.914  20.861  24.553  1.00  0.00     0.119 C 
BRANCH  28  29
ATOM     29  N   UNL     1      31.818  19.541  25.116  1.00  0.00    -0.092 NA
ATOM     30  N   UNL     1      32.488  19.264  26.132  1.00  0.00     0.001 N 
ATOM     31  N   UNL     1      33.358  18.914  26.952  1.00  0.00    -0.003 NA
ENDBRANCH  28  29
ENDBRANCH  27  28
ENDBRANCH  26  27
ENDBRANCH  20  26
BRANCH  21  32
ATOM     32  O   UNL     1      27.739  21.252  22.311  1.00  0.00    -0.387 OA
ATOM     33  H   UNL     1      27.005  21.744  21.877  1.00  0.00     0.211 HD
ENDBRANCH  21  32
BRANCH  22  34
ATOM     34  O   UNL     1      29.409  18.178  21.815  1.00  0.00    -0.385 OA
ATOM     35  H   UNL     1      28.722  17.556  22.130  1.00  0.00     0.211 HD
ENDBRANCH  22  34
ENDBRANCH  16  17
ENDBRANCH  11  16
BRANCH  13  36
ATOM     36  O   UNL     1      29.285  18.135  18.125  1.00  0.00    -0.385 OA
ATOM     37  H   UNL     1      29.572  17.279  17.768  1.00  0.00     0.211 HD
ENDBRANCH  13  36
BRANCH  14  38
ATOM     38  O   UNL     1      30.033  18.157  15.461  1.00  0.00    -0.387 OA
ATOM     39  H   UNL     1      30.380  17.556  16.158  1.00  0.00     0.211 HD
ENDBRANCH  14  38
BRANCH  15  40
ATOM     40  O   UNL     1      27.644  19.099  14.702  1.00  0.00    -0.387 OA
ATOM     41  H   UNL     1      27.182  18.689  15.470  1.00  0.00     0.211 HD
ENDBRANCH  15  40
ENDBRANCH   9  10
ENDBRANCH   8   9
ENDBRANCH   3   8
BRANCH   3  42
ATOM     42  C   UNL     1      24.235  19.481  14.043  1.00  0.00     0.364 C 
ATOM     43  O   UNL     1      25.093  18.665  13.603  1.00  0.00    -0.246 OA
BRANCH  42  44
ATOM     44  O   UNL     1      23.001  18.991  14.369  1.00  0.00    -0.477 OA
ATOM     45  H   UNL     1      22.882  18.458  15.218  1.00  0.00     0.296 HD
ENDBRANCH  42  44
ENDBRANCH   3  42
BRANCH   6  46
ATOM     46  O   UNL     1      24.707  22.025  10.697  1.00  0.00    -0.391 OA
ATOM     47  H   UNL     1      24.067  22.623  10.261  1.00  0.00     0.211 HD
ENDBRANCH   6  46
BRANCH   7  48
ATOM     48  N   UNL     1      21.686  21.341  11.606  1.00  0.00    -0.348 N 
ATOM     49  C   UNL     1      21.261  21.593  10.273  1.00  0.00     0.217 C 
ATOM     50  H   UNL     1      21.099  20.645  12.156  1.00  0.00     0.163 HD
ATOM     51  C   UNL     1      20.073  20.876   9.761  1.00  0.00     0.114 C 
ATOM     52  O   UNL     1      21.870  22.392   9.555  1.00  0.00    -0.275 OA
ENDBRANCH   7  48
ENDBRANCH   1   2
BRANCH   1  53
ATOM     53  O   UNL     1      22.645  24.388  12.798  1.00  0.00    -0.388 OA
ATOM     54  H   UNL     1      23.374  24.022  12.240  1.00  0.00     0.211 HD
ENDBRANCH   1  53
BRANCH   1  55
ATOM     55  C   UNL     1      23.051  24.176  15.187  1.00  0.00     0.165 C 
BRANCH  55  56
ATOM     56  O   UNL     1      22.198  25.042  15.824  1.00  0.00    -0.388 OA
ATOM     57  H   UNL     1      21.752  25.669  15.221  1.00  0.00     0.211 HD
ENDBRANCH  55  56
BRANCH  55  58
ATOM     58  C   UNL     1      24.337  24.863  14.787  1.00  0.00     0.154 C 
BRANCH  58  59
ATOM     59  N   UNL     1      24.455  26.235  15.105  1.00  0.00    -0.319 N 
ATOM     60  C   UNL     1      23.827  27.334  14.462  1.00  0.00     0.407 C 
ATOM     61  H   UNL     1      25.084  26.538  15.928  1.00  0.00     0.167 HD
ATOM     62  O   UNL     1      23.057  27.146  13.512  1.00  0.00    -0.225 OA
BRANCH  60  63
ATOM     63  O   UNL     1      24.060  28.635  14.880  1.00  0.00    -0.443 OA
BRANCH  63  64
ATOM     64  C   UNL     1      23.818  29.182  16.123  1.00  0.00     0.294 C 
BRANCH  64  65
ATOM     65  C   UNL     1      23.024  28.382  17.068  1.00  0.00     0.120 A 
ATOM     66  C   UNL     1      23.417  27.925  18.320  1.00  0.00     0.138 A 
ATOM     67  N   UNL     1      21.773  27.917  16.867  1.00  0.00    -0.132 NA
ATOM     68  N   UNL     1      22.400  27.216  18.802  1.00  0.00    -0.250 N 
ATOM     69  N   UNL     1      21.425  27.220  17.928  1.00  0.00    -0.067 NA
BRANCH  68  70
ATOM     70  C   UNL     1      22.438  26.536  20.123  1.00  0.00     0.177 C 
BRANCH  70  71
ATOM     71  C   UNL     1      22.882  25.137  19.859  1.00  0.00     0.136 C 
BRANCH  71  72
ATOM     72  O   UNL     1      22.324  24.628  18.674  1.00  0.00    -0.391 OA
ATOM     73  H   UNL     1      22.868  23.910  18.287  1.00  0.00     0.211 HD
ENDBRANCH  71  72
BRANCH  71  74
ATOM     74  C   UNL     1      22.688  24.191  20.978  1.00  0.00     0.038 C 
BRANCH  74  75
ATOM     75  C   UNL     1      21.955  24.551  22.187  1.00  0.00     0.038 C 
BRANCH  75  76
ATOM     76  C   UNL     1      22.608  24.502  23.478  1.00  0.00    -0.048 A 
ATOM     77  C   UNL     1      21.868  24.573  24.655  1.00  0.00     0.004 A 
ATOM     78  C   UNL     1      23.997  24.463  23.594  1.00  0.00     0.004 A 
ATOM     79  C   UNL     1      22.490  24.602  25.869  1.00  0.00     0.000 A 
ATOM     80  C   UNL     1      24.593  24.495  24.832  1.00  0.00     0.000 A 
ATOM     81  C   UNL     1      23.856  24.566  26.007  1.00  0.00     0.000 A 
ENDBRANCH  75  76
ENDBRANCH  74  75
ENDBRANCH  71  74
ENDBRANCH  70  71
ENDBRANCH  68  70
ENDBRANCH  64  65
ENDBRANCH  63  64
ENDBRANCH  60  63
ENDBRANCH  58  59
ENDBRANCH  55  58
ENDBRANCH   1  55
TORSDOF 35
