REMARK VINA RESULT:    -5.796      7.228     13.569
REMARK INTER + INTRA:         -23.669
REMARK INTER:                 -15.897
REMARK INTRA:                  -7.772
REMARK UNBOUND:                -7.877
REMARK SMILES CC(=O)N[C@@H]1[C@@H](O)C[C@](OC[C@H]2O[C@@H](O[C@H]3[C@H](O)[C@@H](O)[C@H](OCCN=[N+]=[N-])O[C@@H]3CO)[C@H](O)[C@@H](O)[C@H]2O)(C(=O)O)O[C@H]1C(O)[C@H](O)CNC(=O)OCc1cn(CC(O)CCc2ccccc2)nn1
REMARK SMILES IDX 43 1 42 2 9 3 8 4 41 5 6 6 5 7 10 8 11 9 12 10 14 11 13 12
REMARK SMILES IDX 32 13 34 14 36 15 15 16 16 17 29 18 28 19 21 20 17 21 19 22
REMARK SMILES IDX 30 23 31 24 22 26 23 27 24 28 25 29 26 30 27 31 18 32 20 34
REMARK SMILES IDX 33 36 35 38 37 40 38 42 39 43 40 44 7 46 4 48 2 49 1 51 3 52
REMARK SMILES IDX 44 53 45 55 46 56 47 58 48 59 49 60 50 62 51 63 52 64 53 65
REMARK SMILES IDX 54 66 68 67 55 68 67 69 56 70 57 71 58 72 59 74 60 75 61 76
REMARK SMILES IDX 62 77 66 78 63 79 65 80 64 81
REMARK H PARENT 31 25 18 33 20 35 33 37 35 39 37 41 40 45 7 47 4 50 44 54
REMARK H PARENT 46 57 48 61 58 73
REMARK Flexibility Score: inf
ROOT
ATOM      1  C   UNL     1      23.371  27.992  27.577  1.00  0.00     0.176 C 
ENDROOT
BRANCH   1   2
ATOM      2  C   UNL     1      24.613  28.098  26.671  1.00  0.00     0.178 C 
ATOM      3  C   UNL     1      24.642  28.387  24.317  1.00  0.00     0.272 C 
ATOM      4  C   UNL     1      24.502  26.904  24.215  1.00  0.00     0.113 C 
ATOM      5  O   UNL     1      24.287  28.788  25.577  1.00  0.00    -0.332 OA
ATOM      6  C   UNL     1      25.372  26.211  25.202  1.00  0.00     0.145 C 
ATOM      7  C   UNL     1      25.248  26.763  26.590  1.00  0.00     0.142 C 
BRANCH   3   8
ATOM      8  O   UNL     1      23.870  29.028  23.327  1.00  0.00    -0.338 OA
BRANCH   8   9
ATOM      9  C   UNL     1      22.748  28.396  22.926  1.00  0.00     0.199 C 
BRANCH   9  10
ATOM     10  C   UNL     1      21.716  29.396  22.353  1.00  0.00     0.179 C 
ATOM     11  C   UNL     1      19.572  29.681  21.665  1.00  0.00     0.282 C 
ATOM     12  O   UNL     1      20.565  28.793  21.990  1.00  0.00    -0.341 OA
ATOM     13  C   UNL     1      19.310  30.478  22.974  1.00  0.00     0.202 C 
ATOM     14  C   UNL     1      20.501  31.440  23.007  1.00  0.00     0.179 C 
ATOM     15  C   UNL     1      21.684  30.554  23.282  1.00  0.00     0.177 C 
BRANCH  11  16
ATOM     16  O   UNL     1      18.425  29.048  21.342  1.00  0.00    -0.341 OA
BRANCH  16  17
ATOM     17  C   UNL     1      18.152  28.770  20.023  1.00  0.00     0.184 C 
ATOM     18  C   UNL     1      18.854  29.670  19.062  1.00  0.00     0.178 C 
ATOM     19  O   UNL     1      18.086  30.360  18.177  1.00  0.00    -0.341 OA
ATOM     20  C   UNL     1      16.921  29.796  17.752  1.00  0.00     0.281 C 
ATOM     21  C   UNL     1      16.658  28.687  19.891  1.00  0.00     0.180 C 
ATOM     22  C   UNL     1      16.020  29.648  18.954  1.00  0.00     0.202 C 
BRANCH  18  23
ATOM     23  C   UNL     1      19.855  28.862  18.264  1.00  0.00     0.191 C 
BRANCH  23  24
ATOM     24  O   UNL     1      20.349  27.789  19.003  1.00  0.00    -0.394 OA
ATOM     25  H   UNL     1      21.099  28.162  19.557  1.00  0.00     0.210 HD
ENDBRANCH  23  24
ENDBRANCH  18  23
BRANCH  20  26
ATOM     26  O   UNL     1      17.084  28.609  17.057  1.00  0.00    -0.350 OA
BRANCH  26  27
ATOM     27  C   UNL     1      16.905  28.840  15.692  1.00  0.00     0.169 C 
BRANCH  27  28
ATOM     28  C   UNL     1      15.405  29.023  15.471  1.00  0.00     0.119 C 
BRANCH  28  29
ATOM     29  N   UNL     1      14.970  28.369  14.266  1.00  0.00    -0.092 NA
ATOM     30  N   UNL     1      13.747  28.256  14.044  1.00  0.00     0.001 N 
ATOM     31  N   UNL     1      12.556  27.896  13.972  1.00  0.00    -0.003 NA
ENDBRANCH  28  29
ENDBRANCH  27  28
ENDBRANCH  26  27
ENDBRANCH  20  26
BRANCH  21  32
ATOM     32  O   UNL     1      16.254  27.396  19.456  1.00  0.00    -0.387 OA
ATOM     33  H   UNL     1      16.481  27.238  18.511  1.00  0.00     0.211 HD
ENDBRANCH  21  32
BRANCH  22  34
ATOM     34  O   UNL     1      15.888  30.909  19.542  1.00  0.00    -0.385 OA
ATOM     35  H   UNL     1      15.064  30.992  20.064  1.00  0.00     0.211 HD
ENDBRANCH  22  34
ENDBRANCH  16  17
ENDBRANCH  11  16
BRANCH  13  36
ATOM     36  O   UNL     1      18.104  31.096  23.004  1.00  0.00    -0.385 OA
ATOM     37  H   UNL     1      18.054  32.017  22.700  1.00  0.00     0.211 HD
ENDBRANCH  13  36
BRANCH  14  38
ATOM     38  O   UNL     1      20.329  32.415  23.986  1.00  0.00    -0.387 OA
ATOM     39  H   UNL     1      19.632  33.054  23.716  1.00  0.00     0.211 HD
ENDBRANCH  14  38
BRANCH  15  40
ATOM     40  O   UNL     1      21.542  30.107  24.600  1.00  0.00    -0.387 OA
ATOM     41  H   UNL     1      22.404  29.812  24.974  1.00  0.00     0.211 HD
ENDBRANCH  15  40
ENDBRANCH   9  10
ENDBRANCH   8   9
ENDBRANCH   3   8
BRANCH   3  42
ATOM     42  C   UNL     1      26.032  28.766  23.963  1.00  0.00     0.364 C 
ATOM     43  O   UNL     1      26.718  29.414  24.803  1.00  0.00    -0.246 OA
BRANCH  42  44
ATOM     44  O   UNL     1      26.620  28.451  22.770  1.00  0.00    -0.477 OA
ATOM     45  H   UNL     1      26.691  29.152  22.046  1.00  0.00     0.296 HD
ENDBRANCH  42  44
ENDBRANCH   3  42
BRANCH   6  46
ATOM     46  O   UNL     1      24.993  24.841  25.150  1.00  0.00    -0.391 OA
ATOM     47  H   UNL     1      24.099  24.695  25.519  1.00  0.00     0.211 HD
ENDBRANCH   6  46
BRANCH   7  48
ATOM     48  N   UNL     1      26.478  26.692  27.339  1.00  0.00    -0.348 N 
ATOM     49  C   UNL     1      26.588  26.089  28.621  1.00  0.00     0.217 C 
ATOM     50  H   UNL     1      27.373  27.109  26.944  1.00  0.00     0.163 HD
ATOM     51  C   UNL     1      27.909  26.074  29.286  1.00  0.00     0.114 C 
ATOM     52  O   UNL     1      25.603  25.585  29.171  1.00  0.00    -0.275 OA
ENDBRANCH   7  48
ENDBRANCH   1   2
BRANCH   1  53
ATOM     53  O   UNL     1      23.361  26.771  28.221  1.00  0.00    -0.388 OA
ATOM     54  H   UNL     1      22.967  26.813  29.126  1.00  0.00     0.211 HD
ENDBRANCH   1  53
BRANCH   1  55
ATOM     55  C   UNL     1      22.098  28.413  26.947  1.00  0.00     0.165 C 
BRANCH  55  56
ATOM     56  O   UNL     1      21.534  29.441  27.658  1.00  0.00    -0.388 OA
ATOM     57  H   UNL     1      22.044  29.696  28.452  1.00  0.00     0.211 HD
ENDBRANCH  55  56
BRANCH  55  58
ATOM     58  C   UNL     1      21.191  27.204  26.912  1.00  0.00     0.154 C 
BRANCH  58  59
ATOM     59  N   UNL     1      21.291  26.360  25.782  1.00  0.00    -0.319 N 
ATOM     60  C   UNL     1      21.896  25.078  25.706  1.00  0.00     0.407 C 
ATOM     61  H   UNL     1      20.873  26.680  24.840  1.00  0.00     0.167 HD
ATOM     62  O   UNL     1      22.402  24.564  26.710  1.00  0.00    -0.225 OA
BRANCH  60  63
ATOM     63  O   UNL     1      21.934  24.376  24.511  1.00  0.00    -0.443 OA
BRANCH  63  64
ATOM     64  C   UNL     1      21.178  24.591  23.378  1.00  0.00     0.294 C 
BRANCH  64  65
ATOM     65  C   UNL     1      21.901  24.825  22.118  1.00  0.00     0.120 A 
ATOM     66  C   UNL     1      23.178  24.389  21.789  1.00  0.00     0.138 A 
ATOM     67  N   UNL     1      21.458  25.544  21.065  1.00  0.00    -0.132 NA
ATOM     68  N   UNL     1      23.438  24.861  20.573  1.00  0.00    -0.250 N 
ATOM     69  N   UNL     1      22.405  25.547  20.151  1.00  0.00    -0.067 NA
BRANCH  68  70
ATOM     70  C   UNL     1      24.727  24.628  19.869  1.00  0.00     0.177 C 
BRANCH  70  71
ATOM     71  C   UNL     1      25.802  24.922  20.860  1.00  0.00     0.136 C 
BRANCH  71  72
ATOM     72  O   UNL     1      25.946  26.303  21.078  1.00  0.00    -0.391 OA
ATOM     73  H   UNL     1      25.315  26.829  20.543  1.00  0.00     0.211 HD
ENDBRANCH  71  72
BRANCH  71  74
ATOM     74  C   UNL     1      27.111  24.298  20.576  1.00  0.00     0.038 C 
BRANCH  74  75
ATOM     75  C   UNL     1      27.254  23.157  19.678  1.00  0.00     0.038 C 
BRANCH  75  76
ATOM     76  C   UNL     1      27.826  21.917  20.158  1.00  0.00    -0.048 A 
ATOM     77  C   UNL     1      28.242  20.930  19.268  1.00  0.00     0.004 A 
ATOM     78  C   UNL     1      27.911  21.629  21.521  1.00  0.00     0.004 A 
ATOM     79  C   UNL     1      28.712  19.733  19.724  1.00  0.00     0.000 A 
ATOM     80  C   UNL     1      28.389  20.414  21.947  1.00  0.00     0.000 A 
ATOM     81  C   UNL     1      28.803  19.429  21.060  1.00  0.00     0.000 A 
ENDBRANCH  75  76
ENDBRANCH  74  75
ENDBRANCH  71  74
ENDBRANCH  70  71
ENDBRANCH  68  70
ENDBRANCH  64  65
ENDBRANCH  63  64
ENDBRANCH  60  63
ENDBRANCH  58  59
ENDBRANCH  55  58
ENDBRANCH   1  55
TORSDOF 35
