REMARK VINA RESULT:    -5.835      6.915     11.638
REMARK INTER + INTRA:         -21.398
REMARK INTER:                 -14.686
REMARK INTRA:                  -6.712
REMARK UNBOUND:                -7.035
REMARK SMILES CC(=O)N[C@@H]1[C@@H](O)C[C@](OC[C@H]2O[C@@H](O[C@H]3[C@H](O)[C@@H](O)[C@H](OCCN=[N+]=[N-])O[C@@H]3CO)[C@H](O)[C@@H](O)[C@H]2O)(C(=O)O)O[C@H]1C(O)[C@H](O)CNC(=O)OCc1cn([C@@H]2C[C@H]3CC[C@@H](C2)N3C)nn1
REMARK SMILES IDX 9 1 8 2 6 3 5 4 42 5 41 6 10 7 11 8 12 9 14 10 13 11 32 12
REMARK SMILES IDX 34 13 36 14 15 15 16 16 29 17 28 18 21 19 17 20 19 21 30 22
REMARK SMILES IDX 31 23 22 25 23 26 24 27 25 28 26 29 27 30 18 31 20 33 33 35
REMARK SMILES IDX 35 37 37 39 38 41 39 42 40 43 7 45 43 47 44 48 45 50 46 51
REMARK SMILES IDX 47 53 48 54 49 55 50 57 51 58 52 59 53 60 54 61 66 62 55 63
REMARK SMILES IDX 65 64 56 65 62 66 57 67 61 68 58 69 63 70 60 71 59 72 64 73
REMARK SMILES IDX 4 74 2 75 1 77 3 78
REMARK H PARENT 31 24 18 32 20 34 33 36 35 38 37 40 40 44 7 46 44 49 46 52
REMARK H PARENT 48 56 4 76
REMARK Flexibility Score: inf
ROOT
ATOM      1  C   UNL     1      25.794  24.534  11.282  1.00  0.00     0.272 C 
ATOM      2  C   UNL     1      27.113  23.880  11.390  1.00  0.00     0.113 C 
ATOM      3  C   UNL     1      27.268  23.131  12.705  1.00  0.00     0.145 C 
ATOM      4  C   UNL     1      26.954  24.091  13.877  1.00  0.00     0.142 C 
ATOM      5  C   UNL     1      25.778  24.934  13.584  1.00  0.00     0.178 C 
ATOM      6  O   UNL     1      25.100  24.386  12.514  1.00  0.00    -0.332 OA
ENDROOT
BRANCH   1   7
ATOM      7  O   UNL     1      24.939  24.263  10.275  1.00  0.00    -0.338 OA
BRANCH   7   8
ATOM      8  C   UNL     1      24.434  23.148   9.857  1.00  0.00     0.199 C 
BRANCH   8   9
ATOM      9  C   UNL     1      23.120  23.214   9.092  1.00  0.00     0.179 C 
ATOM     10  C   UNL     1      21.312  21.855   9.733  1.00  0.00     0.282 C 
ATOM     11  O   UNL     1      22.544  21.937   9.154  1.00  0.00    -0.341 OA
ATOM     12  C   UNL     1      20.290  22.758   9.126  1.00  0.00     0.202 C 
ATOM     13  C   UNL     1      20.834  24.144   9.115  1.00  0.00     0.179 C 
ATOM     14  C   UNL     1      22.215  24.264   9.656  1.00  0.00     0.177 C 
BRANCH  10  15
ATOM     15  O   UNL     1      21.343  21.885  11.116  1.00  0.00    -0.341 OA
BRANCH  15  16
ATOM     16  C   UNL     1      21.861  20.748  11.700  1.00  0.00     0.184 C 
ATOM     17  C   UNL     1      20.807  19.869  12.248  1.00  0.00     0.178 C 
ATOM     18  O   UNL     1      21.316  18.644  12.690  1.00  0.00    -0.341 OA
ATOM     19  C   UNL     1      22.705  18.644  12.834  1.00  0.00     0.281 C 
ATOM     20  C   UNL     1      22.693  21.176  12.956  1.00  0.00     0.180 C 
ATOM     21  C   UNL     1      23.252  19.896  13.487  1.00  0.00     0.202 C 
BRANCH  17  22
ATOM     22  C   UNL     1      19.598  19.641  11.410  1.00  0.00     0.191 C 
BRANCH  22  23
ATOM     23  O   UNL     1      18.567  20.493  11.798  1.00  0.00    -0.394 OA
ATOM     24  H   UNL     1      18.911  21.125  12.476  1.00  0.00     0.210 HD
ENDBRANCH  22  23
ENDBRANCH  17  22
BRANCH  19  25
ATOM     25  O   UNL     1      23.349  18.271  11.687  1.00  0.00    -0.350 OA
BRANCH  25  26
ATOM     26  C   UNL     1      24.463  17.513  11.753  1.00  0.00     0.169 C 
BRANCH  26  27
ATOM     27  C   UNL     1      25.720  18.179  11.332  1.00  0.00     0.119 C 
BRANCH  27  28
ATOM     28  N   UNL     1      26.732  18.275  12.326  1.00  0.00    -0.092 NA
ATOM     29  N   UNL     1      26.524  18.640  13.488  1.00  0.00     0.001 N 
ATOM     30  N   UNL     1      26.684  19.344  14.490  1.00  0.00    -0.003 NA
ENDBRANCH  27  28
ENDBRANCH  26  27
ENDBRANCH  25  26
ENDBRANCH  19  25
BRANCH  20  31
ATOM     31  O   UNL     1      23.711  22.025  12.607  1.00  0.00    -0.387 OA
ATOM     32  H   UNL     1      24.558  21.761  13.057  1.00  0.00     0.211 HD
ENDBRANCH  20  31
BRANCH  21  33
ATOM     33  O   UNL     1      23.045  19.803  14.867  1.00  0.00    -0.385 OA
ATOM     34  H   UNL     1      23.821  19.385  15.266  1.00  0.00     0.211 HD
ENDBRANCH  21  33
ENDBRANCH  15  16
ENDBRANCH  10  15
BRANCH  12  35
ATOM     35  O   UNL     1      20.028  22.338   7.805  1.00  0.00    -0.385 OA
ATOM     36  H   UNL     1      19.276  21.690   7.846  1.00  0.00     0.211 HD
ENDBRANCH  12  35
BRANCH  13  37
ATOM     37  O   UNL     1      19.996  25.018   9.848  1.00  0.00    -0.387 OA
ATOM     38  H   UNL     1      20.300  25.074  10.786  1.00  0.00     0.211 HD
ENDBRANCH  13  37
BRANCH  14  39
ATOM     39  O   UNL     1      22.182  24.294  11.055  1.00  0.00    -0.387 OA
ATOM     40  H   UNL     1      22.840  23.602  11.356  1.00  0.00     0.211 HD
ENDBRANCH  14  39
ENDBRANCH   8   9
ENDBRANCH   7   8
ENDBRANCH   1   7
BRANCH   1  41
ATOM     41  C   UNL     1      26.047  26.022  11.141  1.00  0.00     0.364 C 
ATOM     42  O   UNL     1      27.170  26.549  11.089  1.00  0.00    -0.246 OA
BRANCH  41  43
ATOM     43  O   UNL     1      24.962  26.900  11.061  1.00  0.00    -0.477 OA
ATOM     44  H   UNL     1      25.068  27.808  10.594  1.00  0.00     0.296 HD
ENDBRANCH  41  43
ENDBRANCH   1  41
BRANCH   3  45
ATOM     45  O   UNL     1      26.540  21.965  12.785  1.00  0.00    -0.391 OA
ATOM     46  H   UNL     1      26.766  21.515  13.655  1.00  0.00     0.211 HD
ENDBRANCH   3  45
BRANCH   5  47
ATOM     47  C   UNL     1      24.699  24.799  14.723  1.00  0.00     0.176 C 
BRANCH  47  48
ATOM     48  O   UNL     1      24.717  23.365  15.005  1.00  0.00    -0.388 OA
ATOM     49  H   UNL     1      23.753  23.087  14.953  1.00  0.00     0.211 HD
ENDBRANCH  47  48
BRANCH  47  50
ATOM     50  C   UNL     1      23.310  24.998  14.216  1.00  0.00     0.165 C 
BRANCH  50  51
ATOM     51  O   UNL     1      23.238  26.119  13.421  1.00  0.00    -0.388 OA
ATOM     52  H   UNL     1      22.369  26.315  13.035  1.00  0.00     0.211 HD
ENDBRANCH  50  51
BRANCH  50  53
ATOM     53  C   UNL     1      22.229  24.888  15.224  1.00  0.00     0.154 C 
BRANCH  53  54
ATOM     54  N   UNL     1      22.651  25.467  16.500  1.00  0.00    -0.319 N 
ATOM     55  C   UNL     1      22.441  26.820  16.786  1.00  0.00     0.407 C 
ATOM     56  H   UNL     1      23.106  24.844  17.183  1.00  0.00     0.167 HD
ATOM     57  O   UNL     1      21.875  27.543  15.914  1.00  0.00    -0.225 OA
BRANCH  55  58
ATOM     58  O   UNL     1      22.826  27.409  17.985  1.00  0.00    -0.443 OA
BRANCH  58  59
ATOM     59  C   UNL     1      21.868  28.050  18.819  1.00  0.00     0.294 C 
BRANCH  59  60
ATOM     60  C   UNL     1      21.583  27.189  20.008  1.00  0.00     0.120 A 
ATOM     61  C   UNL     1      22.234  26.030  20.375  1.00  0.00     0.138 A 
ATOM     62  N   UNL     1      20.646  27.379  20.931  1.00  0.00    -0.132 NA
ATOM     63  N   UNL     1      21.684  25.548  21.499  1.00  0.00    -0.249 N 
ATOM     64  N   UNL     1      20.701  26.413  21.812  1.00  0.00    -0.067 NA
BRANCH  63  65
ATOM     65  C   UNL     1      22.004  24.373  22.273  1.00  0.00     0.112 C 
ATOM     66  C   UNL     1      23.471  24.063  22.322  1.00  0.00     0.046 C 
ATOM     67  C   UNL     1      21.570  24.635  23.723  1.00  0.00     0.046 C 
ATOM     68  C   UNL     1      24.204  25.082  23.154  1.00  0.00     0.058 C 
ATOM     69  C   UNL     1      22.372  25.788  24.294  1.00  0.00     0.058 C 
ATOM     70  N   UNL     1      23.324  26.235  23.292  1.00  0.00    -0.300 NA
ATOM     71  C   UNL     1      24.401  24.622  24.575  1.00  0.00     0.021 C 
ATOM     72  C   UNL     1      23.307  25.276  25.372  1.00  0.00     0.021 C 
ATOM     73  C   UNL     1      24.114  27.341  23.741  1.00  0.00     0.105 C 
ENDBRANCH  63  65
ENDBRANCH  59  60
ENDBRANCH  58  59
ENDBRANCH  55  58
ENDBRANCH  53  54
ENDBRANCH  50  53
ENDBRANCH  47  50
ENDBRANCH   5  47
BRANCH   4  74
ATOM     74  N   UNL     1      28.196  24.816  14.174  1.00  0.00    -0.348 N 
ATOM     75  C   UNL     1      28.536  25.168  15.535  1.00  0.00     0.217 C 
ATOM     76  H   UNL     1      28.888  25.114  13.460  1.00  0.00     0.163 HD
ATOM     77  C   UNL     1      29.754  25.890  15.915  1.00  0.00     0.114 C 
ATOM     78  O   UNL     1      27.721  24.822  16.416  1.00  0.00    -0.275 OA
ENDBRANCH   4  74
TORSDOF 30
