REMARK VINA RESULT:    -6.588      4.576     11.630
REMARK INTER + INTRA:         -22.075
REMARK INTER:                 -15.535
REMARK INTRA:                  -6.539
REMARK UNBOUND:                -5.087
REMARK SMILES CC(=O)N[C@@H]1[C@@H](O)C[C@](OC[C@H]2O[C@@H](O[C@H]3[C@H](O)[C@@H](O)[C@H](OCCN=[N+]=[N-])O[C@@H]3CO)[C@H](O)[C@@H](O)[C@H]2O)(C(=O)O)O[C@H]1C(O)[C@H](O)CNC(=O)OCc1cn(CS(=O)(=O)c2ccccc2)nn1
REMARK SMILES IDX 9 1 8 2 6 3 5 4 42 5 41 6 10 7 11 8 12 9 14 10 13 11 32 12
REMARK SMILES IDX 34 13 36 14 15 15 16 16 29 17 28 18 21 19 17 20 19 21 30 22
REMARK SMILES IDX 31 23 22 25 23 26 24 27 25 28 26 29 27 30 18 31 20 33 33 35
REMARK SMILES IDX 35 37 37 39 38 41 39 42 40 43 7 45 43 47 44 48 45 50 46 51
REMARK SMILES IDX 47 53 48 54 49 55 50 57 51 58 52 59 53 60 54 61 67 62 55 63
REMARK SMILES IDX 66 64 56 65 57 66 58 67 59 68 60 69 61 70 65 71 62 72 64 73
REMARK SMILES IDX 63 74 4 75 2 76 1 78 3 79
REMARK H PARENT 31 24 18 32 20 34 33 36 35 38 37 40 40 44 7 46 44 49 46 52
REMARK H PARENT 48 56 4 77
REMARK Flexibility Score: inf
ROOT
ATOM      1  C   UNL     1      24.574  25.654  21.265  1.00  0.00     0.272 C 
ATOM      2  C   UNL     1      24.095  24.266  21.403  1.00  0.00     0.113 C 
ATOM      3  C   UNL     1      22.590  24.112  21.490  1.00  0.00     0.145 C 
ATOM      4  C   UNL     1      22.123  25.064  22.536  1.00  0.00     0.142 C 
ATOM      5  C   UNL     1      22.652  26.459  22.354  1.00  0.00     0.178 C 
ATOM      6  O   UNL     1      23.964  26.595  22.078  1.00  0.00    -0.332 OA
ENDROOT
BRANCH   1   7
ATOM      7  O   UNL     1      24.687  26.073  19.957  1.00  0.00    -0.338 OA
BRANCH   7   8
ATOM      8  C   UNL     1      25.284  25.228  19.080  1.00  0.00     0.199 C 
BRANCH   8   9
ATOM      9  C   UNL     1      25.223  25.795  17.645  1.00  0.00     0.179 C 
ATOM     10  C   UNL     1      23.921  24.560  16.103  1.00  0.00     0.282 C 
ATOM     11  O   UNL     1      25.073  24.760  16.809  1.00  0.00    -0.341 OA
ATOM     12  C   UNL     1      22.729  25.057  16.829  1.00  0.00     0.202 C 
ATOM     13  C   UNL     1      22.892  26.478  17.276  1.00  0.00     0.179 C 
ATOM     14  C   UNL     1      24.285  26.918  17.473  1.00  0.00     0.177 C 
BRANCH  10  15
ATOM     15  O   UNL     1      23.875  23.175  15.871  1.00  0.00    -0.341 OA
BRANCH  15  16
ATOM     16  C   UNL     1      24.070  22.769  14.594  1.00  0.00     0.184 C 
ATOM     17  C   UNL     1      25.494  22.388  14.316  1.00  0.00     0.178 C 
ATOM     18  O   UNL     1      25.492  21.599  13.169  1.00  0.00    -0.341 OA
ATOM     19  C   UNL     1      24.759  22.090  12.125  1.00  0.00     0.281 C 
ATOM     20  C   UNL     1      23.812  23.922  13.592  1.00  0.00     0.180 C 
ATOM     21  C   UNL     1      24.282  23.484  12.261  1.00  0.00     0.202 C 
BRANCH  17  22
ATOM     22  C   UNL     1      26.198  21.654  15.402  1.00  0.00     0.191 C 
BRANCH  22  23
ATOM     23  O   UNL     1      26.785  22.568  16.270  1.00  0.00    -0.394 OA
ATOM     24  H   UNL     1      26.370  22.500  17.161  1.00  0.00     0.210 HD
ENDBRANCH  22  23
ENDBRANCH  17  22
BRANCH  19  25
ATOM     25  O   UNL     1      23.661  21.248  11.976  1.00  0.00    -0.350 OA
BRANCH  25  26
ATOM     26  C   UNL     1      24.037  19.888  12.070  1.00  0.00     0.169 C 
BRANCH  26  27
ATOM     27  C   UNL     1      23.068  19.169  12.983  1.00  0.00     0.119 C 
BRANCH  27  28
ATOM     28  N   UNL     1      21.723  19.381  12.453  1.00  0.00    -0.092 NA
ATOM     29  N   UNL     1      21.398  18.741  11.433  1.00  0.00     0.001 N 
ATOM     30  N   UNL     1      21.231  18.285  10.287  1.00  0.00    -0.003 NA
ENDBRANCH  27  28
ENDBRANCH  26  27
ENDBRANCH  25  26
ENDBRANCH  19  25
BRANCH  20  31
ATOM     31  O   UNL     1      22.463  24.233  13.557  1.00  0.00    -0.387 OA
ATOM     32  H   UNL     1      22.328  24.932  12.867  1.00  0.00     0.211 HD
ENDBRANCH  20  31
BRANCH  21  33
ATOM     33  O   UNL     1      25.361  24.326  11.889  1.00  0.00    -0.385 OA
ATOM     34  H   UNL     1      25.460  24.399  10.917  1.00  0.00     0.211 HD
ENDBRANCH  21  33
ENDBRANCH  15  16
ENDBRANCH  10  15
BRANCH  12  35
ATOM     35  O   UNL     1      21.584  25.094  15.970  1.00  0.00    -0.385 OA
ATOM     36  H   UNL     1      21.570  26.012  15.610  1.00  0.00     0.211 HD
ENDBRANCH  12  35
BRANCH  13  37
ATOM     37  O   UNL     1      22.111  26.730  18.432  1.00  0.00    -0.387 OA
ATOM     38  H   UNL     1      22.547  26.302  19.223  1.00  0.00     0.211 HD
ENDBRANCH  13  37
BRANCH  14  39
ATOM     39  O   UNL     1      24.336  27.833  18.542  1.00  0.00    -0.387 OA
ATOM     40  H   UNL     1      25.213  28.293  18.500  1.00  0.00     0.211 HD
ENDBRANCH  14  39
ENDBRANCH   8   9
ENDBRANCH   7   8
ENDBRANCH   1   7
BRANCH   1  41
ATOM     41  C   UNL     1      25.987  25.641  21.828  1.00  0.00     0.364 C 
ATOM     42  O   UNL     1      26.601  26.719  21.882  1.00  0.00    -0.246 OA
BRANCH  41  43
ATOM     43  O   UNL     1      26.557  24.456  22.265  1.00  0.00    -0.477 OA
ATOM     44  H   UNL     1      27.540  24.242  22.041  1.00  0.00     0.296 HD
ENDBRANCH  41  43
ENDBRANCH   1  41
BRANCH   3  45
ATOM     45  O   UNL     1      22.049  24.300  20.248  1.00  0.00    -0.391 OA
ATOM     46  H   UNL     1      21.114  23.953  20.268  1.00  0.00     0.211 HD
ENDBRANCH   3  45
BRANCH   5  47
ATOM     47  C   UNL     1      21.752  27.318  21.498  1.00  0.00     0.176 C 
BRANCH  47  48
ATOM     48  O   UNL     1      20.504  26.749  21.252  1.00  0.00    -0.388 OA
ATOM     49  H   UNL     1      20.384  26.406  20.355  1.00  0.00     0.211 HD
ENDBRANCH  47  48
BRANCH  47  50
ATOM     50  C   UNL     1      21.563  28.719  22.062  1.00  0.00     0.165 C 
BRANCH  50  51
ATOM     51  O   UNL     1      20.349  28.885  22.689  1.00  0.00    -0.388 OA
ATOM     52  H   UNL     1      20.379  29.321  23.555  1.00  0.00     0.211 HD
ENDBRANCH  50  51
BRANCH  50  53
ATOM     53  C   UNL     1      21.853  29.811  21.104  1.00  0.00     0.154 C 
BRANCH  53  54
ATOM     54  N   UNL     1      21.950  29.466  19.719  1.00  0.00    -0.319 N 
ATOM     55  C   UNL     1      22.189  30.355  18.647  1.00  0.00     0.407 C 
ATOM     56  H   UNL     1      21.829  28.437  19.464  1.00  0.00     0.167 HD
ATOM     57  O   UNL     1      22.355  31.573  18.844  1.00  0.00    -0.225 OA
BRANCH  55  58
ATOM     58  O   UNL     1      22.238  29.845  17.360  1.00  0.00    -0.443 OA
BRANCH  58  59
ATOM     59  C   UNL     1      21.226  29.992  16.408  1.00  0.00     0.294 C 
BRANCH  59  60
ATOM     60  C   UNL     1      19.997  29.330  16.884  1.00  0.00     0.120 A 
ATOM     61  C   UNL     1      18.960  29.990  17.521  1.00  0.00     0.139 A 
ATOM     62  N   UNL     1      19.613  28.046  16.819  1.00  0.00    -0.132 NA
ATOM     63  N   UNL     1      17.991  29.104  17.819  1.00  0.00    -0.237 N 
ATOM     64  N   UNL     1      18.426  27.929  17.376  1.00  0.00    -0.066 NA
BRANCH  63  65
ATOM     65  C   UNL     1      16.743  29.377  18.474  1.00  0.00     0.287 C 
BRANCH  65  66
ATOM     66  S   UNL     1      16.706  28.364  19.952  1.00  0.00     0.198 S 
ATOM     67  O   UNL     1      18.014  28.398  20.646  1.00  0.00    -0.222 OA
ATOM     68  O   UNL     1      16.344  26.957  19.507  1.00  0.00    -0.222 OA
BRANCH  66  69
ATOM     69  C   UNL     1      15.440  28.988  20.977  1.00  0.00     0.069 A 
ATOM     70  C   UNL     1      14.129  29.064  20.558  1.00  0.00     0.020 A 
ATOM     71  C   UNL     1      15.713  29.430  22.253  1.00  0.00     0.020 A 
ATOM     72  C   UNL     1      13.133  29.555  21.361  1.00  0.00     0.001 A 
ATOM     73  C   UNL     1      14.729  29.925  23.069  1.00  0.00     0.001 A 
ATOM     74  C   UNL     1      13.434  29.986  22.618  1.00  0.00     0.000 A 
ENDBRANCH  66  69
ENDBRANCH  65  66
ENDBRANCH  63  65
ENDBRANCH  59  60
ENDBRANCH  58  59
ENDBRANCH  55  58
ENDBRANCH  53  54
ENDBRANCH  50  53
ENDBRANCH  47  50
ENDBRANCH   5  47
BRANCH   4  75
ATOM     75  N   UNL     1      22.595  24.594  23.833  1.00  0.00    -0.348 N 
ATOM     76  C   UNL     1      22.097  25.136  25.051  1.00  0.00     0.217 C 
ATOM     77  H   UNL     1      23.332  23.831  23.926  1.00  0.00     0.163 HD
ATOM     78  C   UNL     1      22.620  24.615  26.364  1.00  0.00     0.114 C 
ATOM     79  O   UNL     1      21.222  26.048  25.044  1.00  0.00    -0.275 OA
ENDBRANCH   4  75
TORSDOF 32
