REMARK VINA RESULT:    -4.077     13.819     19.032
REMARK INTER + INTRA:         -22.167
REMARK INTER:                 -13.495
REMARK INTRA:                  -8.672
REMARK UNBOUND:               -11.418
REMARK SMILES CC(=O)N[C@@H]1[C@@H](O)C[C@](OC[C@H]2O[C@@H](O[C@H]3[C@H](O)[C@@H](O)[C@H](OCCN=[N+]=[N-])O[C@@H]3CO)[C@H](O)[C@@H](O)[C@H]2O)(C(=O)O)O[C@H]1C(O)[C@H](O)CNC(=O)OCc1cn(CC(=O)NCc2cccs2)nn1
REMARK SMILES IDX 43 1 42 2 9 3 8 4 41 5 6 6 5 7 10 8 11 9 12 10 14 11 13 12
REMARK SMILES IDX 32 13 34 14 36 15 15 16 16 17 29 18 28 19 21 20 17 21 19 22
REMARK SMILES IDX 30 23 31 24 22 26 23 27 24 28 25 29 26 30 27 31 18 32 20 34
REMARK SMILES IDX 33 36 35 38 37 40 38 42 39 43 40 44 7 46 4 48 2 49 1 51 3 52
REMARK SMILES IDX 44 53 45 55 46 56 47 58 48 59 49 60 50 62 51 63 52 64 53 65
REMARK SMILES IDX 54 66 67 67 55 68 66 69 56 70 57 71 58 72 59 73 60 75 61 76
REMARK SMILES IDX 62 77 65 78 63 79 64 80
REMARK H PARENT 31 25 18 33 20 35 33 37 35 39 37 41 40 45 7 47 4 50 44 54
REMARK H PARENT 46 57 48 61 59 74
REMARK Flexibility Score: inf
ROOT
ATOM      1  C   UNL     1      20.710  30.664  23.409  1.00  0.00     0.176 C 
ENDROOT
BRANCH   1   2
ATOM      2  C   UNL     1      19.687  30.334  22.354  1.00  0.00     0.178 C 
ATOM      3  C   UNL     1      20.474  28.890  20.654  1.00  0.00     0.272 C 
ATOM      4  C   UNL     1      21.013  30.142  19.943  1.00  0.00     0.113 C 
ATOM      5  O   UNL     1      19.959  29.102  21.869  1.00  0.00    -0.332 OA
ATOM      6  C   UNL     1      19.988  31.200  20.012  1.00  0.00     0.145 C 
ATOM      7  C   UNL     1      19.391  31.406  21.379  1.00  0.00     0.142 C 
BRANCH   3   8
ATOM      8  O   UNL     1      21.559  28.047  20.709  1.00  0.00    -0.338 OA
BRANCH   8   9
ATOM      9  C   UNL     1      22.406  28.066  21.741  1.00  0.00     0.199 C 
BRANCH   9  10
ATOM     10  C   UNL     1      22.497  26.876  22.652  1.00  0.00     0.179 C 
ATOM     11  C   UNL     1      22.183  26.473  24.890  1.00  0.00     0.282 C 
ATOM     12  O   UNL     1      21.750  27.240  23.799  1.00  0.00    -0.341 OA
ATOM     13  C   UNL     1      22.341  25.034  24.527  1.00  0.00     0.202 C 
ATOM     14  C   UNL     1      21.728  24.630  23.228  1.00  0.00     0.179 C 
ATOM     15  C   UNL     1      21.790  25.643  22.131  1.00  0.00     0.177 C 
BRANCH  11  16
ATOM     16  O   UNL     1      21.380  26.613  25.987  1.00  0.00    -0.341 OA
BRANCH  16  17
ATOM     17  C   UNL     1      22.087  26.763  27.178  1.00  0.00     0.184 C 
ATOM     18  C   UNL     1      21.250  27.078  28.338  1.00  0.00     0.178 C 
ATOM     19  O   UNL     1      21.339  28.327  28.891  1.00  0.00    -0.341 OA
ATOM     20  C   UNL     1      22.026  29.281  28.214  1.00  0.00     0.281 C 
ATOM     21  C   UNL     1      23.246  27.677  26.898  1.00  0.00     0.180 C 
ATOM     22  C   UNL     1      23.440  28.725  27.964  1.00  0.00     0.202 C 
BRANCH  18  23
ATOM     23  C   UNL     1      21.567  26.111  29.498  1.00  0.00     0.191 C 
BRANCH  23  24
ATOM     24  O   UNL     1      22.299  25.019  29.084  1.00  0.00    -0.394 OA
ATOM     25  H   UNL     1      22.322  24.364  29.833  1.00  0.00     0.210 HD
ENDBRANCH  23  24
ENDBRANCH  18  23
BRANCH  20  26
ATOM     26  O   UNL     1      22.238  30.374  29.072  1.00  0.00    -0.350 OA
BRANCH  26  27
ATOM     27  C   UNL     1      21.149  30.606  29.887  1.00  0.00     0.169 C 
BRANCH  27  28
ATOM     28  C   UNL     1      21.682  30.803  31.309  1.00  0.00     0.119 C 
BRANCH  28  29
ATOM     29  N   UNL     1      21.786  29.508  31.964  1.00  0.00    -0.092 NA
ATOM     30  N   UNL     1      20.769  28.847  32.166  1.00  0.00     0.001 N 
ATOM     31  N   UNL     1      19.813  28.050  32.217  1.00  0.00    -0.003 NA
ENDBRANCH  28  29
ENDBRANCH  27  28
ENDBRANCH  26  27
ENDBRANCH  20  26
BRANCH  21  32
ATOM     32  O   UNL     1      24.437  26.990  26.647  1.00  0.00    -0.387 OA
ATOM     33  H   UNL     1      25.204  27.631  26.533  1.00  0.00     0.211 HD
ENDBRANCH  21  32
BRANCH  22  34
ATOM     34  O   UNL     1      24.273  29.706  27.464  1.00  0.00    -0.385 OA
ATOM     35  H   UNL     1      24.060  29.898  26.515  1.00  0.00     0.211 HD
ENDBRANCH  22  34
ENDBRANCH  16  17
ENDBRANCH  11  16
BRANCH  13  36
ATOM     36  O   UNL     1      23.696  24.634  24.565  1.00  0.00    -0.385 OA
ATOM     37  H   UNL     1      24.109  24.743  25.436  1.00  0.00     0.211 HD
ENDBRANCH  13  36
BRANCH  14  38
ATOM     38  O   UNL     1      20.409  24.157  23.427  1.00  0.00    -0.387 OA
ATOM     39  H   UNL     1      19.956  24.063  22.553  1.00  0.00     0.211 HD
ENDBRANCH  14  38
BRANCH  15  40
ATOM     40  O   UNL     1      20.449  25.986  21.831  1.00  0.00    -0.387 OA
ATOM     41  H   UNL     1      20.352  26.938  21.600  1.00  0.00     0.211 HD
ENDBRANCH  15  40
ENDBRANCH   9  10
ENDBRANCH   8   9
ENDBRANCH   3   8
BRANCH   3  42
ATOM     42  C   UNL     1      19.423  28.368  19.726  1.00  0.00     0.364 C 
ATOM     43  O   UNL     1      19.635  27.994  18.551  1.00  0.00    -0.246 OA
BRANCH  42  44
ATOM     44  O   UNL     1      18.111  28.278  20.175  1.00  0.00    -0.477 OA
ATOM     45  H   UNL     1      17.898  27.812  21.048  1.00  0.00     0.296 HD
ENDBRANCH  42  44
ENDBRANCH   3  42
BRANCH   6  46
ATOM     46  O   UNL     1      20.536  32.416  19.508  1.00  0.00    -0.391 OA
ATOM     47  H   UNL     1      20.499  32.444  18.528  1.00  0.00     0.211 HD
ENDBRANCH   6  46
BRANCH   7  48
ATOM     48  N   UNL     1      17.970  31.676  21.285  1.00  0.00    -0.348 N 
ATOM     49  C   UNL     1      17.390  32.701  22.062  1.00  0.00     0.217 C 
ATOM     50  H   UNL     1      17.337  31.123  20.650  1.00  0.00     0.163 HD
ATOM     51  C   UNL     1      15.925  32.964  21.953  1.00  0.00     0.114 C 
ATOM     52  O   UNL     1      18.034  33.423  22.859  1.00  0.00    -0.275 OA
ENDBRANCH   7  48
ENDBRANCH   1   2
BRANCH   1  53
ATOM     53  O   UNL     1      21.141  31.959  23.433  1.00  0.00    -0.388 OA
ATOM     54  H   UNL     1      20.448  32.652  23.469  1.00  0.00     0.211 HD
ENDBRANCH   1  53
BRANCH   1  55
ATOM     55  C   UNL     1      20.415  30.105  24.784  1.00  0.00     0.165 C 
BRANCH  55  56
ATOM     56  O   UNL     1      19.712  28.939  24.759  1.00  0.00    -0.388 OA
ATOM     57  H   UNL     1      19.202  28.739  25.574  1.00  0.00     0.211 HD
ENDBRANCH  55  56
BRANCH  55  58
ATOM     58  C   UNL     1      19.714  31.152  25.632  1.00  0.00     0.154 C 
BRANCH  58  59
ATOM     59  N   UNL     1      18.361  31.390  25.224  1.00  0.00    -0.319 N 
ATOM     60  C   UNL     1      17.210  31.396  26.049  1.00  0.00     0.407 C 
ATOM     61  H   UNL     1      18.130  31.592  24.186  1.00  0.00     0.167 HD
ATOM     62  O   UNL     1      17.273  31.195  27.262  1.00  0.00    -0.225 OA
BRANCH  60  63
ATOM     63  O   UNL     1      15.928  31.635  25.515  1.00  0.00    -0.443 OA
BRANCH  63  64
ATOM     64  C   UNL     1      15.002  30.651  25.189  1.00  0.00     0.294 C 
BRANCH  64  65
ATOM     65  C   UNL     1      15.200  30.029  23.872  1.00  0.00     0.120 A 
ATOM     66  C   UNL     1      14.235  29.763  22.926  1.00  0.00     0.138 A 
ATOM     67  N   UNL     1      16.374  29.604  23.336  1.00  0.00    -0.132 NA
ATOM     68  N   UNL     1      14.823  29.197  21.864  1.00  0.00    -0.243 N 
ATOM     69  N   UNL     1      16.103  29.118  22.144  1.00  0.00    -0.067 NA
BRANCH  68  70
ATOM     70  C   UNL     1      14.262  28.735  20.614  1.00  0.00     0.245 C 
BRANCH  70  71
ATOM     71  C   UNL     1      14.591  29.717  19.563  1.00  0.00     0.242 C 
ATOM     72  O   UNL     1      13.694  30.401  19.040  1.00  0.00    -0.273 OA
ATOM     73  N   UNL     1      15.931  29.892  19.139  1.00  0.00    -0.350 N 
ATOM     74  H   UNL     1      16.724  29.330  19.558  1.00  0.00     0.163 HD
BRANCH  73  75
ATOM     75  C   UNL     1      16.292  30.834  18.125  1.00  0.00     0.162 C 
BRANCH  75  76
ATOM     76  C   UNL     1      16.467  30.129  16.848  1.00  0.00     0.024 A 
ATOM     77  C   UNL     1      17.566  29.598  16.255  1.00  0.00     0.017 A 
ATOM     78  S   UNL     1      15.178  29.777  15.706  1.00  0.00    -0.147 S 
ATOM     79  C   UNL     1      17.444  28.991  15.065  1.00  0.00     0.012 A 
ATOM     80  C   UNL     1      16.242  28.911  14.467  1.00  0.00     0.065 A 
ENDBRANCH  75  76
ENDBRANCH  73  75
ENDBRANCH  70  71
ENDBRANCH  68  70
ENDBRANCH  64  65
ENDBRANCH  63  64
ENDBRANCH  60  63
ENDBRANCH  58  59
ENDBRANCH  55  58
ENDBRANCH   1  55
TORSDOF 33
