REMARK VINA RESULT:    -6.166      3.401      6.455
REMARK INTER + INTRA:         -23.480
REMARK INTER:                 -14.563
REMARK INTRA:                  -8.916
REMARK UNBOUND:                -7.402
REMARK SMILES CC(=O)N[C@@H]1[C@@H](O)C[C@](OC[C@H]2O[C@@H](O[C@H]3[C@H](O)[C@@H](O)[C@H](OCCN=[N+]=[N-])O[C@@H]3CO)[C@H](O)[C@@H](O)[C@H]2O)(C(=O)O)O[C@H]1C(O)[C@H](O)CNC(=O)OCc1cn(-c2ccc(S(=O)(=O)c3ccc(N)cc3)cc2)nn1
REMARK SMILES IDX 43 1 42 2 9 3 8 4 41 5 6 6 5 7 10 8 11 9 12 10 14 11 13 12
REMARK SMILES IDX 32 13 34 14 36 15 15 16 16 17 29 18 28 19 21 20 17 21 19 22
REMARK SMILES IDX 30 23 31 24 22 26 23 27 24 28 25 29 26 30 27 31 18 32 20 34
REMARK SMILES IDX 33 36 35 38 37 40 38 42 39 43 40 44 7 46 4 48 2 49 1 51 3 52
REMARK SMILES IDX 44 53 45 55 46 56 47 58 48 59 49 60 50 62 51 63 52 64 53 65
REMARK SMILES IDX 54 66 73 67 55 68 72 69 56 70 57 71 71 72 58 73 70 74 59 75
REMARK SMILES IDX 60 76 61 77 62 78 63 79 64 80 69 81 65 82 68 83 66 84 67 85
REMARK H PARENT 31 25 18 33 20 35 33 37 35 39 37 41 40 45 7 47 4 50 44 54
REMARK H PARENT 46 57 48 61 67 86 67 87
REMARK Flexibility Score: inf
ROOT
ATOM      1  C   UNL     1      13.813  33.481  23.724  1.00  0.00     0.176 C 
ENDROOT
BRANCH   1   2
ATOM      2  C   UNL     1      13.589  32.008  23.386  1.00  0.00     0.178 C 
ATOM      3  C   UNL     1      14.610  30.109  22.548  1.00  0.00     0.272 C 
ATOM      4  C   UNL     1      13.411  29.817  21.704  1.00  0.00     0.113 C 
ATOM      5  O   UNL     1      14.709  31.487  22.812  1.00  0.00    -0.332 OA
ATOM      6  C   UNL     1      12.804  31.137  21.256  1.00  0.00     0.145 C 
ATOM      7  C   UNL     1      12.364  31.890  22.465  1.00  0.00     0.142 C 
BRANCH   3   8
ATOM      8  O   UNL     1      15.836  29.787  21.961  1.00  0.00    -0.338 OA
BRANCH   8   9
ATOM      9  C   UNL     1      15.788  29.263  20.705  1.00  0.00     0.199 C 
BRANCH   9  10
ATOM     10  C   UNL     1      17.116  29.484  20.016  1.00  0.00     0.179 C 
ATOM     11  C   UNL     1      19.379  29.457  20.322  1.00  0.00     0.282 C 
ATOM     12  O   UNL     1      18.131  29.106  20.902  1.00  0.00    -0.341 OA
ATOM     13  C   UNL     1      19.588  28.471  19.207  1.00  0.00     0.202 C 
ATOM     14  C   UNL     1      18.560  28.729  18.129  1.00  0.00     0.179 C 
ATOM     15  C   UNL     1      17.172  28.707  18.746  1.00  0.00     0.177 C 
BRANCH  11  16
ATOM     16  O   UNL     1      20.322  29.434  21.316  1.00  0.00    -0.341 OA
BRANCH  16  17
ATOM     17  C   UNL     1      19.857  30.115  22.466  1.00  0.00     0.184 C 
ATOM     18  C   UNL     1      20.312  31.536  22.371  1.00  0.00     0.178 C 
ATOM     19  O   UNL     1      20.997  32.010  23.459  1.00  0.00    -0.341 OA
ATOM     20  C   UNL     1      22.035  31.259  23.928  1.00  0.00     0.281 C 
ATOM     21  C   UNL     1      20.517  29.387  23.629  1.00  0.00     0.180 C 
ATOM     22  C   UNL     1      21.977  29.790  23.574  1.00  0.00     0.202 C 
BRANCH  18  23
ATOM     23  C   UNL     1      19.026  32.381  22.290  1.00  0.00     0.191 C 
BRANCH  23  24
ATOM     24  O   UNL     1      17.912  31.694  22.705  1.00  0.00    -0.394 OA
ATOM     25  H   UNL     1      18.085  30.768  23.006  1.00  0.00     0.210 HD
ENDBRANCH  23  24
ENDBRANCH  18  23
BRANCH  20  26
ATOM     26  O   UNL     1      22.016  31.335  25.316  1.00  0.00    -0.350 OA
BRANCH  26  27
ATOM     27  C   UNL     1      22.249  32.577  25.839  1.00  0.00     0.169 C 
BRANCH  27  28
ATOM     28  C   UNL     1      21.442  32.803  27.073  1.00  0.00     0.119 C 
BRANCH  28  29
ATOM     29  N   UNL     1      20.210  33.534  26.729  1.00  0.00    -0.092 NA
ATOM     30  N   UNL     1      19.356  33.030  26.002  1.00  0.00     0.001 N 
ATOM     31  N   UNL     1      18.332  32.409  25.667  1.00  0.00    -0.003 NA
ENDBRANCH  28  29
ENDBRANCH  27  28
ENDBRANCH  26  27
ENDBRANCH  20  26
BRANCH  21  32
ATOM     32  O   UNL     1      19.979  29.809  24.823  1.00  0.00    -0.387 OA
ATOM     33  H   UNL     1      19.013  30.022  24.716  1.00  0.00     0.211 HD
ENDBRANCH  21  32
BRANCH  22  34
ATOM     34  O   UNL     1      22.567  29.491  22.368  1.00  0.00    -0.385 OA
ATOM     35  H   UNL     1      21.983  29.694  21.590  1.00  0.00     0.211 HD
ENDBRANCH  22  34
ENDBRANCH  16  17
ENDBRANCH  11  16
BRANCH  13  36
ATOM     36  O   UNL     1      20.885  28.504  18.699  1.00  0.00    -0.385 OA
ATOM     37  H   UNL     1      20.829  28.137  17.760  1.00  0.00     0.211 HD
ENDBRANCH  13  36
BRANCH  14  38
ATOM     38  O   UNL     1      18.588  27.654  17.228  1.00  0.00    -0.387 OA
ATOM     39  H   UNL     1      19.105  27.889  16.437  1.00  0.00     0.211 HD
ENDBRANCH  14  38
BRANCH  15  40
ATOM     40  O   UNL     1      16.724  27.404  18.911  1.00  0.00    -0.387 OA
ATOM     41  H   UNL     1      16.012  27.372  19.592  1.00  0.00     0.211 HD
ENDBRANCH  15  40
ENDBRANCH   9  10
ENDBRANCH   8   9
ENDBRANCH   3   8
BRANCH   3  42
ATOM     42  C   UNL     1      14.590  29.418  23.866  1.00  0.00     0.364 C 
ATOM     43  O   UNL     1      15.598  29.144  24.557  1.00  0.00    -0.246 OA
BRANCH  42  44
ATOM     44  O   UNL     1      13.372  29.031  24.399  1.00  0.00    -0.477 OA
ATOM     45  H   UNL     1      12.487  29.172  23.886  1.00  0.00     0.296 HD
ENDBRANCH  42  44
ENDBRANCH   3  42
BRANCH   6  46
ATOM     46  O   UNL     1      13.847  31.857  20.664  1.00  0.00    -0.391 OA
ATOM     47  H   UNL     1      14.282  31.342  19.931  1.00  0.00     0.211 HD
ENDBRANCH   6  46
BRANCH   7  48
ATOM     48  N   UNL     1      11.267  31.323  23.182  1.00  0.00    -0.348 N 
ATOM     49  C   UNL     1      10.027  31.985  23.410  1.00  0.00     0.217 C 
ATOM     50  H   UNL     1      11.361  30.353  23.569  1.00  0.00     0.163 HD
ATOM     51  C   UNL     1       8.960  31.288  24.170  1.00  0.00     0.114 C 
ATOM     52  O   UNL     1       9.888  33.130  22.958  1.00  0.00    -0.275 OA
ENDBRANCH   7  48
ENDBRANCH   1   2
BRANCH   1  53
ATOM     53  O   UNL     1      12.610  34.128  23.954  1.00  0.00    -0.388 OA
ATOM     54  H   UNL     1      11.966  33.509  24.410  1.00  0.00     0.211 HD
ENDBRANCH   1  53
BRANCH   1  55
ATOM     55  C   UNL     1      14.825  33.677  24.787  1.00  0.00     0.165 C 
BRANCH  55  56
ATOM     56  O   UNL     1      16.120  33.588  24.272  1.00  0.00    -0.388 OA
ATOM     57  H   UNL     1      16.377  34.338  23.712  1.00  0.00     0.211 HD
ENDBRANCH  55  56
BRANCH  55  58
ATOM     58  C   UNL     1      14.728  32.597  25.844  1.00  0.00     0.154 C 
BRANCH  58  59
ATOM     59  N   UNL     1      15.328  32.962  27.096  1.00  0.00    -0.319 N 
ATOM     60  C   UNL     1      15.854  31.938  27.923  1.00  0.00     0.407 C 
ATOM     61  H   UNL     1      15.385  33.944  27.405  1.00  0.00     0.167 HD
ATOM     62  O   UNL     1      15.785  30.740  27.521  1.00  0.00    -0.225 OA
BRANCH  60  63
ATOM     63  O   UNL     1      16.441  32.149  29.150  1.00  0.00    -0.443 OA
BRANCH  63  64
ATOM     64  C   UNL     1      17.762  32.611  29.332  1.00  0.00     0.294 C 
BRANCH  64  65
ATOM     65  C   UNL     1      18.646  31.441  29.557  1.00  0.00     0.121 A 
ATOM     66  C   UNL     1      19.241  30.584  28.654  1.00  0.00     0.144 A 
ATOM     67  N   UNL     1      19.065  30.992  30.783  1.00  0.00    -0.131 NA
ATOM     68  N   UNL     1      19.988  29.664  29.339  1.00  0.00    -0.220 N 
ATOM     69  N   UNL     1      19.849  29.951  30.609  1.00  0.00    -0.062 NA
BRANCH  68  70
ATOM     70  C   UNL     1      20.774  28.616  28.812  1.00  0.00     0.066 A 
ATOM     71  C   UNL     1      20.850  27.386  29.472  1.00  0.00     0.030 A 
ATOM     72  C   UNL     1      21.498  28.729  27.653  1.00  0.00     0.030 A 
ATOM     73  C   UNL     1      21.599  26.336  29.002  1.00  0.00     0.023 A 
ATOM     74  C   UNL     1      22.263  27.666  27.170  1.00  0.00     0.023 A 
ATOM     75  C   UNL     1      22.322  26.462  27.837  1.00  0.00     0.072 A 
BRANCH  75  76
ATOM     76  S   UNL     1      23.278  25.129  27.226  1.00  0.00     0.206 S 
ATOM     77  O   UNL     1      22.799  23.852  27.896  1.00  0.00    -0.219 OA
ATOM     78  O   UNL     1      24.745  25.328  27.409  1.00  0.00    -0.219 OA
BRANCH  76  79
ATOM     79  C   UNL     1      22.921  24.918  25.511  1.00  0.00     0.072 A 
ATOM     80  C   UNL     1      21.627  24.802  25.083  1.00  0.00     0.023 A 
ATOM     81  C   UNL     1      23.936  24.866  24.583  1.00  0.00     0.023 A 
ATOM     82  C   UNL     1      21.362  24.637  23.754  1.00  0.00     0.027 A 
ATOM     83  C   UNL     1      23.655  24.699  23.252  1.00  0.00     0.027 A 
ATOM     84  C   UNL     1      22.373  24.580  22.796  1.00  0.00     0.031 A 
BRANCH  84  85
ATOM     85  N   UNL     1      22.055  24.406  21.432  1.00  0.00    -0.399 N 
ATOM     86  H   UNL     1      21.370  23.700  21.128  1.00  0.00     0.156 HD
ATOM     87  H   UNL     1      22.517  24.998  20.719  1.00  0.00     0.156 HD
ENDBRANCH  84  85
ENDBRANCH  76  79
ENDBRANCH  75  76
ENDBRANCH  68  70
ENDBRANCH  64  65
ENDBRANCH  63  64
ENDBRANCH  60  63
ENDBRANCH  58  59
ENDBRANCH  55  58
ENDBRANCH   1  55
TORSDOF 33
