REMARK VINA RESULT:    -6.571      2.916      9.270
REMARK INTER + INTRA:         -21.772
REMARK INTER:                 -14.704
REMARK INTRA:                  -7.068
REMARK UNBOUND:                -4.828
REMARK SMILES CC(=O)N[C@@H]1[C@@H](O)C[C@](OC[C@H]2O[C@@H](O[C@H]3[C@H](O)[C@@H](O)[C@H](OCCN=[N+]=[N-])O[C@@H]3CO)[C@H](O)[C@@H](O)[C@H]2O)(C(=O)O)O[C@H]1C(O)[C@H](O)CNC(=O)OCc1cn(CCN2CCCC2)nn1
REMARK SMILES IDX 9 1 8 2 6 3 5 4 42 5 41 6 10 7 11 8 12 9 14 10 13 11 32 12
REMARK SMILES IDX 34 13 36 14 15 15 16 16 29 17 28 18 21 19 17 20 19 21 30 22
REMARK SMILES IDX 31 23 22 25 23 26 24 27 25 28 26 29 27 30 18 31 20 33 33 35
REMARK SMILES IDX 35 37 37 39 38 41 39 42 40 43 7 45 43 47 44 48 45 50 46 51
REMARK SMILES IDX 47 53 48 54 49 55 50 57 51 58 52 59 53 60 54 61 64 62 55 63
REMARK SMILES IDX 63 64 56 65 57 66 58 67 59 68 62 69 60 70 61 71 4 72 2 73
REMARK SMILES IDX 1 75 3 76
REMARK H PARENT 31 24 18 32 20 34 33 36 35 38 37 40 40 44 7 46 44 49 46 52
REMARK H PARENT 48 56 4 74
REMARK Flexibility Score: inf
ROOT
ATOM      1  C   UNL     1      18.139  30.418  23.300  1.00  0.00     0.272 C 
ATOM      2  C   UNL     1      18.164  31.902  23.104  1.00  0.00     0.113 C 
ATOM      3  C   UNL     1      18.157  32.252  21.610  1.00  0.00     0.145 C 
ATOM      4  C   UNL     1      19.502  31.703  21.055  1.00  0.00     0.142 C 
ATOM      5  C   UNL     1      19.551  30.262  21.410  1.00  0.00     0.178 C 
ATOM      6  O   UNL     1      18.375  29.848  22.042  1.00  0.00    -0.332 OA
ENDROOT
BRANCH   1   7
ATOM      7  O   UNL     1      16.859  29.955  23.614  1.00  0.00    -0.338 OA
BRANCH   7   8
ATOM      8  C   UNL     1      16.003  30.814  24.200  1.00  0.00     0.199 C 
BRANCH   8   9
ATOM      9  C   UNL     1      14.686  30.957  23.441  1.00  0.00     0.179 C 
ATOM     10  C   UNL     1      13.784  31.200  21.346  1.00  0.00     0.282 C 
ATOM     11  O   UNL     1      14.794  30.656  22.094  1.00  0.00    -0.341 OA
ATOM     12  C   UNL     1      12.487  31.119  22.076  1.00  0.00     0.202 C 
ATOM     13  C   UNL     1      12.533  29.947  23.041  1.00  0.00     0.179 C 
ATOM     14  C   UNL     1      13.589  30.152  24.108  1.00  0.00     0.177 C 
BRANCH  10  15
ATOM     15  O   UNL     1      13.741  30.807  20.042  1.00  0.00    -0.341 OA
BRANCH  15  16
ATOM     16  C   UNL     1      14.796  30.308  19.406  1.00  0.00     0.184 C 
ATOM     17  C   UNL     1      15.120  30.868  18.036  1.00  0.00     0.178 C 
ATOM     18  O   UNL     1      16.482  30.636  17.816  1.00  0.00    -0.341 OA
ATOM     19  C   UNL     1      16.581  29.252  17.491  1.00  0.00     0.281 C 
ATOM     20  C   UNL     1      14.824  28.800  19.230  1.00  0.00     0.180 C 
ATOM     21  C   UNL     1      16.231  28.495  18.756  1.00  0.00     0.202 C 
BRANCH  17  22
ATOM     22  C   UNL     1      14.781  32.309  17.858  1.00  0.00     0.191 C 
BRANCH  22  23
ATOM     23  O   UNL     1      15.428  33.031  18.857  1.00  0.00    -0.394 OA
ATOM     24  H   UNL     1      14.775  33.614  19.334  1.00  0.00     0.210 HD
ENDBRANCH  22  23
ENDBRANCH  17  22
BRANCH  19  25
ATOM     25  O   UNL     1      17.895  29.034  17.224  1.00  0.00    -0.350 OA
BRANCH  25  26
ATOM     26  C   UNL     1      18.304  28.823  15.953  1.00  0.00     0.169 C 
BRANCH  26  27
ATOM     27  C   UNL     1      17.819  29.753  14.897  1.00  0.00     0.119 C 
BRANCH  27  28
ATOM     28  N   UNL     1      17.109  29.116  13.815  1.00  0.00    -0.092 NA
ATOM     29  N   UNL     1      15.996  28.651  14.018  1.00  0.00     0.001 N 
ATOM     30  N   UNL     1      14.853  28.302  14.331  1.00  0.00    -0.003 NA
ENDBRANCH  27  28
ENDBRANCH  26  27
ENDBRANCH  25  26
ENDBRANCH  19  25
BRANCH  20  31
ATOM     31  O   UNL     1      14.668  28.146  20.444  1.00  0.00    -0.387 OA
ATOM     32  H   UNL     1      14.029  28.567  21.051  1.00  0.00     0.211 HD
ENDBRANCH  20  31
BRANCH  21  33
ATOM     33  O   UNL     1      16.494  27.149  18.665  1.00  0.00    -0.385 OA
ATOM     34  H   UNL     1      15.938  26.636  18.055  1.00  0.00     0.211 HD
ENDBRANCH  21  33
ENDBRANCH  15  16
ENDBRANCH  10  15
BRANCH  12  35
ATOM     35  O   UNL     1      12.206  32.259  22.838  1.00  0.00    -0.385 OA
ATOM     36  H   UNL     1      12.996  32.502  23.403  1.00  0.00     0.211 HD
ENDBRANCH  12  35
BRANCH  13  37
ATOM     37  O   UNL     1      12.874  28.780  22.351  1.00  0.00    -0.387 OA
ATOM     38  H   UNL     1      13.290  29.017  21.463  1.00  0.00     0.211 HD
ENDBRANCH  13  37
BRANCH  14  39
ATOM     39  O   UNL     1      14.031  28.883  24.479  1.00  0.00    -0.387 OA
ATOM     40  H   UNL     1      14.917  29.035  24.920  1.00  0.00     0.211 HD
ENDBRANCH  14  39
ENDBRANCH   8   9
ENDBRANCH   7   8
ENDBRANCH   1   7
BRANCH   1  41
ATOM     41  C   UNL     1      19.140  29.918  24.277  1.00  0.00     0.364 C 
ATOM     42  O   UNL     1      19.416  30.658  25.270  1.00  0.00    -0.246 OA
BRANCH  41  43
ATOM     43  O   UNL     1      19.805  28.722  24.209  1.00  0.00    -0.477 OA
ATOM     44  H   UNL     1      19.447  27.809  24.371  1.00  0.00     0.296 HD
ENDBRANCH  41  43
ENDBRANCH   1  41
BRANCH   3  45
ATOM     45  O   UNL     1      17.160  31.587  20.941  1.00  0.00    -0.391 OA
ATOM     46  H   UNL     1      16.880  30.747  21.394  1.00  0.00     0.211 HD
ENDBRANCH   3  45
BRANCH   5  47
ATOM     47  C   UNL     1      19.607  29.406  20.167  1.00  0.00     0.176 C 
BRANCH  47  48
ATOM     48  O   UNL     1      19.707  30.114  18.984  1.00  0.00    -0.388 OA
ATOM     49  H   UNL     1      19.508  31.073  19.046  1.00  0.00     0.211 HD
ENDBRANCH  47  48
BRANCH  47  50
ATOM     50  C   UNL     1      20.480  28.212  20.161  1.00  0.00     0.165 C 
BRANCH  50  51
ATOM     51  O   UNL     1      20.495  27.449  21.305  1.00  0.00    -0.388 OA
ATOM     52  H   UNL     1      19.615  27.199  21.666  1.00  0.00     0.211 HD
ENDBRANCH  50  51
BRANCH  50  53
ATOM     53  C   UNL     1      21.749  28.306  19.380  1.00  0.00     0.154 C 
BRANCH  53  54
ATOM     54  N   UNL     1      22.385  27.060  19.163  1.00  0.00    -0.319 N 
ATOM     55  C   UNL     1      23.761  26.821  19.506  1.00  0.00     0.407 C 
ATOM     56  H   UNL     1      21.854  26.260  18.741  1.00  0.00     0.167 HD
ATOM     57  O   UNL     1      24.495  27.687  20.018  1.00  0.00    -0.225 OA
BRANCH  55  58
ATOM     58  O   UNL     1      24.335  25.570  19.274  1.00  0.00    -0.443 OA
BRANCH  58  59
ATOM     59  C   UNL     1      24.557  24.671  20.364  1.00  0.00     0.294 C 
BRANCH  59  60
ATOM     60  C   UNL     1      23.389  24.643  21.267  1.00  0.00     0.120 A 
ATOM     61  C   UNL     1      23.269  24.657  22.627  1.00  0.00     0.138 A 
ATOM     62  N   UNL     1      22.103  24.594  20.813  1.00  0.00    -0.132 NA
ATOM     63  N   UNL     1      21.979  24.621  22.963  1.00  0.00    -0.251 N 
ATOM     64  N   UNL     1      21.275  24.581  21.813  1.00  0.00    -0.067 NA
BRANCH  63  65
ATOM     65  C   UNL     1      21.358  24.618  24.249  1.00  0.00     0.161 C 
BRANCH  65  66
ATOM     66  C   UNL     1      21.533  25.871  25.024  1.00  0.00     0.108 C 
BRANCH  66  67
ATOM     67  N   UNL     1      22.352  25.877  26.162  1.00  0.00    -0.301 NA
ATOM     68  C   UNL     1      22.105  26.765  27.226  1.00  0.00     0.084 C 
ATOM     69  C   UNL     1      22.763  24.595  26.649  1.00  0.00     0.084 C 
ATOM     70  C   UNL     1      22.156  25.967  28.521  1.00  0.00     0.017 C 
ATOM     71  C   UNL     1      22.815  24.673  28.143  1.00  0.00     0.017 C 
ENDBRANCH  66  67
ENDBRANCH  65  66
ENDBRANCH  63  65
ENDBRANCH  59  60
ENDBRANCH  58  59
ENDBRANCH  55  58
ENDBRANCH  53  54
ENDBRANCH  50  53
ENDBRANCH  47  50
ENDBRANCH   5  47
BRANCH   4  72
ATOM     72  N   UNL     1      20.541  32.517  21.656  1.00  0.00    -0.348 N 
ATOM     73  C   UNL     1      21.187  33.597  20.989  1.00  0.00     0.217 C 
ATOM     74  H   UNL     1      20.858  32.334  22.625  1.00  0.00     0.163 HD
ATOM     75  C   UNL     1      22.260  34.370  21.706  1.00  0.00     0.114 C 
ATOM     76  O   UNL     1      20.856  33.881  19.836  1.00  0.00    -0.275 OA
ENDBRANCH   4  72
TORSDOF 32
