REMARK VINA RESULT:    -5.659      2.819      9.371
REMARK INTER + INTRA:         -22.263
REMARK INTER:                 -15.696
REMARK INTRA:                  -6.567
REMARK UNBOUND:                -7.010
REMARK SMILES CC(=O)N[C@@H]1[C@@H](O)C[C@](OC[C@H]2O[C@@H](O[C@H]3[C@H](O)[C@@H](O)[C@H](OCCN=[N+]=[N-])O[C@@H]3CO)[C@H](O)[C@@H](O)[C@H]2O)(C(=O)O)O[C@H]1C(O)[C@H](O)CNC(=O)OCc1cn([C@@H](CC(=O)O)C(=O)O)nn1
REMARK SMILES IDX 43 1 42 2 9 3 8 4 41 5 6 6 5 7 10 8 11 9 12 10 14 11 13 12
REMARK SMILES IDX 32 13 34 14 36 15 15 16 16 17 29 18 28 19 21 20 17 21 19 22
REMARK SMILES IDX 30 23 31 24 22 26 23 27 24 28 25 29 26 30 27 31 18 32 20 34
REMARK SMILES IDX 33 36 35 38 37 40 38 42 39 43 40 44 7 46 4 48 2 49 1 51 3 52
REMARK SMILES IDX 44 53 45 55 46 56 47 58 48 59 49 60 50 62 51 63 52 64 53 65
REMARK SMILES IDX 54 66 65 67 55 68 64 69 56 70 57 71 58 72 59 73 60 74 61 76
REMARK SMILES IDX 62 77 63 78
REMARK H PARENT 31 25 18 33 20 35 33 37 35 39 37 41 40 45 7 47 4 50 44 54
REMARK H PARENT 46 57 48 61 60 75 63 79
REMARK Flexibility Score: inf
ROOT
ATOM      1  C   UNL     1      21.649  25.726  21.956  1.00  0.00     0.176 C 
ENDROOT
BRANCH   1   2
ATOM      2  C   UNL     1      21.736  27.234  21.803  1.00  0.00     0.178 C 
ATOM      3  C   UNL     1      20.355  29.117  21.529  1.00  0.00     0.272 C 
ATOM      4  C   UNL     1      21.738  29.621  21.094  1.00  0.00     0.113 C 
ATOM      5  O   UNL     1      20.476  27.712  21.611  1.00  0.00    -0.332 OA
ATOM      6  C   UNL     1      22.156  28.712  19.948  1.00  0.00     0.145 C 
ATOM      7  C   UNL     1      22.717  27.475  20.669  1.00  0.00     0.142 C 
BRANCH   3   8
ATOM      8  O   UNL     1      19.462  29.469  20.725  1.00  0.00    -0.338 OA
BRANCH   8   9
ATOM      9  C   UNL     1      18.582  29.822  19.920  1.00  0.00     0.199 C 
BRANCH   9  10
ATOM     10  C   UNL     1      17.561  28.773  19.477  1.00  0.00     0.179 C 
ATOM     11  C   UNL     1      16.098  28.714  21.252  1.00  0.00     0.282 C 
ATOM     12  O   UNL     1      16.997  28.048  20.470  1.00  0.00    -0.341 OA
ATOM     13  C   UNL     1      15.004  29.334  20.473  1.00  0.00     0.202 C 
ATOM     14  C   UNL     1      15.158  28.815  19.034  1.00  0.00     0.179 C 
ATOM     15  C   UNL     1      16.499  29.352  18.572  1.00  0.00     0.177 C 
BRANCH  11  16
ATOM     16  O   UNL     1      16.633  29.472  22.282  1.00  0.00    -0.341 OA
BRANCH  16  17
ATOM     17  C   UNL     1      15.726  30.321  22.873  1.00  0.00     0.184 C 
ATOM     18  C   UNL     1      16.351  31.600  23.301  1.00  0.00     0.178 C 
ATOM     19  O   UNL     1      15.411  32.468  23.842  1.00  0.00    -0.341 OA
ATOM     20  C   UNL     1      14.430  31.834  24.612  1.00  0.00     0.281 C 
ATOM     21  C   UNL     1      15.192  29.580  24.095  1.00  0.00     0.180 C 
ATOM     22  C   UNL     1      14.995  30.552  25.215  1.00  0.00     0.202 C 
BRANCH  18  23
ATOM     23  C   UNL     1      16.877  32.296  22.047  1.00  0.00     0.191 C 
BRANCH  23  24
ATOM     24  O   UNL     1      15.856  32.297  21.074  1.00  0.00    -0.394 OA
ATOM     25  H   UNL     1      16.315  32.016  20.228  1.00  0.00     0.210 HD
ENDBRANCH  23  24
ENDBRANCH  18  23
BRANCH  20  26
ATOM     26  O   UNL     1      13.401  31.476  23.761  1.00  0.00    -0.350 OA
BRANCH  26  27
ATOM     27  C   UNL     1      12.294  32.266  23.769  1.00  0.00     0.169 C 
BRANCH  27  28
ATOM     28  C   UNL     1      11.055  31.450  23.981  1.00  0.00     0.119 C 
BRANCH  28  29
ATOM     29  N   UNL     1      11.370  30.055  23.667  1.00  0.00    -0.092 NA
ATOM     30  N   UNL     1      10.904  29.175  24.418  1.00  0.00     0.001 N 
ATOM     31  N   UNL     1      10.944  28.163  25.143  1.00  0.00    -0.003 NA
ENDBRANCH  28  29
ENDBRANCH  27  28
ENDBRANCH  26  27
ENDBRANCH  20  26
BRANCH  21  32
ATOM     32  O   UNL     1      13.983  28.970  23.784  1.00  0.00    -0.387 OA
ATOM     33  H   UNL     1      13.754  29.127  22.823  1.00  0.00     0.211 HD
ENDBRANCH  21  32
BRANCH  22  34
ATOM     34  O   UNL     1      16.154  30.819  25.945  1.00  0.00    -0.385 OA
ATOM     35  H   UNL     1      16.655  31.492  25.384  1.00  0.00     0.211 HD
ENDBRANCH  22  34
ENDBRANCH  16  17
ENDBRANCH  11  16
BRANCH  13  36
ATOM     36  O   UNL     1      13.728  28.933  20.876  1.00  0.00    -0.385 OA
ATOM     37  H   UNL     1      13.528  29.403  21.737  1.00  0.00     0.211 HD
ENDBRANCH  13  36
BRANCH  14  38
ATOM     38  O   UNL     1      14.134  29.212  18.211  1.00  0.00    -0.387 OA
ATOM     39  H   UNL     1      14.215  30.171  17.945  1.00  0.00     0.211 HD
ENDBRANCH  14  38
BRANCH  15  40
ATOM     40  O   UNL     1      16.474  30.728  18.603  1.00  0.00    -0.387 OA
ATOM     41  H   UNL     1      15.936  31.138  17.904  1.00  0.00     0.211 HD
ENDBRANCH  15  40
ENDBRANCH   9  10
ENDBRANCH   8   9
ENDBRANCH   3   8
BRANCH   3  42
ATOM     42  C   UNL     1      20.218  29.637  22.958  1.00  0.00     0.364 C 
ATOM     43  O   UNL     1      21.050  30.440  23.404  1.00  0.00    -0.246 OA
BRANCH  42  44
ATOM     44  O   UNL     1      19.179  29.228  23.770  1.00  0.00    -0.477 OA
ATOM     45  H   UNL     1      19.308  29.025  24.771  1.00  0.00     0.296 HD
ENDBRANCH  42  44
ENDBRANCH   3  42
BRANCH   6  46
ATOM     46  O   UNL     1      21.010  28.208  19.295  1.00  0.00    -0.391 OA
ATOM     47  H   UNL     1      21.124  28.144  18.332  1.00  0.00     0.211 HD
ENDBRANCH   6  46
BRANCH   7  48
ATOM     48  N   UNL     1      24.038  27.842  21.122  1.00  0.00    -0.348 N 
ATOM     49  C   UNL     1      25.135  26.946  20.936  1.00  0.00     0.217 C 
ATOM     50  H   UNL     1      24.245  28.753  21.592  1.00  0.00     0.163 HD
ATOM     51  C   UNL     1      26.483  27.385  21.431  1.00  0.00     0.114 C 
ATOM     52  O   UNL     1      24.991  25.825  20.381  1.00  0.00    -0.275 OA
ENDBRANCH   7  48
ENDBRANCH   1   2
BRANCH   1  53
ATOM     53  O   UNL     1      20.344  25.307  22.187  1.00  0.00    -0.388 OA
ATOM     54  H   UNL     1      19.680  25.873  21.700  1.00  0.00     0.211 HD
ENDBRANCH   1  53
BRANCH   1  55
ATOM     55  C   UNL     1      22.578  25.123  22.942  1.00  0.00     0.165 C 
BRANCH  55  56
ATOM     56  O   UNL     1      23.451  24.176  22.456  1.00  0.00    -0.388 OA
ATOM     57  H   UNL     1      23.599  23.403  23.063  1.00  0.00     0.211 HD
ENDBRANCH  55  56
BRANCH  55  58
ATOM     58  C   UNL     1      21.867  24.718  24.188  1.00  0.00     0.154 C 
BRANCH  58  59
ATOM     59  N   UNL     1      22.114  25.517  25.348  1.00  0.00    -0.319 N 
ATOM     60  C   UNL     1      21.203  26.544  25.694  1.00  0.00     0.407 C 
ATOM     61  H   UNL     1      22.940  25.362  25.942  1.00  0.00     0.167 HD
ATOM     62  O   UNL     1      20.174  26.706  24.950  1.00  0.00    -0.225 OA
BRANCH  60  63
ATOM     63  O   UNL     1      21.318  27.407  26.769  1.00  0.00    -0.443 OA
BRANCH  63  64
ATOM     64  C   UNL     1      21.720  26.895  28.049  1.00  0.00     0.294 C 
BRANCH  64  65
ATOM     65  C   UNL     1      23.096  27.365  28.335  1.00  0.00     0.120 A 
ATOM     66  C   UNL     1      24.123  26.745  29.011  1.00  0.00     0.139 A 
ATOM     67  N   UNL     1      23.611  28.586  27.969  1.00  0.00    -0.132 NA
ATOM     68  N   UNL     1      25.202  27.580  29.038  1.00  0.00    -0.237 N 
ATOM     69  N   UNL     1      24.840  28.657  28.404  1.00  0.00    -0.066 NA
BRANCH  68  70
ATOM     70  C   UNL     1      26.477  27.314  29.664  1.00  0.00     0.229 C 
BRANCH  70  71
ATOM     71  C   UNL     1      26.572  25.821  29.924  1.00  0.00     0.161 C 
BRANCH  71  72
ATOM     72  C   UNL     1      26.843  25.533  31.345  1.00  0.00     0.306 C 
ATOM     73  O   UNL     1      27.775  24.762  31.686  1.00  0.00    -0.252 OA
BRANCH  72  74
ATOM     74  O   UNL     1      26.073  26.108  32.332  1.00  0.00    -0.481 OA
ATOM     75  H   UNL     1      25.132  26.442  32.091  1.00  0.00     0.296 HD
ENDBRANCH  72  74
ENDBRANCH  71  72
ENDBRANCH  70  71
BRANCH  70  76
ATOM     76  C   UNL     1      27.557  27.724  28.749  1.00  0.00     0.329 C 
ATOM     77  O   UNL     1      28.213  26.840  28.151  1.00  0.00    -0.250 OA
BRANCH  76  78
ATOM     78  O   UNL     1      27.887  29.052  28.513  1.00  0.00    -0.480 OA
ATOM     79  H   UNL     1      27.275  29.773  28.884  1.00  0.00     0.296 HD
ENDBRANCH  76  78
ENDBRANCH  70  76
ENDBRANCH  68  70
ENDBRANCH  64  65
ENDBRANCH  63  64
ENDBRANCH  60  63
ENDBRANCH  58  59
ENDBRANCH  55  58
ENDBRANCH   1  55
TORSDOF 35
