REMARK VINA RESULT:    -6.050      2.123      8.339
REMARK INTER + INTRA:         -21.797
REMARK INTER:                 -15.434
REMARK INTRA:                  -6.363
REMARK UNBOUND:                -6.197
REMARK SMILES CC(=O)N[C@@H]1[C@@H](O)C[C@](OC[C@H]2O[C@@H](O[C@H]3[C@H](O)[C@@H](O)[C@H](OCCN=[N+]=[N-])O[C@@H]3CO)[C@H](O)[C@@H](O)[C@H]2O)(C(=O)O)O[C@H]1C(O)[C@H](O)CNC(=O)OCc1cn(Cc2cccc(C#N)c2)nn1
REMARK SMILES IDX 9 1 8 2 6 3 5 4 42 5 41 6 10 7 11 8 12 9 14 10 13 11 32 12
REMARK SMILES IDX 34 13 36 14 15 15 16 16 29 17 28 18 21 19 17 20 19 21 30 22
REMARK SMILES IDX 31 23 22 25 23 26 24 27 25 28 26 29 27 30 18 31 20 33 33 35
REMARK SMILES IDX 35 37 37 39 38 41 39 42 40 43 7 45 43 47 44 48 45 50 46 51
REMARK SMILES IDX 47 53 48 54 49 55 50 57 51 58 52 59 53 60 54 61 66 62 55 63
REMARK SMILES IDX 65 64 56 65 57 66 58 67 64 68 59 69 61 70 60 71 62 72 63 73
REMARK SMILES IDX 4 74 2 75 1 77 3 78
REMARK H PARENT 31 24 18 32 20 34 33 36 35 38 37 40 40 44 7 46 44 49 46 52
REMARK H PARENT 48 56 4 76
REMARK Flexibility Score: inf
ROOT
ATOM      1  C   UNL     1      16.278  32.106  21.228  1.00  0.00     0.272 C 
ATOM      2  C   UNL     1      17.410  32.007  22.223  1.00  0.00     0.113 C 
ATOM      3  C   UNL     1      17.471  30.802  23.062  1.00  0.00     0.145 C 
ATOM      4  C   UNL     1      16.077  30.239  23.362  1.00  0.00     0.142 C 
ATOM      5  C   UNL     1      15.222  30.163  22.178  1.00  0.00     0.178 C 
ATOM      6  O   UNL     1      15.410  31.063  21.180  1.00  0.00    -0.332 OA
ENDROOT
BRANCH   1   7
ATOM      7  O   UNL     1      16.789  32.279  20.023  1.00  0.00    -0.338 OA
BRANCH   7   8
ATOM      8  C   UNL     1      17.722  32.101  19.217  1.00  0.00     0.199 C 
BRANCH   8   9
ATOM      9  C   UNL     1      17.637  31.679  17.777  1.00  0.00     0.179 C 
ATOM     10  C   UNL     1      16.542  30.264  16.406  1.00  0.00     0.282 C 
ATOM     11  O   UNL     1      16.383  30.980  17.601  1.00  0.00    -0.341 OA
ATOM     12  C   UNL     1      16.567  31.168  15.221  1.00  0.00     0.202 C 
ATOM     13  C   UNL     1      17.399  32.415  15.458  1.00  0.00     0.179 C 
ATOM     14  C   UNL     1      17.379  32.897  16.868  1.00  0.00     0.177 C 
BRANCH  10  15
ATOM     15  O   UNL     1      15.498  29.351  16.284  1.00  0.00    -0.341 OA
BRANCH  15  16
ATOM     16  C   UNL     1      14.506  29.786  15.446  1.00  0.00     0.184 C 
ATOM     17  C   UNL     1      13.213  30.006  16.142  1.00  0.00     0.178 C 
ATOM     18  O   UNL     1      12.182  30.363  15.304  1.00  0.00    -0.341 OA
ATOM     19  C   UNL     1      11.992  29.557  14.204  1.00  0.00     0.281 C 
ATOM     20  C   UNL     1      14.227  28.578  14.493  1.00  0.00     0.180 C 
ATOM     21  C   UNL     1      13.237  29.135  13.491  1.00  0.00     0.202 C 
BRANCH  17  22
ATOM     22  C   UNL     1      13.343  31.108  17.169  1.00  0.00     0.191 C 
BRANCH  22  23
ATOM     23  O   UNL     1      13.600  30.555  18.427  1.00  0.00    -0.394 OA
ATOM     24  H   UNL     1      13.334  29.624  18.499  1.00  0.00     0.210 HD
ENDBRANCH  22  23
ENDBRANCH  17  22
BRANCH  19  25
ATOM     25  O   UNL     1      11.250  30.318  13.276  1.00  0.00    -0.350 OA
BRANCH  25  26
ATOM     26  C   UNL     1      11.979  31.408  12.877  1.00  0.00     0.169 C 
BRANCH  26  27
ATOM     27  C   UNL     1      11.870  31.671  11.401  1.00  0.00     0.119 C 
BRANCH  27  28
ATOM     28  N   UNL     1      11.669  30.472  10.623  1.00  0.00    -0.092 NA
ATOM     29  N   UNL     1      12.581  30.089   9.876  1.00  0.00     0.001 N 
ATOM     30  N   UNL     1      13.383  29.650   9.022  1.00  0.00    -0.003 NA
ENDBRANCH  27  28
ENDBRANCH  26  27
ENDBRANCH  25  26
ENDBRANCH  19  25
BRANCH  20  31
ATOM     31  O   UNL     1      15.423  28.199  13.945  1.00  0.00    -0.387 OA
ATOM     32  H   UNL     1      15.324  27.907  12.994  1.00  0.00     0.211 HD
ENDBRANCH  20  31
BRANCH  21  33
ATOM     33  O   UNL     1      12.919  28.109  12.605  1.00  0.00    -0.385 OA
ATOM     34  H   UNL     1      11.988  27.817  12.829  1.00  0.00     0.211 HD
ENDBRANCH  21  33
ENDBRANCH  15  16
ENDBRANCH  10  15
BRANCH  12  35
ATOM     35  O   UNL     1      17.231  30.489  14.174  1.00  0.00    -0.385 OA
ATOM     36  H   UNL     1      16.518  30.118  13.598  1.00  0.00     0.211 HD
ENDBRANCH  12  35
BRANCH  13  37
ATOM     37  O   UNL     1      16.817  33.417  14.667  1.00  0.00    -0.387 OA
ATOM     38  H   UNL     1      16.613  33.123  13.759  1.00  0.00     0.211 HD
ENDBRANCH  13  37
BRANCH  14  39
ATOM     39  O   UNL     1      16.074  33.342  17.131  1.00  0.00    -0.387 OA
ATOM     40  H   UNL     1      15.520  33.361  16.327  1.00  0.00     0.211 HD
ENDBRANCH  14  39
ENDBRANCH   8   9
ENDBRANCH   7   8
ENDBRANCH   1   7
BRANCH   1  41
ATOM     41  C   UNL     1      15.449  33.284  21.668  1.00  0.00     0.364 C 
ATOM     42  O   UNL     1      15.491  33.695  22.877  1.00  0.00    -0.246 OA
BRANCH  41  43
ATOM     43  O   UNL     1      14.627  33.953  20.802  1.00  0.00    -0.477 OA
ATOM     44  H   UNL     1      14.204  33.402  20.037  1.00  0.00     0.296 HD
ENDBRANCH  41  43
ENDBRANCH   1  41
BRANCH   3  45
ATOM     45  O   UNL     1      18.225  29.820  22.437  1.00  0.00    -0.391 OA
ATOM     46  H   UNL     1      19.027  29.558  22.948  1.00  0.00     0.211 HD
ENDBRANCH   3  45
BRANCH   5  47
ATOM     47  C   UNL     1      15.248  28.837  21.446  1.00  0.00     0.176 C 
BRANCH  47  48
ATOM     48  O   UNL     1      13.893  28.373  21.530  1.00  0.00    -0.388 OA
ATOM     49  H   UNL     1      13.396  28.818  20.807  1.00  0.00     0.211 HD
ENDBRANCH  47  48
BRANCH  47  50
ATOM     50  C   UNL     1      15.568  28.823  20.010  1.00  0.00     0.165 C 
BRANCH  50  51
ATOM     51  O   UNL     1      14.486  28.006  19.462  1.00  0.00    -0.388 OA
ATOM     52  H   UNL     1      14.219  27.362  20.183  1.00  0.00     0.211 HD
ENDBRANCH  50  51
BRANCH  50  53
ATOM     53  C   UNL     1      16.789  28.109  19.559  1.00  0.00     0.154 C 
BRANCH  53  54
ATOM     54  N   UNL     1      18.046  28.715  19.855  1.00  0.00    -0.319 N 
ATOM     55  C   UNL     1      19.136  28.584  18.931  1.00  0.00     0.407 C 
ATOM     56  H   UNL     1      18.227  29.258  20.707  1.00  0.00     0.167 HD
ATOM     57  O   UNL     1      18.920  27.929  17.885  1.00  0.00    -0.225 OA
BRANCH  55  58
ATOM     58  O   UNL     1      20.367  29.134  19.140  1.00  0.00    -0.443 OA
BRANCH  58  59
ATOM     59  C   UNL     1      21.529  28.320  19.400  1.00  0.00     0.294 C 
BRANCH  59  60
ATOM     60  C   UNL     1      21.317  27.568  20.669  1.00  0.00     0.120 A 
ATOM     61  C   UNL     1      21.561  26.232  20.890  1.00  0.00     0.138 A 
ATOM     62  N   UNL     1      20.848  28.050  21.825  1.00  0.00    -0.132 NA
ATOM     63  N   UNL     1      21.236  25.923  22.177  1.00  0.00    -0.248 N 
ATOM     64  N   UNL     1      20.806  27.052  22.719  1.00  0.00    -0.067 NA
BRANCH  63  65
ATOM     65  C   UNL     1      21.337  24.630  22.791  1.00  0.00     0.181 C 
BRANCH  65  66
ATOM     66  C   UNL     1      22.436  24.642  23.783  1.00  0.00    -0.025 A 
ATOM     67  C   UNL     1      23.762  24.615  23.437  1.00  0.00     0.006 A 
ATOM     68  C   UNL     1      22.126  24.680  25.138  1.00  0.00     0.025 A 
ATOM     69  C   UNL     1      24.772  24.621  24.361  1.00  0.00     0.002 A 
ATOM     70  C   UNL     1      23.139  24.686  26.065  1.00  0.00     0.052 A 
ATOM     71  C   UNL     1      24.490  24.658  25.720  1.00  0.00     0.019 A 
BRANCH  70  72
ATOM     72  C   UNL     1      22.808  24.730  27.465  1.00  0.00     0.099 C 
ATOM     73  N   UNL     1      22.530  24.778  28.600  1.00  0.00    -0.192 NA
ENDBRANCH  70  72
ENDBRANCH  65  66
ENDBRANCH  63  65
ENDBRANCH  59  60
ENDBRANCH  58  59
ENDBRANCH  55  58
ENDBRANCH  53  54
ENDBRANCH  50  53
ENDBRANCH  47  50
ENDBRANCH   5  47
BRANCH   4  74
ATOM     74  N   UNL     1      15.528  30.954  24.512  1.00  0.00    -0.348 N 
ATOM     75  C   UNL     1      14.316  30.514  25.084  1.00  0.00     0.217 C 
ATOM     76  H   UNL     1      15.972  31.781  24.956  1.00  0.00     0.163 HD
ATOM     77  C   UNL     1      13.682  31.181  26.256  1.00  0.00     0.114 C 
ATOM     78  O   UNL     1      13.748  29.526  24.590  1.00  0.00    -0.275 OA
ENDBRANCH   4  74
TORSDOF 32
