REMARK VINA RESULT:    -6.411      2.973      9.846
REMARK INTER + INTRA:         -21.359
REMARK INTER:                 -14.645
REMARK INTRA:                  -6.715
REMARK UNBOUND:                -4.828
REMARK SMILES CC(=O)N[C@@H]1[C@@H](O)C[C@](OC[C@H]2O[C@@H](O[C@H]3[C@H](O)[C@@H](O)[C@H](OCCN=[N+]=[N-])O[C@@H]3CO)[C@H](O)[C@@H](O)[C@H]2O)(C(=O)O)O[C@H]1C(O)[C@H](O)CNC(=O)OCc1cn(CCN2CCCC2)nn1
REMARK SMILES IDX 9 1 8 2 6 3 5 4 42 5 41 6 10 7 11 8 12 9 14 10 13 11 32 12
REMARK SMILES IDX 34 13 36 14 15 15 16 16 29 17 28 18 21 19 17 20 19 21 30 22
REMARK SMILES IDX 31 23 22 25 23 26 24 27 25 28 26 29 27 30 18 31 20 33 33 35
REMARK SMILES IDX 35 37 37 39 38 41 39 42 40 43 7 45 43 47 44 48 45 50 46 51
REMARK SMILES IDX 47 53 48 54 49 55 50 57 51 58 52 59 53 60 54 61 64 62 55 63
REMARK SMILES IDX 63 64 56 65 57 66 58 67 59 68 62 69 60 70 61 71 4 72 2 73
REMARK SMILES IDX 1 75 3 76
REMARK H PARENT 31 24 18 32 20 34 33 36 35 38 37 40 40 44 7 46 44 49 46 52
REMARK H PARENT 48 56 4 74
REMARK Flexibility Score: inf
ROOT
ATOM      1  C   UNL     1      18.380  32.281  21.791  1.00  0.00     0.272 C 
ATOM      2  C   UNL     1      18.082  31.577  20.505  1.00  0.00     0.113 C 
ATOM      3  C   UNL     1      18.033  30.058  20.717  1.00  0.00     0.145 C 
ATOM      4  C   UNL     1      19.477  29.654  21.127  1.00  0.00     0.142 C 
ATOM      5  C   UNL     1      19.835  30.489  22.302  1.00  0.00     0.178 C 
ATOM      6  O   UNL     1      18.764  31.292  22.706  1.00  0.00    -0.332 OA
ENDROOT
BRANCH   1   7
ATOM      7  O   UNL     1      17.226  32.811  22.375  1.00  0.00    -0.338 OA
BRANCH   7   8
ATOM      8  C   UNL     1      16.804  32.277  23.537  1.00  0.00     0.199 C 
BRANCH   8   9
ATOM      9  C   UNL     1      15.381  31.728  23.461  1.00  0.00     0.179 C 
ATOM     10  C   UNL     1      13.678  31.220  22.012  1.00  0.00     0.282 C 
ATOM     11  O   UNL     1      15.033  31.280  22.199  1.00  0.00    -0.341 OA
ATOM     12  C   UNL     1      12.998  30.728  23.244  1.00  0.00     0.202 C 
ATOM     13  C   UNL     1      13.965  29.862  24.032  1.00  0.00     0.179 C 
ATOM     14  C   UNL     1      15.157  30.663  24.515  1.00  0.00     0.177 C 
BRANCH  10  15
ATOM     15  O   UNL     1      13.269  30.633  20.851  1.00  0.00    -0.341 OA
BRANCH  15  16
ATOM     16  C   UNL     1      14.080  30.449  19.815  1.00  0.00     0.184 C 
ATOM     17  C   UNL     1      13.676  31.061  18.489  1.00  0.00     0.178 C 
ATOM     18  O   UNL     1      14.849  31.225  17.745  1.00  0.00    -0.341 OA
ATOM     19  C   UNL     1      15.178  29.923  17.268  1.00  0.00     0.281 C 
ATOM     20  C   UNL     1      14.439  29.009  19.490  1.00  0.00     0.180 C 
ATOM     21  C   UNL     1      15.572  29.115  18.487  1.00  0.00     0.202 C 
BRANCH  17  22
ATOM     22  C   UNL     1      12.921  32.342  18.601  1.00  0.00     0.191 C 
BRANCH  22  23
ATOM     23  O   UNL     1      11.629  32.124  18.133  1.00  0.00    -0.394 OA
ATOM     24  H   UNL     1      11.295  31.241  18.453  1.00  0.00     0.210 HD
ENDBRANCH  22  23
ENDBRANCH  17  22
BRANCH  19  25
ATOM     25  O   UNL     1      16.287  30.087  16.501  1.00  0.00    -0.350 OA
BRANCH  25  26
ATOM     26  C   UNL     1      16.233  29.854  15.170  1.00  0.00     0.169 C 
BRANCH  26  27
ATOM     27  C   UNL     1      15.381  28.731  14.690  1.00  0.00     0.119 C 
BRANCH  27  28
ATOM     28  N   UNL     1      14.197  29.139  13.974  1.00  0.00    -0.092 NA
ATOM     29  N   UNL     1      13.232  28.389  13.931  1.00  0.00     0.001 N 
ATOM     30  N   UNL     1      12.303  27.581  14.036  1.00  0.00    -0.003 NA
ENDBRANCH  27  28
ENDBRANCH  26  27
ENDBRANCH  25  26
ENDBRANCH  19  25
BRANCH  20  31
ATOM     31  O   UNL     1      14.955  28.354  20.598  1.00  0.00    -0.387 OA
ATOM     32  H   UNL     1      15.671  27.721  20.397  1.00  0.00     0.211 HD
ENDBRANCH  20  31
BRANCH  21  33
ATOM     33  O   UNL     1      16.128  27.899  18.167  1.00  0.00    -0.385 OA
ATOM     34  H   UNL     1      15.885  27.145  18.731  1.00  0.00     0.211 HD
ENDBRANCH  21  33
ENDBRANCH  15  16
ENDBRANCH  10  15
BRANCH  12  35
ATOM     35  O   UNL     1      12.588  31.756  24.101  1.00  0.00    -0.385 OA
ATOM     36  H   UNL     1      11.717  31.521  24.534  1.00  0.00     0.211 HD
ENDBRANCH  12  35
BRANCH  13  37
ATOM     37  O   UNL     1      14.465  28.845  23.212  1.00  0.00    -0.387 OA
ATOM     38  H   UNL     1      13.730  28.188  22.996  1.00  0.00     0.211 HD
ENDBRANCH  13  37
BRANCH  14  39
ATOM     39  O   UNL     1      16.229  29.775  24.590  1.00  0.00    -0.387 OA
ATOM     40  H   UNL     1      16.765  30.080  25.380  1.00  0.00     0.211 HD
ENDBRANCH  14  39
ENDBRANCH   8   9
ENDBRANCH   7   8
ENDBRANCH   1   7
BRANCH   1  41
ATOM     41  C   UNL     1      19.444  33.313  21.687  1.00  0.00     0.364 C 
ATOM     42  O   UNL     1      19.672  34.030  22.709  1.00  0.00    -0.246 OA
BRANCH  41  43
ATOM     43  O   UNL     1      20.212  33.570  20.582  1.00  0.00    -0.477 OA
ATOM     44  H   UNL     1      20.364  32.990  19.790  1.00  0.00     0.296 HD
ENDBRANCH  41  43
ENDBRANCH   1  41
BRANCH   3  45
ATOM     45  O   UNL     1      17.222  29.723  21.773  1.00  0.00    -0.391 OA
ATOM     46  H   UNL     1      17.231  28.749  21.979  1.00  0.00     0.211 HD
ENDBRANCH   3  45
BRANCH   5  47
ATOM     47  C   UNL     1      20.105  29.624  23.510  1.00  0.00     0.176 C 
BRANCH  47  48
ATOM     48  O   UNL     1      18.975  29.235  24.205  1.00  0.00    -0.388 OA
ATOM     49  H   UNL     1      18.121  29.549  23.835  1.00  0.00     0.211 HD
ENDBRANCH  47  48
BRANCH  47  50
ATOM     50  C   UNL     1      21.076  28.515  23.390  1.00  0.00     0.165 C 
BRANCH  50  51
ATOM     51  O   UNL     1      20.855  27.408  24.176  1.00  0.00    -0.388 OA
ATOM     52  H   UNL     1      20.760  27.578  25.140  1.00  0.00     0.211 HD
ENDBRANCH  50  51
BRANCH  50  53
ATOM     53  C   UNL     1      22.495  28.885  23.107  1.00  0.00     0.154 C 
BRANCH  53  54
ATOM     54  N   UNL     1      23.368  27.776  22.994  1.00  0.00    -0.319 N 
ATOM     55  C   UNL     1      23.550  27.054  21.763  1.00  0.00     0.407 C 
ATOM     56  H   UNL     1      23.919  27.448  23.824  1.00  0.00     0.167 HD
ATOM     57  O   UNL     1      22.958  27.348  20.709  1.00  0.00    -0.225 OA
BRANCH  55  58
ATOM     58  O   UNL     1      24.427  25.970  21.709  1.00  0.00    -0.443 OA
BRANCH  58  59
ATOM     59  C   UNL     1      23.962  24.656  22.034  1.00  0.00     0.294 C 
BRANCH  59  60
ATOM     60  C   UNL     1      23.356  24.632  23.380  1.00  0.00     0.120 A 
ATOM     61  C   UNL     1      23.891  24.616  24.637  1.00  0.00     0.138 A 
ATOM     62  N   UNL     1      22.007  24.623  23.585  1.00  0.00    -0.132 NA
ATOM     63  N   UNL     1      22.910  24.600  25.539  1.00  0.00    -0.251 N 
ATOM     64  N   UNL     1      21.747  24.604  24.857  1.00  0.00    -0.067 NA
BRANCH  63  65
ATOM     65  C   UNL     1      22.968  24.578  26.967  1.00  0.00     0.161 C 
BRANCH  65  66
ATOM     66  C   UNL     1      22.891  25.914  27.609  1.00  0.00     0.108 C 
BRANCH  66  67
ATOM     67  N   UNL     1      23.998  26.411  28.312  1.00  0.00    -0.301 NA
ATOM     68  C   UNL     1      24.159  26.146  29.686  1.00  0.00     0.084 C 
ATOM     69  C   UNL     1      25.254  26.361  27.629  1.00  0.00     0.084 C 
ATOM     70  C   UNL     1      25.593  25.685  29.905  1.00  0.00     0.017 C 
ATOM     71  C   UNL     1      26.313  26.071  28.646  1.00  0.00     0.017 C 
ENDBRANCH  66  67
ENDBRANCH  65  66
ENDBRANCH  63  65
ENDBRANCH  59  60
ENDBRANCH  58  59
ENDBRANCH  55  58
ENDBRANCH  53  54
ENDBRANCH  50  53
ENDBRANCH  47  50
ENDBRANCH   5  47
BRANCH   4  72
ATOM     72  N   UNL     1      20.298  29.871  19.951  1.00  0.00    -0.348 N 
ATOM     73  C   UNL     1      20.368  28.964  18.855  1.00  0.00     0.217 C 
ATOM     74  H   UNL     1      20.880  30.724  19.865  1.00  0.00     0.163 HD
ATOM     75  C   UNL     1      21.262  29.286  17.688  1.00  0.00     0.114 C 
ATOM     76  O   UNL     1      19.697  27.931  18.881  1.00  0.00    -0.275 OA
ENDBRANCH   4  72
TORSDOF 32
