REMARK VINA RESULT:    -6.443      5.535     10.972
REMARK INTER + INTRA:         -21.952
REMARK INTER:                 -13.611
REMARK INTRA:                  -8.342
REMARK UNBOUND:                -5.152
REMARK SMILES CC(=O)N[C@@H]1[C@@H](O)C[C@](OC[C@H]2O[C@@H](O[C@H]3[C@H](O)[C@@H](O)[C@H](OCCN=[N+]=[N-])O[C@@H]3CO)[C@H](O)[C@@H](O)[C@H]2O)(C(=O)O)O[C@H]1C(O)[C@H](O)CNC(=O)OCc1cn(CC(O)c2ccccc2)nn1
REMARK SMILES IDX 9 1 8 2 6 3 5 4 42 5 41 6 10 7 11 8 12 9 14 10 13 11 32 12
REMARK SMILES IDX 34 13 36 14 15 15 16 16 29 17 28 18 21 19 17 20 19 21 30 22
REMARK SMILES IDX 31 23 22 25 23 26 24 27 25 28 26 29 27 30 18 31 20 33 33 35
REMARK SMILES IDX 35 37 37 39 38 41 39 42 40 43 7 45 43 47 44 48 45 50 46 51
REMARK SMILES IDX 47 53 48 54 49 55 50 57 51 58 52 59 53 60 54 61 66 62 55 63
REMARK SMILES IDX 65 64 56 65 57 66 58 67 59 69 60 70 64 71 61 72 63 73 62 74
REMARK SMILES IDX 4 75 2 76 1 78 3 79
REMARK H PARENT 31 24 18 32 20 34 33 36 35 38 37 40 40 44 7 46 44 49 46 52
REMARK H PARENT 48 56 58 68 4 77
REMARK Flexibility Score: inf
ROOT
ATOM      1  C   UNL     1      23.284  25.541  21.194  1.00  0.00     0.272 C 
ATOM      2  C   UNL     1      24.024  24.257  21.158  1.00  0.00     0.113 C 
ATOM      3  C   UNL     1      25.382  24.279  20.550  1.00  0.00     0.145 C 
ATOM      4  C   UNL     1      25.556  25.552  19.785  1.00  0.00     0.142 C 
ATOM      5  C   UNL     1      24.241  25.850  19.087  1.00  0.00     0.178 C 
ATOM      6  O   UNL     1      23.191  26.101  19.915  1.00  0.00    -0.332 OA
ENDROOT
BRANCH   1   7
ATOM      7  O   UNL     1      23.752  26.519  22.020  1.00  0.00    -0.338 OA
BRANCH   7   8
ATOM      8  C   UNL     1      24.101  26.177  23.290  1.00  0.00     0.199 C 
BRANCH   8   9
ATOM      9  C   UNL     1      23.499  27.126  24.301  1.00  0.00     0.179 C 
ATOM     10  C   UNL     1      21.451  28.075  24.745  1.00  0.00     0.282 C 
ATOM     11  O   UNL     1      22.368  27.731  23.789  1.00  0.00    -0.341 OA
ATOM     12  C   UNL     1      20.847  26.910  25.498  1.00  0.00     0.202 C 
ATOM     13  C   UNL     1      21.908  25.839  25.626  1.00  0.00     0.179 C 
ATOM     14  C   UNL     1      23.249  26.542  25.650  1.00  0.00     0.177 C 
BRANCH  10  15
ATOM     15  O   UNL     1      20.369  28.765  24.207  1.00  0.00    -0.341 OA
BRANCH  15  16
ATOM     16  C   UNL     1      20.665  29.618  23.180  1.00  0.00     0.184 C 
ATOM     17  C   UNL     1      21.118  30.927  23.816  1.00  0.00     0.178 C 
ATOM     18  O   UNL     1      20.099  31.857  23.825  1.00  0.00    -0.341 OA
ATOM     19  C   UNL     1      18.959  31.239  24.370  1.00  0.00     0.281 C 
ATOM     20  C   UNL     1      19.383  29.805  22.380  1.00  0.00     0.180 C 
ATOM     21  C   UNL     1      18.308  30.453  23.237  1.00  0.00     0.202 C 
BRANCH  17  22
ATOM     22  C   UNL     1      22.363  31.459  23.128  1.00  0.00     0.191 C 
BRANCH  22  23
ATOM     23  O   UNL     1      22.414  31.062  21.795  1.00  0.00    -0.394 OA
ATOM     24  H   UNL     1      21.541  30.714  21.476  1.00  0.00     0.210 HD
ENDBRANCH  22  23
ENDBRANCH  17  22
BRANCH  19  25
ATOM     25  O   UNL     1      18.156  32.243  24.854  1.00  0.00    -0.350 OA
BRANCH  25  26
ATOM     26  C   UNL     1      17.490  32.979  23.904  1.00  0.00     0.169 C 
BRANCH  26  27
ATOM     27  C   UNL     1      16.982  34.307  24.393  1.00  0.00     0.119 C 
BRANCH  27  28
ATOM     28  N   UNL     1      15.914  34.099  25.377  1.00  0.00    -0.092 NA
ATOM     29  N   UNL     1      14.943  33.451  24.956  1.00  0.00     0.001 N 
ATOM     30  N   UNL     1      13.970  32.710  24.820  1.00  0.00    -0.003 NA
ENDBRANCH  27  28
ENDBRANCH  26  27
ENDBRANCH  25  26
ENDBRANCH  19  25
BRANCH  20  31
ATOM     31  O   UNL     1      19.629  30.572  21.249  1.00  0.00    -0.387 OA
ATOM     32  H   UNL     1      20.342  31.243  21.449  1.00  0.00     0.211 HD
ENDBRANCH  20  31
BRANCH  21  33
ATOM     33  O   UNL     1      17.403  29.513  23.694  1.00  0.00    -0.385 OA
ATOM     34  H   UNL     1      17.496  28.705  23.132  1.00  0.00     0.211 HD
ENDBRANCH  21  33
ENDBRANCH  15  16
ENDBRANCH  10  15
BRANCH  12  35
ATOM     35  O   UNL     1      20.479  27.348  26.775  1.00  0.00    -0.385 OA
ATOM     36  H   UNL     1      20.271  28.319  26.703  1.00  0.00     0.211 HD
ENDBRANCH  12  35
BRANCH  13  37
ATOM     37  O   UNL     1      21.785  25.033  24.497  1.00  0.00    -0.387 OA
ATOM     38  H   UNL     1      22.315  25.328  23.736  1.00  0.00     0.211 HD
ENDBRANCH  13  37
BRANCH  14  39
ATOM     39  O   UNL     1      24.280  25.768  26.128  1.00  0.00    -0.387 OA
ATOM     40  H   UNL     1      24.759  25.258  25.425  1.00  0.00     0.211 HD
ENDBRANCH  14  39
ENDBRANCH   8   9
ENDBRANCH   7   8
ENDBRANCH   1   7
BRANCH   1  41
ATOM     41  C   UNL     1      21.847  25.172  21.529  1.00  0.00     0.364 C 
ATOM     42  O   UNL     1      21.542  24.004  21.699  1.00  0.00    -0.246 OA
BRANCH  41  43
ATOM     43  O   UNL     1      20.956  26.227  21.621  1.00  0.00    -0.477 OA
ATOM     44  H   UNL     1      20.287  26.188  22.360  1.00  0.00     0.296 HD
ENDBRANCH  41  43
ENDBRANCH   1  41
BRANCH   3  45
ATOM     45  O   UNL     1      26.383  24.057  21.498  1.00  0.00    -0.391 OA
ATOM     46  H   UNL     1      26.289  24.790  22.169  1.00  0.00     0.211 HD
ENDBRANCH   3  45
BRANCH   5  47
ATOM     47  C   UNL     1      24.539  26.943  18.092  1.00  0.00     0.176 C 
BRANCH  47  48
ATOM     48  O   UNL     1      24.652  28.158  18.785  1.00  0.00    -0.388 OA
ATOM     49  H   UNL     1      24.678  27.927  19.755  1.00  0.00     0.211 HD
ENDBRANCH  47  48
BRANCH  47  50
ATOM     50  C   UNL     1      23.530  27.009  16.994  1.00  0.00     0.165 C 
BRANCH  50  51
ATOM     51  O   UNL     1      24.054  26.694  15.770  1.00  0.00    -0.388 OA
ATOM     52  H   UNL     1      24.467  25.818  15.708  1.00  0.00     0.211 HD
ENDBRANCH  50  51
BRANCH  50  53
ATOM     53  C   UNL     1      22.643  28.227  17.030  1.00  0.00     0.154 C 
BRANCH  53  54
ATOM     54  N   UNL     1      21.321  28.018  17.543  1.00  0.00    -0.319 N 
ATOM     55  C   UNL     1      20.895  28.374  18.856  1.00  0.00     0.407 C 
ATOM     56  H   UNL     1      20.581  27.572  16.912  1.00  0.00     0.167 HD
ATOM     57  O   UNL     1      21.680  28.914  19.654  1.00  0.00    -0.225 OA
BRANCH  55  58
ATOM     58  O   UNL     1      19.606  28.131  19.278  1.00  0.00    -0.443 OA
BRANCH  58  59
ATOM     59  C   UNL     1      18.451  28.540  18.546  1.00  0.00     0.294 C 
BRANCH  59  60
ATOM     60  C   UNL     1      17.286  28.654  19.478  1.00  0.00     0.120 A 
ATOM     61  C   UNL     1      16.606  29.765  19.905  1.00  0.00     0.138 A 
ATOM     62  N   UNL     1      16.688  27.592  20.062  1.00  0.00    -0.132 NA
ATOM     63  N   UNL     1      15.601  29.368  20.742  1.00  0.00    -0.249 N 
ATOM     64  N   UNL     1      15.706  28.060  20.792  1.00  0.00    -0.067 NA
BRANCH  63  65
ATOM     65  C   UNL     1      14.648  30.245  21.403  1.00  0.00     0.182 C 
BRANCH  65  66
ATOM     66  C   UNL     1      13.694  29.427  22.255  1.00  0.00     0.166 C 
BRANCH  66  67
ATOM     67  O   UNL     1      14.474  28.999  23.355  1.00  0.00    -0.386 OA
ATOM     68  H   UNL     1      15.331  28.610  23.027  1.00  0.00     0.211 HD
ENDBRANCH  66  67
BRANCH  66  69
ATOM     69  C   UNL     1      12.519  30.168  22.722  1.00  0.00    -0.018 A 
ATOM     70  C   UNL     1      11.776  29.782  23.795  1.00  0.00     0.006 A 
ATOM     71  C   UNL     1      12.188  31.308  21.977  1.00  0.00     0.006 A 
ATOM     72  C   UNL     1      10.673  30.547  24.142  1.00  0.00     0.000 A 
ATOM     73  C   UNL     1      11.094  32.046  22.339  1.00  0.00     0.000 A 
ATOM     74  C   UNL     1      10.329  31.668  23.425  1.00  0.00     0.000 A 
ENDBRANCH  66  69
ENDBRANCH  65  66
ENDBRANCH  63  65
ENDBRANCH  59  60
ENDBRANCH  58  59
ENDBRANCH  55  58
ENDBRANCH  53  54
ENDBRANCH  50  53
ENDBRANCH  47  50
ENDBRANCH   5  47
BRANCH   4  75
ATOM     75  N   UNL     1      26.525  25.359  18.694  1.00  0.00    -0.348 N 
ATOM     76  C   UNL     1      27.912  25.596  18.860  1.00  0.00     0.217 C 
ATOM     77  H   UNL     1      26.200  25.038  17.756  1.00  0.00     0.163 HD
ATOM     78  C   UNL     1      28.919  25.412  17.783  1.00  0.00     0.114 C 
ATOM     79  O   UNL     1      28.312  25.984  19.992  1.00  0.00    -0.275 OA
ENDBRANCH   4  75
TORSDOF 33
