REMARK VINA RESULT:    -5.830     20.511     27.515
REMARK INTER + INTRA:         -24.184
REMARK INTER:                 -18.195
REMARK INTRA:                  -5.989
REMARK UNBOUND:                -8.981
REMARK SMILES CC(=O)N[C@@H]1[C@@H](O)C[C@](OC[C@H]2O[C@@H](O[C@H]3[C@H](O)[C@@H](O)[C@H](OCCN=[N+]=[N-])O[C@@H]3CO)[C@H](O)[C@@H](O)[C@H]2O)(C(=O)O)O[C@H]1C(O)[C@H](O)CNC(=O)OCc1cn(-c2cc(C(=O)O)nc(-c3ccccc3)c2)nn1
REMARK SMILES IDX 9 1 8 2 6 3 5 4 42 5 41 6 10 7 11 8 12 9 14 10 13 11 32 12
REMARK SMILES IDX 34 13 36 14 15 15 16 16 29 17 28 18 21 19 17 20 19 21 30 22
REMARK SMILES IDX 31 23 22 25 23 26 24 27 25 28 26 29 27 30 18 31 20 33 33 35
REMARK SMILES IDX 35 37 37 39 38 41 39 42 40 43 7 45 43 47 44 48 45 50 46 51
REMARK SMILES IDX 47 53 48 54 49 55 50 57 51 58 52 59 53 60 54 61 72 62 55 63
REMARK SMILES IDX 71 64 56 65 57 66 70 67 58 68 63 69 62 70 59 71 60 72 61 73
REMARK SMILES IDX 64 75 65 76 69 77 66 78 68 79 67 80 4 81 2 82 1 84 3 85
REMARK H PARENT 31 24 18 32 20 34 33 36 35 38 37 40 40 44 7 46 44 49 46 52
REMARK H PARENT 48 56 61 74 4 83
REMARK Flexibility Score: inf
ROOT
ATOM      1  C   UNL     1       3.551  23.742  32.436  1.00  0.00     0.272 C 
ATOM      2  C   UNL     1       2.511  23.260  33.467  1.00  0.00     0.113 C 
ATOM      3  C   UNL     1       2.819  21.936  34.065  1.00  0.00     0.145 C 
ATOM      4  C   UNL     1       3.357  20.928  33.055  1.00  0.00     0.142 C 
ATOM      5  C   UNL     1       3.211  21.634  31.704  1.00  0.00     0.178 C 
ATOM      6  O   UNL     1       4.111  22.676  31.734  1.00  0.00    -0.332 OA
ENDROOT
BRANCH   1   7
ATOM      7  O   UNL     1       4.515  24.362  33.164  1.00  0.00    -0.338 OA
BRANCH   7   8
ATOM      8  C   UNL     1       5.760  23.825  33.227  1.00  0.00     0.199 C 
BRANCH   8   9
ATOM      9  C   UNL     1       6.385  24.067  34.624  1.00  0.00     0.179 C 
ATOM     10  C   UNL     1       8.496  24.103  35.629  1.00  0.00     0.282 C 
ATOM     11  O   UNL     1       7.726  23.878  34.517  1.00  0.00    -0.341 OA
ATOM     12  C   UNL     1       7.659  24.829  36.665  1.00  0.00     0.202 C 
ATOM     13  C   UNL     1       6.886  25.993  36.096  1.00  0.00     0.179 C 
ATOM     14  C   UNL     1       6.106  25.532  34.917  1.00  0.00     0.177 C 
BRANCH  10  15
ATOM     15  O   UNL     1       9.588  24.858  35.241  1.00  0.00    -0.341 OA
BRANCH  15  16
ATOM     16  C   UNL     1      10.819  24.325  35.582  1.00  0.00     0.184 C 
ATOM     17  C   UNL     1      10.774  23.428  36.765  1.00  0.00     0.178 C 
ATOM     18  O   UNL     1      11.550  23.905  37.808  1.00  0.00    -0.341 OA
ATOM     19  C   UNL     1      11.255  25.229  38.126  1.00  0.00     0.281 C 
ATOM     20  C   UNL     1      11.785  25.468  35.705  1.00  0.00     0.180 C 
ATOM     21  C   UNL     1      11.900  26.080  37.055  1.00  0.00     0.202 C 
BRANCH  17  22
ATOM     22  C   UNL     1      11.329  22.070  36.390  1.00  0.00     0.191 C 
BRANCH  22  23
ATOM     23  O   UNL     1      12.677  22.119  36.088  1.00  0.00    -0.394 OA
ATOM     24  H   UNL     1      13.144  22.688  36.755  1.00  0.00     0.210 HD
ENDBRANCH  22  23
ENDBRANCH  17  22
BRANCH  19  25
ATOM     25  O   UNL     1      11.861  25.495  39.345  1.00  0.00    -0.350 OA
BRANCH  25  26
ATOM     26  C   UNL     1      12.490  24.365  39.872  1.00  0.00     0.169 C 
BRANCH  26  27
ATOM     27  C   UNL     1      13.879  24.708  40.349  1.00  0.00     0.119 C 
BRANCH  27  28
ATOM     28  N   UNL     1      14.180  23.938  41.535  1.00  0.00    -0.092 NA
ATOM     29  N   UNL     1      14.052  22.722  41.491  1.00  0.00     0.001 N 
ATOM     30  N   UNL     1      14.265  21.511  41.671  1.00  0.00    -0.003 NA
ENDBRANCH  27  28
ENDBRANCH  26  27
ENDBRANCH  25  26
ENDBRANCH  19  25
BRANCH  20  31
ATOM     31  O   UNL     1      13.064  24.959  35.378  1.00  0.00    -0.387 OA
ATOM     32  H   UNL     1      13.201  24.073  35.797  1.00  0.00     0.211 HD
ENDBRANCH  20  31
BRANCH  21  33
ATOM     33  O   UNL     1      11.325  27.368  37.008  1.00  0.00    -0.385 OA
ATOM     34  H   UNL     1      11.811  27.960  36.370  1.00  0.00     0.211 HD
ENDBRANCH  21  33
ENDBRANCH  15  16
ENDBRANCH  10  15
BRANCH  12  35
ATOM     35  O   UNL     1       6.766  23.998  37.330  1.00  0.00    -0.385 OA
ATOM     36  H   UNL     1       5.890  24.477  37.296  1.00  0.00     0.211 HD
ENDBRANCH  12  35
BRANCH  13  37
ATOM     37  O   UNL     1       7.820  26.980  35.781  1.00  0.00    -0.387 OA
ATOM     38  H   UNL     1       8.130  27.367  36.640  1.00  0.00     0.211 HD
ENDBRANCH  13  37
BRANCH  14  39
ATOM     39  O   UNL     1       6.553  26.287  33.813  1.00  0.00    -0.387 OA
ATOM     40  H   UNL     1       7.521  26.294  33.731  1.00  0.00     0.211 HD
ENDBRANCH  14  39
ENDBRANCH   8   9
ENDBRANCH   7   8
ENDBRANCH   1   7
BRANCH   1  41
ATOM     41  C   UNL     1       2.855  24.595  31.439  1.00  0.00     0.364 C 
ATOM     42  O   UNL     1       1.725  25.107  31.662  1.00  0.00    -0.246 OA
BRANCH  41  43
ATOM     43  O   UNL     1       3.437  24.860  30.220  1.00  0.00    -0.477 OA
ATOM     44  H   UNL     1       3.879  24.143  29.631  1.00  0.00     0.296 HD
ENDBRANCH  41  43
ENDBRANCH   1  41
BRANCH   3  45
ATOM     45  O   UNL     1       3.587  22.007  35.206  1.00  0.00    -0.391 OA
ATOM     46  H   UNL     1       3.328  22.799  35.719  1.00  0.00     0.211 HD
ENDBRANCH   3  45
BRANCH   5  47
ATOM     47  C   UNL     1       3.292  20.723  30.538  1.00  0.00     0.176 C 
BRANCH  47  48
ATOM     48  O   UNL     1       4.650  20.407  30.306  1.00  0.00    -0.388 OA
ATOM     49  H   UNL     1       5.094  21.167  29.812  1.00  0.00     0.211 HD
ENDBRANCH  47  48
BRANCH  47  50
ATOM     50  C   UNL     1       2.654  21.215  29.269  1.00  0.00     0.165 C 
BRANCH  50  51
ATOM     51  O   UNL     1       3.450  22.185  28.693  1.00  0.00    -0.388 OA
ATOM     52  H   UNL     1       4.405  21.915  28.645  1.00  0.00     0.211 HD
ENDBRANCH  50  51
BRANCH  50  53
ATOM     53  C   UNL     1       1.292  21.745  29.643  1.00  0.00     0.154 C 
BRANCH  53  54
ATOM     54  N   UNL     1       0.951  23.021  29.126  1.00  0.00    -0.319 N 
ATOM     55  C   UNL     1       0.332  23.175  27.859  1.00  0.00     0.407 C 
ATOM     56  H   UNL     1       1.148  23.895  29.673  1.00  0.00     0.167 HD
ATOM     57  O   UNL     1       0.097  22.166  27.168  1.00  0.00    -0.225 OA
BRANCH  55  58
ATOM     58  O   UNL     1      -0.021  24.450  27.376  1.00  0.00    -0.443 OA
BRANCH  58  59
ATOM     59  C   UNL     1       0.559  24.898  26.176  1.00  0.00     0.294 C 
BRANCH  59  60
ATOM     60  C   UNL     1       1.951  25.360  26.390  1.00  0.00     0.121 A 
ATOM     61  C   UNL     1       2.792  26.055  25.553  1.00  0.00     0.144 A 
ATOM     62  N   UNL     1       2.710  25.146  27.504  1.00  0.00    -0.131 NA
ATOM     63  N   UNL     1       3.996  26.246  26.135  1.00  0.00    -0.220 N 
ATOM     64  N   UNL     1       3.905  25.673  27.335  1.00  0.00    -0.062 NA
BRANCH  63  65
ATOM     65  C   UNL     1       5.121  26.893  25.567  1.00  0.00     0.071 A 
ATOM     66  C   UNL     1       6.375  26.412  25.911  1.00  0.00     0.064 A 
ATOM     67  C   UNL     1       5.071  27.953  24.686  1.00  0.00     0.057 A 
ATOM     68  C   UNL     1       7.499  27.005  25.366  1.00  0.00     0.151 A 
ATOM     69  C   UNL     1       6.181  28.530  24.153  1.00  0.00     0.073 A 
ATOM     70  N   UNL     1       7.385  28.040  24.508  1.00  0.00    -0.241 NA
BRANCH  68  71
ATOM     71  C   UNL     1       8.830  26.520  25.705  1.00  0.00     0.354 C 
ATOM     72  O   UNL     1       9.805  26.967  25.051  1.00  0.00    -0.245 OA
BRANCH  71  73
ATOM     73  O   UNL     1       9.082  25.604  26.698  1.00  0.00    -0.477 OA
ATOM     74  H   UNL     1       9.699  24.793  26.565  1.00  0.00     0.297 HD
ENDBRANCH  71  73
ENDBRANCH  68  71
BRANCH  69  75
ATOM     75  C   UNL     1       6.104  29.646  23.218  1.00  0.00     0.000 A 
ATOM     76  C   UNL     1       7.066  30.649  23.319  1.00  0.00     0.010 A 
ATOM     77  C   UNL     1       5.148  29.767  22.252  1.00  0.00     0.010 A 
ATOM     78  C   UNL     1       7.074  31.733  22.482  1.00  0.00     0.001 A 
ATOM     79  C   UNL     1       5.164  30.867  21.412  1.00  0.00     0.001 A 
ATOM     80  C   UNL     1       6.103  31.853  21.504  1.00  0.00     0.000 A 
ENDBRANCH  69  75
ENDBRANCH  63  65
ENDBRANCH  59  60
ENDBRANCH  58  59
ENDBRANCH  55  58
ENDBRANCH  53  54
ENDBRANCH  50  53
ENDBRANCH  47  50
ENDBRANCH   5  47
BRANCH   4  81
ATOM     81  N   UNL     1       2.670  19.680  33.120  1.00  0.00    -0.348 N 
ATOM     82  C   UNL     1       3.007  18.734  34.122  1.00  0.00     0.217 C 
ATOM     83  H   UNL     1       1.921  19.478  32.419  1.00  0.00     0.163 HD
ATOM     84  C   UNL     1       2.325  17.418  34.239  1.00  0.00     0.114 C 
ATOM     85  O   UNL     1       3.923  18.987  34.974  1.00  0.00    -0.275 OA
ENDBRANCH   4  81
TORSDOF 33
