REMARK VINA RESULT:    -5.611      2.890      7.202
REMARK INTER + INTRA:         -21.899
REMARK INTER:                 -14.769
REMARK INTRA:                  -7.130
REMARK UNBOUND:                -7.759
REMARK SMILES CC(=O)N[C@@H]1[C@@H](O)C[C@](OC[C@H]2O[C@@H](O[C@H]3[C@H](O)[C@@H](O)[C@H](OCCN=[N+]=[N-])O[C@@H]3CO)[C@H](O)[C@@H](O)[C@H]2O)(C(=O)O)O[C@H]1C(O)[C@H](O)CNC(=O)OCc1cn(-c2cc(Cl)ccc2C(=O)N(C)C)nn1
REMARK SMILES IDX 9 1 8 2 6 3 5 4 42 5 41 6 10 7 11 8 12 9 14 10 13 11 32 12
REMARK SMILES IDX 34 13 36 14 15 15 16 16 29 17 28 18 21 19 17 20 19 21 30 22
REMARK SMILES IDX 31 23 22 25 23 26 24 27 25 28 26 29 27 30 18 31 20 33 33 35
REMARK SMILES IDX 35 37 37 39 38 41 39 42 40 43 7 45 43 47 44 48 45 50 46 51
REMARK SMILES IDX 47 53 48 54 49 55 50 57 51 58 52 59 53 60 54 61 69 62 55 63
REMARK SMILES IDX 68 64 56 65 57 66 62 67 58 68 61 69 59 70 60 71 63 72 64 73
REMARK SMILES IDX 65 74 66 75 67 76 4 77 2 78 1 80 3 81
REMARK H PARENT 31 24 18 32 20 34 33 36 35 38 37 40 40 44 7 46 44 49 46 52
REMARK H PARENT 48 56 4 79
REMARK Flexibility Score: inf
ROOT
ATOM      1  C   UNL     1      20.038  30.043  22.277  1.00  0.00     0.272 C 
ATOM      2  C   UNL     1      20.924  31.130  22.755  1.00  0.00     0.113 C 
ATOM      3  C   UNL     1      22.218  30.557  23.275  1.00  0.00     0.145 C 
ATOM      4  C   UNL     1      21.855  29.623  24.405  1.00  0.00     0.142 C 
ATOM      5  C   UNL     1      20.892  28.598  23.973  1.00  0.00     0.178 C 
ATOM      6  O   UNL     1      20.077  28.843  22.914  1.00  0.00    -0.332 OA
ENDROOT
BRANCH   1   7
ATOM      7  O   UNL     1      20.222  29.787  20.928  1.00  0.00    -0.338 OA
BRANCH   7   8
ATOM      8  C   UNL     1      19.802  28.606  20.426  1.00  0.00     0.199 C 
BRANCH   8   9
ATOM      9  C   UNL     1      19.652  28.719  18.901  1.00  0.00     0.179 C 
ATOM     10  C   UNL     1      17.960  28.411  17.364  1.00  0.00     0.282 C 
ATOM     11  O   UNL     1      18.664  27.867  18.501  1.00  0.00    -0.341 OA
ATOM     12  C   UNL     1      19.011  28.952  16.421  1.00  0.00     0.202 C 
ATOM     13  C   UNL     1      19.675  30.189  16.987  1.00  0.00     0.179 C 
ATOM     14  C   UNL     1      19.586  30.133  18.502  1.00  0.00     0.177 C 
BRANCH  10  15
ATOM     15  O   UNL     1      17.105  29.299  17.861  1.00  0.00    -0.341 OA
BRANCH  15  16
ATOM     16  C   UNL     1      15.903  28.928  18.437  1.00  0.00     0.184 C 
ATOM     17  C   UNL     1      14.990  30.103  18.299  1.00  0.00     0.178 C 
ATOM     18  O   UNL     1      13.742  29.817  18.880  1.00  0.00    -0.341 OA
ATOM     19  C   UNL     1      14.049  29.940  20.279  1.00  0.00     0.281 C 
ATOM     20  C   UNL     1      16.099  28.580  19.890  1.00  0.00     0.180 C 
ATOM     21  C   UNL     1      14.837  28.749  20.681  1.00  0.00     0.202 C 
BRANCH  17  22
ATOM     22  C   UNL     1      14.800  30.485  16.846  1.00  0.00     0.191 C 
BRANCH  22  23
ATOM     23  O   UNL     1      14.723  29.332  16.095  1.00  0.00    -0.394 OA
ATOM     24  H   UNL     1      15.492  29.279  15.474  1.00  0.00     0.210 HD
ENDBRANCH  22  23
ENDBRANCH  17  22
BRANCH  19  25
ATOM     25  O   UNL     1      12.895  30.096  20.943  1.00  0.00    -0.350 OA
BRANCH  25  26
ATOM     26  C   UNL     1      12.689  31.344  21.504  1.00  0.00     0.169 C 
BRANCH  26  27
ATOM     27  C   UNL     1      12.636  31.329  23.018  1.00  0.00     0.119 C 
BRANCH  27  28
ATOM     28  N   UNL     1      13.958  31.153  23.579  1.00  0.00    -0.092 NA
ATOM     29  N   UNL     1      14.865  31.927  23.293  1.00  0.00     0.001 N 
ATOM     30  N   UNL     1      15.628  32.859  22.962  1.00  0.00    -0.003 NA
ENDBRANCH  27  28
ENDBRANCH  26  27
ENDBRANCH  25  26
ENDBRANCH  19  25
BRANCH  20  31
ATOM     31  O   UNL     1      16.504  27.250  20.050  1.00  0.00    -0.387 OA
ATOM     32  H   UNL     1      17.500  27.177  19.982  1.00  0.00     0.211 HD
ENDBRANCH  20  31
BRANCH  21  33
ATOM     33  O   UNL     1      15.163  28.831  22.032  1.00  0.00    -0.385 OA
ATOM     34  H   UNL     1      14.422  28.595  22.631  1.00  0.00     0.211 HD
ENDBRANCH  21  33
ENDBRANCH  15  16
ENDBRANCH  10  15
BRANCH  12  35
ATOM     35  O   UNL     1      20.009  27.961  16.332  1.00  0.00    -0.385 OA
ATOM     36  H   UNL     1      19.995  27.356  17.140  1.00  0.00     0.211 HD
ENDBRANCH  12  35
BRANCH  13  37
ATOM     37  O   UNL     1      19.135  31.373  16.560  1.00  0.00    -0.387 OA
ATOM     38  H   UNL     1      18.749  31.919  17.286  1.00  0.00     0.211 HD
ENDBRANCH  13  37
BRANCH  14  39
ATOM     39  O   UNL     1      18.610  30.918  19.045  1.00  0.00    -0.387 OA
ATOM     40  H   UNL     1      17.700  30.549  18.995  1.00  0.00     0.211 HD
ENDBRANCH  14  39
ENDBRANCH   8   9
ENDBRANCH   7   8
ENDBRANCH   1   7
BRANCH   1  41
ATOM     41  C   UNL     1      18.586  30.554  22.348  1.00  0.00     0.364 C 
ATOM     42  O   UNL     1      17.790  29.843  23.002  1.00  0.00    -0.246 OA
BRANCH  41  43
ATOM     43  O   UNL     1      18.162  31.698  21.749  1.00  0.00    -0.477 OA
ATOM     44  H   UNL     1      18.741  32.363  21.287  1.00  0.00     0.296 HD
ENDBRANCH  41  43
ENDBRANCH   1  41
BRANCH   3  45
ATOM     45  O   UNL     1      22.919  29.985  22.253  1.00  0.00    -0.391 OA
ATOM     46  H   UNL     1      23.817  30.291  22.091  1.00  0.00     0.211 HD
ENDBRANCH   3  45
BRANCH   5  47
ATOM     47  C   UNL     1      21.474  27.209  23.747  1.00  0.00     0.176 C 
BRANCH  47  48
ATOM     48  O   UNL     1      20.871  26.212  24.460  1.00  0.00    -0.388 OA
ATOM     49  H   UNL     1      21.471  25.714  25.076  1.00  0.00     0.211 HD
ENDBRANCH  47  48
BRANCH  47  50
ATOM     50  C   UNL     1      21.656  26.806  22.330  1.00  0.00     0.165 C 
BRANCH  50  51
ATOM     51  O   UNL     1      20.793  25.749  21.954  1.00  0.00    -0.388 OA
ATOM     52  H   UNL     1      20.360  25.346  22.744  1.00  0.00     0.211 HD
ENDBRANCH  50  51
BRANCH  50  53
ATOM     53  C   UNL     1      23.050  26.143  22.252  1.00  0.00     0.154 C 
BRANCH  53  54
ATOM     54  N   UNL     1      23.609  26.004  23.568  1.00  0.00    -0.319 N 
ATOM     55  C   UNL     1      24.337  24.857  23.940  1.00  0.00     0.407 C 
ATOM     56  H   UNL     1      23.491  26.761  24.305  1.00  0.00     0.167 HD
ATOM     57  O   UNL     1      24.541  23.929  23.124  1.00  0.00    -0.225 OA
BRANCH  55  58
ATOM     58  O   UNL     1      24.855  24.716  25.233  1.00  0.00    -0.443 OA
BRANCH  58  59
ATOM     59  C   UNL     1      24.059  24.298  26.307  1.00  0.00     0.294 C 
BRANCH  59  60
ATOM     60  C   UNL     1      23.408  25.464  26.979  1.00  0.00     0.121 A 
ATOM     61  C   UNL     1      22.915  25.441  28.299  1.00  0.00     0.144 A 
ATOM     62  N   UNL     1      23.164  26.688  26.534  1.00  0.00    -0.131 NA
ATOM     63  N   UNL     1      22.406  26.631  28.585  1.00  0.00    -0.219 N 
ATOM     64  N   UNL     1      22.575  27.372  27.481  1.00  0.00    -0.062 NA
BRANCH  63  65
ATOM     65  C   UNL     1      21.795  27.155  29.749  1.00  0.00     0.081 A 
ATOM     66  C   UNL     1      20.417  26.982  29.934  1.00  0.00     0.049 A 
ATOM     67  C   UNL     1      22.442  27.861  30.722  1.00  0.00     0.065 A 
ATOM     68  C   UNL     1      19.776  27.492  31.015  1.00  0.00     0.043 A 
ATOM     69  C   UNL     1      21.777  28.391  31.844  1.00  0.00     0.017 A 
ATOM     70  Cl  UNL     1      18.045  27.239  31.186  1.00  0.00    -0.084 Cl
ATOM     71  C   UNL     1      20.425  28.201  31.988  1.00  0.00     0.021 A 
BRANCH  67  72
ATOM     72  C   UNL     1      23.892  28.073  30.683  1.00  0.00     0.255 C 
ATOM     73  O   UNL     1      24.326  29.148  30.221  1.00  0.00    -0.269 OA
ATOM     74  N   UNL     1      24.763  27.088  31.156  1.00  0.00    -0.345 N 
ATOM     75  C   UNL     1      24.240  25.834  31.693  1.00  0.00     0.146 C 
ATOM     76  C   UNL     1      26.211  27.278  31.138  1.00  0.00     0.146 C 
ENDBRANCH  67  72
ENDBRANCH  63  65
ENDBRANCH  59  60
ENDBRANCH  58  59
ENDBRANCH  55  58
ENDBRANCH  53  54
ENDBRANCH  50  53
ENDBRANCH  47  50
ENDBRANCH   5  47
BRANCH   4  77
ATOM     77  N   UNL     1      21.350  30.469  25.490  1.00  0.00    -0.348 N 
ATOM     78  C   UNL     1      22.168  30.906  26.553  1.00  0.00     0.217 C 
ATOM     79  H   UNL     1      20.354  30.762  25.493  1.00  0.00     0.163 HD
ATOM     80  C   UNL     1      21.665  31.761  27.656  1.00  0.00     0.114 C 
ATOM     81  O   UNL     1      23.379  30.559  26.567  1.00  0.00    -0.275 OA
ENDBRANCH   4  77
TORSDOF 31
