REMARK VINA RESULT:    -5.697      8.964     13.861
REMARK INTER + INTRA:         -21.942
REMARK INTER:                 -14.398
REMARK INTRA:                  -7.544
REMARK UNBOUND:                -7.585
REMARK SMILES COc1ccc(-n2cc(COC(=O)NC[C@@H](O)C(O)[C@@H]3O[C@@](OC[C@H]4O[C@@H](O[C@H]5[C@H](O)[C@@H](O)[C@H](OCCN=[N+]=[N-])O[C@@H]5CO)[C@H](O)[C@@H](O)[C@H]4O)(C(=O)O)C[C@H](O)[C@H]3NC(C)=O)nn2)cc1
REMARK SMILES IDX 22 1 54 2 55 3 57 4 20 5 21 6 23 7 24 8 25 9 27 10 26 11
REMARK SMILES IDX 45 12 47 13 49 14 28 15 29 16 42 17 41 18 34 19 30 20 32 21
REMARK SMILES IDX 43 22 44 23 35 25 36 26 37 27 38 28 39 29 40 30 31 31 33 33
REMARK SMILES IDX 46 35 48 37 50 39 51 41 52 42 53 43 56 45 18 47 19 48 16 50
REMARK SMILES IDX 17 51 15 53 14 54 12 55 13 57 11 58 10 59 9 60 8 61 62 62
REMARK SMILES IDX 7 63 63 64 6 65 5 66 64 67 4 68 65 69 3 70 2 71 1 72 58 73
REMARK SMILES IDX 59 74 60 76 61 77
REMARK H PARENT 44 24 31 32 33 34 46 36 48 38 50 40 53 44 56 46 19 49 17 52
REMARK H PARENT 14 56 58 75
REMARK Flexibility Score: inf
ROOT
ATOM      1  C   UNL     1      22.876  25.297  22.813  1.00  0.00     0.272 C 
ATOM      2  C   UNL     1      22.911  24.651  21.479  1.00  0.00     0.113 C 
ATOM      3  C   UNL     1      23.975  25.082  20.548  1.00  0.00     0.145 C 
ATOM      4  C   UNL     1      24.439  26.489  20.976  1.00  0.00     0.142 C 
ATOM      5  C   UNL     1      23.234  27.218  21.454  1.00  0.00     0.178 C 
ATOM      6  O   UNL     1      22.910  26.700  22.707  1.00  0.00    -0.332 OA
ENDROOT
BRANCH   1   7
ATOM      7  O   UNL     1      23.590  24.940  23.833  1.00  0.00    -0.338 OA
BRANCH   7   8
ATOM      8  C   UNL     1      24.626  25.275  24.507  1.00  0.00     0.199 C 
BRANCH   8   9
ATOM      9  C   UNL     1      24.589  26.020  25.810  1.00  0.00     0.179 C 
ATOM     10  C   UNL     1      23.725  27.764  27.008  1.00  0.00     0.282 C 
ATOM     11  O   UNL     1      23.636  26.980  25.845  1.00  0.00    -0.341 OA
ATOM     12  C   UNL     1      23.569  26.986  28.275  1.00  0.00     0.202 C 
ATOM     13  C   UNL     1      23.786  25.523  28.166  1.00  0.00     0.179 C 
ATOM     14  C   UNL     1      24.573  25.087  26.997  1.00  0.00     0.177 C 
BRANCH  10  15
ATOM     15  O   UNL     1      22.716  28.720  26.931  1.00  0.00    -0.341 OA
BRANCH  15  16
ATOM     16  C   UNL     1      22.370  29.034  25.645  1.00  0.00     0.184 C 
ATOM     17  C   UNL     1      22.660  30.448  25.298  1.00  0.00     0.178 C 
ATOM     18  O   UNL     1      22.191  30.751  23.991  1.00  0.00    -0.341 OA
ATOM     19  C   UNL     1      20.776  30.763  24.099  1.00  0.00     0.281 C 
ATOM     20  C   UNL     1      20.863  28.766  25.482  1.00  0.00     0.180 C 
ATOM     21  C   UNL     1      20.406  29.278  24.142  1.00  0.00     0.202 C 
BRANCH  17  22
ATOM     22  C   UNL     1      24.132  30.759  25.372  1.00  0.00     0.191 C 
BRANCH  22  23
ATOM     23  O   UNL     1      24.578  31.136  24.117  1.00  0.00    -0.394 OA
ATOM     24  H   UNL     1      23.927  30.947  23.405  1.00  0.00     0.210 HD
ENDBRANCH  22  23
ENDBRANCH  17  22
BRANCH  19  25
ATOM     25  O   UNL     1      20.203  31.404  23.056  1.00  0.00    -0.350 OA
BRANCH  25  26
ATOM     26  C   UNL     1      19.427  32.499  23.274  1.00  0.00     0.169 C 
BRANCH  26  27
ATOM     27  C   UNL     1      18.668  32.562  24.557  1.00  0.00     0.119 C 
BRANCH  27  28
ATOM     28  N   UNL     1      17.446  31.816  24.598  1.00  0.00    -0.092 NA
ATOM     29  N   UNL     1      16.919  31.514  25.663  1.00  0.00     0.001 N 
ATOM     30  N   UNL     1      16.565  31.177  26.797  1.00  0.00    -0.003 NA
ENDBRANCH  27  28
ENDBRANCH  26  27
ENDBRANCH  25  26
ENDBRANCH  19  25
BRANCH  20  31
ATOM     31  O   UNL     1      20.635  27.410  25.628  1.00  0.00    -0.387 OA
ATOM     32  H   UNL     1      21.242  27.090  26.366  1.00  0.00     0.211 HD
ENDBRANCH  20  31
BRANCH  21  33
ATOM     33  O   UNL     1      19.038  29.178  24.028  1.00  0.00    -0.385 OA
ATOM     34  H   UNL     1      18.591  30.026  24.274  1.00  0.00     0.211 HD
ENDBRANCH  21  33
ENDBRANCH  15  16
ENDBRANCH  10  15
BRANCH  12  35
ATOM     35  O   UNL     1      24.440  27.451  29.275  1.00  0.00    -0.385 OA
ATOM     36  H   UNL     1      25.115  26.774  29.506  1.00  0.00     0.211 HD
ENDBRANCH  12  35
BRANCH  13  37
ATOM     37  O   UNL     1      22.571  24.843  28.308  1.00  0.00    -0.387 OA
ATOM     38  H   UNL     1      21.794  25.383  28.057  1.00  0.00     0.211 HD
ENDBRANCH  13  37
BRANCH  14  39
ATOM     39  O   UNL     1      24.165  23.800  26.635  1.00  0.00    -0.387 OA
ATOM     40  H   UNL     1      23.187  23.757  26.788  1.00  0.00     0.211 HD
ENDBRANCH  14  39
ENDBRANCH   8   9
ENDBRANCH   7   8
ENDBRANCH   1   7
BRANCH   1  41
ATOM     41  C   UNL     1      21.388  25.094  23.243  1.00  0.00     0.364 C 
ATOM     42  O   UNL     1      21.114  24.752  24.396  1.00  0.00    -0.246 OA
BRANCH  41  43
ATOM     43  O   UNL     1      20.442  25.317  22.274  1.00  0.00    -0.477 OA
ATOM     44  H   UNL     1      19.693  24.637  22.081  1.00  0.00     0.296 HD
ENDBRANCH  41  43
ENDBRANCH   1  41
BRANCH   3  45
ATOM     45  O   UNL     1      25.019  24.225  20.359  1.00  0.00    -0.391 OA
ATOM     46  H   UNL     1      25.814  24.381  20.916  1.00  0.00     0.211 HD
ENDBRANCH   3  45
BRANCH   5  47
ATOM     47  C   UNL     1      23.488  28.723  21.706  1.00  0.00     0.176 C 
BRANCH  47  48
ATOM     48  O   UNL     1      24.756  28.934  22.154  1.00  0.00    -0.388 OA
ATOM     49  H   UNL     1      24.997  28.234  22.804  1.00  0.00     0.211 HD
ENDBRANCH  47  48
BRANCH  47  50
ATOM     50  C   UNL     1      22.864  29.565  20.717  1.00  0.00     0.165 C 
BRANCH  50  51
ATOM     51  O   UNL     1      21.532  29.978  20.996  1.00  0.00    -0.388 OA
ATOM     52  H   UNL     1      20.995  29.161  20.967  1.00  0.00     0.211 HD
ENDBRANCH  50  51
BRANCH  50  53
ATOM     53  C   UNL     1      22.869  29.300  19.269  1.00  0.00     0.154 C 
BRANCH  53  54
ATOM     54  N   UNL     1      21.661  29.102  18.604  1.00  0.00    -0.319 N 
ATOM     55  C   UNL     1      21.160  27.888  18.113  1.00  0.00     0.407 C 
ATOM     56  H   UNL     1      21.032  29.962  18.441  1.00  0.00     0.167 HD
ATOM     57  O   UNL     1      21.773  26.817  18.252  1.00  0.00    -0.225 OA
BRANCH  55  58
ATOM     58  O   UNL     1      19.917  27.878  17.439  1.00  0.00    -0.443 OA
BRANCH  58  59
ATOM     59  C   UNL     1      19.090  29.003  17.597  1.00  0.00     0.294 C 
BRANCH  59  60
ATOM     60  C   UNL     1      17.948  28.666  18.480  1.00  0.00     0.121 A 
ATOM     61  C   UNL     1      17.329  29.424  19.456  1.00  0.00     0.144 A 
ATOM     62  N   UNL     1      17.288  27.492  18.444  1.00  0.00    -0.131 NA
ATOM     63  N   UNL     1      16.334  28.689  19.966  1.00  0.00    -0.220 N 
ATOM     64  N   UNL     1      16.330  27.512  19.332  1.00  0.00    -0.062 NA
BRANCH  63  65
ATOM     65  C   UNL     1      15.377  28.966  20.977  1.00  0.00     0.067 A 
ATOM     66  C   UNL     1      14.024  28.852  20.807  1.00  0.00     0.032 A 
ATOM     67  C   UNL     1      15.828  29.392  22.225  1.00  0.00     0.032 A 
ATOM     68  C   UNL     1      13.143  29.150  21.837  1.00  0.00     0.048 A 
ATOM     69  C   UNL     1      14.951  29.689  23.250  1.00  0.00     0.048 A 
ATOM     70  C   UNL     1      13.588  29.573  23.076  1.00  0.00     0.119 A 
BRANCH  70  71
ATOM     71  O   UNL     1      12.682  29.873  24.112  1.00  0.00    -0.497 OA
ATOM     72  C   UNL     1      13.213  30.542  25.265  1.00  0.00     0.278 C 
ENDBRANCH  70  71
ENDBRANCH  63  65
ENDBRANCH  59  60
ENDBRANCH  58  59
ENDBRANCH  55  58
ENDBRANCH  53  54
ENDBRANCH  50  53
ENDBRANCH  47  50
ENDBRANCH   5  47
BRANCH   4  73
ATOM     73  N   UNL     1      25.194  27.068  19.900  1.00  0.00    -0.348 N 
ATOM     74  C   UNL     1      26.559  27.420  20.063  1.00  0.00     0.217 C 
ATOM     75  H   UNL     1      24.744  27.204  18.978  1.00  0.00     0.163 HD
ATOM     76  C   UNL     1      27.317  28.019  18.934  1.00  0.00     0.114 C 
ATOM     77  O   UNL     1      27.181  27.248  21.145  1.00  0.00    -0.275 OA
ENDBRANCH   4  73
TORSDOF 31
