REMARK VINA RESULT:    -6.275      7.821     11.537
REMARK INTER + INTRA:         -21.163
REMARK INTER:                 -13.174
REMARK INTRA:                  -7.989
REMARK UNBOUND:                -5.351
REMARK SMILES CC(=O)N[C@@H]1[C@@H](O)C[C@](OC[C@H]2O[C@@H](O[C@H]3[C@H](O)[C@@H](O)[C@H](OCCN=[N+]=[N-])O[C@@H]3CO)[C@H](O)[C@@H](O)[C@H]2O)(C(=O)O)O[C@H]1C(O)[C@H](O)CNC(=O)OCc1cn(-c2ccc([N+](=O)[O-])cc2)nn1
REMARK SMILES IDX 9 1 8 2 6 3 5 4 42 5 41 6 10 7 11 8 12 9 14 10 13 11 32 12
REMARK SMILES IDX 34 13 36 14 15 15 16 16 29 17 28 18 21 19 17 20 19 21 30 22
REMARK SMILES IDX 31 23 22 25 23 26 24 27 25 28 26 29 27 30 18 31 20 33 33 35
REMARK SMILES IDX 35 37 37 39 38 41 39 42 40 43 7 45 43 47 44 48 45 50 46 51
REMARK SMILES IDX 47 53 48 54 49 55 50 57 51 58 52 59 53 60 54 61 66 62 55 63
REMARK SMILES IDX 65 64 56 65 57 66 64 67 58 68 63 69 59 70 60 71 61 72 62 73
REMARK SMILES IDX 4 74 2 75 1 77 3 78
REMARK H PARENT 31 24 18 32 20 34 33 36 35 38 37 40 40 44 7 46 44 49 46 52
REMARK H PARENT 48 56 4 76
REMARK Flexibility Score: inf
ROOT
ATOM      1  C   UNL     1      20.107  31.697  15.543  1.00  0.00     0.272 C 
ATOM      2  C   UNL     1      21.463  32.064  15.035  1.00  0.00     0.113 C 
ATOM      3  C   UNL     1      22.270  30.857  14.819  1.00  0.00     0.145 C 
ATOM      4  C   UNL     1      21.715  29.560  15.436  1.00  0.00     0.142 C 
ATOM      5  C   UNL     1      21.064  29.878  16.700  1.00  0.00     0.178 C 
ATOM      6  O   UNL     1      20.264  31.016  16.737  1.00  0.00    -0.332 OA
ENDROOT
BRANCH   1   7
ATOM      7  O   UNL     1      19.290  31.075  14.651  1.00  0.00    -0.338 OA
BRANCH   7   8
ATOM      8  C   UNL     1      18.009  30.851  15.041  1.00  0.00     0.199 C 
BRANCH   8   9
ATOM      9  C   UNL     1      17.709  29.363  15.168  1.00  0.00     0.179 C 
ATOM     10  C   UNL     1      15.729  29.103  16.387  1.00  0.00     0.282 C 
ATOM     11  O   UNL     1      17.086  29.034  16.343  1.00  0.00    -0.341 OA
ATOM     12  C   UNL     1      14.998  29.470  15.161  1.00  0.00     0.202 C 
ATOM     13  C   UNL     1      15.616  28.842  13.940  1.00  0.00     0.179 C 
ATOM     14  C   UNL     1      17.099  28.744  13.962  1.00  0.00     0.177 C 
BRANCH  10  15
ATOM     15  O   UNL     1      15.386  29.858  17.504  1.00  0.00    -0.341 OA
BRANCH  15  16
ATOM     16  C   UNL     1      16.359  30.098  18.416  1.00  0.00     0.184 C 
ATOM     17  C   UNL     1      16.131  29.436  19.757  1.00  0.00     0.178 C 
ATOM     18  O   UNL     1      17.180  29.817  20.619  1.00  0.00    -0.341 OA
ATOM     19  C   UNL     1      16.998  31.148  20.992  1.00  0.00     0.281 C 
ATOM     20  C   UNL     1      16.295  31.606  18.727  1.00  0.00     0.180 C 
ATOM     21  C   UNL     1      17.369  31.953  19.740  1.00  0.00     0.202 C 
BRANCH  17  22
ATOM     22  C   UNL     1      16.155  27.930  19.717  1.00  0.00     0.191 C 
BRANCH  22  23
ATOM     23  O   UNL     1      17.251  27.600  18.881  1.00  0.00    -0.394 OA
ATOM     24  H   UNL     1      16.935  27.384  17.964  1.00  0.00     0.210 HD
ENDBRANCH  22  23
ENDBRANCH  17  22
BRANCH  19  25
ATOM     25  O   UNL     1      17.867  31.488  21.997  1.00  0.00    -0.350 OA
BRANCH  25  26
ATOM     26  C   UNL     1      18.272  30.464  22.814  1.00  0.00     0.169 C 
BRANCH  26  27
ATOM     27  C   UNL     1      19.755  30.384  23.047  1.00  0.00     0.119 C 
BRANCH  27  28
ATOM     28  N   UNL     1      20.133  28.971  23.115  1.00  0.00    -0.092 NA
ATOM     29  N   UNL     1      21.297  28.649  22.925  1.00  0.00     0.001 N 
ATOM     30  N   UNL     1      22.488  28.387  22.966  1.00  0.00    -0.003 NA
ENDBRANCH  27  28
ENDBRANCH  26  27
ENDBRANCH  25  26
ENDBRANCH  19  25
BRANCH  20  31
ATOM     31  O   UNL     1      16.353  32.369  17.594  1.00  0.00    -0.387 OA
ATOM     32  H   UNL     1      17.229  32.427  17.166  1.00  0.00     0.211 HD
ENDBRANCH  20  31
BRANCH  21  33
ATOM     33  O   UNL     1      17.376  33.302  19.970  1.00  0.00    -0.385 OA
ATOM     34  H   UNL     1      17.709  33.471  20.884  1.00  0.00     0.211 HD
ENDBRANCH  21  33
ENDBRANCH  15  16
ENDBRANCH  10  15
BRANCH  12  35
ATOM     35  O   UNL     1      13.704  28.918  15.223  1.00  0.00    -0.385 OA
ATOM     36  H   UNL     1      13.057  29.546  15.595  1.00  0.00     0.211 HD
ENDBRANCH  12  35
BRANCH  13  37
ATOM     37  O   UNL     1      15.157  29.533  12.792  1.00  0.00    -0.387 OA
ATOM     38  H   UNL     1      14.332  29.984  13.037  1.00  0.00     0.211 HD
ENDBRANCH  13  37
BRANCH  14  39
ATOM     39  O   UNL     1      17.733  29.211  12.819  1.00  0.00    -0.387 OA
ATOM     40  H   UNL     1      18.565  28.676  12.708  1.00  0.00     0.211 HD
ENDBRANCH  14  39
ENDBRANCH   8   9
ENDBRANCH   7   8
ENDBRANCH   1   7
BRANCH   1  41
ATOM     41  C   UNL     1      19.428  32.974  15.993  1.00  0.00     0.364 C 
ATOM     42  O   UNL     1      19.095  33.835  15.156  1.00  0.00    -0.246 OA
BRANCH  41  43
ATOM     43  O   UNL     1      19.189  33.179  17.323  1.00  0.00    -0.477 OA
ATOM     44  H   UNL     1      18.640  33.944  17.706  1.00  0.00     0.296 HD
ENDBRANCH  41  43
ENDBRANCH   1  41
BRANCH   3  45
ATOM     45  O   UNL     1      22.432  30.594  13.460  1.00  0.00    -0.391 OA
ATOM     46  H   UNL     1      22.825  29.711  13.316  1.00  0.00     0.211 HD
ENDBRANCH   3  45
BRANCH   5  47
ATOM     47  C   UNL     1      20.314  28.888  17.477  1.00  0.00     0.176 C 
BRANCH  47  48
ATOM     48  O   UNL     1      20.163  27.626  16.896  1.00  0.00    -0.388 OA
ATOM     49  H   UNL     1      20.316  26.876  17.496  1.00  0.00     0.211 HD
ENDBRANCH  47  48
BRANCH  47  50
ATOM     50  C   UNL     1      20.640  28.636  18.913  1.00  0.00     0.165 C 
BRANCH  50  51
ATOM     51  O   UNL     1      19.764  29.119  19.836  1.00  0.00    -0.388 OA
ATOM     52  H   UNL     1      20.103  29.926  20.305  1.00  0.00     0.211 HD
ENDBRANCH  50  51
BRANCH  50  53
ATOM     53  C   UNL     1      22.107  28.767  19.222  1.00  0.00     0.154 C 
BRANCH  53  54
ATOM     54  N   UNL     1      22.681  27.654  19.932  1.00  0.00    -0.319 N 
ATOM     55  C   UNL     1      22.732  26.329  19.440  1.00  0.00     0.407 C 
ATOM     56  H   UNL     1      23.105  27.796  20.888  1.00  0.00     0.167 HD
ATOM     57  O   UNL     1      22.253  26.066  18.332  1.00  0.00    -0.225 OA
BRANCH  55  58
ATOM     58  O   UNL     1      23.310  25.292  20.176  1.00  0.00    -0.443 OA
BRANCH  58  59
ATOM     59  C   UNL     1      22.590  24.236  20.753  1.00  0.00     0.294 C 
BRANCH  59  60
ATOM     60  C   UNL     1      22.047  24.635  22.069  1.00  0.00     0.121 A 
ATOM     61  C   UNL     1      22.708  24.699  23.294  1.00  0.00     0.144 A 
ATOM     62  N   UNL     1      20.776  25.044  22.357  1.00  0.00    -0.131 NA
ATOM     63  N   UNL     1      21.856  25.127  24.243  1.00  0.00    -0.220 N 
ATOM     64  N   UNL     1      20.702  25.325  23.645  1.00  0.00    -0.062 NA
BRANCH  63  65
ATOM     65  C   UNL     1      22.140  25.342  25.630  1.00  0.00     0.067 A 
ATOM     66  C   UNL     1      22.726  24.403  26.445  1.00  0.00     0.035 A 
ATOM     67  C   UNL     1      21.806  26.558  26.209  1.00  0.00     0.035 A 
ATOM     68  C   UNL     1      22.971  24.661  27.792  1.00  0.00     0.088 A 
ATOM     69  C   UNL     1      22.048  26.817  27.542  1.00  0.00     0.088 A 
ATOM     70  C   UNL     1      22.634  25.876  28.361  1.00  0.00     0.269 A 
BRANCH  70  71
ATOM     71  N   UNL     1      22.888  26.127  29.739  1.00  0.00     0.062 N 
ATOM     72  O   UNL     1      23.727  25.512  30.416  1.00  0.00    -0.258 OA
ATOM     73  O   UNL     1      22.154  27.109  30.354  1.00  0.00    -0.258 OA
ENDBRANCH  70  71
ENDBRANCH  63  65
ENDBRANCH  59  60
ENDBRANCH  58  59
ENDBRANCH  55  58
ENDBRANCH  53  54
ENDBRANCH  50  53
ENDBRANCH  47  50
ENDBRANCH   5  47
BRANCH   4  74
ATOM     74  N   UNL     1      22.966  28.829  15.694  1.00  0.00    -0.348 N 
ATOM     75  C   UNL     1      23.146  27.484  15.331  1.00  0.00     0.217 C 
ATOM     76  H   UNL     1      23.734  29.349  16.154  1.00  0.00     0.163 HD
ATOM     77  C   UNL     1      24.455  26.834  15.643  1.00  0.00     0.114 C 
ATOM     78  O   UNL     1      22.264  26.820  14.765  1.00  0.00    -0.275 OA
ENDBRANCH   4  74
TORSDOF 31
