REMARK VINA RESULT:    -6.183     17.900     24.941
REMARK INTER + INTRA:         -21.466
REMARK INTER:                 -15.356
REMARK INTRA:                  -6.110
REMARK UNBOUND:                -5.342
REMARK SMILES CC(=O)N[C@@H]1[C@@H](O)C[C@](OC[C@H]2O[C@@H](O[C@H]3[C@H](O)[C@@H](O)[C@H](OCCN=[N+]=[N-])O[C@@H]3CO)[C@H](O)[C@@H](O)[C@H]2O)(C(=O)O)O[C@H]1C(O)[C@H](O)CNC(=O)OCc1cn(CCC(=O)O)nn1
REMARK SMILES IDX 43 1 42 2 9 3 8 4 41 5 6 6 5 7 10 8 11 9 12 10 14 11 13 12
REMARK SMILES IDX 32 13 34 14 36 15 15 16 16 17 29 18 28 19 21 20 17 21 19 22
REMARK SMILES IDX 30 23 31 24 22 26 23 27 24 28 25 29 26 30 27 31 18 32 20 34
REMARK SMILES IDX 33 36 35 38 37 40 38 42 39 43 40 44 7 46 4 48 2 49 1 51 3 52
REMARK SMILES IDX 44 53 45 55 46 56 47 58 48 59 49 60 50 62 51 63 52 64 53 65
REMARK SMILES IDX 54 66 62 67 55 68 61 69 56 70 57 71 58 72 59 73 60 74
REMARK H PARENT 31 25 18 33 20 35 33 37 35 39 37 41 40 45 7 47 4 50 44 54
REMARK H PARENT 46 57 48 61 60 75
REMARK Flexibility Score: inf
ROOT
ATOM      1  C   UNL     1      22.426  27.915  19.791  1.00  0.00     0.176 C 
ENDROOT
BRANCH   1   2
ATOM      2  C   UNL     1      23.015  26.774  18.996  1.00  0.00     0.178 C 
ATOM      3  C   UNL     1      23.113  25.922  16.812  1.00  0.00     0.272 C 
ATOM      4  C   UNL     1      24.097  25.069  17.593  1.00  0.00     0.113 C 
ATOM      5  O   UNL     1      22.295  26.477  17.868  1.00  0.00    -0.332 OA
ATOM      6  C   UNL     1      23.415  24.401  18.805  1.00  0.00     0.145 C 
ATOM      7  C   UNL     1      23.077  25.491  19.814  1.00  0.00     0.142 C 
BRANCH   3   8
ATOM      8  O   UNL     1      22.339  25.156  16.021  1.00  0.00    -0.338 OA
BRANCH   8   9
ATOM      9  C   UNL     1      22.567  24.718  14.814  1.00  0.00     0.199 C 
BRANCH   9  10
ATOM     10  C   UNL     1      22.701  23.321  14.383  1.00  0.00     0.179 C 
ATOM     11  C   UNL     1      22.034  21.571  13.053  1.00  0.00     0.282 C 
ATOM     12  O   UNL     1      21.773  22.833  13.505  1.00  0.00    -0.341 OA
ATOM     13  C   UNL     1      23.265  20.914  13.611  1.00  0.00     0.202 C 
ATOM     14  C   UNL     1      24.464  21.842  13.593  1.00  0.00     0.179 C 
ATOM     15  C   UNL     1      24.034  23.291  13.548  1.00  0.00     0.177 C 
BRANCH  11  16
ATOM     16  O   UNL     1      22.138  21.486  11.665  1.00  0.00    -0.341 OA
BRANCH  16  17
ATOM     17  C   UNL     1      20.949  21.114  11.042  1.00  0.00     0.184 C 
ATOM     18  C   UNL     1      20.458  19.855  11.665  1.00  0.00     0.178 C 
ATOM     19  O   UNL     1      20.477  18.747  10.800  1.00  0.00    -0.341 OA
ATOM     20  C   UNL     1      21.792  18.711  10.293  1.00  0.00     0.281 C 
ATOM     21  C   UNL     1      21.226  21.014   9.571  1.00  0.00     0.180 C 
ATOM     22  C   UNL     1      21.814  19.703   9.152  1.00  0.00     0.202 C 
BRANCH  18  23
ATOM     23  C   UNL     1      19.038  20.012  12.188  1.00  0.00     0.191 C 
BRANCH  23  24
ATOM     24  O   UNL     1      18.333  18.821  12.035  1.00  0.00    -0.394 OA
ATOM     25  H   UNL     1      17.769  18.689  12.833  1.00  0.00     0.210 HD
ENDBRANCH  23  24
ENDBRANCH  18  23
BRANCH  20  26
ATOM     26  O   UNL     1      22.154  17.447   9.893  1.00  0.00    -0.350 OA
BRANCH  26  27
ATOM     27  C   UNL     1      23.465  17.196  10.292  1.00  0.00     0.169 C 
BRANCH  27  28
ATOM     28  C   UNL     1      23.449  16.359  11.565  1.00  0.00     0.119 C 
BRANCH  28  29
ATOM     29  N   UNL     1      24.753  16.519  12.175  1.00  0.00    -0.092 NA
ATOM     30  N   UNL     1      24.967  17.528  12.844  1.00  0.00     0.001 N 
ATOM     31  N   UNL     1      25.413  18.387  13.636  1.00  0.00    -0.003 NA
ENDBRANCH  28  29
ENDBRANCH  27  28
ENDBRANCH  26  27
ENDBRANCH  20  26
BRANCH  21  32
ATOM     32  O   UNL     1      20.015  21.187   8.908  1.00  0.00    -0.387 OA
ATOM     33  H   UNL     1      19.796  20.355   8.444  1.00  0.00     0.211 HD
ENDBRANCH  21  32
BRANCH  22  34
ATOM     34  O   UNL     1      23.109  19.871   8.658  1.00  0.00    -0.385 OA
ATOM     35  H   UNL     1      23.624  19.022   8.744  1.00  0.00     0.211 HD
ENDBRANCH  22  34
ENDBRANCH  16  17
ENDBRANCH  11  16
BRANCH  13  36
ATOM     36  O   UNL     1      23.063  20.347  14.879  1.00  0.00    -0.385 OA
ATOM     37  H   UNL     1      23.898  19.980  15.209  1.00  0.00     0.211 HD
ENDBRANCH  13  36
BRANCH  14  38
ATOM     38  O   UNL     1      25.323  21.501  12.573  1.00  0.00    -0.387 OA
ATOM     39  H   UNL     1      25.655  20.587  12.682  1.00  0.00     0.211 HD
ENDBRANCH  14  38
BRANCH  15  40
ATOM     40  O   UNL     1      23.681  23.703  12.285  1.00  0.00    -0.387 OA
ATOM     41  H   UNL     1      23.270  24.597  12.237  1.00  0.00     0.211 HD
ENDBRANCH  15  40
ENDBRANCH   9  10
ENDBRANCH   8   9
ENDBRANCH   3   8
BRANCH   3  42
ATOM     42  C   UNL     1      23.722  27.072  16.140  1.00  0.00     0.364 C 
ATOM     43  O   UNL     1      23.059  28.124  15.965  1.00  0.00    -0.246 OA
BRANCH  42  44
ATOM     44  O   UNL     1      25.017  27.036  15.690  1.00  0.00    -0.477 OA
ATOM     45  H   UNL     1      25.320  26.684  14.804  1.00  0.00     0.296 HD
ENDBRANCH  42  44
ENDBRANCH   3  42
BRANCH   6  46
ATOM     46  O   UNL     1      22.238  23.846  18.352  1.00  0.00    -0.391 OA
ATOM     47  H   UNL     1      22.388  22.863  18.229  1.00  0.00     0.211 HD
ENDBRANCH   6  46
BRANCH   7  48
ATOM     48  N   UNL     1      24.062  25.550  20.844  1.00  0.00    -0.348 N 
ATOM     49  C   UNL     1      23.783  24.976  22.112  1.00  0.00     0.217 C 
ATOM     50  H   UNL     1      24.992  26.002  20.712  1.00  0.00     0.163 HD
ATOM     51  C   UNL     1      24.747  24.995  23.238  1.00  0.00     0.114 C 
ATOM     52  O   UNL     1      22.672  24.412  22.339  1.00  0.00    -0.275 OA
ENDBRANCH   7  48
ENDBRANCH   1   2
BRANCH   1  53
ATOM     53  O   UNL     1      22.126  28.950  18.904  1.00  0.00    -0.388 OA
ATOM     54  H   UNL     1      22.934  29.416  18.611  1.00  0.00     0.211 HD
ENDBRANCH   1  53
BRANCH   1  55
ATOM     55  C   UNL     1      21.190  27.570  20.559  1.00  0.00     0.165 C 
BRANCH  55  56
ATOM     56  O   UNL     1      20.099  27.592  19.683  1.00  0.00    -0.388 OA
ATOM     57  H   UNL     1      19.963  28.519  19.375  1.00  0.00     0.211 HD
ENDBRANCH  55  56
BRANCH  55  58
ATOM     58  C   UNL     1      20.975  28.697  21.575  1.00  0.00     0.154 C 
BRANCH  58  59
ATOM     59  N   UNL     1      19.819  29.479  21.235  1.00  0.00    -0.319 N 
ATOM     60  C   UNL     1      18.834  29.911  22.165  1.00  0.00     0.407 C 
ATOM     61  H   UNL     1      19.651  29.782  20.228  1.00  0.00     0.167 HD
ATOM     62  O   UNL     1      18.987  29.583  23.370  1.00  0.00    -0.225 OA
BRANCH  60  63
ATOM     63  O   UNL     1      17.737  30.663  21.790  1.00  0.00    -0.443 OA
BRANCH  63  64
ATOM     64  C   UNL     1      16.576  30.010  21.340  1.00  0.00     0.294 C 
BRANCH  64  65
ATOM     65  C   UNL     1      16.849  29.238  20.113  1.00  0.00     0.120 A 
ATOM     66  C   UNL     1      16.855  29.808  18.846  1.00  0.00     0.138 A 
ATOM     67  N   UNL     1      17.143  27.922  19.987  1.00  0.00    -0.132 NA
ATOM     68  N   UNL     1      17.158  28.800  17.994  1.00  0.00    -0.252 N 
ATOM     69  N   UNL     1      17.323  27.692  18.703  1.00  0.00    -0.067 NA
BRANCH  68  70
ATOM     70  C   UNL     1      17.290  28.904  16.557  1.00  0.00     0.158 C 
BRANCH  70  71
ATOM     71  C   UNL     1      18.494  29.712  16.126  1.00  0.00     0.146 C 
BRANCH  71  72
ATOM     72  C   UNL     1      19.603  28.783  15.870  1.00  0.00     0.305 C 
ATOM     73  O   UNL     1      20.083  28.693  14.719  1.00  0.00    -0.252 OA
BRANCH  72  74
ATOM     74  O   UNL     1      20.142  27.986  16.879  1.00  0.00    -0.481 OA
ATOM     75  H   UNL     1      21.134  27.795  16.969  1.00  0.00     0.296 HD
ENDBRANCH  72  74
ENDBRANCH  71  72
ENDBRANCH  70  71
ENDBRANCH  68  70
ENDBRANCH  64  65
ENDBRANCH  63  64
ENDBRANCH  60  63
ENDBRANCH  58  59
ENDBRANCH  55  58
ENDBRANCH   1  55
TORSDOF 33
