REMARK VINA RESULT:    -5.492      6.254     13.883
REMARK INTER + INTRA:         -22.935
REMARK INTER:                 -18.044
REMARK INTRA:                  -4.891
REMARK UNBOUND:                -8.936
REMARK SMILES CC(=O)N[C@@H]1[C@@H](O)C[C@](OC[C@H]2O[C@@H](O[C@H]3[C@H](O)[C@@H](O)[C@H](OCCN=[N+]=[N-])O[C@@H]3CO)[C@H](O)[C@@H](O)[C@H]2O)(C(=O)O)O[C@H]1C(O)[C@H](O)CNC(=O)OCc1cn(-c2ccc(S(N)(=O)=O)cc2)nn1
REMARK SMILES IDX 9 1 8 2 6 3 5 4 42 5 41 6 10 7 11 8 12 9 14 10 13 11 32 12
REMARK SMILES IDX 34 13 36 14 15 15 16 16 29 17 28 18 21 19 17 20 19 21 30 22
REMARK SMILES IDX 31 23 22 25 23 26 24 27 25 28 26 29 27 30 18 31 20 33 33 35
REMARK SMILES IDX 35 37 37 39 38 41 39 42 40 43 7 45 43 47 44 48 45 50 46 51
REMARK SMILES IDX 47 53 48 54 49 55 50 57 51 58 52 59 53 60 54 61 67 62 55 63
REMARK SMILES IDX 66 64 56 65 57 66 65 67 58 68 64 69 59 70 60 71 62 72 63 73
REMARK SMILES IDX 61 74 4 77 2 78 1 80 3 81
REMARK H PARENT 31 24 18 32 20 34 33 36 35 38 37 40 40 44 7 46 44 49 46 52
REMARK H PARENT 48 56 61 75 61 76 4 79
REMARK Flexibility Score: inf
ROOT
ATOM      1  C   UNL     1      23.001  25.226  20.060  1.00  0.00     0.272 C 
ATOM      2  C   UNL     1      22.183  24.099  20.710  1.00  0.00     0.113 C 
ATOM      3  C   UNL     1      21.829  24.405  22.122  1.00  0.00     0.145 C 
ATOM      4  C   UNL     1      23.002  25.074  22.792  1.00  0.00     0.142 C 
ATOM      5  C   UNL     1      24.223  24.678  21.953  1.00  0.00     0.178 C 
ATOM      6  O   UNL     1      24.141  25.448  20.794  1.00  0.00    -0.332 OA
ENDROOT
BRANCH   1   7
ATOM      7  O   UNL     1      22.141  26.315  19.988  1.00  0.00    -0.338 OA
BRANCH   7   8
ATOM      8  C   UNL     1      22.450  27.220  19.013  1.00  0.00     0.199 C 
BRANCH   8   9
ATOM      9  C   UNL     1      21.433  28.371  19.113  1.00  0.00     0.179 C 
ATOM     10  C   UNL     1      19.360  28.714  20.140  1.00  0.00     0.282 C 
ATOM     11  O   UNL     1      20.247  27.814  19.472  1.00  0.00    -0.341 OA
ATOM     12  C   UNL     1      20.062  28.996  21.437  1.00  0.00     0.202 C 
ATOM     13  C   UNL     1      21.301  29.843  21.175  1.00  0.00     0.179 C 
ATOM     14  C   UNL     1      21.940  29.530  19.872  1.00  0.00     0.177 C 
BRANCH  10  15
ATOM     15  O   UNL     1      18.196  28.054  20.331  1.00  0.00    -0.341 OA
BRANCH  15  16
ATOM     16  C   UNL     1      17.054  28.673  19.757  1.00  0.00     0.184 C 
ATOM     17  C   UNL     1      17.511  29.635  18.759  1.00  0.00     0.178 C 
ATOM     18  O   UNL     1      16.845  30.841  18.696  1.00  0.00    -0.341 OA
ATOM     19  C   UNL     1      15.558  30.859  19.156  1.00  0.00     0.281 C 
ATOM     20  C   UNL     1      16.183  29.228  20.860  1.00  0.00     0.180 C 
ATOM     21  C   UNL     1      15.599  30.567  20.632  1.00  0.00     0.202 C 
BRANCH  17  22
ATOM     22  C   UNL     1      17.544  29.095  17.344  1.00  0.00     0.191 C 
BRANCH  22  23
ATOM     23  O   UNL     1      16.436  28.296  17.099  1.00  0.00    -0.394 OA
ATOM     24  H   UNL     1      16.585  27.674  16.344  1.00  0.00     0.210 HD
ENDBRANCH  22  23
ENDBRANCH  17  22
BRANCH  19  25
ATOM     25  O   UNL     1      14.663  30.066  18.480  1.00  0.00    -0.350 OA
BRANCH  25  26
ATOM     26  C   UNL     1      13.592  30.827  18.028  1.00  0.00     0.169 C 
BRANCH  26  27
ATOM     27  C   UNL     1      13.180  30.289  16.661  1.00  0.00     0.119 C 
BRANCH  27  28
ATOM     28  N   UNL     1      14.346  30.252  15.823  1.00  0.00    -0.092 NA
ATOM     29  N   UNL     1      14.447  29.458  14.861  1.00  0.00     0.001 N 
ATOM     30  N   UNL     1      14.853  28.408  14.334  1.00  0.00    -0.003 NA
ENDBRANCH  27  28
ENDBRANCH  26  27
ENDBRANCH  25  26
ENDBRANCH  19  25
BRANCH  20  31
ATOM     31  O   UNL     1      15.137  28.352  21.163  1.00  0.00    -0.387 OA
ATOM     32  H   UNL     1      14.549  28.771  21.832  1.00  0.00     0.211 HD
ENDBRANCH  20  31
BRANCH  21  33
ATOM     33  O   UNL     1      16.254  31.598  21.296  1.00  0.00    -0.385 OA
ATOM     34  H   UNL     1      16.938  31.130  21.875  1.00  0.00     0.211 HD
ENDBRANCH  21  33
ENDBRANCH  15  16
ENDBRANCH  10  15
BRANCH  12  35
ATOM     35  O   UNL     1      19.277  29.489  22.437  1.00  0.00    -0.385 OA
ATOM     36  H   UNL     1      18.771  28.824  22.943  1.00  0.00     0.211 HD
ENDBRANCH  12  35
BRANCH  13  37
ATOM     37  O   UNL     1      22.155  29.843  22.266  1.00  0.00    -0.387 OA
ATOM     38  H   UNL     1      22.428  30.727  22.586  1.00  0.00     0.211 HD
ENDBRANCH  13  37
BRANCH  14  39
ATOM     39  O   UNL     1      23.314  29.299  20.128  1.00  0.00    -0.387 OA
ATOM     40  H   UNL     1      23.331  28.762  20.973  1.00  0.00     0.211 HD
ENDBRANCH  14  39
ENDBRANCH   8   9
ENDBRANCH   7   8
ENDBRANCH   1   7
BRANCH   1  41
ATOM     41  C   UNL     1      23.303  24.700  18.677  1.00  0.00     0.364 C 
ATOM     42  O   UNL     1      24.473  24.703  18.224  1.00  0.00    -0.246 OA
BRANCH  41  43
ATOM     43  O   UNL     1      22.303  24.197  17.867  1.00  0.00    -0.477 OA
ATOM     44  H   UNL     1      22.414  23.265  17.498  1.00  0.00     0.296 HD
ENDBRANCH  41  43
ENDBRANCH   1  41
BRANCH   3  45
ATOM     45  O   UNL     1      20.671  25.180  22.134  1.00  0.00    -0.391 OA
ATOM     46  H   UNL     1      20.788  25.946  21.525  1.00  0.00     0.211 HD
ENDBRANCH   3  45
BRANCH   5  47
ATOM     47  C   UNL     1      25.501  25.010  22.674  1.00  0.00     0.176 C 
BRANCH  47  48
ATOM     48  O   UNL     1      25.663  24.345  23.872  1.00  0.00    -0.388 OA
ATOM     49  H   UNL     1      25.412  24.894  24.657  1.00  0.00     0.211 HD
ENDBRANCH  47  48
BRANCH  47  50
ATOM     50  C   UNL     1      26.692  24.748  21.780  1.00  0.00     0.165 C 
BRANCH  50  51
ATOM     51  O   UNL     1      26.819  25.779  20.824  1.00  0.00    -0.388 OA
ATOM     52  H   UNL     1      27.327  25.448  20.029  1.00  0.00     0.211 HD
ENDBRANCH  50  51
BRANCH  50  53
ATOM     53  C   UNL     1      26.592  23.415  21.083  1.00  0.00     0.154 C 
BRANCH  53  54
ATOM     54  N   UNL     1      26.859  23.525  19.668  1.00  0.00    -0.319 N 
ATOM     55  C   UNL     1      27.545  22.479  18.998  1.00  0.00     0.407 C 
ATOM     56  H   UNL     1      26.567  24.350  19.108  1.00  0.00     0.167 HD
ATOM     57  O   UNL     1      27.910  21.468  19.666  1.00  0.00    -0.225 OA
BRANCH  55  58
ATOM     58  O   UNL     1      27.845  22.486  17.646  1.00  0.00    -0.443 OA
BRANCH  58  59
ATOM     59  C   UNL     1      27.037  23.135  16.693  1.00  0.00     0.294 C 
BRANCH  59  60
ATOM     60  C   UNL     1      26.390  22.111  15.831  1.00  0.00     0.121 A 
ATOM     61  C   UNL     1      25.158  22.246  15.179  1.00  0.00     0.144 A 
ATOM     62  N   UNL     1      26.807  20.879  15.494  1.00  0.00    -0.131 NA
ATOM     63  N   UNL     1      24.893  21.109  14.490  1.00  0.00    -0.220 N 
ATOM     64  N   UNL     1      25.895  20.307  14.694  1.00  0.00    -0.062 NA
BRANCH  63  65
ATOM     65  C   UNL     1      23.732  20.842  13.694  1.00  0.00     0.066 A 
ATOM     66  C   UNL     1      22.959  21.866  13.196  1.00  0.00     0.030 A 
ATOM     67  C   UNL     1      23.355  19.551  13.400  1.00  0.00     0.030 A 
ATOM     68  C   UNL     1      21.832  21.603  12.420  1.00  0.00     0.024 A 
ATOM     69  C   UNL     1      22.230  19.277  12.625  1.00  0.00     0.024 A 
ATOM     70  C   UNL     1      21.457  20.307  12.127  1.00  0.00     0.082 A 
BRANCH  70  71
ATOM     71  S   UNL     1      20.026  20.008  11.142  1.00  0.00     0.238 S 
ATOM     72  O   UNL     1      20.025  18.598  10.604  1.00  0.00    -0.207 OA
ATOM     73  O   UNL     1      18.783  20.170  11.963  1.00  0.00    -0.207 OA
BRANCH  71  74
ATOM     74  N   UNL     1      19.949  21.118   9.809  1.00  0.00    -0.225 NA
ATOM     75  H   UNL     1      18.924  21.304   9.613  1.00  0.00     0.137 HD
ATOM     76  H   UNL     1      20.422  20.743   8.954  1.00  0.00     0.137 HD
ENDBRANCH  71  74
ENDBRANCH  70  71
ENDBRANCH  63  65
ENDBRANCH  59  60
ENDBRANCH  58  59
ENDBRANCH  55  58
ENDBRANCH  53  54
ENDBRANCH  50  53
ENDBRANCH  47  50
ENDBRANCH   5  47
BRANCH   4  77
ATOM     77  N   UNL     1      23.188  24.707  24.171  1.00  0.00    -0.348 N 
ATOM     78  C   UNL     1      22.373  25.273  25.173  1.00  0.00     0.217 C 
ATOM     79  H   UNL     1      23.917  24.024  24.448  1.00  0.00     0.163 HD
ATOM     80  C   UNL     1      22.596  24.871  26.584  1.00  0.00     0.114 C 
ATOM     81  O   UNL     1      21.467  26.103  24.926  1.00  0.00    -0.275 OA
ENDBRANCH   4  77
TORSDOF 32
