REMARK VINA RESULT:    -6.169     19.005     23.010
REMARK INTER + INTRA:         -21.885
REMARK INTER:                 -14.043
REMARK INTRA:                  -7.841
REMARK UNBOUND:                -6.520
REMARK SMILES CC(=O)N[C@@H]1[C@@H](O)C[C@](OC[C@H]2O[C@@H](O[C@H]3[C@H](O)[C@@H](O)[C@H](OCCN=[N+]=[N-])O[C@@H]3CO)[C@H](O)[C@@H](O)[C@H]2O)(C(=O)O)O[C@H]1C(O)[C@H](O)CNC(=O)OCc1cn(-c2nc(C)nc(N)n2)nn1
REMARK SMILES IDX 9 1 8 2 6 3 5 4 42 5 41 6 10 7 11 8 12 9 14 10 13 11 32 12
REMARK SMILES IDX 34 13 36 14 15 15 16 16 29 17 28 18 21 19 17 20 19 21 30 22
REMARK SMILES IDX 31 23 22 25 23 26 24 27 25 28 26 29 27 30 18 31 20 33 33 35
REMARK SMILES IDX 35 37 37 39 38 41 39 42 40 43 7 45 43 47 44 48 45 50 46 51
REMARK SMILES IDX 47 53 48 54 49 55 50 57 51 58 52 59 53 60 54 61 65 62 55 63
REMARK SMILES IDX 64 64 56 65 63 66 57 67 61 68 58 69 60 70 59 71 62 72 4 75
REMARK SMILES IDX 2 76 1 78 3 79
REMARK H PARENT 31 24 18 32 20 34 33 36 35 38 37 40 40 44 7 46 44 49 46 52
REMARK H PARENT 48 56 62 73 62 74 4 77
REMARK Flexibility Score: inf
ROOT
ATOM      1  C   UNL     1       9.884  24.365  35.452  1.00  0.00     0.272 C 
ATOM      2  C   UNL     1      11.369  24.271  35.366  1.00  0.00     0.113 C 
ATOM      3  C   UNL     1      11.915  23.288  36.357  1.00  0.00     0.145 C 
ATOM      4  C   UNL     1      11.456  23.689  37.734  1.00  0.00     0.142 C 
ATOM      5  C   UNL     1       9.990  24.049  37.789  1.00  0.00     0.178 C 
ATOM      6  O   UNL     1       9.556  24.800  36.764  1.00  0.00    -0.332 OA
ENDROOT
BRANCH   1   7
ATOM      7  O   UNL     1       9.159  23.396  35.013  1.00  0.00    -0.338 OA
BRANCH   7   8
ATOM      8  C   UNL     1       8.534  22.949  33.993  1.00  0.00     0.199 C 
BRANCH   8   9
ATOM      9  C   UNL     1       7.068  22.756  33.808  1.00  0.00     0.179 C 
ATOM     10  C   UNL     1       5.062  23.659  33.495  1.00  0.00     0.282 C 
ATOM     11  O   UNL     1       6.459  23.888  33.374  1.00  0.00    -0.341 OA
ATOM     12  C   UNL     1       4.726  22.831  32.282  1.00  0.00     0.202 C 
ATOM     13  C   UNL     1       5.401  21.486  32.400  1.00  0.00     0.179 C 
ATOM     14  C   UNL     1       6.635  21.456  33.213  1.00  0.00     0.177 C 
BRANCH  10  15
ATOM     15  O   UNL     1       4.362  24.836  33.510  1.00  0.00    -0.341 OA
BRANCH  15  16
ATOM     16  C   UNL     1       5.106  25.929  33.921  1.00  0.00     0.184 C 
ATOM     17  C   UNL     1       4.585  26.636  35.126  1.00  0.00     0.178 C 
ATOM     18  O   UNL     1       4.392  27.996  34.924  1.00  0.00    -0.341 OA
ATOM     19  C   UNL     1       5.494  28.658  34.397  1.00  0.00     0.281 C 
ATOM     20  C   UNL     1       5.076  26.900  32.726  1.00  0.00     0.180 C 
ATOM     21  C   UNL     1       5.955  28.071  33.096  1.00  0.00     0.202 C 
BRANCH  17  22
ATOM     22  C   UNL     1       5.352  26.374  36.394  1.00  0.00     0.191 C 
BRANCH  22  23
ATOM     23  O   UNL     1       6.424  25.521  36.049  1.00  0.00    -0.394 OA
ATOM     24  H   UNL     1       7.287  25.989  36.035  1.00  0.00     0.210 HD
ENDBRANCH  22  23
ENDBRANCH  17  22
BRANCH  19  25
ATOM     25  O   UNL     1       6.554  28.726  35.258  1.00  0.00    -0.350 OA
BRANCH  25  26
ATOM     26  C   UNL     1       6.832  29.936  35.821  1.00  0.00     0.169 C 
BRANCH  26  27
ATOM     27  C   UNL     1       7.728  30.802  34.981  1.00  0.00     0.119 C 
BRANCH  27  28
ATOM     28  N   UNL     1       9.029  30.129  34.862  1.00  0.00    -0.092 NA
ATOM     29  N   UNL     1       9.326  29.694  33.752  1.00  0.00     0.001 N 
ATOM     30  N   UNL     1       9.694  28.816  32.942  1.00  0.00    -0.003 NA
ENDBRANCH  27  28
ENDBRANCH  26  27
ENDBRANCH  25  26
ENDBRANCH  19  25
BRANCH  20  31
ATOM     31  O   UNL     1       5.497  26.251  31.585  1.00  0.00    -0.387 OA
ATOM     32  H   UNL     1       4.769  26.204  30.906  1.00  0.00     0.211 HD
ENDBRANCH  20  31
BRANCH  21  33
ATOM     33  O   UNL     1       5.874  28.991  32.050  1.00  0.00    -0.385 OA
ATOM     34  H   UNL     1       4.935  29.242  31.865  1.00  0.00     0.211 HD
ENDBRANCH  21  33
ENDBRANCH  15  16
ENDBRANCH  10  15
BRANCH  12  35
ATOM     35  O   UNL     1       3.355  22.684  32.089  1.00  0.00    -0.385 OA
ATOM     36  H   UNL     1       3.133  21.727  32.212  1.00  0.00     0.211 HD
ENDBRANCH  12  35
BRANCH  13  37
ATOM     37  O   UNL     1       5.570  21.002  31.100  1.00  0.00    -0.387 OA
ATOM     38  H   UNL     1       6.386  21.352  30.663  1.00  0.00     0.211 HD
ENDBRANCH  13  37
BRANCH  14  39
ATOM     39  O   UNL     1       7.630  20.752  32.542  1.00  0.00    -0.387 OA
ATOM     40  H   UNL     1       8.481  21.259  32.708  1.00  0.00     0.211 HD
ENDBRANCH  14  39
ENDBRANCH   8   9
ENDBRANCH   7   8
ENDBRANCH   1   7
BRANCH   1  41
ATOM     41  C   UNL     1       9.589  25.679  34.675  1.00  0.00     0.364 C 
ATOM     42  O   UNL     1       8.817  26.463  35.212  1.00  0.00    -0.246 OA
BRANCH  41  43
ATOM     43  O   UNL     1      10.171  25.909  33.468  1.00  0.00    -0.477 OA
ATOM     44  H   UNL     1      11.189  25.994  33.333  1.00  0.00     0.296 HD
ENDBRANCH  41  43
ENDBRANCH   1  41
BRANCH   3  45
ATOM     45  O   UNL     1      11.504  21.990  36.157  1.00  0.00    -0.391 OA
ATOM     46  H   UNL     1      11.047  21.613  36.928  1.00  0.00     0.211 HD
ENDBRANCH   3  45
BRANCH   5  47
ATOM     47  C   UNL     1       9.098  22.884  38.144  1.00  0.00     0.176 C 
BRANCH  47  48
ATOM     48  O   UNL     1       9.849  21.747  38.390  1.00  0.00    -0.388 OA
ATOM     49  H   UNL     1      10.010  21.548  39.329  1.00  0.00     0.211 HD
ENDBRANCH  47  48
BRANCH  47  50
ATOM     50  C   UNL     1       8.260  23.248  39.329  1.00  0.00     0.165 C 
BRANCH  50  51
ATOM     51  O   UNL     1       7.899  22.067  40.003  1.00  0.00    -0.388 OA
ATOM     52  H   UNL     1       8.634  21.434  39.930  1.00  0.00     0.211 HD
ENDBRANCH  50  51
BRANCH  50  53
ATOM     53  C   UNL     1       7.012  24.004  39.022  1.00  0.00     0.154 C 
BRANCH  53  54
ATOM     54  N   UNL     1       6.101  23.252  38.188  1.00  0.00    -0.319 N 
ATOM     55  C   UNL     1       4.698  23.313  38.290  1.00  0.00     0.407 C 
ATOM     56  H   UNL     1       6.481  22.602  37.439  1.00  0.00     0.167 HD
ATOM     57  O   UNL     1       4.160  24.043  39.129  1.00  0.00    -0.225 OA
BRANCH  55  58
ATOM     58  O   UNL     1       3.866  22.564  37.464  1.00  0.00    -0.443 OA
BRANCH  58  59
ATOM     59  C   UNL     1       3.155  21.429  37.888  1.00  0.00     0.294 C 
BRANCH  59  60
ATOM     60  C   UNL     1       3.302  20.292  36.929  1.00  0.00     0.121 A 
ATOM     61  C   UNL     1       2.834  20.251  35.633  1.00  0.00     0.148 A 
ATOM     62  N   UNL     1       3.911  19.111  37.151  1.00  0.00    -0.131 NA
ATOM     63  N   UNL     1       3.167  19.058  35.110  1.00  0.00    -0.185 N 
ATOM     64  N   UNL     1       3.814  18.394  36.045  1.00  0.00    -0.059 NA
BRANCH  63  65
ATOM     65  C   UNL     1       2.850  18.654  33.785  1.00  0.00     0.257 A 
ATOM     66  N   UNL     1       2.799  19.577  32.806  1.00  0.00    -0.175 NA
ATOM     67  N   UNL     1       2.592  17.382  33.430  1.00  0.00    -0.196 NA
ATOM     68  C   UNL     1       2.504  19.247  31.522  1.00  0.00     0.225 A 
ATOM     69  C   UNL     1       2.298  17.020  32.177  1.00  0.00     0.133 A 
ATOM     70  N   UNL     1       2.255  17.952  31.230  1.00  0.00    -0.198 NA
ATOM     71  C   UNL     1       2.016  15.584  31.825  1.00  0.00     0.090 C 
BRANCH  68  72
ATOM     72  N   UNL     1       2.465  20.255  30.532  1.00  0.00    -0.368 N 
ATOM     73  H   UNL     1       3.014  20.174  29.654  1.00  0.00     0.159 HD
ATOM     74  H   UNL     1       1.882  21.103  30.665  1.00  0.00     0.159 HD
ENDBRANCH  68  72
ENDBRANCH  63  65
ENDBRANCH  59  60
ENDBRANCH  58  59
ENDBRANCH  55  58
ENDBRANCH  53  54
ENDBRANCH  50  53
ENDBRANCH  47  50
ENDBRANCH   5  47
BRANCH   4  75
ATOM     75  N   UNL     1      12.260  24.805  38.185  1.00  0.00    -0.348 N 
ATOM     76  C   UNL     1      13.222  24.641  39.222  1.00  0.00     0.217 C 
ATOM     77  H   UNL     1      12.170  25.768  37.773  1.00  0.00     0.163 HD
ATOM     78  C   UNL     1      14.029  25.784  39.667  1.00  0.00     0.114 C 
ATOM     79  O   UNL     1      13.374  23.518  39.749  1.00  0.00    -0.275 OA
ENDBRANCH   4  75
TORSDOF 31
