REMARK VINA RESULT:    -5.239     12.232     18.838
REMARK INTER + INTRA:         -22.783
REMARK INTER:                 -16.908
REMARK INTRA:                  -5.876
REMARK UNBOUND:                -8.356
REMARK SMILES CC(=O)N[C@@H]1[C@@H](O)C[C@](OC[C@H]2O[C@@H](O[C@H]3[C@H](O)[C@@H](O)[C@H](OCCN=[N+]=[N-])O[C@@H]3CO)[C@H](O)[C@@H](O)[C@H]2O)(C(=O)O)O[C@H]1C(O)[C@H](O)CNC(=O)OCc1cn([C@@H](CCC(=O)O)C(=O)O)nn1
REMARK SMILES IDX 43 1 42 2 9 3 8 4 41 5 6 6 5 7 10 8 11 9 12 10 14 11 13 12
REMARK SMILES IDX 32 13 34 14 36 15 15 16 16 17 29 18 28 19 21 20 17 21 19 22
REMARK SMILES IDX 30 23 31 24 22 26 23 27 24 28 25 29 26 30 27 31 18 32 20 34
REMARK SMILES IDX 33 36 35 38 37 40 38 42 39 43 40 44 7 46 4 48 2 49 1 51 3 52
REMARK SMILES IDX 44 53 45 55 46 56 47 58 48 59 49 60 50 62 51 63 52 64 53 65
REMARK SMILES IDX 54 66 66 67 55 68 65 69 56 70 57 71 58 72 59 73 60 74 61 75
REMARK SMILES IDX 62 77 63 78 64 79
REMARK H PARENT 31 25 18 33 20 35 33 37 35 39 37 41 40 45 7 47 4 50 44 54
REMARK H PARENT 46 57 48 61 61 76 64 80
REMARK Flexibility Score: inf
ROOT
ATOM      1  C   UNL     1      32.800  20.191  28.734  1.00  0.00     0.176 C 
ENDROOT
BRANCH   1   2
ATOM      2  C   UNL     1      33.262  18.770  28.412  1.00  0.00     0.178 C 
ATOM      3  C   UNL     1      33.286  17.443  26.467  1.00  0.00     0.272 C 
ATOM      4  C   UNL     1      32.435  16.378  27.033  1.00  0.00     0.113 C 
ATOM      5  O   UNL     1      32.843  18.630  27.089  1.00  0.00    -0.332 OA
ATOM      6  C   UNL     1      31.766  16.800  28.313  1.00  0.00     0.145 C 
ATOM      7  C   UNL     1      32.523  17.724  29.197  1.00  0.00     0.142 C 
BRANCH   3   8
ATOM      8  O   UNL     1      33.057  17.618  25.117  1.00  0.00    -0.338 OA
BRANCH   8   9
ATOM      9  C   UNL     1      32.021  18.218  24.592  1.00  0.00     0.199 C 
BRANCH   9  10
ATOM     10  C   UNL     1      32.100  19.182  23.441  1.00  0.00     0.179 C 
ATOM     11  C   UNL     1      30.459  20.109  22.066  1.00  0.00     0.282 C 
ATOM     12  O   UNL     1      31.109  18.991  22.522  1.00  0.00    -0.341 OA
ATOM     13  C   UNL     1      29.826  20.811  23.247  1.00  0.00     0.202 C 
ATOM     14  C   UNL     1      30.912  21.302  24.150  1.00  0.00     0.179 C 
ATOM     15  C   UNL     1      32.215  20.615  23.946  1.00  0.00     0.177 C 
BRANCH  11  16
ATOM     16  O   UNL     1      29.444  19.705  21.196  1.00  0.00    -0.341 OA
BRANCH  16  17
ATOM     17  C   UNL     1      29.872  19.160  20.012  1.00  0.00     0.184 C 
ATOM     18  C   UNL     1      30.968  20.003  19.367  1.00  0.00     0.178 C 
ATOM     19  O   UNL     1      30.527  20.449  18.124  1.00  0.00    -0.341 OA
ATOM     20  C   UNL     1      29.492  21.410  18.299  1.00  0.00     0.281 C 
ATOM     21  C   UNL     1      28.691  19.166  19.062  1.00  0.00     0.180 C 
ATOM     22  C   UNL     1      28.319  20.646  18.834  1.00  0.00     0.202 C 
BRANCH  18  23
ATOM     23  C   UNL     1      32.193  19.137  19.127  1.00  0.00     0.191 C 
BRANCH  23  24
ATOM     24  O   UNL     1      33.131  19.276  20.133  1.00  0.00    -0.394 OA
ATOM     25  H   UNL     1      33.388  20.224  20.274  1.00  0.00     0.210 HD
ENDBRANCH  23  24
ENDBRANCH  18  23
BRANCH  20  26
ATOM     26  O   UNL     1      29.312  22.027  17.094  1.00  0.00    -0.350 OA
BRANCH  26  27
ATOM     27  C   UNL     1      29.362  23.393  17.112  1.00  0.00     0.169 C 
BRANCH  27  28
ATOM     28  C   UNL     1      29.691  23.984  18.468  1.00  0.00     0.119 C 
BRANCH  28  29
ATOM     29  N   UNL     1      28.504  24.396  19.190  1.00  0.00    -0.092 NA
ATOM     30  N   UNL     1      27.360  24.217  18.785  1.00  0.00     0.001 N 
ATOM     31  N   UNL     1      26.279  23.834  18.391  1.00  0.00    -0.003 NA
ENDBRANCH  28  29
ENDBRANCH  27  28
ENDBRANCH  26  27
ENDBRANCH  20  26
BRANCH  21  32
ATOM     32  O   UNL     1      28.972  18.545  17.851  1.00  0.00    -0.387 OA
ATOM     33  H   UNL     1      29.535  19.120  17.244  1.00  0.00     0.211 HD
ENDBRANCH  21  32
BRANCH  22  34
ATOM     34  O   UNL     1      28.076  21.135  20.142  1.00  0.00    -0.385 OA
ATOM     35  H   UNL     1      27.799  22.083  20.054  1.00  0.00     0.211 HD
ENDBRANCH  22  34
ENDBRANCH  16  17
ENDBRANCH  11  16
BRANCH  13  36
ATOM     36  O   UNL     1      29.025  21.870  22.816  1.00  0.00    -0.385 OA
ATOM     37  H   UNL     1      29.665  22.583  22.496  1.00  0.00     0.211 HD
ENDBRANCH  13  36
BRANCH  14  38
ATOM     38  O   UNL     1      30.542  21.255  25.498  1.00  0.00    -0.387 OA
ATOM     39  H   UNL     1      29.549  21.134  25.557  1.00  0.00     0.211 HD
ENDBRANCH  14  38
BRANCH  15  40
ATOM     40  O   UNL     1      32.855  20.592  25.187  1.00  0.00    -0.387 OA
ATOM     41  H   UNL     1      33.103  19.674  25.439  1.00  0.00     0.211 HD
ENDBRANCH  15  40
ENDBRANCH   9  10
ENDBRANCH   8   9
ENDBRANCH   3   8
BRANCH   3  42
ATOM     42  C   UNL     1      34.729  17.350  26.653  1.00  0.00     0.364 C 
ATOM     43  O   UNL     1      35.479  18.064  25.893  1.00  0.00    -0.246 OA
BRANCH  42  44
ATOM     44  O   UNL     1      35.434  16.576  27.554  1.00  0.00    -0.477 OA
ATOM     45  H   UNL     1      34.984  15.988  28.216  1.00  0.00     0.296 HD
ENDBRANCH  42  44
ENDBRANCH   3  42
BRANCH   6  46
ATOM     46  O   UNL     1      30.584  17.498  27.939  1.00  0.00    -0.391 OA
ATOM     47  H   UNL     1      30.216  18.005  28.706  1.00  0.00     0.211 HD
ENDBRANCH   6  46
BRANCH   7  48
ATOM     48  N   UNL     1      33.264  16.933  30.115  1.00  0.00    -0.348 N 
ATOM     49  C   UNL     1      33.376  17.214  31.499  1.00  0.00     0.217 C 
ATOM     50  H   UNL     1      33.756  16.070  29.811  1.00  0.00     0.163 HD
ATOM     51  C   UNL     1      34.184  16.333  32.415  1.00  0.00     0.114 C 
ATOM     52  O   UNL     1      32.814  18.192  31.985  1.00  0.00    -0.275 OA
ENDBRANCH   7  48
ENDBRANCH   1   2
BRANCH   1  53
ATOM     53  O   UNL     1      31.694  20.503  27.951  1.00  0.00    -0.388 OA
ATOM     54  H   UNL     1      31.973  20.627  27.005  1.00  0.00     0.211 HD
ENDBRANCH   1  53
BRANCH   1  55
ATOM     55  C   UNL     1      33.803  21.246  28.679  1.00  0.00     0.165 C 
BRANCH  55  56
ATOM     56  O   UNL     1      34.185  21.565  30.017  1.00  0.00    -0.388 OA
ATOM     57  H   UNL     1      34.363  22.535  30.051  1.00  0.00     0.211 HD
ENDBRANCH  55  56
BRANCH  55  58
ATOM     58  C   UNL     1      33.420  22.560  28.067  1.00  0.00     0.154 C 
BRANCH  58  59
ATOM     59  N   UNL     1      32.258  23.159  28.678  1.00  0.00    -0.319 N 
ATOM     60  C   UNL     1      32.322  24.227  29.622  1.00  0.00     0.407 C 
ATOM     61  H   UNL     1      31.322  22.797  28.438  1.00  0.00     0.167 HD
ATOM     62  O   UNL     1      33.404  24.700  29.966  1.00  0.00    -0.225 OA
BRANCH  60  63
ATOM     63  O   UNL     1      31.143  24.708  30.134  1.00  0.00    -0.443 OA
BRANCH  63  64
ATOM     64  C   UNL     1      30.467  25.819  29.621  1.00  0.00     0.294 C 
BRANCH  64  65
ATOM     65  C   UNL     1      29.018  25.703  29.921  1.00  0.00     0.120 A 
ATOM     66  C   UNL     1      27.941  26.222  29.234  1.00  0.00     0.139 A 
ATOM     67  N   UNL     1      28.485  25.051  30.989  1.00  0.00    -0.132 NA
ATOM     68  N   UNL     1      26.794  25.878  29.890  1.00  0.00    -0.238 N 
ATOM     69  N   UNL     1      27.173  25.166  30.953  1.00  0.00    -0.066 NA
BRANCH  68  70
ATOM     70  C   UNL     1      25.470  26.195  29.499  1.00  0.00     0.219 C 
BRANCH  70  71
ATOM     71  C   UNL     1      24.983  25.781  28.160  1.00  0.00     0.051 C 
BRANCH  71  72
ATOM     72  C   UNL     1      23.547  25.857  27.843  1.00  0.00     0.125 C 
BRANCH  72  73
ATOM     73  C   UNL     1      22.846  24.673  27.394  1.00  0.00     0.303 C 
ATOM     74  O   UNL     1      22.318  24.453  26.290  1.00  0.00    -0.252 OA
BRANCH  73  75
ATOM     75  O   UNL     1      22.709  23.575  28.301  1.00  0.00    -0.481 OA
ATOM     76  H   UNL     1      22.535  23.766  29.275  1.00  0.00     0.296 HD
ENDBRANCH  73  75
ENDBRANCH  72  73
ENDBRANCH  71  72
ENDBRANCH  70  71
BRANCH  70  77
ATOM     77  C   UNL     1      24.528  25.649  30.527  1.00  0.00     0.328 C 
ATOM     78  O   UNL     1      23.970  26.410  31.340  1.00  0.00    -0.250 OA
BRANCH  77  79
ATOM     79  O   UNL     1      24.244  24.298  30.613  1.00  0.00    -0.480 OA
ATOM     80  H   UNL     1      23.285  23.953  30.667  1.00  0.00     0.296 HD
ENDBRANCH  77  79
ENDBRANCH  70  77
ENDBRANCH  68  70
ENDBRANCH  64  65
ENDBRANCH  63  64
ENDBRANCH  60  63
ENDBRANCH  58  59
ENDBRANCH  55  58
ENDBRANCH   1  55
TORSDOF 36
