REMARK VINA RESULT:    -7.015      0.000      0.000
REMARK INTER + INTRA:         -23.549
REMARK INTER:                 -15.236
REMARK INTRA:                  -8.313
REMARK UNBOUND:                -5.460
REMARK SMILES CC(=O)N[C@@H]1[C@@H](O)C[C@](OC[C@H]2O[C@@H](O[C@H]3[C@H](O)[C@@H](O)[C@H](OCCN=[N+]=[N-])O[C@@H]3CO)[C@H](O)[C@@H](O)[C@H]2O)(C(=O)O)O[C@H]1C(O)[C@H](O)CNC(=O)OCc1cn(C(c2ccccc2)c2ccccc2)nn1
REMARK SMILES IDX 9 1 8 2 6 3 5 4 42 5 41 6 10 7 11 8 12 9 14 10 13 11 32 12
REMARK SMILES IDX 34 13 36 14 15 15 16 16 29 17 28 18 21 19 17 20 19 21 30 22
REMARK SMILES IDX 31 23 22 25 23 26 24 27 25 28 26 29 27 30 18 31 20 33 33 35
REMARK SMILES IDX 35 37 37 39 38 41 39 42 40 43 7 45 43 47 44 48 45 50 46 51
REMARK SMILES IDX 47 53 48 54 49 55 50 57 51 58 52 59 53 60 54 61 70 62 55 63
REMARK SMILES IDX 69 64 56 65 57 66 58 67 62 68 59 69 61 70 60 71 63 72 64 73
REMARK SMILES IDX 68 74 65 75 67 76 66 77 4 78 2 79 1 81 3 82
REMARK H PARENT 31 24 18 32 20 34 33 36 35 38 37 40 40 44 7 46 44 49 46 52
REMARK H PARENT 48 56 4 80
REMARK Flexibility Score: inf
ROOT
ATOM      1  C   UNL     1      16.959  29.975  16.427  1.00  0.00     0.272 C 
ATOM      2  C   UNL     1      16.387  28.767  17.199  1.00  0.00     0.113 C 
ATOM      3  C   UNL     1      17.474  28.063  17.904  1.00  0.00     0.145 C 
ATOM      4  C   UNL     1      18.170  29.009  18.850  1.00  0.00     0.142 C 
ATOM      5  C   UNL     1      17.988  30.439  18.496  1.00  0.00     0.178 C 
ATOM      6  O   UNL     1      17.790  30.712  17.181  1.00  0.00    -0.332 OA
ENDROOT
BRANCH   1   7
ATOM      7  O   UNL     1      15.870  30.765  16.022  1.00  0.00    -0.338 OA
BRANCH   7   8
ATOM      8  C   UNL     1      16.206  32.091  15.952  1.00  0.00     0.199 C 
BRANCH   8   9
ATOM      9  C   UNL     1      14.981  33.000  15.879  1.00  0.00     0.179 C 
ATOM     10  C   UNL     1      12.952  31.979  16.608  1.00  0.00     0.282 C 
ATOM     11  O   UNL     1      13.878  32.325  15.692  1.00  0.00    -0.341 OA
ATOM     12  C   UNL     1      13.262  32.335  17.982  1.00  0.00     0.202 C 
ATOM     13  C   UNL     1      14.065  33.578  18.147  1.00  0.00     0.179 C 
ATOM     14  C   UNL     1      14.950  33.977  17.031  1.00  0.00     0.177 C 
BRANCH  10  15
ATOM     15  O   UNL     1      12.769  30.581  16.372  1.00  0.00    -0.341 OA
BRANCH  15  16
ATOM     16  C   UNL     1      12.462  30.322  15.071  1.00  0.00     0.184 C 
ATOM     17  C   UNL     1      11.067  29.831  14.910  1.00  0.00     0.178 C 
ATOM     18  O   UNL     1      10.721  29.785  13.553  1.00  0.00    -0.341 OA
ATOM     19  C   UNL     1      11.384  28.758  12.939  1.00  0.00     0.281 C 
ATOM     20  C   UNL     1      13.363  29.239  14.489  1.00  0.00     0.180 C 
ATOM     21  C   UNL     1      12.596  28.300  13.644  1.00  0.00     0.202 C 
BRANCH  17  22
ATOM     22  C   UNL     1      10.026  30.593  15.706  1.00  0.00     0.191 C 
BRANCH  22  23
ATOM     23  O   UNL     1       9.627  31.710  14.980  1.00  0.00    -0.394 OA
ATOM     24  H   UNL     1      10.322  32.395  14.888  1.00  0.00     0.210 HD
ENDBRANCH  22  23
ENDBRANCH  17  22
BRANCH  19  25
ATOM     25  O   UNL     1      11.626  29.031  11.582  1.00  0.00    -0.350 OA
BRANCH  25  26
ATOM     26  C   UNL     1      11.510  30.344  11.227  1.00  0.00     0.169 C 
BRANCH  26  27
ATOM     27  C   UNL     1      12.877  30.904  10.912  1.00  0.00     0.119 C 
BRANCH  27  28
ATOM     28  N   UNL     1      13.243  31.985  11.824  1.00  0.00    -0.092 NA
ATOM     29  N   UNL     1      12.426  32.525  12.559  1.00  0.00     0.001 N 
ATOM     30  N   UNL     1      11.493  33.211  12.994  1.00  0.00    -0.003 NA
ENDBRANCH  27  28
ENDBRANCH  26  27
ENDBRANCH  25  26
ENDBRANCH  19  25
BRANCH  20  31
ATOM     31  O   UNL     1      14.412  29.890  13.836  1.00  0.00    -0.387 OA
ATOM     32  H   UNL     1      15.252  29.855  14.368  1.00  0.00     0.211 HD
ENDBRANCH  20  31
BRANCH  21  33
ATOM     33  O   UNL     1      12.282  27.162  14.442  1.00  0.00    -0.385 OA
ATOM     34  H   UNL     1      11.927  26.485  13.800  1.00  0.00     0.211 HD
ENDBRANCH  21  33
ENDBRANCH  15  16
ENDBRANCH  10  15
BRANCH  12  35
ATOM     35  O   UNL     1      12.110  32.524  18.787  1.00  0.00    -0.385 OA
ATOM     36  H   UNL     1      12.309  33.310  19.350  1.00  0.00     0.211 HD
ENDBRANCH  12  35
BRANCH  13  37
ATOM     37  O   UNL     1      14.840  33.530  19.335  1.00  0.00    -0.387 OA
ATOM     38  H   UNL     1      15.802  33.490  19.094  1.00  0.00     0.211 HD
ENDBRANCH  13  37
BRANCH  14  39
ATOM     39  O   UNL     1      16.273  34.056  17.496  1.00  0.00    -0.387 OA
ATOM     40  H   UNL     1      16.799  34.725  16.998  1.00  0.00     0.211 HD
ENDBRANCH  14  39
ENDBRANCH   8   9
ENDBRANCH   7   8
ENDBRANCH   1   7
BRANCH   1  41
ATOM     41  C   UNL     1      17.605  29.407  15.244  1.00  0.00     0.364 C 
ATOM     42  O   UNL     1      16.949  28.779  14.391  1.00  0.00    -0.246 OA
BRANCH  41  43
ATOM     43  O   UNL     1      18.976  29.534  15.008  1.00  0.00    -0.477 OA
ATOM     44  H   UNL     1      19.532  28.739  14.729  1.00  0.00     0.296 HD
ENDBRANCH  41  43
ENDBRANCH   1  41
BRANCH   3  45
ATOM     45  O   UNL     1      16.881  27.013  18.639  1.00  0.00    -0.391 OA
ATOM     46  H   UNL     1      16.054  27.321  19.087  1.00  0.00     0.211 HD
ENDBRANCH   3  45
BRANCH   5  47
ATOM     47  C   UNL     1      17.018  31.225  19.332  1.00  0.00     0.176 C 
BRANCH  47  48
ATOM     48  O   UNL     1      17.661  32.443  19.634  1.00  0.00    -0.388 OA
ATOM     49  H   UNL     1      18.035  32.468  20.531  1.00  0.00     0.211 HD
ENDBRANCH  47  48
BRANCH  47  50
ATOM     50  C   UNL     1      16.596  30.600  20.612  1.00  0.00     0.165 C 
BRANCH  50  51
ATOM     51  O   UNL     1      15.234  30.840  20.755  1.00  0.00    -0.388 OA
ATOM     52  H   UNL     1      14.708  30.582  19.954  1.00  0.00     0.211 HD
ENDBRANCH  50  51
BRANCH  50  53
ATOM     53  C   UNL     1      17.314  31.054  21.834  1.00  0.00     0.154 C 
BRANCH  53  54
ATOM     54  N   UNL     1      18.602  30.481  22.064  1.00  0.00    -0.319 N 
ATOM     55  C   UNL     1      19.852  31.082  21.895  1.00  0.00     0.407 C 
ATOM     56  H   UNL     1      18.622  29.467  22.408  1.00  0.00     0.167 HD
ATOM     57  O   UNL     1      19.936  32.247  21.487  1.00  0.00    -0.225 OA
BRANCH  55  58
ATOM     58  O   UNL     1      21.030  30.395  22.178  1.00  0.00    -0.443 OA
BRANCH  58  59
ATOM     59  C   UNL     1      21.484  30.289  23.536  1.00  0.00     0.294 C 
BRANCH  59  60
ATOM     60  C   UNL     1      21.136  28.937  24.043  1.00  0.00     0.120 A 
ATOM     61  C   UNL     1      21.995  27.877  24.013  1.00  0.00     0.139 A 
ATOM     62  N   UNL     1      19.978  28.577  24.587  1.00  0.00    -0.132 NA
ATOM     63  N   UNL     1      21.320  26.851  24.558  1.00  0.00    -0.240 N 
ATOM     64  N   UNL     1      20.103  27.287  24.901  1.00  0.00    -0.066 NA
BRANCH  63  65
ATOM     65  C   UNL     1      21.750  25.488  24.790  1.00  0.00     0.169 C 
BRANCH  65  66
ATOM     66  C   UNL     1      22.528  25.464  26.036  1.00  0.00    -0.019 A 
ATOM     67  C   UNL     1      23.478  26.432  26.288  1.00  0.00     0.006 A 
ATOM     68  C   UNL     1      22.373  24.488  26.997  1.00  0.00     0.006 A 
ATOM     69  C   UNL     1      24.236  26.419  27.452  1.00  0.00     0.000 A 
ATOM     70  C   UNL     1      23.127  24.465  28.167  1.00  0.00     0.000 A 
ATOM     71  C   UNL     1      24.073  25.443  28.403  1.00  0.00     0.000 A 
ENDBRANCH  65  66
BRANCH  65  72
ATOM     72  C   UNL     1      22.453  24.957  23.605  1.00  0.00    -0.019 A 
ATOM     73  C   UNL     1      21.694  24.755  22.458  1.00  0.00     0.006 A 
ATOM     74  C   UNL     1      23.777  24.628  23.564  1.00  0.00     0.006 A 
ATOM     75  C   UNL     1      22.267  24.241  21.325  1.00  0.00     0.000 A 
ATOM     76  C   UNL     1      24.362  24.110  22.423  1.00  0.00     0.000 A 
ATOM     77  C   UNL     1      23.607  23.913  21.296  1.00  0.00     0.000 A 
ENDBRANCH  65  72
ENDBRANCH  63  65
ENDBRANCH  59  60
ENDBRANCH  58  59
ENDBRANCH  55  58
ENDBRANCH  53  54
ENDBRANCH  50  53
ENDBRANCH  47  50
ENDBRANCH   5  47
BRANCH   4  78
ATOM     78  N   UNL     1      19.598  28.647  18.758  1.00  0.00    -0.348 N 
ATOM     79  C   UNL     1      20.292  28.019  19.828  1.00  0.00     0.217 C 
ATOM     80  H   UNL     1      20.155  28.844  17.889  1.00  0.00     0.163 HD
ATOM     81  C   UNL     1      21.746  27.660  19.703  1.00  0.00     0.114 C 
ATOM     82  O   UNL     1      19.716  27.745  20.902  1.00  0.00    -0.275 OA
ENDBRANCH   4  78
TORSDOF 32
