REMARK VINA RESULT:    -4.959      2.749      8.318
REMARK INTER + INTRA:         -21.395
REMARK INTER:                 -16.032
REMARK INTRA:                  -5.362
REMARK UNBOUND:                -8.028
REMARK SMILES CCN(CC)CCn1cc(COC(=O)NC[C@@H](O)C(O)[C@@H]2O[C@@](OC[C@H]3O[C@@H](O[C@H]4[C@H](O)[C@@H](O)[C@H](OCCN=[N+]=[N-])O[C@@H]4CO)[C@H](O)[C@@H](O)[C@H]3O)(C(=O)O)C[C@H](O)[C@H]2NC(C)=O)nn1
REMARK SMILES IDX 19 1 21 2 23 3 55 4 22 5 56 6 58 7 24 8 25 9 26 10 28 11
REMARK SMILES IDX 27 12 46 13 48 14 50 15 29 16 30 17 43 18 42 19 35 20 31 21
REMARK SMILES IDX 33 22 44 23 45 24 36 26 37 27 38 28 39 29 40 30 41 31 32 32
REMARK SMILES IDX 34 34 47 36 49 38 51 40 52 42 53 43 54 44 57 46 59 48 60 49
REMARK SMILES IDX 61 51 62 52 20 53 17 55 18 56 16 58 15 59 13 60 14 62 12 63
REMARK SMILES IDX 11 64 10 65 9 66 63 67 8 68 64 69 7 70 6 71 3 72 2 73 1 74
REMARK SMILES IDX 4 75 5 76
REMARK H PARENT 45 25 32 33 34 35 47 37 49 39 51 41 54 45 57 47 59 50 20 54
REMARK H PARENT 18 57 15 61
REMARK Flexibility Score: inf
ROOT
ATOM      1  C   UNL     1      15.476  29.483  18.939  1.00  0.00     0.176 C 
ENDROOT
BRANCH   1   2
ATOM      2  C   UNL     1      16.036  30.007  17.643  1.00  0.00     0.178 C 
ATOM      3  C   UNL     1      17.034  29.388  15.663  1.00  0.00     0.272 C 
ATOM      4  C   UNL     1      16.769  30.882  15.423  1.00  0.00     0.113 C 
ATOM      5  O   UNL     1      16.465  28.972  16.847  1.00  0.00    -0.332 OA
ATOM      6  C   UNL     1      17.262  31.760  16.527  1.00  0.00     0.145 C 
ATOM      7  C   UNL     1      17.214  30.939  17.824  1.00  0.00     0.142 C 
BRANCH   3   8
ATOM      8  O   UNL     1      18.395  29.215  15.588  1.00  0.00    -0.338 OA
BRANCH   8   9
ATOM      9  C   UNL     1      18.946  28.339  16.491  1.00  0.00     0.199 C 
BRANCH   9  10
ATOM     10  C   UNL     1      20.201  28.938  17.151  1.00  0.00     0.179 C 
ATOM     11  C   UNL     1      21.287  28.401  19.168  1.00  0.00     0.282 C 
ATOM     12  O   UNL     1      20.116  28.641  18.464  1.00  0.00    -0.341 OA
ATOM     13  C   UNL     1      22.453  29.084  18.575  1.00  0.00     0.202 C 
ATOM     14  C   UNL     1      22.677  28.770  17.122  1.00  0.00     0.179 C 
ATOM     15  C   UNL     1      21.384  28.284  16.504  1.00  0.00     0.177 C 
BRANCH  11  16
ATOM     16  O   UNL     1      21.340  27.021  19.307  1.00  0.00    -0.341 OA
BRANCH  16  17
ATOM     17  C   UNL     1      22.112  26.582  20.324  1.00  0.00     0.184 C 
ATOM     18  C   UNL     1      22.557  25.153  20.152  1.00  0.00     0.178 C 
ATOM     19  O   UNL     1      23.448  24.844  21.220  1.00  0.00    -0.341 OA
ATOM     20  C   UNL     1      22.691  24.558  22.335  1.00  0.00     0.281 C 
ATOM     21  C   UNL     1      21.427  26.662  21.684  1.00  0.00     0.180 C 
ATOM     22  C   UNL     1      21.479  25.375  22.444  1.00  0.00     0.202 C 
BRANCH  18  23
ATOM     23  C   UNL     1      23.152  24.811  18.834  1.00  0.00     0.191 C 
BRANCH  23  24
ATOM     24  O   UNL     1      22.168  24.206  18.062  1.00  0.00    -0.394 OA
ATOM     25  H   UNL     1      21.299  24.677  18.083  1.00  0.00     0.210 HD
ENDBRANCH  23  24
ENDBRANCH  18  23
BRANCH  20  26
ATOM     26  O   UNL     1      23.467  24.506  23.490  1.00  0.00    -0.350 OA
BRANCH  26  27
ATOM     27  C   UNL     1      23.276  25.540  24.357  1.00  0.00     0.169 C 
BRANCH  27  28
ATOM     28  C   UNL     1      22.651  25.105  25.669  1.00  0.00     0.119 C 
BRANCH  28  29
ATOM     29  N   UNL     1      21.932  26.197  26.296  1.00  0.00    -0.092 NA
ATOM     30  N   UNL     1      20.986  26.778  25.749  1.00  0.00     0.001 N 
ATOM     31  N   UNL     1      20.405  27.613  25.055  1.00  0.00    -0.003 NA
ENDBRANCH  28  29
ENDBRANCH  27  28
ENDBRANCH  26  27
ENDBRANCH  20  26
BRANCH  21  32
ATOM     32  O   UNL     1      22.041  27.656  22.422  1.00  0.00    -0.387 OA
ATOM     33  H   UNL     1      22.121  28.513  21.956  1.00  0.00     0.211 HD
ENDBRANCH  21  32
BRANCH  22  34
ATOM     34  O   UNL     1      20.344  24.572  22.168  1.00  0.00    -0.385 OA
ATOM     35  H   UNL     1      20.195  24.645  21.190  1.00  0.00     0.211 HD
ENDBRANCH  22  34
ENDBRANCH  16  17
ENDBRANCH  11  16
BRANCH  13  36
ATOM     36  O   UNL     1      22.231  30.490  18.653  1.00  0.00    -0.385 OA
ATOM     37  H   UNL     1      23.064  30.968  18.812  1.00  0.00     0.211 HD
ENDBRANCH  13  36
BRANCH  14  38
ATOM     38  O   UNL     1      23.722  27.890  16.888  1.00  0.00    -0.387 OA
ATOM     39  H   UNL     1      24.459  28.287  16.397  1.00  0.00     0.211 HD
ENDBRANCH  14  38
BRANCH  15  40
ATOM     40  O   UNL     1      21.304  26.913  16.708  1.00  0.00    -0.387 OA
ATOM     41  H   UNL     1      21.969  26.439  16.131  1.00  0.00     0.211 HD
ENDBRANCH  15  40
ENDBRANCH   9  10
ENDBRANCH   8   9
ENDBRANCH   3   8
BRANCH   3  42
ATOM     42  C   UNL     1      16.347  28.709  14.535  1.00  0.00     0.364 C 
ATOM     43  O   UNL     1      16.893  28.655  13.380  1.00  0.00    -0.246 OA
BRANCH  42  44
ATOM     44  O   UNL     1      15.111  28.103  14.621  1.00  0.00    -0.477 OA
ATOM     45  H   UNL     1      14.756  27.801  15.522  1.00  0.00     0.296 HD
ENDBRANCH  42  44
ENDBRANCH   3  42
BRANCH   6  46
ATOM     46  O   UNL     1      18.484  32.347  16.309  1.00  0.00    -0.391 OA
ATOM     47  H   UNL     1      18.998  31.747  15.709  1.00  0.00     0.211 HD
ENDBRANCH   6  46
BRANCH   7  48
ATOM     48  N   UNL     1      17.144  31.776  18.974  1.00  0.00    -0.348 N 
ATOM     49  C   UNL     1      18.376  32.136  19.630  1.00  0.00     0.217 C 
ATOM     50  H   UNL     1      16.279  32.163  19.391  1.00  0.00     0.163 HD
ATOM     51  C   UNL     1      18.380  33.004  20.835  1.00  0.00     0.114 C 
ATOM     52  O   UNL     1      19.490  31.727  19.206  1.00  0.00    -0.275 OA
ENDBRANCH   7  48
ENDBRANCH   1   2
BRANCH   1  53
ATOM     53  O   UNL     1      14.347  28.726  18.653  1.00  0.00    -0.388 OA
ATOM     54  H   UNL     1      13.798  29.206  17.956  1.00  0.00     0.211 HD
ENDBRANCH   1  53
BRANCH   1  55
ATOM     55  C   UNL     1      16.530  28.586  19.537  1.00  0.00     0.165 C 
BRANCH  55  56
ATOM     56  O   UNL     1      16.190  27.251  19.288  1.00  0.00    -0.388 OA
ATOM     57  H   UNL     1      16.487  26.711  20.060  1.00  0.00     0.211 HD
ENDBRANCH  55  56
BRANCH  55  58
ATOM     58  C   UNL     1      16.784  28.772  20.987  1.00  0.00     0.154 C 
BRANCH  58  59
ATOM     59  N   UNL     1      15.774  29.505  21.671  1.00  0.00    -0.319 N 
ATOM     60  C   UNL     1      15.969  29.849  23.052  1.00  0.00     0.407 C 
ATOM     61  H   UNL     1      14.907  29.787  21.212  1.00  0.00     0.167 HD
ATOM     62  O   UNL     1      17.005  29.510  23.658  1.00  0.00    -0.225 OA
BRANCH  60  63
ATOM     63  O   UNL     1      14.975  30.567  23.696  1.00  0.00    -0.443 OA
BRANCH  63  64
ATOM     64  C   UNL     1      14.064  31.338  22.895  1.00  0.00     0.294 C 
BRANCH  64  65
ATOM     65  C   UNL     1      12.701  31.010  23.334  1.00  0.00     0.120 A 
ATOM     66  C   UNL     1      12.320  29.749  23.806  1.00  0.00     0.138 A 
ATOM     67  N   UNL     1      11.598  31.751  23.391  1.00  0.00    -0.132 NA
ATOM     68  N   UNL     1      11.015  29.785  24.125  1.00  0.00    -0.251 N 
ATOM     69  N   UNL     1      10.604  30.998  23.866  1.00  0.00    -0.067 NA
BRANCH  68  70
ATOM     70  C   UNL     1      10.205  28.703  24.651  1.00  0.00     0.161 C 
BRANCH  70  71
ATOM     71  C   UNL     1       8.764  29.164  24.651  1.00  0.00     0.108 C 
BRANCH  71  72
ATOM     72  N   UNL     1       7.834  28.132  24.297  1.00  0.00    -0.302 NA
BRANCH  72  73
ATOM     73  C   UNL     1       6.600  28.662  23.782  1.00  0.00     0.081 C 
ATOM     74  C   UNL     1       6.776  30.159  23.557  1.00  0.00     0.021 C 
ENDBRANCH  72  73
BRANCH  72  75
ATOM     75  C   UNL     1       7.648  27.161  25.331  1.00  0.00     0.081 C 
ATOM     76  C   UNL     1       6.556  27.590  26.289  1.00  0.00     0.021 C 
ENDBRANCH  72  75
ENDBRANCH  71  72
ENDBRANCH  70  71
ENDBRANCH  68  70
ENDBRANCH  64  65
ENDBRANCH  63  64
ENDBRANCH  60  63
ENDBRANCH  58  59
ENDBRANCH  55  58
ENDBRANCH   1  55
TORSDOF 34
