REMARK VINA RESULT:    -5.912      3.156      5.101
REMARK INTER + INTRA:         -19.768
REMARK INTER:                 -14.552
REMARK INTRA:                  -5.215
REMARK UNBOUND:                -5.215
REMARK SMILES CC(=O)N[C@@H]1[C@@H](O)C[C@](OC[C@H]2O[C@@H](O[C@H]3[C@H](O)[C@@H](O)[C@H](OCCN=[N+]=[N-])O[C@@H]3CO)[C@H](O)[C@@H](O)[C@H]2O)(C(=O)O)O[C@H]1C(O)[C@H](O)CNC(=O)OCc1cn(C2CCCC2)nn1
REMARK SMILES IDX 9 1 8 2 6 3 5 4 42 5 41 6 10 7 11 8 12 9 14 10 13 11 32 12
REMARK SMILES IDX 34 13 36 14 15 15 16 16 29 17 28 18 21 19 17 20 19 21 30 22
REMARK SMILES IDX 31 23 22 25 23 26 24 27 25 28 26 29 27 30 18 31 20 33 33 35
REMARK SMILES IDX 35 37 37 39 38 41 39 42 40 43 7 45 43 47 44 48 45 50 46 51
REMARK SMILES IDX 47 53 48 54 49 55 50 57 51 58 52 59 53 60 54 61 62 62 55 63
REMARK SMILES IDX 61 64 56 65 57 66 60 67 58 68 59 69 4 70 2 71 1 73 3 74
REMARK H PARENT 31 24 18 32 20 34 33 36 35 38 37 40 40 44 7 46 44 49 46 52
REMARK H PARENT 48 56 4 72
REMARK Flexibility Score: inf
ROOT
ATOM      1  C   UNL     1      21.944  30.535  26.970  1.00  0.00     0.272 C 
ATOM      2  C   UNL     1      21.269  31.742  27.508  1.00  0.00     0.113 C 
ATOM      3  C   UNL     1      19.785  31.647  27.570  1.00  0.00     0.145 C 
ATOM      4  C   UNL     1      19.224  31.151  26.215  1.00  0.00     0.142 C 
ATOM      5  C   UNL     1      20.380  30.956  25.298  1.00  0.00     0.178 C 
ATOM      6  O   UNL     1      21.165  29.943  25.949  1.00  0.00    -0.332 OA
ENDROOT
BRANCH   1   7
ATOM      7  O   UNL     1      22.195  29.586  27.894  1.00  0.00    -0.338 OA
BRANCH   7   8
ATOM      8  C   UNL     1      22.858  28.442  27.532  1.00  0.00     0.199 C 
BRANCH   8   9
ATOM      9  C   UNL     1      21.963  27.263  27.903  1.00  0.00     0.179 C 
ATOM     10  C   UNL     1      22.523  25.660  26.310  1.00  0.00     0.282 C 
ATOM     11  O   UNL     1      21.567  26.516  26.841  1.00  0.00    -0.341 OA
ATOM     12  C   UNL     1      23.479  25.125  27.318  1.00  0.00     0.202 C 
ATOM     13  C   UNL     1      22.963  25.128  28.723  1.00  0.00     0.179 C 
ATOM     14  C   UNL     1      22.542  26.538  29.058  1.00  0.00     0.177 C 
BRANCH  10  15
ATOM     15  O   UNL     1      23.141  26.209  25.188  1.00  0.00    -0.341 OA
BRANCH  15  16
ATOM     16  C   UNL     1      22.854  25.493  24.026  1.00  0.00     0.184 C 
ATOM     17  C   UNL     1      23.926  25.545  22.990  1.00  0.00     0.178 C 
ATOM     18  O   UNL     1      23.484  24.866  21.857  1.00  0.00    -0.341 OA
ATOM     19  C   UNL     1      22.576  25.648  21.165  1.00  0.00     0.281 C 
ATOM     20  C   UNL     1      21.624  26.159  23.423  1.00  0.00     0.180 C 
ATOM     21  C   UNL     1      21.329  25.711  22.027  1.00  0.00     0.202 C 
BRANCH  17  22
ATOM     22  C   UNL     1      25.208  24.830  23.402  1.00  0.00     0.191 C 
BRANCH  22  23
ATOM     23  O   UNL     1      24.811  23.863  24.341  1.00  0.00    -0.394 OA
ATOM     24  H   UNL     1      23.845  23.850  24.446  1.00  0.00     0.210 HD
ENDBRANCH  22  23
ENDBRANCH  17  22
BRANCH  19  25
ATOM     25  O   UNL     1      22.227  24.998  19.985  1.00  0.00    -0.350 OA
BRANCH  25  26
ATOM     26  C   UNL     1      23.388  24.626  19.287  1.00  0.00     0.169 C 
BRANCH  26  27
ATOM     27  C   UNL     1      23.095  24.489  17.803  1.00  0.00     0.119 C 
BRANCH  27  28
ATOM     28  N   UNL     1      22.593  25.717  17.260  1.00  0.00    -0.092 NA
ATOM     29  N   UNL     1      22.278  25.828  16.058  1.00  0.00     0.001 N 
ATOM     30  N   UNL     1      22.449  26.002  14.854  1.00  0.00    -0.003 NA
ENDBRANCH  27  28
ENDBRANCH  26  27
ENDBRANCH  25  26
ENDBRANCH  19  25
BRANCH  20  31
ATOM     31  O   UNL     1      20.552  25.803  24.237  1.00  0.00    -0.387 OA
ATOM     32  H   UNL     1      20.381  24.829  24.247  1.00  0.00     0.211 HD
ENDBRANCH  20  31
BRANCH  21  33
ATOM     33  O   UNL     1      20.478  26.660  21.438  1.00  0.00    -0.385 OA
ATOM     34  H   UNL     1      19.558  26.333  21.608  1.00  0.00     0.211 HD
ENDBRANCH  21  33
ENDBRANCH  15  16
ENDBRANCH  10  15
BRANCH  12  35
ATOM     35  O   UNL     1      23.822  23.782  27.036  1.00  0.00    -0.385 OA
ATOM     36  H   UNL     1      24.687  23.794  26.586  1.00  0.00     0.211 HD
ENDBRANCH  12  35
BRANCH  13  37
ATOM     37  O   UNL     1      23.976  24.756  29.587  1.00  0.00    -0.387 OA
ATOM     38  H   UNL     1      23.639  24.027  30.153  1.00  0.00     0.211 HD
ENDBRANCH  13  37
BRANCH  14  39
ATOM     39  O   UNL     1      23.617  27.183  29.655  1.00  0.00    -0.387 OA
ATOM     40  H   UNL     1      24.379  27.275  29.067  1.00  0.00     0.211 HD
ENDBRANCH  14  39
ENDBRANCH   8   9
ENDBRANCH   7   8
ENDBRANCH   1   7
BRANCH   1  41
ATOM     41  C   UNL     1      23.194  30.972  26.240  1.00  0.00     0.364 C 
ATOM     42  O   UNL     1      23.744  32.065  26.451  1.00  0.00    -0.246 OA
BRANCH  41  43
ATOM     43  O   UNL     1      23.697  30.065  25.303  1.00  0.00    -0.477 OA
ATOM     44  H   UNL     1      24.046  29.156  25.633  1.00  0.00     0.296 HD
ENDBRANCH  41  43
ENDBRANCH   1  41
BRANCH   3  45
ATOM     45  O   UNL     1      19.273  30.934  28.624  1.00  0.00    -0.391 OA
ATOM     46  H   UNL     1      18.855  31.542  29.276  1.00  0.00     0.211 HD
ENDBRANCH   3  45
BRANCH   5  47
ATOM     47  C   UNL     1      20.046  30.342  23.961  1.00  0.00     0.176 C 
BRANCH  47  48
ATOM     48  O   UNL     1      19.779  28.936  24.238  1.00  0.00    -0.388 OA
ATOM     49  H   UNL     1      19.135  28.701  23.532  1.00  0.00     0.211 HD
ENDBRANCH  47  48
BRANCH  47  50
ATOM     50  C   UNL     1      21.180  30.250  22.979  1.00  0.00     0.165 C 
BRANCH  50  51
ATOM     51  O   UNL     1      22.203  31.122  23.104  1.00  0.00    -0.388 OA
ATOM     52  H   UNL     1      23.017  30.768  23.522  1.00  0.00     0.211 HD
ENDBRANCH  50  51
BRANCH  50  53
ATOM     53  C   UNL     1      20.595  30.411  21.580  1.00  0.00     0.154 C 
BRANCH  53  54
ATOM     54  N   UNL     1      19.626  29.327  21.365  1.00  0.00    -0.319 N 
ATOM     55  C   UNL     1      18.422  29.556  20.651  1.00  0.00     0.407 C 
ATOM     56  H   UNL     1      19.798  28.357  21.733  1.00  0.00     0.167 HD
ATOM     57  O   UNL     1      18.189  30.707  20.199  1.00  0.00    -0.225 OA
BRANCH  55  58
ATOM     58  O   UNL     1      17.505  28.552  20.442  1.00  0.00    -0.443 OA
BRANCH  58  59
ATOM     59  C   UNL     1      16.279  28.772  19.772  1.00  0.00     0.294 C 
BRANCH  59  60
ATOM     60  C   UNL     1      15.160  29.080  20.691  1.00  0.00     0.120 A 
ATOM     61  C   UNL     1      14.966  30.144  21.543  1.00  0.00     0.138 A 
ATOM     62  N   UNL     1      14.066  28.305  20.852  1.00  0.00    -0.132 NA
ATOM     63  N   UNL     1      13.800  29.987  22.175  1.00  0.00    -0.249 N 
ATOM     64  N   UNL     1      13.278  28.856  21.729  1.00  0.00    -0.067 NA
BRANCH  63  65
ATOM     65  C   UNL     1      13.180  30.859  23.166  1.00  0.00     0.109 C 
ATOM     66  C   UNL     1      11.689  30.784  23.153  1.00  0.00     0.027 C 
ATOM     67  C   UNL     1      13.572  30.372  24.544  1.00  0.00     0.027 C 
ATOM     68  C   UNL     1      11.272  29.763  24.179  1.00  0.00     0.002 C 
ATOM     69  C   UNL     1      12.499  29.424  24.987  1.00  0.00     0.002 C 
ENDBRANCH  63  65
ENDBRANCH  59  60
ENDBRANCH  58  59
ENDBRANCH  55  58
ENDBRANCH  53  54
ENDBRANCH  50  53
ENDBRANCH  47  50
ENDBRANCH   5  47
BRANCH   4  70
ATOM     70  N   UNL     1      18.200  32.073  25.779  1.00  0.00    -0.348 N 
ATOM     71  C   UNL     1      16.837  31.910  26.241  1.00  0.00     0.217 C 
ATOM     72  H   UNL     1      18.382  32.883  25.152  1.00  0.00     0.163 HD
ATOM     73  C   UNL     1      15.771  32.845  25.806  1.00  0.00     0.114 C 
ATOM     74  O   UNL     1      16.530  30.969  27.021  1.00  0.00    -0.275 OA
ENDBRANCH   4  70
TORSDOF 30
