REMARK VINA RESULT:    -4.556      2.649      5.546
REMARK INTER + INTRA:         -21.492
REMARK INTER:                 -12.714
REMARK INTRA:                  -8.779
REMARK UNBOUND:                -8.679
REMARK SMILES CCOC(CCn1cc(COC(=O)NC[C@@H](O)C(O)[C@@H]2O[C@@](OC[C@H]3O[C@@H](O[C@H]4[C@H](O)[C@@H](O)[C@H](OCCN=[N+]=[N-])O[C@@H]4CO)[C@H](O)[C@@H](O)[C@H]3O)(C(=O)O)C[C@H](O)[C@H]2NC(C)=O)nn1)OCC
REMARK SMILES IDX 18 1 20 2 22 3 54 4 21 5 55 6 57 7 23 8 24 9 25 10 27 11
REMARK SMILES IDX 26 12 45 13 47 14 49 15 28 16 29 17 42 18 41 19 34 20 30 21
REMARK SMILES IDX 32 22 43 23 44 24 35 26 36 27 37 28 38 29 39 30 40 31 31 32
REMARK SMILES IDX 33 34 46 36 48 38 50 40 51 42 52 43 53 44 56 46 58 48 59 49
REMARK SMILES IDX 60 51 61 52 19 53 16 55 17 56 15 58 14 59 12 60 13 62 11 63
REMARK SMILES IDX 10 64 9 65 8 66 62 67 7 68 63 69 6 70 5 71 4 72 3 73 2 74
REMARK SMILES IDX 1 75 64 76 65 77 66 78
REMARK H PARENT 44 25 31 33 33 35 46 37 48 39 50 41 53 45 56 47 58 50 19 54
REMARK H PARENT 17 57 14 61
REMARK Flexibility Score: inf
ROOT
ATOM      1  C   UNL     1      15.724  31.655  23.553  1.00  0.00     0.176 C 
ENDROOT
BRANCH   1   2
ATOM      2  C   UNL     1      14.781  31.371  22.421  1.00  0.00     0.178 C 
ATOM      3  C   UNL     1      14.633  30.557  20.261  1.00  0.00     0.272 C 
ATOM      4  C   UNL     1      13.193  30.768  20.568  1.00  0.00     0.113 C 
ATOM      5  O   UNL     1      15.493  30.920  21.321  1.00  0.00    -0.332 OA
ATOM      6  C   UNL     1      12.841  32.065  21.210  1.00  0.00     0.145 C 
ATOM      7  C   UNL     1      14.068  32.636  21.933  1.00  0.00     0.142 C 
BRANCH   3   8
ATOM      8  O   UNL     1      15.131  31.074  19.134  1.00  0.00    -0.338 OA
BRANCH   8   9
ATOM      9  C   UNL     1      14.348  31.409  18.094  1.00  0.00     0.199 C 
BRANCH   9  10
ATOM     10  C   UNL     1      14.814  30.743  16.819  1.00  0.00     0.179 C 
ATOM     11  C   UNL     1      16.425  29.560  15.796  1.00  0.00     0.282 C 
ATOM     12  O   UNL     1      15.729  29.727  17.023  1.00  0.00    -0.341 OA
ATOM     13  C   UNL     1      15.496  28.936  14.822  1.00  0.00     0.202 C 
ATOM     14  C   UNL     1      14.263  29.796  14.672  1.00  0.00     0.179 C 
ATOM     15  C   UNL     1      13.651  30.225  15.979  1.00  0.00     0.177 C 
BRANCH  11  16
ATOM     16  O   UNL     1      17.601  28.843  16.041  1.00  0.00    -0.341 OA
BRANCH  16  17
ATOM     17  C   UNL     1      18.194  29.334  17.161  1.00  0.00     0.184 C 
ATOM     18  C   UNL     1      19.590  29.816  17.080  1.00  0.00     0.178 C 
ATOM     19  O   UNL     1      19.839  30.613  18.206  1.00  0.00    -0.341 OA
ATOM     20  C   UNL     1      19.840  29.828  19.368  1.00  0.00     0.281 C 
ATOM     21  C   UNL     1      18.231  28.244  18.281  1.00  0.00     0.180 C 
ATOM     22  C   UNL     1      18.549  29.057  19.544  1.00  0.00     0.202 C 
BRANCH  18  23
ATOM     23  C   UNL     1      19.813  30.654  15.856  1.00  0.00     0.191 C 
BRANCH  23  24
ATOM     24  O   UNL     1      19.161  31.885  15.930  1.00  0.00    -0.394 OA
ATOM     25  H   UNL     1      19.220  32.294  16.811  1.00  0.00     0.210 HD
ENDBRANCH  23  24
ENDBRANCH  18  23
BRANCH  20  26
ATOM     26  O   UNL     1      19.963  30.701  20.434  1.00  0.00    -0.350 OA
BRANCH  26  27
ATOM     27  C   UNL     1      21.014  31.566  20.398  1.00  0.00     0.169 C 
BRANCH  27  28
ATOM     28  C   UNL     1      20.614  32.904  20.964  1.00  0.00     0.119 C 
BRANCH  28  29
ATOM     29  N   UNL     1      19.563  33.482  20.129  1.00  0.00    -0.092 NA
ATOM     30  N   UNL     1      19.793  34.645  19.736  1.00  0.00     0.001 N 
ATOM     31  N   UNL     1      19.634  35.857  19.573  1.00  0.00    -0.003 NA
ENDBRANCH  28  29
ENDBRANCH  27  28
ENDBRANCH  26  27
ENDBRANCH  20  26
BRANCH  21  32
ATOM     32  O   UNL     1      17.021  27.614  18.401  1.00  0.00    -0.387 OA
ATOM     33  H   UNL     1      16.576  27.460  17.532  1.00  0.00     0.211 HD
ENDBRANCH  21  32
BRANCH  22  34
ATOM     34  O   UNL     1      18.653  28.247  20.642  1.00  0.00    -0.385 OA
ATOM     35  H   UNL     1      19.600  27.901  20.661  1.00  0.00     0.211 HD
ENDBRANCH  22  34
ENDBRANCH  16  17
ENDBRANCH  11  16
BRANCH  13  36
ATOM     36  O   UNL     1      16.067  28.864  13.542  1.00  0.00    -0.385 OA
ATOM     37  H   UNL     1      15.404  29.035  12.837  1.00  0.00     0.211 HD
ENDBRANCH  13  36
BRANCH  14  38
ATOM     38  O   UNL     1      13.332  29.224  13.812  1.00  0.00    -0.387 OA
ATOM     39  H   UNL     1      13.095  28.302  14.099  1.00  0.00     0.211 HD
ENDBRANCH  14  38
BRANCH  15  40
ATOM     40  O   UNL     1      13.031  29.179  16.646  1.00  0.00    -0.387 OA
ATOM     41  H   UNL     1      12.103  29.066  16.342  1.00  0.00     0.211 HD
ENDBRANCH  15  40
ENDBRANCH   9  10
ENDBRANCH   8   9
ENDBRANCH   3   8
BRANCH   3  42
ATOM     42  C   UNL     1      14.828  29.075  20.166  1.00  0.00     0.364 C 
ATOM     43  O   UNL     1      15.542  28.455  20.976  1.00  0.00    -0.246 OA
BRANCH  42  44
ATOM     44  O   UNL     1      14.215  28.327  19.165  1.00  0.00    -0.477 OA
ATOM     45  H   UNL     1      13.231  28.487  18.981  1.00  0.00     0.296 HD
ENDBRANCH  42  44
ENDBRANCH   3  42
BRANCH   6  46
ATOM     46  O   UNL     1      12.288  32.998  20.369  1.00  0.00    -0.391 OA
ATOM     47  H   UNL     1      12.870  33.777  20.186  1.00  0.00     0.211 HD
ENDBRANCH   6  46
BRANCH   7  48
ATOM     48  N   UNL     1      13.712  33.530  22.986  1.00  0.00    -0.348 N 
ATOM     49  C   UNL     1      13.700  34.926  22.708  1.00  0.00     0.217 C 
ATOM     50  H   UNL     1      13.460  33.216  23.943  1.00  0.00     0.163 HD
ATOM     51  C   UNL     1      13.335  35.884  23.784  1.00  0.00     0.114 C 
ATOM     52  O   UNL     1      13.997  35.375  21.550  1.00  0.00    -0.275 OA
ENDBRANCH   7  48
ENDBRANCH   1   2
BRANCH   1  53
ATOM     53  O   UNL     1      15.077  31.230  24.727  1.00  0.00    -0.388 OA
ATOM     54  H   UNL     1      14.143  31.589  24.760  1.00  0.00     0.211 HD
ENDBRANCH   1  53
BRANCH   1  55
ATOM     55  C   UNL     1      16.940  30.766  23.378  1.00  0.00     0.165 C 
BRANCH  55  56
ATOM     56  O   UNL     1      16.647  29.465  23.666  1.00  0.00    -0.388 OA
ATOM     57  H   UNL     1      16.910  29.173  24.575  1.00  0.00     0.211 HD
ENDBRANCH  55  56
BRANCH  55  58
ATOM     58  C   UNL     1      18.074  31.259  24.233  1.00  0.00     0.154 C 
BRANCH  58  59
ATOM     59  N   UNL     1      19.391  30.992  23.733  1.00  0.00    -0.319 N 
ATOM     60  C   UNL     1      20.092  29.787  23.899  1.00  0.00     0.407 C 
ATOM     61  H   UNL     1      19.848  31.793  23.197  1.00  0.00     0.167 HD
ATOM     62  O   UNL     1      19.626  28.807  24.504  1.00  0.00    -0.225 OA
BRANCH  60  63
ATOM     63  O   UNL     1      21.394  29.639  23.370  1.00  0.00    -0.443 OA
BRANCH  63  64
ATOM     64  C   UNL     1      22.004  28.340  23.384  1.00  0.00     0.294 C 
BRANCH  64  65
ATOM     65  C   UNL     1      21.851  27.735  22.035  1.00  0.00     0.120 A 
ATOM     66  C   UNL     1      22.634  27.955  20.927  1.00  0.00     0.138 A 
ATOM     67  N   UNL     1      20.906  26.867  21.667  1.00  0.00    -0.132 NA
ATOM     68  N   UNL     1      22.121  27.204  19.930  1.00  0.00    -0.252 N 
ATOM     69  N   UNL     1      21.076  26.557  20.412  1.00  0.00    -0.067 NA
BRANCH  68  70
ATOM     70  C   UNL     1      22.659  27.154  18.602  1.00  0.00     0.151 C 
BRANCH  70  71
ATOM     71  C   UNL     1      23.986  26.460  18.486  1.00  0.00     0.086 C 
BRANCH  71  72
ATOM     72  C   UNL     1      23.754  24.951  18.413  1.00  0.00     0.251 C 
BRANCH  72  73
ATOM     73  O   UNL     1      22.780  24.748  17.454  1.00  0.00    -0.353 OA
BRANCH  73  74
ATOM     74  C   UNL     1      23.313  24.610  16.179  1.00  0.00     0.160 C 
ATOM     75  C   UNL     1      22.226  24.567  15.123  1.00  0.00     0.035 C 
ENDBRANCH  73  74
ENDBRANCH  72  73
BRANCH  72  76
ATOM     76  O   UNL     1      23.511  24.406  19.638  1.00  0.00    -0.353 OA
BRANCH  76  77
ATOM     77  C   UNL     1      24.428  24.643  20.626  1.00  0.00     0.160 C 
ATOM     78  C   UNL     1      23.974  23.968  21.899  1.00  0.00     0.035 C 
ENDBRANCH  76  77
ENDBRANCH  72  76
ENDBRANCH  71  72
ENDBRANCH  70  71
ENDBRANCH  68  70
ENDBRANCH  64  65
ENDBRANCH  63  64
ENDBRANCH  60  63
ENDBRANCH  58  59
ENDBRANCH  55  58
ENDBRANCH   1  55
TORSDOF 36
