REMARK VINA RESULT:    -5.417     10.428     16.744
REMARK INTER + INTRA:         -20.479
REMARK INTER:                 -13.334
REMARK INTRA:                  -7.145
REMARK UNBOUND:                -7.145
REMARK SMILES CC(=O)N[C@@H]1[C@@H](O)C[C@](OC[C@H]2O[C@@H](O[C@H]3[C@H](O)[C@@H](O)[C@H](OCCN=[N+]=[N-])O[C@@H]3CO)[C@H](O)[C@@H](O)[C@H]2O)(C(=O)O)O[C@H]1C(O)[C@H](O)CNC(=O)OCc1cn(-c2ccccc2Br)nn1
REMARK SMILES IDX 9 1 8 2 6 3 5 4 42 5 41 6 10 7 11 8 12 9 14 10 13 11 32 12
REMARK SMILES IDX 34 13 36 14 15 15 16 16 29 17 28 18 21 19 17 20 19 21 30 22
REMARK SMILES IDX 31 23 22 25 23 26 24 27 25 28 26 29 27 30 18 31 20 33 33 35
REMARK SMILES IDX 35 37 37 39 38 41 39 42 40 43 7 45 43 47 44 48 45 50 46 51
REMARK SMILES IDX 47 53 48 54 49 55 50 57 51 58 52 59 53 60 54 61 64 62 55 63
REMARK SMILES IDX 63 64 56 65 57 66 61 67 58 68 60 69 62 70 59 71 4 72 2 73
REMARK SMILES IDX 1 75 3 76
REMARK H PARENT 31 24 18 32 20 34 33 36 35 38 37 40 40 44 7 46 44 49 46 52
REMARK H PARENT 48 56 4 74
REMARK Flexibility Score: inf
ROOT
ATOM      1  C   UNL     1      14.137  31.785  18.386  1.00  0.00     0.272 C 
ATOM      2  C   UNL     1      13.075  31.144  17.575  1.00  0.00     0.113 C 
ATOM      3  C   UNL     1      13.629  30.451  16.373  1.00  0.00     0.145 C 
ATOM      4  C   UNL     1      14.849  29.632  16.603  1.00  0.00     0.142 C 
ATOM      5  C   UNL     1      15.472  29.904  17.928  1.00  0.00     0.178 C 
ATOM      6  O   UNL     1      15.365  31.159  18.425  1.00  0.00    -0.332 OA
ENDROOT
BRANCH   1   7
ATOM      7  O   UNL     1      13.824  31.998  19.716  1.00  0.00    -0.338 OA
BRANCH   7   8
ATOM      8  C   UNL     1      12.515  32.087  20.047  1.00  0.00     0.199 C 
BRANCH   8   9
ATOM      9  C   UNL     1      12.340  31.352  21.399  1.00  0.00     0.179 C 
ATOM     10  C   UNL     1      13.525  31.090  23.365  1.00  0.00     0.282 C 
ATOM     11  O   UNL     1      13.516  31.101  21.996  1.00  0.00    -0.341 OA
ATOM     12  C   UNL     1      12.286  30.457  23.957  1.00  0.00     0.202 C 
ATOM     13  C   UNL     1      11.035  31.140  23.448  1.00  0.00     0.179 C 
ATOM     14  C   UNL     1      11.343  32.024  22.256  1.00  0.00     0.177 C 
BRANCH  10  15
ATOM     15  O   UNL     1      13.800  32.334  23.915  1.00  0.00    -0.341 OA
BRANCH  15  16
ATOM     16  C   UNL     1      15.139  32.631  24.018  1.00  0.00     0.184 C 
ATOM     17  C   UNL     1      15.561  33.138  25.375  1.00  0.00     0.178 C 
ATOM     18  O   UNL     1      16.938  32.989  25.439  1.00  0.00    -0.341 OA
ATOM     19  C   UNL     1      17.639  33.638  24.474  1.00  0.00     0.281 C 
ATOM     20  C   UNL     1      15.529  33.749  23.058  1.00  0.00     0.180 C 
ATOM     21  C   UNL     1      16.906  34.195  23.326  1.00  0.00     0.202 C 
BRANCH  17  22
ATOM     22  C   UNL     1      14.930  32.431  26.528  1.00  0.00     0.191 C 
BRANCH  22  23
ATOM     23  O   UNL     1      15.179  31.066  26.416  1.00  0.00    -0.394 OA
ATOM     24  H   UNL     1      15.280  30.825  25.478  1.00  0.00     0.210 HD
ENDBRANCH  22  23
ENDBRANCH  17  22
BRANCH  19  25
ATOM     25  O   UNL     1      18.593  32.714  23.988  1.00  0.00    -0.350 OA
BRANCH  25  26
ATOM     26  C   UNL     1      18.814  31.662  24.831  1.00  0.00     0.169 C 
BRANCH  26  27
ATOM     27  C   UNL     1      19.012  30.334  24.170  1.00  0.00     0.119 C 
BRANCH  27  28
ATOM     28  N   UNL     1      17.710  29.893  23.694  1.00  0.00    -0.092 NA
ATOM     29  N   UNL     1      17.291  30.278  22.612  1.00  0.00     0.001 N 
ATOM     30  N   UNL     1      16.881  30.594  21.501  1.00  0.00    -0.003 NA
ENDBRANCH  27  28
ENDBRANCH  26  27
ENDBRANCH  25  26
ENDBRANCH  19  25
BRANCH  20  31
ATOM     31  O   UNL     1      15.404  33.352  21.737  1.00  0.00    -0.387 OA
ATOM     32  H   UNL     1      15.282  34.105  21.112  1.00  0.00     0.211 HD
ENDBRANCH  20  31
BRANCH  21  33
ATOM     33  O   UNL     1      16.847  35.618  23.402  1.00  0.00    -0.385 OA
ATOM     34  H   UNL     1      17.653  36.025  23.008  1.00  0.00     0.211 HD
ENDBRANCH  21  33
ENDBRANCH  15  16
ENDBRANCH  10  15
BRANCH  12  35
ATOM     35  O   UNL     1      12.262  29.079  23.741  1.00  0.00    -0.385 OA
ATOM     36  H   UNL     1      13.080  28.768  23.283  1.00  0.00     0.211 HD
ENDBRANCH  12  35
BRANCH  13  37
ATOM     37  O   UNL     1      10.382  31.806  24.468  1.00  0.00    -0.387 OA
ATOM     38  H   UNL     1       9.577  32.250  24.135  1.00  0.00     0.211 HD
ENDBRANCH  13  37
BRANCH  14  39
ATOM     39  O   UNL     1      11.744  33.260  22.736  1.00  0.00    -0.387 OA
ATOM     40  H   UNL     1      11.133  33.991  22.476  1.00  0.00     0.211 HD
ENDBRANCH  14  39
ENDBRANCH   8   9
ENDBRANCH   7   8
ENDBRANCH   1   7
BRANCH   1  41
ATOM     41  C   UNL     1      14.432  33.109  17.705  1.00  0.00     0.364 C 
ATOM     42  O   UNL     1      13.452  33.720  17.225  1.00  0.00    -0.246 OA
BRANCH  41  43
ATOM     43  O   UNL     1      15.681  33.644  17.598  1.00  0.00    -0.477 OA
ATOM     44  H   UNL     1      16.492  33.157  18.009  1.00  0.00     0.296 HD
ENDBRANCH  41  43
ENDBRANCH   1  41
BRANCH   3  45
ATOM     45  O   UNL     1      12.597  29.671  15.803  1.00  0.00    -0.391 OA
ATOM     46  H   UNL     1      12.585  29.868  14.826  1.00  0.00     0.211 HD
ENDBRANCH   3  45
BRANCH   5  47
ATOM     47  C   UNL     1      15.171  28.789  18.928  1.00  0.00     0.176 C 
BRANCH  47  48
ATOM     48  O   UNL     1      14.795  29.251  20.165  1.00  0.00    -0.388 OA
ATOM     49  H   UNL     1      14.662  30.244  20.163  1.00  0.00     0.211 HD
ENDBRANCH  47  48
BRANCH  47  50
ATOM     50  C   UNL     1      16.391  27.873  19.119  1.00  0.00     0.165 C 
BRANCH  50  51
ATOM     51  O   UNL     1      16.525  27.633  20.463  1.00  0.00    -0.388 OA
ATOM     52  H   UNL     1      15.977  26.923  20.842  1.00  0.00     0.211 HD
ENDBRANCH  50  51
BRANCH  50  53
ATOM     53  C   UNL     1      17.615  28.515  18.552  1.00  0.00     0.154 C 
BRANCH  53  54
ATOM     54  N   UNL     1      18.563  28.858  19.557  1.00  0.00    -0.319 N 
ATOM     55  C   UNL     1      19.918  28.473  19.634  1.00  0.00     0.407 C 
ATOM     56  H   UNL     1      18.230  29.483  20.358  1.00  0.00     0.167 HD
ATOM     57  O   UNL     1      20.424  27.763  18.761  1.00  0.00    -0.225 OA
BRANCH  55  58
ATOM     58  O   UNL     1      20.713  28.886  20.703  1.00  0.00    -0.443 OA
BRANCH  58  59
ATOM     59  C   UNL     1      20.785  28.234  21.947  1.00  0.00     0.294 C 
BRANCH  59  60
ATOM     60  C   UNL     1      21.464  26.904  21.818  1.00  0.00     0.121 A 
ATOM     61  C   UNL     1      22.835  26.733  21.625  1.00  0.00     0.144 A 
ATOM     62  N   UNL     1      20.944  25.687  21.844  1.00  0.00    -0.131 NA
ATOM     63  N   UNL     1      23.063  25.414  21.545  1.00  0.00    -0.219 N 
ATOM     64  N   UNL     1      21.920  24.787  21.679  1.00  0.00    -0.062 NA
BRANCH  63  65
ATOM     65  C   UNL     1      24.318  24.786  21.347  1.00  0.00     0.081 A 
ATOM     66  C   UNL     1      24.837  24.588  20.087  1.00  0.00     0.029 A 
ATOM     67  C   UNL     1      25.051  24.361  22.422  1.00  0.00     0.043 A 
ATOM     68  C   UNL     1      26.074  23.968  19.932  1.00  0.00     0.002 A 
ATOM     69  C   UNL     1      26.272  23.748  22.277  1.00  0.00     0.018 A 
ATOM     70  Br  UNL     1      24.367  24.612  24.183  1.00  0.00    -0.048 Br
ATOM     71  C   UNL     1      26.801  23.544  21.024  1.00  0.00     0.001 A 
ENDBRANCH  63  65
ENDBRANCH  59  60
ENDBRANCH  58  59
ENDBRANCH  55  58
ENDBRANCH  53  54
ENDBRANCH  50  53
ENDBRANCH  47  50
ENDBRANCH   5  47
BRANCH   4  72
ATOM     72  N   UNL     1      15.831  29.766  15.551  1.00  0.00    -0.348 N 
ATOM     73  C   UNL     1      15.771  28.968  14.383  1.00  0.00     0.217 C 
ATOM     74  H   UNL     1      16.601  30.456  15.639  1.00  0.00     0.163 HD
ATOM     75  C   UNL     1      16.827  29.171  13.346  1.00  0.00     0.114 C 
ATOM     76  O   UNL     1      14.879  28.118  14.204  1.00  0.00    -0.275 OA
ENDBRANCH   4  72
TORSDOF 30
