REMARK VINA RESULT:    -5.535      4.858     11.594
REMARK INTER + INTRA:         -20.725
REMARK INTER:                 -11.391
REMARK INTRA:                  -9.334
REMARK UNBOUND:                -6.131
REMARK SMILES COCC(C(N)=O)n1cc(COC(=O)NC[C@@H](O)C(O)[C@@H]2O[C@@](OC[C@H]3O[C@@H](O[C@H]4[C@H](O)[C@@H](O)[C@H](OCCN=[N+]=[N-])O[C@@H]4CO)[C@H](O)[C@@H](O)[C@H]3O)(C(=O)O)C[C@H](O)[C@H]2NC(C)=O)nn1
REMARK SMILES IDX 23 1 55 2 56 3 58 4 21 5 22 6 24 7 25 8 26 9 28 10 27 11
REMARK SMILES IDX 46 12 48 13 50 14 29 15 30 16 43 17 42 18 35 19 31 20 33 21
REMARK SMILES IDX 44 22 45 23 36 25 37 26 38 27 39 28 40 29 41 30 32 31 34 33
REMARK SMILES IDX 47 35 49 37 51 39 52 41 53 42 54 43 57 45 19 47 20 48 17 50
REMARK SMILES IDX 18 51 16 53 15 54 13 55 14 57 12 58 11 59 10 60 9 61 63 62
REMARK SMILES IDX 8 63 64 64 4 65 3 66 2 67 1 68 5 69 7 70 6 71 59 74 60 75
REMARK SMILES IDX 61 77 62 78
REMARK H PARENT 45 24 32 32 34 34 47 36 49 38 51 40 54 44 57 46 20 49 18 52
REMARK H PARENT 15 56 6 72 6 73 59 76
REMARK Flexibility Score: inf
ROOT
ATOM      1  C   UNL     1      17.059  31.646  24.938  1.00  0.00     0.272 C 
ATOM      2  C   UNL     1      17.337  31.701  26.390  1.00  0.00     0.113 C 
ATOM      3  C   UNL     1      18.490  32.526  26.830  1.00  0.00     0.145 C 
ATOM      4  C   UNL     1      19.625  32.396  25.849  1.00  0.00     0.142 C 
ATOM      5  C   UNL     1      19.343  31.163  25.004  1.00  0.00     0.178 C 
ATOM      6  O   UNL     1      18.233  31.385  24.232  1.00  0.00    -0.332 OA
ENDROOT
BRANCH   1   7
ATOM      7  O   UNL     1      16.476  32.742  24.365  1.00  0.00    -0.338 OA
BRANCH   7   8
ATOM      8  C   UNL     1      17.011  33.226  23.218  1.00  0.00     0.199 C 
BRANCH   8   9
ATOM      9  C   UNL     1      15.984  33.982  22.364  1.00  0.00     0.179 C 
ATOM     10  C   UNL     1      14.982  32.438  20.948  1.00  0.00     0.282 C 
ATOM     11  O   UNL     1      15.897  33.470  21.101  1.00  0.00    -0.341 OA
ATOM     12  C   UNL     1      13.618  32.782  21.438  1.00  0.00     0.202 C 
ATOM     13  C   UNL     1      13.623  33.223  22.864  1.00  0.00     0.179 C 
ATOM     14  C   UNL     1      14.701  34.225  23.075  1.00  0.00     0.177 C 
BRANCH  10  15
ATOM     15  O   UNL     1      15.432  31.245  21.485  1.00  0.00    -0.341 OA
BRANCH  15  16
ATOM     16  C   UNL     1      15.647  30.299  20.484  1.00  0.00     0.184 C 
ATOM     17  C   UNL     1      15.224  28.918  20.814  1.00  0.00     0.178 C 
ATOM     18  O   UNL     1      15.298  28.086  19.725  1.00  0.00    -0.341 OA
ATOM     19  C   UNL     1      16.315  28.400  18.821  1.00  0.00     0.281 C 
ATOM     20  C   UNL     1      17.171  30.260  20.277  1.00  0.00     0.180 C 
ATOM     21  C   UNL     1      17.509  29.009  19.540  1.00  0.00     0.202 C 
BRANCH  17  22
ATOM     22  C   UNL     1      13.812  28.799  21.358  1.00  0.00     0.191 C 
BRANCH  22  23
ATOM     23  O   UNL     1      13.793  29.154  22.705  1.00  0.00    -0.394 OA
ATOM     24  H   UNL     1      13.628  28.379  23.291  1.00  0.00     0.210 HD
ENDBRANCH  22  23
ENDBRANCH  17  22
BRANCH  19  25
ATOM     25  O   UNL     1      15.824  29.181  17.835  1.00  0.00    -0.350 OA
BRANCH  25  26
ATOM     26  C   UNL     1      16.437  29.245  16.632  1.00  0.00     0.169 C 
BRANCH  26  27
ATOM     27  C   UNL     1      15.760  29.992  15.537  1.00  0.00     0.119 C 
BRANCH  27  28
ATOM     28  N   UNL     1      15.567  29.214  14.355  1.00  0.00    -0.092 NA
ATOM     29  N   UNL     1      14.599  28.463  14.261  1.00  0.00     0.001 N 
ATOM     30  N   UNL     1      13.471  28.086  13.904  1.00  0.00    -0.003 NA
ENDBRANCH  27  28
ENDBRANCH  26  27
ENDBRANCH  25  26
ENDBRANCH  19  25
BRANCH  20  31
ATOM     31  O   UNL     1      17.575  31.394  19.576  1.00  0.00    -0.387 OA
ATOM     32  H   UNL     1      17.228  32.167  20.079  1.00  0.00     0.211 HD
ENDBRANCH  20  31
BRANCH  21  33
ATOM     33  O   UNL     1      17.984  28.016  20.425  1.00  0.00    -0.385 OA
ATOM     34  H   UNL     1      18.808  27.603  20.035  1.00  0.00     0.211 HD
ENDBRANCH  21  33
ENDBRANCH  15  16
ENDBRANCH  10  15
BRANCH  12  35
ATOM     35  O   UNL     1      13.177  33.881  20.677  1.00  0.00    -0.385 OA
ATOM     36  H   UNL     1      13.037  34.666  21.247  1.00  0.00     0.211 HD
ENDBRANCH  12  35
BRANCH  13  37
ATOM     37  O   UNL     1      13.650  32.154  23.759  1.00  0.00    -0.387 OA
ATOM     38  H   UNL     1      12.716  31.815  23.821  1.00  0.00     0.211 HD
ENDBRANCH  13  37
BRANCH  14  39
ATOM     39  O   UNL     1      14.968  34.392  24.435  1.00  0.00    -0.387 OA
ATOM     40  H   UNL     1      15.909  34.145  24.641  1.00  0.00     0.211 HD
ENDBRANCH  14  39
ENDBRANCH   8   9
ENDBRANCH   7   8
ENDBRANCH   1   7
BRANCH   1  41
ATOM     41  C   UNL     1      16.208  30.425  24.700  1.00  0.00     0.364 C 
ATOM     42  O   UNL     1      15.143  30.242  25.320  1.00  0.00    -0.246 OA
BRANCH  41  43
ATOM     43  O   UNL     1      16.631  29.504  23.777  1.00  0.00    -0.477 OA
ATOM     44  H   UNL     1      17.517  29.570  23.302  1.00  0.00     0.296 HD
ENDBRANCH  41  43
ENDBRANCH   1  41
BRANCH   3  45
ATOM     45  O   UNL     1      18.172  33.855  27.094  1.00  0.00    -0.391 OA
ATOM     46  H   UNL     1      17.765  34.270  26.293  1.00  0.00     0.211 HD
ENDBRANCH   3  45
BRANCH   5  47
ATOM     47  C   UNL     1      20.533  30.878  24.109  1.00  0.00     0.176 C 
BRANCH  47  48
ATOM     48  O   UNL     1      21.467  30.074  24.690  1.00  0.00    -0.388 OA
ATOM     49  H   UNL     1      22.390  30.170  24.421  1.00  0.00     0.211 HD
ENDBRANCH  47  48
BRANCH  47  50
ATOM     50  C   UNL     1      20.072  30.289  22.804  1.00  0.00     0.165 C 
BRANCH  50  51
ATOM     51  O   UNL     1      19.286  29.158  23.136  1.00  0.00    -0.388 OA
ATOM     52  H   UNL     1      18.340  29.335  22.881  1.00  0.00     0.211 HD
ENDBRANCH  50  51
BRANCH  50  53
ATOM     53  C   UNL     1      21.167  29.791  21.923  1.00  0.00     0.154 C 
BRANCH  53  54
ATOM     54  N   UNL     1      21.813  28.592  22.344  1.00  0.00    -0.319 N 
ATOM     55  C   UNL     1      21.451  27.307  21.859  1.00  0.00     0.407 C 
ATOM     56  H   UNL     1      22.600  28.622  23.049  1.00  0.00     0.167 HD
ATOM     57  O   UNL     1      20.532  27.208  21.033  1.00  0.00    -0.225 OA
BRANCH  55  58
ATOM     58  O   UNL     1      22.103  26.145  22.287  1.00  0.00    -0.443 OA
BRANCH  58  59
ATOM     59  C   UNL     1      21.699  25.426  23.413  1.00  0.00     0.294 C 
BRANCH  59  60
ATOM     60  C   UNL     1      21.378  26.245  24.589  1.00  0.00     0.120 A 
ATOM     61  C   UNL     1      22.149  26.306  25.723  1.00  0.00     0.139 A 
ATOM     62  N   UNL     1      20.312  27.040  24.735  1.00  0.00    -0.132 NA
ATOM     63  N   UNL     1      21.523  27.151  26.546  1.00  0.00    -0.237 N 
ATOM     64  N   UNL     1      20.417  27.585  25.936  1.00  0.00    -0.066 NA
BRANCH  63  65
ATOM     65  C   UNL     1      21.980  27.523  27.872  1.00  0.00     0.223 C 
BRANCH  65  66
ATOM     66  C   UNL     1      23.455  27.301  27.945  1.00  0.00     0.197 C 
BRANCH  66  67
ATOM     67  O   UNL     1      23.830  26.721  29.131  1.00  0.00    -0.382 OA
ATOM     68  C   UNL     1      22.928  25.773  29.537  1.00  0.00     0.195 C 
ENDBRANCH  66  67
ENDBRANCH  65  66
BRANCH  65  69
ATOM     69  C   UNL     1      21.653  28.978  28.040  1.00  0.00     0.244 C 
ATOM     70  O   UNL     1      22.447  29.826  27.585  1.00  0.00    -0.273 OA
ATOM     71  N   UNL     1      20.457  29.341  28.708  1.00  0.00    -0.368 N 
ATOM     72  H   UNL     1      20.420  29.734  29.663  1.00  0.00     0.159 HD
ATOM     73  H   UNL     1      19.558  29.198  28.198  1.00  0.00     0.159 HD
ENDBRANCH  65  69
ENDBRANCH  63  65
ENDBRANCH  59  60
ENDBRANCH  58  59
ENDBRANCH  55  58
ENDBRANCH  53  54
ENDBRANCH  50  53
ENDBRANCH  47  50
ENDBRANCH   5  47
BRANCH   4  74
ATOM     74  N   UNL     1      20.909  32.298  26.538  1.00  0.00    -0.348 N 
ATOM     75  C   UNL     1      21.837  33.371  26.622  1.00  0.00     0.217 C 
ATOM     76  H   UNL     1      21.193  31.403  27.009  1.00  0.00     0.163 HD
ATOM     77  C   UNL     1      23.135  33.297  27.311  1.00  0.00     0.114 C 
ATOM     78  O   UNL     1      21.505  34.469  26.057  1.00  0.00    -0.275 OA
ENDBRANCH   4  74
TORSDOF 33
