REMARK VINA RESULT:    -6.277      0.000      0.000
REMARK INTER + INTRA:         -23.607
REMARK INTER:                 -18.566
REMARK INTRA:                  -5.041
REMARK UNBOUND:                -7.606
REMARK SMILES CC(=O)N[C@@H]1[C@@H](O)C[C@](OC[C@H]2O[C@@H](O[C@H]3[C@H](O)[C@@H](O)[C@H](OCCN=[N+]=[N-])O[C@@H]3CO)[C@H](O)[C@@H](O)[C@H]2O)(C(=O)O)O[C@H]1C(O)[C@H](O)CNC(=O)OCc1cn(-c2ccc(CO)cn2)nn1
REMARK SMILES IDX 9 1 8 2 6 3 5 4 42 5 41 6 10 7 11 8 12 9 14 10 13 11 32 12
REMARK SMILES IDX 34 13 36 14 15 15 16 16 29 17 28 18 21 19 17 20 19 21 30 22
REMARK SMILES IDX 31 23 22 25 23 26 24 27 25 28 26 29 27 30 18 31 20 33 33 35
REMARK SMILES IDX 35 37 37 39 38 41 39 42 40 43 7 45 43 47 44 48 45 50 46 51
REMARK SMILES IDX 47 53 48 54 49 55 50 57 51 58 52 59 53 60 54 61 65 62 55 63
REMARK SMILES IDX 64 64 56 65 57 66 63 67 58 68 62 69 59 70 60 71 61 72 4 74
REMARK SMILES IDX 2 75 1 77 3 78
REMARK H PARENT 31 24 18 32 20 34 33 36 35 38 37 40 40 44 7 46 44 49 46 52
REMARK H PARENT 48 56 61 73 4 76
REMARK Flexibility Score: inf
ROOT
ATOM      1  C   UNL     1      25.724  25.273  19.702  1.00  0.00     0.272 C 
ATOM      2  C   UNL     1      26.715  24.388  20.362  1.00  0.00     0.113 C 
ATOM      3  C   UNL     1      26.438  24.207  21.829  1.00  0.00     0.145 C 
ATOM      4  C   UNL     1      24.975  23.873  22.043  1.00  0.00     0.142 C 
ATOM      5  C   UNL     1      24.114  24.839  21.339  1.00  0.00     0.178 C 
ATOM      6  O   UNL     1      24.421  25.000  20.033  1.00  0.00    -0.332 OA
ENDROOT
BRANCH   1   7
ATOM      7  O   UNL     1      25.801  25.266  18.320  1.00  0.00    -0.338 OA
BRANCH   7   8
ATOM      8  C   UNL     1      25.464  24.051  17.762  1.00  0.00     0.199 C 
BRANCH   8   9
ATOM      9  C   UNL     1      24.731  24.273  16.474  1.00  0.00     0.179 C 
ATOM     10  C   UNL     1      24.099  23.234  14.568  1.00  0.00     0.282 C 
ATOM     11  O   UNL     1      24.173  23.079  15.977  1.00  0.00    -0.341 OA
ATOM     12  C   UNL     1      23.435  24.505  14.232  1.00  0.00     0.202 C 
ATOM     13  C   UNL     1      22.715  25.199  15.376  1.00  0.00     0.179 C 
ATOM     14  C   UNL     1      23.601  25.239  16.617  1.00  0.00     0.177 C 
BRANCH  10  15
ATOM     15  O   UNL     1      23.514  22.092  14.011  1.00  0.00    -0.341 OA
BRANCH  15  16
ATOM     16  C   UNL     1      24.425  21.084  13.782  1.00  0.00     0.184 C 
ATOM     17  C   UNL     1      24.967  21.002  12.389  1.00  0.00     0.178 C 
ATOM     18  O   UNL     1      24.549  19.870  11.695  1.00  0.00    -0.341 OA
ATOM     19  C   UNL     1      23.185  19.752  11.616  1.00  0.00     0.281 C 
ATOM     20  C   UNL     1      23.676  19.765  14.046  1.00  0.00     0.180 C 
ATOM     21  C   UNL     1      22.542  19.767  13.011  1.00  0.00     0.202 C 
BRANCH  17  22
ATOM     22  C   UNL     1      26.494  20.843  12.513  1.00  0.00     0.191 C 
BRANCH  22  23
ATOM     23  O   UNL     1      26.838  19.488  12.389  1.00  0.00    -0.394 OA
ATOM     24  H   UNL     1      27.235  19.147  13.247  1.00  0.00     0.210 HD
ENDBRANCH  22  23
ENDBRANCH  17  22
BRANCH  19  25
ATOM     25  O   UNL     1      22.884  18.541  10.999  1.00  0.00    -0.350 OA
BRANCH  25  26
ATOM     26  C   UNL     1      21.591  18.466  10.549  1.00  0.00     0.169 C 
BRANCH  26  27
ATOM     27  C   UNL     1      21.257  19.778   9.851  1.00  0.00     0.119 C 
BRANCH  27  28
ATOM     28  N   UNL     1      20.110  20.411  10.488  1.00  0.00    -0.092 NA
ATOM     29  N   UNL     1      19.209  19.793  11.030  1.00  0.00     0.001 N 
ATOM     30  N   UNL     1      18.498  19.302  11.907  1.00  0.00    -0.003 NA
ENDBRANCH  27  28
ENDBRANCH  26  27
ENDBRANCH  25  26
ENDBRANCH  19  25
BRANCH  20  31
ATOM     31  O   UNL     1      24.484  18.665  13.960  1.00  0.00    -0.387 OA
ATOM     32  H   UNL     1      25.412  18.935  14.020  1.00  0.00     0.211 HD
ENDBRANCH  20  31
BRANCH  21  33
ATOM     33  O   UNL     1      21.848  20.960  13.201  1.00  0.00    -0.385 OA
ATOM     34  H   UNL     1      20.932  20.727  13.495  1.00  0.00     0.211 HD
ENDBRANCH  21  33
ENDBRANCH  15  16
ENDBRANCH  10  15
BRANCH  12  35
ATOM     35  O   UNL     1      24.400  25.405  13.723  1.00  0.00    -0.385 OA
ATOM     36  H   UNL     1      25.308  25.008  13.735  1.00  0.00     0.211 HD
ENDBRANCH  12  35
BRANCH  13  37
ATOM     37  O   UNL     1      21.470  24.646  15.622  1.00  0.00    -0.387 OA
ATOM     38  H   UNL     1      21.002  25.035  16.376  1.00  0.00     0.211 HD
ENDBRANCH  13  37
BRANCH  14  39
ATOM     39  O   UNL     1      22.805  24.944  17.703  1.00  0.00    -0.387 OA
ATOM     40  H   UNL     1      23.360  24.609  18.434  1.00  0.00     0.211 HD
ENDBRANCH  14  39
ENDBRANCH   8   9
ENDBRANCH   7   8
ENDBRANCH   1   7
BRANCH   1  41
ATOM     41  C   UNL     1      25.929  26.721  20.095  1.00  0.00     0.364 C 
ATOM     42  O   UNL     1      26.935  27.122  20.727  1.00  0.00    -0.246 OA
BRANCH  41  43
ATOM     43  O   UNL     1      24.987  27.674  19.763  1.00  0.00    -0.477 OA
ATOM     44  H   UNL     1      24.298  27.974  20.465  1.00  0.00     0.296 HD
ENDBRANCH  41  43
ENDBRANCH   1  41
BRANCH   3  45
ATOM     45  O   UNL     1      27.156  23.062  22.228  1.00  0.00    -0.391 OA
ATOM     46  H   UNL     1      27.460  22.516  21.481  1.00  0.00     0.211 HD
ENDBRANCH   3  45
BRANCH   5  47
ATOM     47  C   UNL     1      22.631  24.562  21.504  1.00  0.00     0.176 C 
BRANCH  47  48
ATOM     48  O   UNL     1      22.042  24.409  20.250  1.00  0.00    -0.388 OA
ATOM     49  H   UNL     1      21.061  24.368  20.329  1.00  0.00     0.211 HD
ENDBRANCH  47  48
BRANCH  47  50
ATOM     50  C   UNL     1      21.869  25.586  22.255  1.00  0.00     0.165 C 
BRANCH  50  51
ATOM     51  O   UNL     1      20.510  25.270  22.391  1.00  0.00    -0.388 OA
ATOM     52  H   UNL     1      20.264  24.427  21.981  1.00  0.00     0.211 HD
ENDBRANCH  50  51
BRANCH  50  53
ATOM     53  C   UNL     1      22.044  27.008  21.803  1.00  0.00     0.154 C 
BRANCH  53  54
ATOM     54  N   UNL     1      20.996  27.392  20.895  1.00  0.00    -0.319 N 
ATOM     55  C   UNL     1      21.274  27.548  19.516  1.00  0.00     0.407 C 
ATOM     56  H   UNL     1      20.005  27.562  21.266  1.00  0.00     0.167 HD
ATOM     57  O   UNL     1      22.409  27.361  19.025  1.00  0.00    -0.225 OA
BRANCH  55  58
ATOM     58  O   UNL     1      20.270  27.923  18.616  1.00  0.00    -0.443 OA
BRANCH  58  59
ATOM     59  C   UNL     1      19.435  29.000  18.933  1.00  0.00     0.294 C 
BRANCH  59  60
ATOM     60  C   UNL     1      18.099  28.657  19.401  1.00  0.00     0.121 A 
ATOM     61  C   UNL     1      17.418  29.230  20.447  1.00  0.00     0.146 A 
ATOM     62  N   UNL     1      17.282  27.715  18.902  1.00  0.00    -0.131 NA
ATOM     63  N   UNL     1      16.218  28.626  20.557  1.00  0.00    -0.202 N 
ATOM     64  N   UNL     1      16.176  27.716  19.602  1.00  0.00    -0.061 NA
BRANCH  63  65
ATOM     65  C   UNL     1      15.237  28.948  21.531  1.00  0.00     0.155 A 
ATOM     66  C   UNL     1      13.887  29.041  21.206  1.00  0.00     0.049 A 
ATOM     67  N   UNL     1      15.578  29.185  22.808  1.00  0.00    -0.237 NA
ATOM     68  C   UNL     1      12.943  29.365  22.171  1.00  0.00     0.011 A 
ATOM     69  C   UNL     1      14.673  29.502  23.765  1.00  0.00     0.119 A 
ATOM     70  C   UNL     1      13.323  29.603  23.473  1.00  0.00    -0.004 A 
BRANCH  70  71
ATOM     71  C   UNL     1      12.306  29.952  24.501  1.00  0.00     0.193 C 
BRANCH  71  72
ATOM     72  O   UNL     1      11.814  28.805  25.123  1.00  0.00    -0.392 OA
ATOM     73  H   UNL     1      12.430  28.048  25.055  1.00  0.00     0.211 HD
ENDBRANCH  71  72
ENDBRANCH  70  71
ENDBRANCH  63  65
ENDBRANCH  59  60
ENDBRANCH  58  59
ENDBRANCH  55  58
ENDBRANCH  53  54
ENDBRANCH  50  53
ENDBRANCH  47  50
ENDBRANCH   5  47
BRANCH   4  74
ATOM     74  N   UNL     1      24.698  23.821  23.480  1.00  0.00    -0.348 N 
ATOM     75  C   UNL     1      24.922  24.904  24.327  1.00  0.00     0.217 C 
ATOM     76  H   UNL     1      24.311  22.937  23.866  1.00  0.00     0.163 HD
ATOM     77  C   UNL     1      24.599  24.713  25.791  1.00  0.00     0.114 C 
ATOM     78  O   UNL     1      25.365  26.000  23.954  1.00  0.00    -0.275 OA
ENDBRANCH   4  74
TORSDOF 32
