REMARK VINA RESULT:    -8.138     15.640     21.621
REMARK INTER + INTRA:         -19.809
REMARK INTER:                 -12.857
REMARK INTRA:                  -6.952
REMARK UNBOUND:                 3.076
REMARK SMILES CC(=O)N[C@@H]1[C@@H](O)C[C@](OC[C@H]2O[C@@H](O[C@H]3[C@H](O)[C@@H](O)[C@H](OCCN=[N+]=[N-])O[C@@H]3CO)[C@H](O)[C@@H](O)[C@H]2O)(C(=O)O)O[C@H]1C(O)[C@H](O)CNC(=O)OCc1cn(C2CC(O)C=C[C@@H](O)C2)nn1
REMARK SMILES IDX 43 1 42 2 9 3 8 4 41 5 6 6 5 7 10 8 11 9 12 10 14 11 13 12
REMARK SMILES IDX 32 13 34 14 36 15 15 16 16 17 29 18 28 19 21 20 17 21 19 22
REMARK SMILES IDX 30 23 31 24 22 26 23 27 24 28 25 29 26 30 27 31 18 32 20 34
REMARK SMILES IDX 33 36 35 38 37 40 38 42 39 43 40 44 7 46 4 48 2 49 1 51 3 52
REMARK SMILES IDX 44 53 45 55 46 56 47 58 48 59 49 60 50 62 51 63 52 64 53 65
REMARK SMILES IDX 54 66 66 67 55 68 65 69 56 70 57 71 58 72 59 74 64 76 62 77
REMARK SMILES IDX 61 78 60 79 63 81
REMARK H PARENT 31 25 18 33 20 35 33 37 35 39 37 41 40 45 7 47 4 50 44 54
REMARK H PARENT 46 57 48 61 59 75 63 82
REMARK Flexibility Score: 90.00
ROOT
ATOM      1  C   UNL     1       3.579  20.743  32.962  1.00  0.00     0.176 C 
ENDROOT
BRANCH   1   2
ATOM      2  C   UNL     1       2.158  21.218  33.211  1.00  0.00     0.178 C 
ATOM      3  C   UNL     1       1.025  23.280  33.196  1.00  0.00     0.272 C 
ATOM      4  C   UNL     1      -0.097  22.717  33.989  1.00  0.00     0.113 C 
ATOM      5  O   UNL     1       2.207  22.641  33.176  1.00  0.00    -0.332 OA
ATOM      6  C   UNL     1       0.028  21.273  34.312  1.00  0.00     0.145 C 
ATOM      7  C   UNL     1       1.529  20.887  34.494  1.00  0.00     0.142 C 
BRANCH   3   8
ATOM      8  O   UNL     1       1.174  24.635  33.557  1.00  0.00    -0.338 OA
BRANCH   8   9
ATOM      9  C   UNL     1       1.666  24.845  34.812  1.00  0.00     0.199 C 
BRANCH   9  10
ATOM     10  C   UNL     1       3.002  25.587  34.758  1.00  0.00     0.179 C 
ATOM     11  C   UNL     1       5.000  25.111  33.700  1.00  0.00     0.282 C 
ATOM     12  O   UNL     1       3.982  24.669  34.547  1.00  0.00    -0.341 OA
ATOM     13  C   UNL     1       4.322  25.284  32.354  1.00  0.00     0.202 C 
ATOM     14  C   UNL     1       3.479  26.533  32.468  1.00  0.00     0.179 C 
ATOM     15  C   UNL     1       2.955  26.766  33.849  1.00  0.00     0.177 C 
BRANCH  11  16
ATOM     16  O   UNL     1       6.015  24.186  33.698  1.00  0.00    -0.341 OA
BRANCH  16  17
ATOM     17  C   UNL     1       7.213  24.802  34.071  1.00  0.00     0.184 C 
ATOM     18  C   UNL     1       8.125  23.805  34.741  1.00  0.00     0.178 C 
ATOM     19  O   UNL     1       7.781  23.490  36.031  1.00  0.00    -0.341 OA
ATOM     20  C   UNL     1       6.737  24.255  36.545  1.00  0.00     0.281 C 
ATOM     21  C   UNL     1       6.998  26.037  34.901  1.00  0.00     0.180 C 
ATOM     22  C   UNL     1       7.053  25.737  36.375  1.00  0.00     0.202 C 
BRANCH  18  23
ATOM     23  C   UNL     1       9.571  24.279  34.690  1.00  0.00     0.191 C 
BRANCH  23  24
ATOM     24  O   UNL     1       9.879  24.888  33.488  1.00  0.00    -0.394 OA
ATOM     25  H   UNL     1      10.314  25.749  33.595  1.00  0.00     0.210 HD
ENDBRANCH  23  24
ENDBRANCH  18  23
BRANCH  20  26
ATOM     26  O   UNL     1       6.655  23.934  37.897  1.00  0.00    -0.350 OA
BRANCH  26  27
ATOM     27  C   UNL     1       7.944  23.842  38.409  1.00  0.00     0.169 C 
BRANCH  27  28
ATOM     28  C   UNL     1       7.941  23.912  39.927  1.00  0.00     0.119 C 
BRANCH  28  29
ATOM     29  N   UNL     1       6.587  23.880  40.442  1.00  0.00    -0.092 NA
ATOM     30  N   UNL     1       6.303  23.064  41.334  1.00  0.00     0.001 N 
ATOM     31  N   UNL     1       6.126  22.141  42.141  1.00  0.00    -0.003 NA
ENDBRANCH  28  29
ENDBRANCH  27  28
ENDBRANCH  26  27
ENDBRANCH  20  26
BRANCH  21  32
ATOM     32  O   UNL     1       7.949  27.007  34.581  1.00  0.00    -0.387 OA
ATOM     33  H   UNL     1       7.841  27.339  33.658  1.00  0.00     0.211 HD
ENDBRANCH  21  32
BRANCH  22  34
ATOM     34  O   UNL     1       6.120  26.493  37.075  1.00  0.00    -0.385 OA
ATOM     35  H   UNL     1       5.730  25.969  37.822  1.00  0.00     0.211 HD
ENDBRANCH  22  34
ENDBRANCH  16  17
ENDBRANCH  11  16
BRANCH  13  36
ATOM     36  O   UNL     1       5.185  25.386  31.295  1.00  0.00    -0.385 OA
ATOM     37  H   UNL     1       4.772  25.362  30.418  1.00  0.00     0.211 HD
ENDBRANCH  13  36
BRANCH  14  38
ATOM     38  O   UNL     1       2.466  26.422  31.516  1.00  0.00    -0.387 OA
ATOM     39  H   UNL     1       1.567  26.454  31.947  1.00  0.00     0.211 HD
ENDBRANCH  14  38
BRANCH  15  40
ATOM     40  O   UNL     1       1.611  27.186  33.789  1.00  0.00    -0.387 OA
ATOM     41  H   UNL     1       0.976  26.455  33.802  1.00  0.00     0.211 HD
ENDBRANCH  15  40
ENDBRANCH   9  10
ENDBRANCH   8   9
ENDBRANCH   3   8
BRANCH   3  42
ATOM     42  C   UNL     1       0.539  23.314  31.764  1.00  0.00     0.364 C 
ATOM     43  O   UNL     1       1.277  23.672  30.808  1.00  0.00    -0.246 OA
BRANCH  42  44
ATOM     44  O   UNL     1      -0.771  22.931  31.523  1.00  0.00    -0.477 OA
ATOM     45  H   UNL     1      -1.127  22.035  31.855  1.00  0.00     0.296 HD
ENDBRANCH  42  44
ENDBRANCH   3  42
BRANCH   6  46
ATOM     46  O   UNL     1      -0.684  20.937  35.436  1.00  0.00    -0.391 OA
ATOM     47  H   UNL     1      -0.808  19.964  35.482  1.00  0.00     0.211 HD
ENDBRANCH   6  46
BRANCH   7  48
ATOM     48  N   UNL     1       1.598  19.587  35.040  1.00  0.00    -0.348 N 
ATOM     49  C   UNL     1       2.528  19.293  36.068  1.00  0.00     0.217 C 
ATOM     50  H   UNL     1       0.955  18.837  34.725  1.00  0.00     0.163 HD
ATOM     51  C   UNL     1       2.619  17.932  36.658  1.00  0.00     0.114 C 
ATOM     52  O   UNL     1       3.291  20.195  36.491  1.00  0.00    -0.275 OA
ENDBRANCH   7  48
ENDBRANCH   1   2
BRANCH   1  53
ATOM     53  O   UNL     1       4.313  21.628  33.869  1.00  0.00    -0.388 OA
ATOM     54  H   UNL     1       3.649  21.974  34.543  1.00  0.00     0.211 HD
ENDBRANCH   1  53
BRANCH   1  55
ATOM     55  C   UNL     1       4.142  21.155  31.632  1.00  0.00     0.165 C 
BRANCH  55  56
ATOM     56  O   UNL     1       4.351  22.510  31.551  1.00  0.00    -0.388 OA
ATOM     57  H   UNL     1       4.163  22.996  32.385  1.00  0.00     0.211 HD
ENDBRANCH  55  56
BRANCH  55  58
ATOM     58  C   UNL     1       3.181  20.796  30.504  1.00  0.00     0.154 C 
BRANCH  58  59
ATOM     59  N   UNL     1       3.198  21.712  29.409  1.00  0.00    -0.319 N 
ATOM     60  C   UNL     1       2.286  21.635  28.320  1.00  0.00     0.407 C 
ATOM     61  H   UNL     1       3.919  22.494  29.388  1.00  0.00     0.167 HD
ATOM     62  O   UNL     1       1.436  20.699  28.354  1.00  0.00    -0.225 OA
BRANCH  60  63
ATOM     63  O   UNL     1       2.348  22.548  27.293  1.00  0.00    -0.443 OA
BRANCH  63  64
ATOM     64  C   UNL     1       1.729  23.825  27.419  1.00  0.00     0.294 C 
BRANCH  64  65
ATOM     65  C   UNL     1       2.799  24.830  27.610  1.00  0.00     0.120 A 
ATOM     66  C   UNL     1       3.608  25.402  26.663  1.00  0.00     0.138 A 
ATOM     67  N   UNL     1       3.168  25.358  28.790  1.00  0.00    -0.132 NA
ATOM     68  N   UNL     1       4.444  26.258  27.303  1.00  0.00    -0.249 N 
ATOM     69  N   UNL     1       4.151  26.208  28.586  1.00  0.00    -0.067 NA
BRANCH  68  70
ATOM     70  C   UNL     1       5.487  27.088  26.685  1.00  0.00     0.115 C 
BRANCH  70  71
ATOM     71  C   UNL     1       5.823  26.513  25.350  1.00  0.00     0.063 C 
BRANCH  71  72
ATOM     72  C   UNL     1       7.259  26.905  24.987  1.00  0.00     0.139 CG0
ATOM     73  G   UNL     1       7.296  28.339  24.657  1.00  0.00     0.000 G0
BRANCH  72  74
ATOM     74  O   UNL     1       7.709  26.127  23.923  1.00  0.00    -0.389 OA
ATOM     75  H   UNL     1       7.004  25.446  23.724  1.00  0.00     0.211 HD
ENDBRANCH  72  74
ENDBRANCH  71  72
ENDBRANCH  70  71
BRANCH  70  76
ATOM     76  C   UNL     1       4.971  28.487  26.563  1.00  0.00     0.063 C 
BRANCH  76  77
ATOM     77  C   UNL     1       6.192  29.411  26.619  1.00  0.00     0.139 C 
BRANCH  77  78
ATOM     78  C   UNL     1       6.869  29.424  25.295  1.00  0.00     0.002 C 
ATOM     79  C   UNL     1       7.312  28.364  24.633  1.00  0.00     0.002 CG0
ATOM     80  G   UNL     1       7.264  26.939  24.999  1.00  0.00     0.000 G0
ENDBRANCH  77  78
BRANCH  77  81
ATOM     81  O   UNL     1       5.848  30.691  27.027  1.00  0.00    -0.389 OA
ATOM     82  H   UNL     1       4.851  30.740  27.046  1.00  0.00     0.211 HD
ENDBRANCH  77  81
ENDBRANCH  76  77
ENDBRANCH  70  76
ENDBRANCH  68  70
ENDBRANCH  64  65
ENDBRANCH  63  64
ENDBRANCH  60  63
ENDBRANCH  58  59
ENDBRANCH  55  58
ENDBRANCH   1  55
TORSDOF 32
