REMARK VINA RESULT:    -6.060      4.183      8.148
REMARK INTER + INTRA:         -21.614
REMARK INTER:                 -13.040
REMARK INTRA:                  -8.574
REMARK UNBOUND:                -6.520
REMARK SMILES CC(=O)N[C@@H]1[C@@H](O)C[C@](OC[C@H]2O[C@@H](O[C@H]3[C@H](O)[C@@H](O)[C@H](OCCN=[N+]=[N-])O[C@@H]3CO)[C@H](O)[C@@H](O)[C@H]2O)(C(=O)O)O[C@H]1C(O)[C@H](O)CNC(=O)OCc1cn(-c2nc(C)nc(N)n2)nn1
REMARK SMILES IDX 9 1 8 2 6 3 5 4 42 5 41 6 10 7 11 8 12 9 14 10 13 11 32 12
REMARK SMILES IDX 34 13 36 14 15 15 16 16 29 17 28 18 21 19 17 20 19 21 30 22
REMARK SMILES IDX 31 23 22 25 23 26 24 27 25 28 26 29 27 30 18 31 20 33 33 35
REMARK SMILES IDX 35 37 37 39 38 41 39 42 40 43 7 45 43 47 44 48 45 50 46 51
REMARK SMILES IDX 47 53 48 54 49 55 50 57 51 58 52 59 53 60 54 61 65 62 55 63
REMARK SMILES IDX 64 64 56 65 63 66 57 67 61 68 58 69 60 70 59 71 62 72 4 75
REMARK SMILES IDX 2 76 1 78 3 79
REMARK H PARENT 31 24 18 32 20 34 33 36 35 38 37 40 40 44 7 46 44 49 46 52
REMARK H PARENT 48 56 62 73 62 74 4 77
REMARK Flexibility Score: inf
ROOT
ATOM      1  C   UNL     1      25.230  30.071  20.251  1.00  0.00     0.272 C 
ATOM      2  C   UNL     1      25.451  30.952  21.432  1.00  0.00     0.113 C 
ATOM      3  C   UNL     1      24.463  30.668  22.522  1.00  0.00     0.145 C 
ATOM      4  C   UNL     1      23.073  30.818  21.962  1.00  0.00     0.142 C 
ATOM      5  C   UNL     1      22.899  30.146  20.620  1.00  0.00     0.178 C 
ATOM      6  O   UNL     1      23.919  30.325  19.764  1.00  0.00    -0.332 OA
ENDROOT
BRANCH   1   7
ATOM      7  O   UNL     1      25.542  28.824  20.320  1.00  0.00    -0.338 OA
BRANCH   7   8
ATOM      8  C   UNL     1      25.975  27.826  19.652  1.00  0.00     0.199 C 
BRANCH   8   9
ATOM      9  C   UNL     1      25.262  26.571  19.281  1.00  0.00     0.179 C 
ATOM     10  C   UNL     1      24.040  24.827  19.917  1.00  0.00     0.282 C 
ATOM     11  O   UNL     1      24.443  26.143  20.275  1.00  0.00    -0.341 OA
ATOM     12  C   UNL     1      22.947  25.049  18.902  1.00  0.00     0.202 C 
ATOM     13  C   UNL     1      23.542  25.675  17.665  1.00  0.00     0.179 C 
ATOM     14  C   UNL     1      24.768  26.474  17.875  1.00  0.00     0.177 C 
BRANCH  10  15
ATOM     15  O   UNL     1      23.583  24.132  21.004  1.00  0.00    -0.341 OA
BRANCH  15  16
ATOM     16  C   UNL     1      23.392  24.911  22.132  1.00  0.00     0.184 C 
ATOM     17  C   UNL     1      24.277  24.585  23.287  1.00  0.00     0.178 C 
ATOM     18  O   UNL     1      23.578  24.333  24.461  1.00  0.00    -0.341 OA
ATOM     19  C   UNL     1      22.658  25.317  24.801  1.00  0.00     0.281 C 
ATOM     20  C   UNL     1      21.929  24.661  22.543  1.00  0.00     0.180 C 
ATOM     21  C   UNL     1      21.648  25.565  23.720  1.00  0.00     0.202 C 
BRANCH  17  22
ATOM     22  C   UNL     1      25.400  25.560  23.518  1.00  0.00     0.191 C 
BRANCH  22  23
ATOM     23  O   UNL     1      25.048  26.750  22.843  1.00  0.00    -0.394 OA
ATOM     24  H   UNL     1      25.342  27.555  23.323  1.00  0.00     0.210 HD
ENDBRANCH  22  23
ENDBRANCH  17  22
BRANCH  19  25
ATOM     25  O   UNL     1      23.234  26.505  25.156  1.00  0.00    -0.350 OA
BRANCH  25  26
ATOM     26  C   UNL     1      22.739  27.142  26.255  1.00  0.00     0.169 C 
BRANCH  26  27
ATOM     27  C   UNL     1      22.854  28.639  26.188  1.00  0.00     0.119 C 
BRANCH  27  28
ATOM     28  N   UNL     1      22.170  29.093  24.968  1.00  0.00    -0.092 NA
ATOM     29  N   UNL     1      20.957  28.905  24.913  1.00  0.00     0.001 N 
ATOM     30  N   UNL     1      19.899  28.488  24.395  1.00  0.00    -0.003 NA
ENDBRANCH  27  28
ENDBRANCH  26  27
ENDBRANCH  25  26
ENDBRANCH  19  25
BRANCH  20  31
ATOM     31  O   UNL     1      21.095  24.897  21.472  1.00  0.00    -0.387 OA
ATOM     32  H   UNL     1      20.715  24.048  21.114  1.00  0.00     0.211 HD
ENDBRANCH  20  31
BRANCH  21  33
ATOM     33  O   UNL     1      20.348  25.290  24.146  1.00  0.00    -0.385 OA
ATOM     34  H   UNL     1      20.331  25.025  25.099  1.00  0.00     0.211 HD
ENDBRANCH  21  33
ENDBRANCH  15  16
ENDBRANCH  10  15
BRANCH  12  35
ATOM     35  O   UNL     1      22.256  23.881  18.587  1.00  0.00    -0.385 OA
ATOM     36  H   UNL     1      21.610  23.707  19.316  1.00  0.00     0.211 HD
ENDBRANCH  12  35
BRANCH  13  37
ATOM     37  O   UNL     1      22.513  26.378  17.032  1.00  0.00    -0.387 OA
ATOM     38  H   UNL     1      22.643  27.358  17.060  1.00  0.00     0.211 HD
ENDBRANCH  13  37
BRANCH  14  39
ATOM     39  O   UNL     1      24.670  27.684  17.197  1.00  0.00    -0.387 OA
ATOM     40  H   UNL     1      25.561  27.822  16.756  1.00  0.00     0.211 HD
ENDBRANCH  14  39
ENDBRANCH   8   9
ENDBRANCH   7   8
ENDBRANCH   1   7
BRANCH   1  41
ATOM     41  C   UNL     1      26.048  30.790  19.142  1.00  0.00     0.364 C 
ATOM     42  O   UNL     1      25.594  30.727  18.007  1.00  0.00    -0.246 OA
BRANCH  41  43
ATOM     43  O   UNL     1      27.200  31.442  19.452  1.00  0.00    -0.477 OA
ATOM     44  H   UNL     1      27.454  32.366  19.073  1.00  0.00     0.296 HD
ENDBRANCH  41  43
ENDBRANCH   1  41
BRANCH   3  45
ATOM     45  O   UNL     1      24.549  29.401  23.052  1.00  0.00    -0.391 OA
ATOM     46  H   UNL     1      25.441  29.182  23.373  1.00  0.00     0.211 HD
ENDBRANCH   3  45
BRANCH   5  47
ATOM     47  C   UNL     1      22.395  28.727  20.718  1.00  0.00     0.176 C 
BRANCH  47  48
ATOM     48  O   UNL     1      22.207  28.364  22.041  1.00  0.00    -0.388 OA
ATOM     49  H   UNL     1      22.758  28.841  22.687  1.00  0.00     0.211 HD
ENDBRANCH  47  48
BRANCH  47  50
ATOM     50  C   UNL     1      21.128  28.598  19.934  1.00  0.00     0.165 C 
BRANCH  50  51
ATOM     51  O   UNL     1      20.652  27.281  20.064  1.00  0.00    -0.388 OA
ATOM     52  H   UNL     1      19.707  27.316  20.295  1.00  0.00     0.211 HD
ENDBRANCH  50  51
BRANCH  50  53
ATOM     53  C   UNL     1      21.241  28.906  18.480  1.00  0.00     0.154 C 
BRANCH  53  54
ATOM     54  N   UNL     1      20.102  28.435  17.724  1.00  0.00    -0.319 N 
ATOM     55  C   UNL     1      19.147  29.276  17.119  1.00  0.00     0.407 C 
ATOM     56  H   UNL     1      19.944  27.392  17.597  1.00  0.00     0.167 HD
ATOM     57  O   UNL     1      19.246  30.503  17.208  1.00  0.00    -0.225 OA
BRANCH  55  58
ATOM     58  O   UNL     1      18.066  28.769  16.405  1.00  0.00    -0.443 OA
BRANCH  58  59
ATOM     59  C   UNL     1      16.731  28.864  16.832  1.00  0.00     0.294 C 
BRANCH  59  60
ATOM     60  C   UNL     1      16.581  28.493  18.271  1.00  0.00     0.121 A 
ATOM     61  C   UNL     1      16.317  29.355  19.314  1.00  0.00     0.148 A 
ATOM     62  N   UNL     1      16.675  27.262  18.811  1.00  0.00    -0.131 NA
ATOM     63  N   UNL     1      16.260  28.632  20.446  1.00  0.00    -0.185 N 
ATOM     64  N   UNL     1      16.479  27.377  20.112  1.00  0.00    -0.059 NA
BRANCH  63  65
ATOM     65  C   UNL     1      16.005  29.183  21.730  1.00  0.00     0.257 A 
ATOM     66  N   UNL     1      14.810  28.975  22.314  1.00  0.00    -0.175 NA
ATOM     67  N   UNL     1      16.896  29.914  22.424  1.00  0.00    -0.196 NA
ATOM     68  C   UNL     1      14.512  29.475  23.541  1.00  0.00     0.225 A 
ATOM     69  C   UNL     1      16.640  30.423  23.634  1.00  0.00     0.133 A 
ATOM     70  N   UNL     1      15.451  30.202  24.186  1.00  0.00    -0.198 NA
ATOM     71  C   UNL     1      17.668  31.236  24.373  1.00  0.00     0.090 C 
BRANCH  68  72
ATOM     72  N   UNL     1      13.242  29.227  24.109  1.00  0.00    -0.368 N 
ATOM     73  H   UNL     1      12.917  28.261  24.309  1.00  0.00     0.159 HD
ATOM     74  H   UNL     1      12.603  30.012  24.339  1.00  0.00     0.159 HD
ENDBRANCH  68  72
ENDBRANCH  63  65
ENDBRANCH  59  60
ENDBRANCH  58  59
ENDBRANCH  55  58
ENDBRANCH  53  54
ENDBRANCH  50  53
ENDBRANCH  47  50
ENDBRANCH   5  47
BRANCH   4  75
ATOM     75  N   UNL     1      22.765  32.228  21.857  1.00  0.00    -0.348 N 
ATOM     76  C   UNL     1      21.690  32.799  22.597  1.00  0.00     0.217 C 
ATOM     77  H   UNL     1      23.312  32.881  21.240  1.00  0.00     0.163 HD
ATOM     78  C   UNL     1      21.391  34.231  22.477  1.00  0.00     0.114 C 
ATOM     79  O   UNL     1      21.004  32.071  23.347  1.00  0.00    -0.275 OA
ENDBRANCH   4  75
TORSDOF 31
