REMARK VINA RESULT:    -5.826      3.223      9.722
REMARK INTER + INTRA:         -22.178
REMARK INTER:                 -14.777
REMARK INTRA:                  -7.401
REMARK UNBOUND:                -7.496
REMARK SMILES CC(=O)N[C@@H]1[C@@H](O)C[C@](OC[C@H]2O[C@@H](O[C@H]3[C@H](O)[C@@H](O)[C@H](OCCN=[N+]=[N-])O[C@@H]3CO)[C@H](O)[C@@H](O)[C@H]2O)(C(=O)O)O[C@H]1C(O)[C@H](O)CNC(=O)OCc1cn(-c2ccccc2C(N)=O)nn1
REMARK SMILES IDX 9 1 8 2 6 3 5 4 42 5 41 6 10 7 11 8 12 9 14 10 13 11 32 12
REMARK SMILES IDX 34 13 36 14 15 15 16 16 29 17 28 18 21 19 17 20 19 21 30 22
REMARK SMILES IDX 31 23 22 25 23 26 24 27 25 28 26 29 27 30 18 31 20 33 33 35
REMARK SMILES IDX 35 37 37 39 38 41 39 42 40 43 7 45 43 47 44 48 45 50 46 51
REMARK SMILES IDX 47 53 48 54 49 55 50 57 51 58 52 59 53 60 54 61 66 62 55 63
REMARK SMILES IDX 65 64 56 65 61 66 57 67 60 68 58 69 59 70 62 71 64 72 63 73
REMARK SMILES IDX 4 76 2 77 1 79 3 80
REMARK H PARENT 31 24 18 32 20 34 33 36 35 38 37 40 40 44 7 46 44 49 46 52
REMARK H PARENT 48 56 63 74 63 75 4 78
REMARK Flexibility Score: inf
ROOT
ATOM      1  C   UNL     1      22.642  25.529  22.901  1.00  0.00     0.272 C 
ATOM      2  C   UNL     1      23.011  24.251  22.096  1.00  0.00     0.113 C 
ATOM      3  C   UNL     1      24.116  24.673  21.170  1.00  0.00     0.145 C 
ATOM      4  C   UNL     1      23.569  25.542  20.108  1.00  0.00     0.142 C 
ATOM      5  C   UNL     1      22.420  26.342  20.748  1.00  0.00     0.178 C 
ATOM      6  O   UNL     1      22.712  26.633  22.067  1.00  0.00    -0.332 OA
ENDROOT
BRANCH   1   7
ATOM      7  O   UNL     1      23.623  25.597  23.872  1.00  0.00    -0.338 OA
BRANCH   7   8
ATOM      8  C   UNL     1      23.647  24.547  24.741  1.00  0.00     0.199 C 
BRANCH   8   9
ATOM      9  C   UNL     1      23.911  24.973  26.174  1.00  0.00     0.179 C 
ATOM     10  C   UNL     1      24.432  26.918  27.347  1.00  0.00     0.282 C 
ATOM     11  O   UNL     1      24.075  26.356  26.131  1.00  0.00    -0.341 OA
ATOM     12  C   UNL     1      24.426  25.995  28.509  1.00  0.00     0.202 C 
ATOM     13  C   UNL     1      23.333  24.968  28.520  1.00  0.00     0.179 C 
ATOM     14  C   UNL     1      22.790  24.675  27.114  1.00  0.00     0.177 C 
BRANCH  10  15
ATOM     15  O   UNL     1      23.571  27.976  27.572  1.00  0.00    -0.341 OA
BRANCH  15  16
ATOM     16  C   UNL     1      23.099  28.558  26.408  1.00  0.00     0.184 C 
ATOM     17  C   UNL     1      24.004  29.719  26.061  1.00  0.00     0.178 C 
ATOM     18  O   UNL     1      23.526  30.909  26.491  1.00  0.00    -0.341 OA
ATOM     19  C   UNL     1      22.377  31.296  25.903  1.00  0.00     0.281 C 
ATOM     20  C   UNL     1      21.702  29.082  26.725  1.00  0.00     0.180 C 
ATOM     21  C   UNL     1      21.343  30.243  25.869  1.00  0.00     0.202 C 
BRANCH  17  22
ATOM     22  C   UNL     1      24.259  29.748  24.579  1.00  0.00     0.191 C 
BRANCH  22  23
ATOM     23  O   UNL     1      24.074  28.488  24.000  1.00  0.00    -0.394 OA
ATOM     24  H   UNL     1      24.761  28.422  23.270  1.00  0.00     0.210 HD
ENDBRANCH  22  23
ENDBRANCH  17  22
BRANCH  19  25
ATOM     25  O   UNL     1      22.557  31.929  24.663  1.00  0.00    -0.350 OA
BRANCH  25  26
ATOM     26  C   UNL     1      21.391  32.357  24.081  1.00  0.00     0.169 C 
BRANCH  26  27
ATOM     27  C   UNL     1      21.186  31.677  22.769  1.00  0.00     0.119 C 
BRANCH  27  28
ATOM     28  N   UNL     1      19.779  31.448  22.559  1.00  0.00    -0.092 NA
ATOM     29  N   UNL     1      19.195  30.447  22.992  1.00  0.00     0.001 N 
ATOM     30  N   UNL     1      18.797  29.501  23.677  1.00  0.00    -0.003 NA
ENDBRANCH  27  28
ENDBRANCH  26  27
ENDBRANCH  25  26
ENDBRANCH  19  25
BRANCH  20  31
ATOM     31  O   UNL     1      20.763  28.072  26.543  1.00  0.00    -0.387 OA
ATOM     32  H   UNL     1      20.626  27.894  25.560  1.00  0.00     0.211 HD
ENDBRANCH  20  31
BRANCH  21  33
ATOM     33  O   UNL     1      20.131  30.780  26.370  1.00  0.00    -0.385 OA
ATOM     34  H   UNL     1      20.324  31.196  27.259  1.00  0.00     0.211 HD
ENDBRANCH  21  33
ENDBRANCH  15  16
ENDBRANCH  10  15
BRANCH  12  35
ATOM     35  O   UNL     1      25.688  25.402  28.730  1.00  0.00    -0.385 OA
ATOM     36  H   UNL     1      26.153  25.972  29.380  1.00  0.00     0.211 HD
ENDBRANCH  12  35
BRANCH  13  37
ATOM     37  O   UNL     1      22.250  25.408  29.283  1.00  0.00    -0.387 OA
ATOM     38  H   UNL     1      22.530  26.101  29.957  1.00  0.00     0.211 HD
ENDBRANCH  13  37
BRANCH  14  39
ATOM     39  O   UNL     1      21.743  25.574  26.844  1.00  0.00    -0.387 OA
ATOM     40  H   UNL     1      22.007  26.507  26.869  1.00  0.00     0.211 HD
ENDBRANCH  14  39
ENDBRANCH   8   9
ENDBRANCH   7   8
ENDBRANCH   1   7
BRANCH   1  41
ATOM     41  C   UNL     1      21.285  25.389  23.436  1.00  0.00     0.364 C 
ATOM     42  O   UNL     1      20.773  26.310  24.160  1.00  0.00    -0.246 OA
BRANCH  41  43
ATOM     43  O   UNL     1      20.534  24.243  23.157  1.00  0.00    -0.477 OA
ATOM     44  H   UNL     1      19.980  23.872  23.925  1.00  0.00     0.296 HD
ENDBRANCH  41  43
ENDBRANCH   1  41
BRANCH   3  45
ATOM     45  O   UNL     1      24.985  25.484  21.944  1.00  0.00    -0.391 OA
ATOM     46  H   UNL     1      25.784  25.704  21.399  1.00  0.00     0.211 HD
ENDBRANCH   3  45
BRANCH   5  47
ATOM     47  C   UNL     1      22.074  27.531  19.897  1.00  0.00     0.176 C 
BRANCH  47  48
ATOM     48  O   UNL     1      21.391  27.030  18.772  1.00  0.00    -0.388 OA
ATOM     49  H   UNL     1      21.970  27.107  17.965  1.00  0.00     0.211 HD
ENDBRANCH  47  48
BRANCH  47  50
ATOM     50  C   UNL     1      21.056  28.434  20.599  1.00  0.00     0.165 C 
BRANCH  50  51
ATOM     51  O   UNL     1      20.106  27.622  21.239  1.00  0.00    -0.388 OA
ATOM     52  H   UNL     1      20.098  26.769  20.731  1.00  0.00     0.211 HD
ENDBRANCH  50  51
BRANCH  50  53
ATOM     53  C   UNL     1      20.355  29.343  19.647  1.00  0.00     0.154 C 
BRANCH  53  54
ATOM     54  N   UNL     1      18.956  29.028  19.550  1.00  0.00    -0.319 N 
ATOM     55  C   UNL     1      18.358  28.404  18.428  1.00  0.00     0.407 C 
ATOM     56  H   UNL     1      18.343  29.285  20.377  1.00  0.00     0.167 HD
ATOM     57  O   UNL     1      18.944  28.037  17.408  1.00  0.00    -0.225 OA
BRANCH  55  58
ATOM     58  O   UNL     1      16.964  28.162  18.440  1.00  0.00    -0.443 OA
BRANCH  58  59
ATOM     59  C   UNL     1      16.327  27.784  19.663  1.00  0.00     0.294 C 
BRANCH  59  60
ATOM     60  C   UNL     1      15.637  28.934  20.274  1.00  0.00     0.121 A 
ATOM     61  C   UNL     1      14.378  29.418  20.010  1.00  0.00     0.144 A 
ATOM     62  N   UNL     1      16.131  29.743  21.227  1.00  0.00    -0.131 NA
ATOM     63  N   UNL     1      14.134  30.493  20.791  1.00  0.00    -0.220 N 
ATOM     64  N   UNL     1      15.236  30.662  21.526  1.00  0.00    -0.062 NA
BRANCH  63  65
ATOM     65  C   UNL     1      12.977  31.307  20.854  1.00  0.00     0.079 A 
ATOM     66  C   UNL     1      12.237  31.313  22.008  1.00  0.00     0.065 A 
ATOM     67  C   UNL     1      12.587  32.084  19.781  1.00  0.00     0.029 A 
ATOM     68  C   UNL     1      11.091  32.093  22.125  1.00  0.00     0.016 A 
ATOM     69  C   UNL     1      11.438  32.873  19.879  1.00  0.00     0.002 A 
ATOM     70  C   UNL     1      10.710  32.865  21.047  1.00  0.00     0.001 A 
BRANCH  66  71
ATOM     71  C   UNL     1      12.652  30.495  23.129  1.00  0.00     0.250 C 
ATOM     72  O   UNL     1      13.096  31.060  24.160  1.00  0.00    -0.269 OA
ATOM     73  N   UNL     1      12.592  29.086  23.140  1.00  0.00    -0.366 N 
ATOM     74  H   UNL     1      12.030  28.602  23.857  1.00  0.00     0.159 HD
ATOM     75  H   UNL     1      13.109  28.546  22.432  1.00  0.00     0.159 HD
ENDBRANCH  66  71
ENDBRANCH  63  65
ENDBRANCH  59  60
ENDBRANCH  58  59
ENDBRANCH  55  58
ENDBRANCH  53  54
ENDBRANCH  50  53
ENDBRANCH  47  50
ENDBRANCH   5  47
BRANCH   4  76
ATOM     76  N   UNL     1      23.059  24.917  18.951  1.00  0.00    -0.348 N 
ATOM     77  C   UNL     1      23.828  24.709  17.778  1.00  0.00     0.217 C 
ATOM     78  H   UNL     1      22.065  24.588  18.950  1.00  0.00     0.163 HD
ATOM     79  C   UNL     1      23.329  24.058  16.547  1.00  0.00     0.114 C 
ATOM     80  O   UNL     1      25.027  25.132  17.851  1.00  0.00    -0.275 OA
ENDBRANCH   4  76
TORSDOF 31
