REMARK VINA RESULT:    -5.904      5.037      8.830
REMARK INTER + INTRA:         -23.987
REMARK INTER:                 -17.096
REMARK INTRA:                  -6.891
REMARK UNBOUND:                -8.074
REMARK SMILES CC(=O)N[C@@H]1[C@@H](O)C[C@](OC[C@H]2O[C@@H](O[C@H]3[C@H](O)[C@@H](O)[C@H](OCCN=[N+]=[N-])O[C@@H]3CO)[C@H](O)[C@@H](O)[C@H]2O)(C(=O)O)O[C@H]1C(O)[C@H](O)CNC(=O)OCc1cn(C[C@@H](C)CN2CCN(c3ccc(Cl)cc3)CC2)nn1
REMARK SMILES IDX 43 1 42 2 9 3 8 4 41 5 6 6 5 7 10 8 11 9 12 10 14 11 13 12
REMARK SMILES IDX 32 13 34 14 36 15 15 16 16 17 29 18 28 19 21 20 17 21 19 22
REMARK SMILES IDX 30 23 31 24 22 26 23 27 24 28 25 29 26 30 27 31 18 32 20 34
REMARK SMILES IDX 33 36 35 38 37 40 38 42 39 43 40 44 7 46 4 48 2 49 1 51 3 52
REMARK SMILES IDX 44 53 45 55 46 56 47 58 48 59 49 60 50 62 51 63 52 64 53 65
REMARK SMILES IDX 54 66 74 67 55 68 73 69 56 70 57 71 58 72 59 73 60 74 61 75
REMARK SMILES IDX 72 76 62 77 71 78 63 79 64 80 65 81 70 82 66 83 69 84 67 85
REMARK SMILES IDX 68 86
REMARK H PARENT 31 25 18 33 20 35 33 37 35 39 37 41 40 45 7 47 4 50 44 54
REMARK H PARENT 46 57 48 61
REMARK Flexibility Score: inf
ROOT
ATOM      1  C   UNL     1      28.726  19.151  21.288  1.00  0.00     0.176 C 
ENDROOT
BRANCH   1   2
ATOM      2  C   UNL     1      29.884  19.290  20.310  1.00  0.00     0.178 C 
ATOM      3  C   UNL     1      30.432  19.615  18.035  1.00  0.00     0.272 C 
ATOM      4  C   UNL     1      31.696  18.998  18.377  1.00  0.00     0.113 C 
ATOM      5  O   UNL     1      29.450  19.299  19.025  1.00  0.00    -0.332 OA
ATOM      6  C   UNL     1      31.551  17.813  19.314  1.00  0.00     0.145 C 
ATOM      7  C   UNL     1      31.007  18.365  20.639  1.00  0.00     0.142 C 
BRANCH   3   8
ATOM      8  O   UNL     1      29.814  19.358  16.885  1.00  0.00    -0.338 OA
BRANCH   8   9
ATOM      9  C   UNL     1      28.551  19.109  16.657  1.00  0.00     0.199 C 
BRANCH   9  10
ATOM     10  C   UNL     1      27.941  19.132  15.286  1.00  0.00     0.179 C 
ATOM     11  C   UNL     1      26.610  20.673  14.145  1.00  0.00     0.282 C 
ATOM     12  O   UNL     1      26.765  19.821  15.206  1.00  0.00    -0.341 OA
ATOM     13  C   UNL     1      27.632  21.789  14.253  1.00  0.00     0.202 C 
ATOM     14  C   UNL     1      28.995  21.177  14.255  1.00  0.00     0.179 C 
ATOM     15  C   UNL     1      28.985  19.687  14.306  1.00  0.00     0.177 C 
BRANCH  11  16
ATOM     16  O   UNL     1      25.331  21.259  14.300  1.00  0.00    -0.341 OA
BRANCH  16  17
ATOM     17  C   UNL     1      24.512  20.851  13.278  1.00  0.00     0.184 C 
ATOM     18  C   UNL     1      23.964  22.008  12.469  1.00  0.00     0.178 C 
ATOM     19  O   UNL     1      22.628  22.223  12.609  1.00  0.00    -0.341 OA
ATOM     20  C   UNL     1      21.799  21.146  12.348  1.00  0.00     0.281 C 
ATOM     21  C   UNL     1      23.381  19.958  13.778  1.00  0.00     0.180 C 
ATOM     22  C   UNL     1      22.412  19.802  12.629  1.00  0.00     0.202 C 
BRANCH  18  23
ATOM     23  C   UNL     1      24.419  21.956  11.019  1.00  0.00     0.191 C 
BRANCH  23  24
ATOM     24  O   UNL     1      25.296  20.927  10.784  1.00  0.00    -0.394 OA
ATOM     25  H   UNL     1      25.114  20.595   9.852  1.00  0.00     0.210 HD
ENDBRANCH  23  24
ENDBRANCH  18  23
BRANCH  20  26
ATOM     26  O   UNL     1      21.291  21.170  11.055  1.00  0.00    -0.350 OA
BRANCH  26  27
ATOM     27  C   UNL     1      21.626  20.108  10.265  1.00  0.00     0.169 C 
BRANCH  27  28
ATOM     28  C   UNL     1      20.458  19.615   9.459  1.00  0.00     0.119 C 
BRANCH  28  29
ATOM     29  N   UNL     1      19.913  18.423  10.087  1.00  0.00    -0.092 NA
ATOM     30  N   UNL     1      19.084  18.543  11.009  1.00  0.00     0.001 N 
ATOM     31  N   UNL     1      18.284  18.798  11.900  1.00  0.00    -0.003 NA
ENDBRANCH  28  29
ENDBRANCH  27  28
ENDBRANCH  26  27
ENDBRANCH  20  26
BRANCH  21  32
ATOM     32  O   UNL     1      23.860  18.689  14.098  1.00  0.00    -0.387 OA
ATOM     33  H   UNL     1      24.155  18.288  13.229  1.00  0.00     0.211 HD
ENDBRANCH  21  32
BRANCH  22  34
ATOM     34  O   UNL     1      21.374  18.934  13.047  1.00  0.00    -0.385 OA
ATOM     35  H   UNL     1      20.491  19.330  12.974  1.00  0.00     0.211 HD
ENDBRANCH  22  34
ENDBRANCH  16  17
ENDBRANCH  11  16
BRANCH  13  36
ATOM     36  O   UNL     1      27.422  22.667  13.204  1.00  0.00    -0.385 OA
ATOM     37  H   UNL     1      28.128  23.374  13.275  1.00  0.00     0.211 HD
ENDBRANCH  13  36
BRANCH  14  38
ATOM     38  O   UNL     1      29.830  21.704  15.250  1.00  0.00    -0.387 OA
ATOM     39  H   UNL     1      30.776  21.652  14.984  1.00  0.00     0.211 HD
ENDBRANCH  14  38
BRANCH  15  40
ATOM     40  O   UNL     1      30.220  19.194  14.651  1.00  0.00    -0.387 OA
ATOM     41  H   UNL     1      30.935  19.511  14.053  1.00  0.00     0.211 HD
ENDBRANCH  15  40
ENDBRANCH   9  10
ENDBRANCH   8   9
ENDBRANCH   3   8
BRANCH   3  42
ATOM     42  C   UNL     1      30.521  21.118  18.219  1.00  0.00     0.364 C 
ATOM     43  O   UNL     1      29.459  21.833  18.216  1.00  0.00    -0.246 OA
BRANCH  42  44
ATOM     44  O   UNL     1      31.694  21.807  18.390  1.00  0.00    -0.477 OA
ATOM     45  H   UNL     1      32.573  21.457  18.029  1.00  0.00     0.296 HD
ENDBRANCH  42  44
ENDBRANCH   3  42
BRANCH   6  46
ATOM     46  O   UNL     1      30.622  16.947  18.736  1.00  0.00    -0.391 OA
ATOM     47  H   UNL     1      30.461  16.156  19.303  1.00  0.00     0.211 HD
ENDBRANCH   6  46
BRANCH   7  48
ATOM     48  N   UNL     1      32.106  19.035  21.304  1.00  0.00    -0.348 N 
ATOM     49  C   UNL     1      32.322  18.840  22.692  1.00  0.00     0.217 C 
ATOM     50  H   UNL     1      32.772  19.679  20.795  1.00  0.00     0.163 HD
ATOM     51  C   UNL     1      33.476  19.555  23.345  1.00  0.00     0.114 C 
ATOM     52  O   UNL     1      31.594  18.097  23.408  1.00  0.00    -0.275 OA
ENDBRANCH   7  48
ENDBRANCH   1   2
BRANCH   1  53
ATOM     53  O   UNL     1      29.108  18.218  22.251  1.00  0.00    -0.388 OA
ATOM     54  H   UNL     1      28.342  17.939  22.804  1.00  0.00     0.211 HD
ENDBRANCH   1  53
BRANCH   1  55
ATOM     55  C   UNL     1      28.395  20.417  22.027  1.00  0.00     0.165 C 
BRANCH  55  56
ATOM     56  O   UNL     1      27.567  21.285  21.365  1.00  0.00    -0.388 OA
ATOM     57  H   UNL     1      27.941  22.179  21.279  1.00  0.00     0.211 HD
ENDBRANCH  55  56
BRANCH  55  58
ATOM     58  C   UNL     1      29.573  21.127  22.601  1.00  0.00     0.154 C 
BRANCH  58  59
ATOM     59  N   UNL     1      29.694  22.430  21.943  1.00  0.00    -0.319 N 
ATOM     60  C   UNL     1      30.892  22.824  21.303  1.00  0.00     0.407 C 
ATOM     61  H   UNL     1      28.878  23.074  21.950  1.00  0.00     0.167 HD
ATOM     62  O   UNL     1      31.860  22.025  21.318  1.00  0.00    -0.225 OA
BRANCH  60  63
ATOM     63  O   UNL     1      30.983  24.061  20.680  1.00  0.00    -0.443 OA
BRANCH  63  64
ATOM     64  C   UNL     1      29.942  25.008  20.922  1.00  0.00     0.294 C 
BRANCH  64  65
ATOM     65  C   UNL     1      28.712  24.699  20.158  1.00  0.00     0.120 A 
ATOM     66  C   UNL     1      28.407  25.098  18.876  1.00  0.00     0.138 A 
ATOM     67  N   UNL     1      27.648  23.969  20.568  1.00  0.00    -0.132 NA
ATOM     68  N   UNL     1      27.208  24.606  18.581  1.00  0.00    -0.252 N 
ATOM     69  N   UNL     1      26.752  23.923  19.607  1.00  0.00    -0.067 NA
BRANCH  68  70
ATOM     70  C   UNL     1      26.519  24.816  17.306  1.00  0.00     0.150 C 
BRANCH  70  71
ATOM     71  C   UNL     1      25.608  26.045  17.383  1.00  0.00     0.022 C 
ATOM     72  C   UNL     1      25.742  26.742  16.046  1.00  0.00     0.011 C 
BRANCH  71  73
ATOM     73  C   UNL     1      24.202  25.597  17.633  1.00  0.00     0.089 C 
BRANCH  73  74
ATOM     74  N   UNL     1      23.679  25.717  18.930  1.00  0.00    -0.299 NA
ATOM     75  C   UNL     1      24.213  26.630  19.850  1.00  0.00     0.106 C 
ATOM     76  C   UNL     1      23.100  24.526  19.464  1.00  0.00     0.106 C 
ATOM     77  C   UNL     1      24.567  25.980  21.187  1.00  0.00     0.132 C 
ATOM     78  C   UNL     1      22.383  24.852  20.762  1.00  0.00     0.132 C 
ATOM     79  N   UNL     1      23.393  25.273  21.698  1.00  0.00    -0.369 N 
BRANCH  79  80
ATOM     80  C   UNL     1      23.289  25.023  23.071  1.00  0.00     0.037 A 
ATOM     81  C   UNL     1      24.408  24.917  23.892  1.00  0.00     0.027 A 
ATOM     82  C   UNL     1      22.067  24.872  23.716  1.00  0.00     0.027 A 
ATOM     83  C   UNL     1      24.333  24.678  25.244  1.00  0.00     0.022 A 
ATOM     84  C   UNL     1      21.988  24.634  25.073  1.00  0.00     0.022 A 
ATOM     85  C   UNL     1      23.116  24.533  25.857  1.00  0.00     0.041 A 
ATOM     86  Cl  UNL     1      23.021  24.234  27.561  1.00  0.00    -0.084 Cl
ENDBRANCH  79  80
ENDBRANCH  73  74
ENDBRANCH  71  73
ENDBRANCH  70  71
ENDBRANCH  68  70
ENDBRANCH  64  65
ENDBRANCH  63  64
ENDBRANCH  60  63
ENDBRANCH  58  59
ENDBRANCH  55  58
ENDBRANCH   1  55
TORSDOF 34
