REMARK VINA RESULT:    -6.557     15.142     18.969
REMARK INTER + INTRA:         -22.009
REMARK INTER:                 -16.140
REMARK INTRA:                  -5.869
REMARK UNBOUND:                -5.485
REMARK SMILES CC(=O)N[C@@H]1[C@@H](O)C[C@](OC[C@H]2O[C@@H](O[C@H]3[C@H](O)[C@@H](O)[C@H](OCCN=[N+]=[N-])O[C@@H]3CO)[C@H](O)[C@@H](O)[C@H]2O)(C(=O)O)O[C@H]1C(O)[C@H](O)CNC(=O)OCc1cn(Cc2ccc(Br)cc2)nn1
REMARK SMILES IDX 9 1 8 2 6 3 5 4 42 5 41 6 10 7 11 8 12 9 14 10 13 11 32 12
REMARK SMILES IDX 34 13 36 14 15 15 16 16 29 17 28 18 21 19 17 20 19 21 30 22
REMARK SMILES IDX 31 23 22 25 23 26 24 27 25 28 26 29 27 30 18 31 20 33 33 35
REMARK SMILES IDX 35 37 37 39 38 41 39 42 40 43 7 45 43 47 44 48 45 50 46 51
REMARK SMILES IDX 47 53 48 54 49 55 50 57 51 58 52 59 53 60 54 61 65 62 55 63
REMARK SMILES IDX 64 64 56 65 57 66 58 67 63 68 59 69 62 70 60 71 61 72 4 73
REMARK SMILES IDX 2 74 1 76 3 77
REMARK H PARENT 31 24 18 32 20 34 33 36 35 38 37 40 40 44 7 46 44 49 46 52
REMARK H PARENT 48 56 4 75
REMARK Flexibility Score: inf
ROOT
ATOM      1  C   UNL     1       3.797  22.932  32.627  1.00  0.00     0.272 C 
ATOM      2  C   UNL     1       2.921  23.053  33.821  1.00  0.00     0.113 C 
ATOM      3  C   UNL     1       2.703  21.861  34.665  1.00  0.00     0.145 C 
ATOM      4  C   UNL     1       3.015  20.519  33.950  1.00  0.00     0.142 C 
ATOM      5  C   UNL     1       2.715  20.846  32.513  1.00  0.00     0.178 C 
ATOM      6  O   UNL     1       3.847  21.619  32.128  1.00  0.00    -0.332 OA
ENDROOT
BRANCH   1   7
ATOM      7  O   UNL     1       4.968  23.558  32.575  1.00  0.00    -0.338 OA
BRANCH   7   8
ATOM      8  C   UNL     1       6.168  23.345  32.961  1.00  0.00     0.199 C 
BRANCH   8   9
ATOM      9  C   UNL     1       6.507  23.754  34.374  1.00  0.00     0.179 C 
ATOM     10  C   UNL     1       8.178  24.243  35.829  1.00  0.00     0.282 C 
ATOM     11  O   UNL     1       7.848  23.681  34.646  1.00  0.00    -0.341 OA
ATOM     12  C   UNL     1       7.033  24.571  36.770  1.00  0.00     0.202 C 
ATOM     13  C   UNL     1       5.936  25.339  36.067  1.00  0.00     0.179 C 
ATOM     14  C   UNL     1       6.108  25.227  34.559  1.00  0.00     0.177 C 
BRANCH  10  15
ATOM     15  O   UNL     1       9.001  25.319  35.815  1.00  0.00    -0.341 OA
BRANCH  15  16
ATOM     16  C   UNL     1      10.311  25.264  35.540  1.00  0.00     0.184 C 
ATOM     17  C   UNL     1      11.245  25.208  36.705  1.00  0.00     0.178 C 
ATOM     18  O   UNL     1      12.063  26.299  36.819  1.00  0.00    -0.341 OA
ATOM     19  C   UNL     1      12.913  26.495  35.740  1.00  0.00     0.281 C 
ATOM     20  C   UNL     1      10.692  26.440  34.666  1.00  0.00     0.180 C 
ATOM     21  C   UNL     1      12.178  26.374  34.420  1.00  0.00     0.202 C 
BRANCH  17  22
ATOM     22  C   UNL     1      12.028  23.916  36.656  1.00  0.00     0.191 C 
BRANCH  22  23
ATOM     23  O   UNL     1      11.382  22.956  35.850  1.00  0.00    -0.394 OA
ATOM     24  H   UNL     1      10.479  23.237  35.620  1.00  0.00     0.210 HD
ENDBRANCH  22  23
ENDBRANCH  17  22
BRANCH  19  25
ATOM     25  O   UNL     1      14.045  25.697  35.758  1.00  0.00    -0.350 OA
BRANCH  25  26
ATOM     26  C   UNL     1      15.005  26.051  36.669  1.00  0.00     0.169 C 
BRANCH  26  27
ATOM     27  C   UNL     1      16.364  26.271  36.072  1.00  0.00     0.119 C 
BRANCH  27  28
ATOM     28  N   UNL     1      16.240  26.602  34.658  1.00  0.00    -0.092 NA
ATOM     29  N   UNL     1      15.937  27.744  34.318  1.00  0.00     0.001 N 
ATOM     30  N   UNL     1      15.429  28.786  33.845  1.00  0.00    -0.003 NA
ENDBRANCH  27  28
ENDBRANCH  26  27
ENDBRANCH  25  26
ENDBRANCH  19  25
BRANCH  20  31
ATOM     31  O   UNL     1      10.060  26.236  33.423  1.00  0.00    -0.387 OA
ATOM     32  H   UNL     1       9.160  25.829  33.565  1.00  0.00     0.211 HD
ENDBRANCH  20  31
BRANCH  21  33
ATOM     33  O   UNL     1      12.603  27.327  33.501  1.00  0.00    -0.385 OA
ATOM     34  H   UNL     1      11.874  27.992  33.412  1.00  0.00     0.211 HD
ENDBRANCH  21  33
ENDBRANCH  15  16
ENDBRANCH  10  15
BRANCH  12  35
ATOM     35  O   UNL     1       6.487  23.460  37.389  1.00  0.00    -0.385 OA
ATOM     36  H   UNL     1       6.869  22.599  37.103  1.00  0.00     0.211 HD
ENDBRANCH  12  35
BRANCH  13  37
ATOM     37  O   UNL     1       5.864  26.670  36.458  1.00  0.00    -0.387 OA
ATOM     38  H   UNL     1       6.715  27.096  36.192  1.00  0.00     0.211 HD
ENDBRANCH  13  37
BRANCH  14  39
ATOM     39  O   UNL     1       7.198  25.982  34.111  1.00  0.00    -0.387 OA
ATOM     40  H   UNL     1       7.306  26.773  34.676  1.00  0.00     0.211 HD
ENDBRANCH  14  39
ENDBRANCH   8   9
ENDBRANCH   7   8
ENDBRANCH   1   7
BRANCH   1  41
ATOM     41  C   UNL     1       3.024  23.642  31.503  1.00  0.00     0.364 C 
ATOM     42  O   UNL     1       2.129  24.422  31.823  1.00  0.00    -0.246 OA
BRANCH  41  43
ATOM     43  O   UNL     1       3.295  23.438  30.176  1.00  0.00    -0.477 OA
ATOM     44  H   UNL     1       2.556  23.609  29.475  1.00  0.00     0.296 HD
ENDBRANCH  41  43
ENDBRANCH   1  41
BRANCH   3  45
ATOM     45  O   UNL     1       3.268  21.888  35.930  1.00  0.00    -0.391 OA
ATOM     46  H   UNL     1       2.562  22.091  36.581  1.00  0.00     0.211 HD
ENDBRANCH   3  45
BRANCH   5  47
ATOM     47  C   UNL     1       2.545  19.717  31.567  1.00  0.00     0.176 C 
BRANCH  47  48
ATOM     48  O   UNL     1       1.444  18.967  31.818  1.00  0.00    -0.388 OA
ATOM     49  H   UNL     1       1.282  18.292  31.149  1.00  0.00     0.211 HD
ENDBRANCH  47  48
BRANCH  47  50
ATOM     50  C   UNL     1       2.839  19.912  30.139  1.00  0.00     0.165 C 
BRANCH  50  51
ATOM     51  O   UNL     1       4.095  20.500  29.921  1.00  0.00    -0.388 OA
ATOM     52  H   UNL     1       4.170  21.421  30.210  1.00  0.00     0.211 HD
ENDBRANCH  50  51
BRANCH  50  53
ATOM     53  C   UNL     1       1.815  20.483  29.244  1.00  0.00     0.154 C 
BRANCH  53  54
ATOM     54  N   UNL     1       2.328  21.252  28.123  1.00  0.00    -0.319 N 
ATOM     55  C   UNL     1       1.499  22.130  27.378  1.00  0.00     0.407 C 
ATOM     56  H   UNL     1       3.330  21.200  27.811  1.00  0.00     0.167 HD
ATOM     57  O   UNL     1       0.275  22.268  27.696  1.00  0.00    -0.225 OA
BRANCH  55  58
ATOM     58  O   UNL     1       1.948  22.870  26.289  1.00  0.00    -0.443 OA
BRANCH  58  59
ATOM     59  C   UNL     1       1.612  24.266  26.178  1.00  0.00     0.294 C 
BRANCH  59  60
ATOM     60  C   UNL     1       2.386  25.104  27.109  1.00  0.00     0.120 A 
ATOM     61  C   UNL     1       3.661  25.582  26.880  1.00  0.00     0.138 A 
ATOM     62  N   UNL     1       2.021  25.542  28.315  1.00  0.00    -0.132 NA
ATOM     63  N   UNL     1       4.032  26.295  27.950  1.00  0.00    -0.248 N 
ATOM     64  N   UNL     1       3.024  26.252  28.798  1.00  0.00    -0.067 NA
BRANCH  63  65
ATOM     65  C   UNL     1       5.272  27.011  28.173  1.00  0.00     0.181 C 
BRANCH  65  66
ATOM     66  C   UNL     1       5.651  27.910  27.060  1.00  0.00    -0.026 A 
ATOM     67  C   UNL     1       6.749  27.552  26.273  1.00  0.00     0.007 A 
ATOM     68  C   UNL     1       4.989  29.062  26.741  1.00  0.00     0.007 A 
ATOM     69  C   UNL     1       7.136  28.351  25.211  1.00  0.00     0.016 A 
ATOM     70  C   UNL     1       5.368  29.876  25.673  1.00  0.00     0.016 A 
ATOM     71  C   UNL     1       6.445  29.512  24.911  1.00  0.00     0.017 A 
ATOM     72  Br  UNL     1       7.009  30.596  23.425  1.00  0.00    -0.051 Br
ENDBRANCH  65  66
ENDBRANCH  63  65
ENDBRANCH  59  60
ENDBRANCH  58  59
ENDBRANCH  55  58
ENDBRANCH  53  54
ENDBRANCH  50  53
ENDBRANCH  47  50
ENDBRANCH   5  47
BRANCH   4  73
ATOM     73  N   UNL     1       2.263  19.476  34.548  1.00  0.00    -0.348 N 
ATOM     74  C   UNL     1       2.847  18.639  35.530  1.00  0.00     0.217 C 
ATOM     75  H   UNL     1       1.274  19.326  34.287  1.00  0.00     0.163 HD
ATOM     76  C   UNL     1       2.166  17.539  36.217  1.00  0.00     0.114 C 
ATOM     77  O   UNL     1       4.070  18.854  35.852  1.00  0.00    -0.275 OA
ENDBRANCH   4  73
TORSDOF 31
