REMARK VINA RESULT:    -7.409      3.476     11.039
REMARK INTER + INTRA:         -23.829
REMARK INTER:                 -16.297
REMARK INTRA:                  -7.532
REMARK UNBOUND:                -5.593
REMARK SMILES CC(=O)N[C@@H]1[C@@H](O)C[C@](OC[C@H]2O[C@@H](O[C@H]3[C@H](O)[C@@H](O)[C@H](OCCN=[N+]=[N-])O[C@@H]3CO)[C@H](O)[C@@H](O)[C@H]2O)(C(=O)O)O[C@H]1C(O)[C@H](O)CNC(=O)OCc1cn(C2c3ccccc3-c3ccccc32)nn1
REMARK SMILES IDX 9 1 8 2 6 3 5 4 42 5 41 6 10 7 11 8 12 9 14 10 13 11 32 12
REMARK SMILES IDX 34 13 36 14 15 15 16 16 29 17 28 18 21 19 17 20 19 21 30 22
REMARK SMILES IDX 31 23 22 25 23 26 24 27 25 28 26 29 27 30 18 31 20 33 33 35
REMARK SMILES IDX 35 37 37 39 38 41 39 42 40 43 7 45 43 47 44 48 45 50 46 51
REMARK SMILES IDX 47 53 48 54 49 55 50 57 51 58 52 59 53 60 54 61 70 62 55 63
REMARK SMILES IDX 69 64 56 65 57 66 68 67 58 68 62 69 63 70 67 71 59 72 61 73
REMARK SMILES IDX 64 74 66 75 60 76 65 77 4 78 2 79 1 81 3 82
REMARK H PARENT 31 24 18 32 20 34 33 36 35 38 37 40 40 44 7 46 44 49 46 52
REMARK H PARENT 48 56 4 80
REMARK Flexibility Score: inf
ROOT
ATOM      1  C   UNL     1      15.119  29.454  20.923  1.00  0.00     0.272 C 
ATOM      2  C   UNL     1      13.818  29.045  21.485  1.00  0.00     0.113 C 
ATOM      3  C   UNL     1      13.389  29.885  22.628  1.00  0.00     0.145 C 
ATOM      4  C   UNL     1      14.511  30.623  23.303  1.00  0.00     0.142 C 
ATOM      5  C   UNL     1      15.769  29.842  23.139  1.00  0.00     0.178 C 
ATOM      6  O   UNL     1      16.149  29.531  21.873  1.00  0.00    -0.332 OA
ENDROOT
BRANCH   1   7
ATOM      7  O   UNL     1      15.073  30.644  20.247  1.00  0.00    -0.338 OA
BRANCH   7   8
ATOM      8  C   UNL     1      14.327  30.677  19.101  1.00  0.00     0.199 C 
BRANCH   8   9
ATOM      9  C   UNL     1      14.515  32.004  18.399  1.00  0.00     0.179 C 
ATOM     10  C   UNL     1      16.436  31.286  17.262  1.00  0.00     0.282 C 
ATOM     11  O   UNL     1      15.856  32.162  18.136  1.00  0.00    -0.341 OA
ATOM     12  C   UNL     1      15.596  31.088  16.059  1.00  0.00     0.202 C 
ATOM     13  C   UNL     1      14.691  32.332  15.976  1.00  0.00     0.179 C 
ATOM     14  C   UNL     1      13.700  32.114  17.140  1.00  0.00     0.177 C 
BRANCH  10  15
ATOM     15  O   UNL     1      16.923  30.173  17.894  1.00  0.00    -0.341 OA
BRANCH  15  16
ATOM     16  C   UNL     1      18.278  29.986  17.860  1.00  0.00     0.184 C 
ATOM     17  C   UNL     1      18.969  31.185  17.329  1.00  0.00     0.178 C 
ATOM     18  O   UNL     1      20.040  30.884  16.494  1.00  0.00    -0.341 OA
ATOM     19  C   UNL     1      20.703  29.750  16.833  1.00  0.00     0.281 C 
ATOM     20  C   UNL     1      18.474  28.756  16.977  1.00  0.00     0.180 C 
ATOM     21  C   UNL     1      19.830  28.564  16.439  1.00  0.00     0.202 C 
BRANCH  17  22
ATOM     22  C   UNL     1      19.504  32.070  18.435  1.00  0.00     0.191 C 
BRANCH  22  23
ATOM     23  O   UNL     1      18.603  32.094  19.527  1.00  0.00    -0.394 OA
ATOM     24  H   UNL     1      18.269  33.032  19.662  1.00  0.00     0.210 HD
ENDBRANCH  22  23
ENDBRANCH  17  22
BRANCH  19  25
ATOM     25  O   UNL     1      21.012  29.585  18.170  1.00  0.00    -0.350 OA
BRANCH  25  26
ATOM     26  C   UNL     1      21.658  28.418  18.462  1.00  0.00     0.169 C 
BRANCH  26  27
ATOM     27  C   UNL     1      21.444  27.857  19.825  1.00  0.00     0.119 C 
BRANCH  27  28
ATOM     28  N   UNL     1      20.058  27.890  20.248  1.00  0.00    -0.092 NA
ATOM     29  N   UNL     1      19.665  28.949  20.754  1.00  0.00     0.001 N 
ATOM     30  N   UNL     1      19.227  29.933  21.361  1.00  0.00    -0.003 NA
ENDBRANCH  27  28
ENDBRANCH  26  27
ENDBRANCH  25  26
ENDBRANCH  19  25
BRANCH  20  31
ATOM     31  O   UNL     1      18.133  27.597  17.725  1.00  0.00    -0.387 OA
ATOM     32  H   UNL     1      17.595  27.848  18.517  1.00  0.00     0.211 HD
ENDBRANCH  20  31
BRANCH  21  33
ATOM     33  O   UNL     1      19.801  28.535  15.038  1.00  0.00    -0.385 OA
ATOM     34  H   UNL     1      20.104  27.665  14.669  1.00  0.00     0.211 HD
ENDBRANCH  21  33
ENDBRANCH  15  16
ENDBRANCH  10  15
BRANCH  12  35
ATOM     35  O   UNL     1      16.318  31.091  14.867  1.00  0.00    -0.385 OA
ATOM     36  H   UNL     1      16.842  30.257  14.816  1.00  0.00     0.211 HD
ENDBRANCH  12  35
BRANCH  13  37
ATOM     37  O   UNL     1      13.950  32.345  14.817  1.00  0.00    -0.387 OA
ATOM     38  H   UNL     1      14.141  31.517  14.313  1.00  0.00     0.211 HD
ENDBRANCH  13  37
BRANCH  14  39
ATOM     39  O   UNL     1      13.087  30.902  16.883  1.00  0.00    -0.387 OA
ATOM     40  H   UNL     1      13.662  30.278  16.376  1.00  0.00     0.211 HD
ENDBRANCH  14  39
ENDBRANCH   8   9
ENDBRANCH   7   8
ENDBRANCH   1   7
BRANCH   1  41
ATOM     41  C   UNL     1      15.646  28.368  19.985  1.00  0.00     0.364 C 
ATOM     42  O   UNL     1      16.510  27.602  20.424  1.00  0.00    -0.246 OA
BRANCH  41  43
ATOM     43  O   UNL     1      15.182  28.239  18.699  1.00  0.00    -0.477 OA
ATOM     44  H   UNL     1      15.824  28.103  17.909  1.00  0.00     0.296 HD
ENDBRANCH  41  43
ENDBRANCH   1  41
BRANCH   3  45
ATOM     45  O   UNL     1      12.363  30.788  22.342  1.00  0.00    -0.391 OA
ATOM     46  H   UNL     1      12.680  31.634  21.995  1.00  0.00     0.211 HD
ENDBRANCH   3  45
BRANCH   5  47
ATOM     47  C   UNL     1      16.906  30.606  23.815  1.00  0.00     0.176 C 
BRANCH  47  48
ATOM     48  O   UNL     1      16.761  30.529  25.176  1.00  0.00    -0.388 OA
ATOM     49  H   UNL     1      17.221  31.294  25.637  1.00  0.00     0.211 HD
ENDBRANCH  47  48
BRANCH  47  50
ATOM     50  C   UNL     1      16.879  32.021  23.321  1.00  0.00     0.165 C 
BRANCH  50  51
ATOM     51  O   UNL     1      17.252  32.053  21.966  1.00  0.00    -0.388 OA
ATOM     52  H   UNL     1      16.467  32.205  21.394  1.00  0.00     0.211 HD
ENDBRANCH  50  51
BRANCH  50  53
ATOM     53  C   UNL     1      17.997  32.768  24.058  1.00  0.00     0.154 C 
BRANCH  53  54
ATOM     54  N   UNL     1      19.209  32.025  23.889  1.00  0.00    -0.319 N 
ATOM     55  C   UNL     1      20.180  31.988  24.912  1.00  0.00     0.407 C 
ATOM     56  H   UNL     1      19.377  31.501  22.997  1.00  0.00     0.167 HD
ATOM     57  O   UNL     1      20.016  32.611  25.992  1.00  0.00    -0.225 OA
BRANCH  55  58
ATOM     58  O   UNL     1      21.350  31.268  24.781  1.00  0.00    -0.443 OA
BRANCH  58  59
ATOM     59  C   UNL     1      21.592  30.375  23.704  1.00  0.00     0.294 C 
BRANCH  59  60
ATOM     60  C   UNL     1      21.150  29.026  24.140  1.00  0.00     0.120 A 
ATOM     61  C   UNL     1      21.881  27.846  24.150  1.00  0.00     0.139 A 
ATOM     62  N   UNL     1      19.939  28.697  24.615  1.00  0.00    -0.132 NA
ATOM     63  N   UNL     1      21.108  26.855  24.623  1.00  0.00    -0.240 N 
ATOM     64  N   UNL     1      19.935  27.405  24.896  1.00  0.00    -0.066 NA
BRANCH  63  65
ATOM     65  C   UNL     1      21.490  25.453  24.800  1.00  0.00     0.170 C 
ATOM     66  C   UNL     1      22.524  25.388  25.836  1.00  0.00    -0.011 A 
ATOM     67  C   UNL     1      22.162  24.945  23.591  1.00  0.00    -0.011 A 
ATOM     68  C   UNL     1      22.510  25.723  27.185  1.00  0.00     0.007 A 
ATOM     69  C   UNL     1      23.697  24.901  25.325  1.00  0.00    -0.012 A 
ATOM     70  C   UNL     1      23.460  24.625  23.910  1.00  0.00    -0.012 A 
ATOM     71  C   UNL     1      21.735  24.750  22.291  1.00  0.00     0.007 A 
ATOM     72  C   UNL     1      23.636  25.566  27.961  1.00  0.00     0.000 A 
ATOM     73  C   UNL     1      24.830  24.744  26.109  1.00  0.00     0.009 A 
ATOM     74  C   UNL     1      24.322  24.121  22.962  1.00  0.00     0.009 A 
ATOM     75  C   UNL     1      22.579  24.248  21.328  1.00  0.00     0.000 A 
ATOM     76  C   UNL     1      24.825  25.073  27.444  1.00  0.00     0.001 A 
ATOM     77  C   UNL     1      23.879  23.932  21.665  1.00  0.00     0.001 A 
ENDBRANCH  63  65
ENDBRANCH  59  60
ENDBRANCH  58  59
ENDBRANCH  55  58
ENDBRANCH  53  54
ENDBRANCH  50  53
ENDBRANCH  47  50
ENDBRANCH   5  47
BRANCH   4  78
ATOM     78  N   UNL     1      14.205  30.606  24.746  1.00  0.00    -0.348 N 
ATOM     79  C   UNL     1      13.619  31.724  25.395  1.00  0.00     0.217 C 
ATOM     80  H   UNL     1      14.433  29.752  25.273  1.00  0.00     0.163 HD
ATOM     81  C   UNL     1      13.314  31.691  26.860  1.00  0.00     0.114 C 
ATOM     82  O   UNL     1      13.362  32.745  24.700  1.00  0.00    -0.275 OA
ENDBRANCH   4  78
TORSDOF 30
