REMARK VINA RESULT:    -6.671      0.000      0.000
REMARK INTER + INTRA:         -25.086
REMARK INTER:                 -17.768
REMARK INTRA:                  -7.319
REMARK UNBOUND:                -7.494
REMARK SMILES CC(=O)N[C@@H]1[C@@H](O)C[C@](OC[C@H]2O[C@@H](O[C@H]3[C@H](O)[C@@H](O)[C@H](OCCN=[N+]=[N-])O[C@@H]3CO)[C@H](O)[C@@H](O)[C@H]2O)(C(=O)O)O[C@H]1C(O)[C@H](O)CNC(=O)OCc1cn(C(C)CC(=O)c2ccccc2)nn1
REMARK SMILES IDX 43 1 42 2 9 3 8 4 41 5 6 6 5 7 10 8 11 9 12 10 14 11 13 12
REMARK SMILES IDX 32 13 34 14 36 15 15 16 16 17 29 18 28 19 21 20 17 21 19 22
REMARK SMILES IDX 30 23 31 24 22 26 23 27 24 28 25 29 26 30 27 31 18 32 20 34
REMARK SMILES IDX 33 36 35 38 37 40 38 42 39 43 40 44 7 46 4 48 2 49 1 51 3 52
REMARK SMILES IDX 44 53 45 55 46 56 47 58 48 59 49 60 50 62 51 63 52 64 53 65
REMARK SMILES IDX 54 66 68 67 55 68 67 69 56 70 57 71 58 72 59 73 60 74 61 75
REMARK SMILES IDX 62 76 66 77 63 78 65 79 64 80
REMARK H PARENT 31 25 18 33 20 35 33 37 35 39 37 41 40 45 7 47 4 50 44 54
REMARK H PARENT 46 57 48 61
REMARK Flexibility Score: inf
ROOT
ATOM      1  C   UNL     1      13.875  31.905  19.710  1.00  0.00     0.176 C 
ENDROOT
BRANCH   1   2
ATOM      2  C   UNL     1      14.082  30.508  20.100  1.00  0.00     0.178 C 
ATOM      3  C   UNL     1      15.847  30.015  21.586  1.00  0.00     0.272 C 
ATOM      4  C   UNL     1      16.103  28.673  20.991  1.00  0.00     0.113 C 
ATOM      5  O   UNL     1      14.439  30.241  21.362  1.00  0.00    -0.332 OA
ATOM      6  C   UNL     1      15.305  28.467  19.717  1.00  0.00     0.145 C 
ATOM      7  C   UNL     1      14.964  29.759  19.075  1.00  0.00     0.142 C 
BRANCH   3   8
ATOM      8  O   UNL     1      16.472  31.087  21.195  1.00  0.00    -0.338 OA
BRANCH   8   9
ATOM      9  C   UNL     1      17.667  31.558  21.137  1.00  0.00     0.199 C 
BRANCH   9  10
ATOM     10  C   UNL     1      18.834  31.021  20.372  1.00  0.00     0.179 C 
ATOM     11  C   UNL     1      20.047  28.989  20.348  1.00  0.00     0.282 C 
ATOM     12  O   UNL     1      19.248  29.888  20.948  1.00  0.00    -0.341 OA
ATOM     13  C   UNL     1      19.522  28.598  19.007  1.00  0.00     0.202 C 
ATOM     14  C   UNL     1      19.018  29.725  18.226  1.00  0.00     0.179 C 
ATOM     15  C   UNL     1      18.752  31.030  18.897  1.00  0.00     0.177 C 
BRANCH  11  16
ATOM     16  O   UNL     1      20.064  27.870  21.224  1.00  0.00    -0.341 OA
BRANCH  16  17
ATOM     17  C   UNL     1      21.364  27.478  21.436  1.00  0.00     0.184 C 
ATOM     18  C   UNL     1      21.456  26.005  21.709  1.00  0.00     0.178 C 
ATOM     19  O   UNL     1      20.829  25.660  22.895  1.00  0.00    -0.341 OA
ATOM     20  C   UNL     1      21.214  26.324  24.019  1.00  0.00     0.281 C 
ATOM     21  C   UNL     1      21.914  28.251  22.653  1.00  0.00     0.180 C 
ATOM     22  C   UNL     1      21.262  27.809  23.912  1.00  0.00     0.202 C 
BRANCH  18  23
ATOM     23  C   UNL     1      22.891  25.519  21.669  1.00  0.00     0.191 C 
BRANCH  23  24
ATOM     24  O   UNL     1      23.596  26.023  20.583  1.00  0.00    -0.394 OA
ATOM     25  H   UNL     1      22.979  26.108  19.808  1.00  0.00     0.210 HD
ENDBRANCH  23  24
ENDBRANCH  18  23
BRANCH  20  26
ATOM     26  O   UNL     1      22.346  25.837  24.622  1.00  0.00    -0.350 OA
BRANCH  26  27
ATOM     27  C   UNL     1      22.169  24.719  25.389  1.00  0.00     0.169 C 
BRANCH  27  28
ATOM     28  C   UNL     1      23.250  24.539  26.420  1.00  0.00     0.119 C 
BRANCH  28  29
ATOM     29  N   UNL     1      22.623  24.245  27.697  1.00  0.00    -0.092 NA
ATOM     30  N   UNL     1      22.977  24.859  28.700  1.00  0.00     0.001 N 
ATOM     31  N   UNL     1      23.197  25.616  29.647  1.00  0.00    -0.003 NA
ENDBRANCH  28  29
ENDBRANCH  27  28
ENDBRANCH  26  27
ENDBRANCH  20  26
BRANCH  21  32
ATOM     32  O   UNL     1      23.301  28.184  22.692  1.00  0.00    -0.387 OA
ATOM     33  H   UNL     1      23.703  28.928  23.200  1.00  0.00     0.211 HD
ENDBRANCH  21  32
BRANCH  22  34
ATOM     34  O   UNL     1      20.020  28.415  24.106  1.00  0.00    -0.385 OA
ATOM     35  H   UNL     1      20.107  29.327  23.727  1.00  0.00     0.211 HD
ENDBRANCH  22  34
ENDBRANCH  16  17
ENDBRANCH  11  16
BRANCH  13  36
ATOM     36  O   UNL     1      20.552  27.958  18.257  1.00  0.00    -0.385 OA
ATOM     37  H   UNL     1      21.196  27.634  18.942  1.00  0.00     0.211 HD
ENDBRANCH  13  36
BRANCH  14  38
ATOM     38  O   UNL     1      17.842  29.290  17.550  1.00  0.00    -0.387 OA
ATOM     39  H   UNL     1      17.186  30.021  17.460  1.00  0.00     0.211 HD
ENDBRANCH  14  38
BRANCH  15  40
ATOM     40  O   UNL     1      17.596  31.560  18.359  1.00  0.00    -0.387 OA
ATOM     41  H   UNL     1      16.819  31.627  18.919  1.00  0.00     0.211 HD
ENDBRANCH  15  40
ENDBRANCH   9  10
ENDBRANCH   8   9
ENDBRANCH   3   8
BRANCH   3  42
ATOM     42  C   UNL     1      15.891  29.845  23.104  1.00  0.00     0.364 C 
ATOM     43  O   UNL     1      14.885  30.100  23.777  1.00  0.00    -0.246 OA
BRANCH  42  44
ATOM     44  O   UNL     1      17.037  29.410  23.731  1.00  0.00    -0.477 OA
ATOM     45  H   UNL     1      17.460  28.556  23.385  1.00  0.00     0.296 HD
ENDBRANCH  42  44
ENDBRANCH   3  42
BRANCH   6  46
ATOM     46  O   UNL     1      15.940  27.577  18.859  1.00  0.00    -0.391 OA
ATOM     47  H   UNL     1      16.383  26.864  19.429  1.00  0.00     0.211 HD
ENDBRANCH   6  46
BRANCH   7  48
ATOM     48  N   UNL     1      14.124  29.538  17.901  1.00  0.00    -0.348 N 
ATOM     49  C   UNL     1      14.406  30.104  16.628  1.00  0.00     0.217 C 
ATOM     50  H   UNL     1      13.283  28.941  17.996  1.00  0.00     0.163 HD
ATOM     51  C   UNL     1      13.560  29.882  15.454  1.00  0.00     0.114 C 
ATOM     52  O   UNL     1      15.443  30.842  16.503  1.00  0.00    -0.275 OA
ENDBRANCH   7  48
ENDBRANCH   1   2
BRANCH   1  53
ATOM     53  O   UNL     1      14.998  32.513  19.098  1.00  0.00    -0.388 OA
ATOM     54  H   UNL     1      14.627  33.164  18.428  1.00  0.00     0.211 HD
ENDBRANCH   1  53
BRANCH   1  55
ATOM     55  C   UNL     1      13.414  32.871  20.780  1.00  0.00     0.165 C 
BRANCH  55  56
ATOM     56  O   UNL     1      14.098  32.799  21.949  1.00  0.00    -0.388 OA
ATOM     57  H   UNL     1      14.440  33.690  22.194  1.00  0.00     0.211 HD
ENDBRANCH  55  56
BRANCH  55  58
ATOM     58  C   UNL     1      11.928  32.565  21.022  1.00  0.00     0.154 C 
BRANCH  58  59
ATOM     59  N   UNL     1      11.764  31.778  22.224  1.00  0.00    -0.319 N 
ATOM     60  C   UNL     1      10.633  31.781  23.069  1.00  0.00     0.407 C 
ATOM     61  H   UNL     1      12.541  31.114  22.533  1.00  0.00     0.167 HD
ATOM     62  O   UNL     1       9.629  32.467  22.794  1.00  0.00    -0.225 OA
BRANCH  60  63
ATOM     63  O   UNL     1      10.600  31.015  24.252  1.00  0.00    -0.443 OA
BRANCH  63  64
ATOM     64  C   UNL     1      11.343  29.777  24.285  1.00  0.00     0.294 C 
BRANCH  64  65
ATOM     65  C   UNL     1      10.285  28.740  24.573  1.00  0.00     0.120 A 
ATOM     66  C   UNL     1       8.906  29.023  24.523  1.00  0.00     0.138 A 
ATOM     67  N   UNL     1      10.371  27.479  24.950  1.00  0.00    -0.132 NA
ATOM     68  N   UNL     1       8.226  27.922  24.876  1.00  0.00    -0.249 N 
ATOM     69  N   UNL     1       9.122  27.000  25.128  1.00  0.00    -0.067 NA
BRANCH  68  70
ATOM     70  C   UNL     1       6.765  27.863  24.959  1.00  0.00     0.114 C 
ATOM     71  C   UNL     1       6.381  27.213  26.251  1.00  0.00     0.034 C 
BRANCH  70  72
ATOM     72  C   UNL     1       6.167  29.208  24.707  1.00  0.00     0.108 C 
BRANCH  72  73
ATOM     73  C   UNL     1       5.174  29.066  23.609  1.00  0.00     0.164 C 
ATOM     74  O   UNL     1       4.091  28.503  23.789  1.00  0.00    -0.294 OA
BRANCH  73  75
ATOM     75  C   UNL     1       5.533  29.626  22.297  1.00  0.00     0.018 A 
ATOM     76  C   UNL     1       5.481  28.909  21.158  1.00  0.00     0.012 A 
ATOM     77  C   UNL     1       5.938  30.970  22.274  1.00  0.00     0.012 A 
ATOM     78  C   UNL     1       5.828  29.501  19.932  1.00  0.00     0.001 A 
ATOM     79  C   UNL     1       6.272  31.527  21.073  1.00  0.00     0.001 A 
ATOM     80  C   UNL     1       6.224  30.818  19.902  1.00  0.00     0.000 A 
ENDBRANCH  73  75
ENDBRANCH  72  73
ENDBRANCH  70  72
ENDBRANCH  68  70
ENDBRANCH  64  65
ENDBRANCH  63  64
ENDBRANCH  60  63
ENDBRANCH  58  59
ENDBRANCH  55  58
ENDBRANCH   1  55
TORSDOF 33
