REMARK VINA RESULT:    -5.336      4.217     10.550
REMARK INTER + INTRA:         -20.460
REMARK INTER:                 -13.151
REMARK INTRA:                  -7.309
REMARK UNBOUND:                -6.390
REMARK SMILES CCOC(=O)Cn1cc(COC(=O)NC[C@@H](O)C(O)[C@@H]2O[C@@](OC[C@H]3O[C@@H](O[C@H]4[C@H](O)[C@@H](O)[C@H](OCCN=[N+]=[N-])O[C@@H]4CO)[C@H](O)[C@@H](O)[C@H]3O)(C(=O)O)C[C@H](O)[C@H]2NC(C)=O)nn1
REMARK SMILES IDX 18 1 20 2 22 3 54 4 21 5 55 6 57 7 23 8 24 9 25 10 27 11
REMARK SMILES IDX 26 12 45 13 47 14 49 15 28 16 29 17 42 18 41 19 34 20 30 21
REMARK SMILES IDX 32 22 43 23 44 24 35 26 36 27 37 28 38 29 39 30 40 31 31 32
REMARK SMILES IDX 33 34 46 36 48 38 50 40 51 42 52 43 53 44 56 46 58 48 59 49
REMARK SMILES IDX 60 51 61 52 19 53 16 55 17 56 15 58 14 59 12 60 13 62 11 63
REMARK SMILES IDX 10 64 9 65 8 66 62 67 7 68 63 69 6 70 4 71 5 72 3 73 2 74
REMARK SMILES IDX 1 75
REMARK H PARENT 44 25 31 33 33 35 46 37 48 39 50 41 53 45 56 47 58 50 19 54
REMARK H PARENT 17 57 14 61
REMARK Flexibility Score: inf
ROOT
ATOM      1  C   UNL     1      13.584  31.926  12.561  1.00  0.00     0.176 C 
ENDROOT
BRANCH   1   2
ATOM      2  C   UNL     1      12.756  31.880  13.815  1.00  0.00     0.178 C 
ATOM      3  C   UNL     1      12.969  31.924  16.144  1.00  0.00     0.272 C 
ATOM      4  C   UNL     1      11.548  31.480  16.081  1.00  0.00     0.113 C 
ATOM      5  O   UNL     1      13.435  32.384  14.893  1.00  0.00    -0.332 OA
ATOM      6  C   UNL     1      11.286  30.406  15.075  1.00  0.00     0.145 C 
ATOM      7  C   UNL     1      12.419  30.420  14.062  1.00  0.00     0.142 C 
BRANCH   3   8
ATOM      8  O   UNL     1      13.862  30.994  16.632  1.00  0.00    -0.338 OA
BRANCH   8   9
ATOM      9  C   UNL     1      15.185  31.248  16.516  1.00  0.00     0.199 C 
BRANCH   9  10
ATOM     10  C   UNL     1      15.908  30.584  17.704  1.00  0.00     0.179 C 
ATOM     11  C   UNL     1      15.542  29.530  19.737  1.00  0.00     0.282 C 
ATOM     12  O   UNL     1      15.059  30.343  18.737  1.00  0.00    -0.341 OA
ATOM     13  C   UNL     1      16.121  28.238  19.244  1.00  0.00     0.202 C 
ATOM     14  C   UNL     1      17.280  28.591  18.348  1.00  0.00     0.179 C 
ATOM     15  C   UNL     1      16.739  29.426  17.236  1.00  0.00     0.177 C 
BRANCH  11  16
ATOM     16  O   UNL     1      14.595  29.240  20.705  1.00  0.00    -0.341 OA
BRANCH  16  17
ATOM     17  C   UNL     1      14.344  30.246  21.603  1.00  0.00     0.184 C 
ATOM     18  C   UNL     1      14.694  29.880  23.030  1.00  0.00     0.178 C 
ATOM     19  O   UNL     1      13.557  29.732  23.813  1.00  0.00    -0.341 OA
ATOM     20  C   UNL     1      12.862  30.952  23.973  1.00  0.00     0.281 C 
ATOM     21  C   UNL     1      12.861  30.614  21.551  1.00  0.00     0.180 C 
ATOM     22  C   UNL     1      12.637  31.631  22.660  1.00  0.00     0.202 C 
BRANCH  18  23
ATOM     23  C   UNL     1      15.691  30.862  23.587  1.00  0.00     0.191 C 
BRANCH  23  24
ATOM     24  O   UNL     1      16.231  30.395  24.799  1.00  0.00    -0.394 OA
ATOM     25  H   UNL     1      16.990  30.942  25.085  1.00  0.00     0.210 HD
ENDBRANCH  23  24
ENDBRANCH  18  23
BRANCH  20  26
ATOM     26  O   UNL     1      13.500  31.757  24.882  1.00  0.00    -0.350 OA
BRANCH  26  27
ATOM     27  C   UNL     1      12.933  32.006  26.085  1.00  0.00     0.169 C 
BRANCH  27  28
ATOM     28  C   UNL     1      13.720  32.689  27.139  1.00  0.00     0.119 C 
BRANCH  28  29
ATOM     29  N   UNL     1      15.137  32.699  27.000  1.00  0.00    -0.092 NA
ATOM     30  N   UNL     1      15.847  31.826  27.543  1.00  0.00     0.001 N 
ATOM     31  N   UNL     1      16.335  30.772  27.986  1.00  0.00    -0.003 NA
ENDBRANCH  28  29
ENDBRANCH  27  28
ENDBRANCH  26  27
ENDBRANCH  20  26
BRANCH  21  32
ATOM     32  O   UNL     1      12.576  31.194  20.312  1.00  0.00    -0.387 OA
ATOM     33  H   UNL     1      11.652  30.885  20.058  1.00  0.00     0.211 HD
ENDBRANCH  21  32
BRANCH  22  34
ATOM     34  O   UNL     1      11.353  32.171  22.536  1.00  0.00    -0.385 OA
ATOM     35  H   UNL     1      11.145  32.486  21.622  1.00  0.00     0.211 HD
ENDBRANCH  22  34
ENDBRANCH  16  17
ENDBRANCH  11  16
BRANCH  13  36
ATOM     36  O   UNL     1      16.562  27.502  20.337  1.00  0.00    -0.385 OA
ATOM     37  H   UNL     1      15.883  26.983  20.793  1.00  0.00     0.211 HD
ENDBRANCH  13  36
BRANCH  14  38
ATOM     38  O   UNL     1      17.791  27.386  17.815  1.00  0.00    -0.387 OA
ATOM     39  H   UNL     1      18.328  27.572  17.004  1.00  0.00     0.211 HD
ENDBRANCH  14  38
BRANCH  15  40
ATOM     40  O   UNL     1      15.998  28.571  16.389  1.00  0.00    -0.387 OA
ATOM     41  H   UNL     1      15.881  27.737  16.923  1.00  0.00     0.211 HD
ENDBRANCH  15  40
ENDBRANCH   9  10
ENDBRANCH   8   9
ENDBRANCH   3   8
BRANCH   3  42
ATOM     42  C   UNL     1      13.020  33.136  16.997  1.00  0.00     0.364 C 
ATOM     43  O   UNL     1      12.579  33.086  18.167  1.00  0.00    -0.246 OA
BRANCH  42  44
ATOM     44  O   UNL     1      13.541  34.306  16.521  1.00  0.00    -0.477 OA
ATOM     45  H   UNL     1      14.498  34.380  16.186  1.00  0.00     0.296 HD
ENDBRANCH  42  44
ENDBRANCH   3  42
BRANCH   6  46
ATOM     46  O   UNL     1      11.074  29.154  15.600  1.00  0.00    -0.391 OA
ATOM     47  H   UNL     1      11.944  28.797  15.935  1.00  0.00     0.211 HD
ENDBRANCH   6  46
BRANCH   7  48
ATOM     48  N   UNL     1      12.017  29.755  12.830  1.00  0.00    -0.348 N 
ATOM     49  C   UNL     1      12.256  28.379  12.604  1.00  0.00     0.217 C 
ATOM     50  H   UNL     1      11.536  30.308  12.100  1.00  0.00     0.163 HD
ATOM     51  C   UNL     1      11.850  27.685  11.346  1.00  0.00     0.114 C 
ATOM     52  O   UNL     1      12.838  27.722  13.510  1.00  0.00    -0.275 OA
ENDBRANCH   7  48
ENDBRANCH   1   2
BRANCH   1  53
ATOM     53  O   UNL     1      13.384  33.115  11.888  1.00  0.00    -0.388 OA
ATOM     54  H   UNL     1      13.977  33.855  12.207  1.00  0.00     0.211 HD
ENDBRANCH   1  53
BRANCH   1  55
ATOM     55  C   UNL     1      15.070  31.758  12.823  1.00  0.00     0.165 C 
BRANCH  55  56
ATOM     56  O   UNL     1      15.841  32.691  12.172  1.00  0.00    -0.388 OA
ATOM     57  H   UNL     1      15.368  33.175  11.456  1.00  0.00     0.211 HD
ENDBRANCH  55  56
BRANCH  55  58
ATOM     58  C   UNL     1      15.461  30.366  12.452  1.00  0.00     0.154 C 
BRANCH  58  59
ATOM     59  N   UNL     1      16.325  29.722  13.376  1.00  0.00    -0.319 N 
ATOM     60  C   UNL     1      17.725  29.939  13.485  1.00  0.00     0.407 C 
ATOM     61  H   UNL     1      15.927  29.000  14.073  1.00  0.00     0.167 HD
ATOM     62  O   UNL     1      18.325  30.746  12.754  1.00  0.00    -0.225 OA
BRANCH  60  63
ATOM     63  O   UNL     1      18.456  29.225  14.450  1.00  0.00    -0.443 OA
BRANCH  63  64
ATOM     64  C   UNL     1      19.733  29.627  14.820  1.00  0.00     0.294 C 
BRANCH  64  65
ATOM     65  C   UNL     1      20.223  29.010  16.067  1.00  0.00     0.120 A 
ATOM     66  C   UNL     1      20.489  29.662  17.256  1.00  0.00     0.139 A 
ATOM     67  N   UNL     1      20.515  27.723  16.294  1.00  0.00    -0.132 NA
ATOM     68  N   UNL     1      20.934  28.765  18.168  1.00  0.00    -0.241 N 
ATOM     69  N   UNL     1      20.935  27.603  17.551  1.00  0.00    -0.066 NA
BRANCH  68  70
ATOM     70  C   UNL     1      21.320  29.095  19.535  1.00  0.00     0.268 C 
BRANCH  70  71
ATOM     71  C   UNL     1      20.721  28.043  20.433  1.00  0.00     0.327 C 
ATOM     72  O   UNL     1      19.490  27.903  20.561  1.00  0.00    -0.250 OA
BRANCH  71  73
ATOM     73  O   UNL     1      21.526  27.182  21.158  1.00  0.00    -0.465 OA
BRANCH  73  74
ATOM     74  C   UNL     1      22.061  25.987  20.668  1.00  0.00     0.229 C 
ATOM     75  C   UNL     1      21.859  24.823  21.606  1.00  0.00     0.049 C 
ENDBRANCH  73  74
ENDBRANCH  71  73
ENDBRANCH  70  71
ENDBRANCH  68  70
ENDBRANCH  64  65
ENDBRANCH  63  64
ENDBRANCH  60  63
ENDBRANCH  58  59
ENDBRANCH  55  58
ENDBRANCH   1  55
TORSDOF 33
