REMARK VINA RESULT:    -5.795      4.328     10.370
REMARK INTER + INTRA:         -20.954
REMARK INTER:                 -11.541
REMARK INTRA:                  -9.412
REMARK UNBOUND:                -6.520
REMARK SMILES CC(=O)N[C@@H]1[C@@H](O)C[C@](OC[C@H]2O[C@@H](O[C@H]3[C@H](O)[C@@H](O)[C@H](OCCN=[N+]=[N-])O[C@@H]3CO)[C@H](O)[C@@H](O)[C@H]2O)(C(=O)O)O[C@H]1C(O)[C@H](O)CNC(=O)OCc1cn(-c2nc(C)nc(N)n2)nn1
REMARK SMILES IDX 9 1 8 2 6 3 5 4 42 5 41 6 10 7 11 8 12 9 14 10 13 11 32 12
REMARK SMILES IDX 34 13 36 14 15 15 16 16 29 17 28 18 21 19 17 20 19 21 30 22
REMARK SMILES IDX 31 23 22 25 23 26 24 27 25 28 26 29 27 30 18 31 20 33 33 35
REMARK SMILES IDX 35 37 37 39 38 41 39 42 40 43 7 45 43 47 44 48 45 50 46 51
REMARK SMILES IDX 47 53 48 54 49 55 50 57 51 58 52 59 53 60 54 61 65 62 55 63
REMARK SMILES IDX 64 64 56 65 63 66 57 67 61 68 58 69 60 70 59 71 62 72 4 75
REMARK SMILES IDX 2 76 1 78 3 79
REMARK H PARENT 31 24 18 32 20 34 33 36 35 38 37 40 40 44 7 46 44 49 46 52
REMARK H PARENT 48 56 62 73 62 74 4 77
REMARK Flexibility Score: inf
ROOT
ATOM      1  C   UNL     1      20.121  31.255  24.179  1.00  0.00     0.272 C 
ATOM      2  C   UNL     1      20.587  31.217  22.764  1.00  0.00     0.113 C 
ATOM      3  C   UNL     1      20.899  29.819  22.325  1.00  0.00     0.145 C 
ATOM      4  C   UNL     1      21.919  29.236  23.268  1.00  0.00     0.142 C 
ATOM      5  C   UNL     1      21.598  29.495  24.722  1.00  0.00     0.178 C 
ATOM      6  O   UNL     1      21.167  30.738  24.990  1.00  0.00    -0.332 OA
ENDROOT
BRANCH   1   7
ATOM      7  O   UNL     1      18.949  30.814  24.475  1.00  0.00    -0.338 OA
BRANCH   7   8
ATOM      8  C   UNL     1      17.704  31.100  24.476  1.00  0.00     0.199 C 
BRANCH   8   9
ATOM      9  C   UNL     1      16.653  30.693  23.501  1.00  0.00     0.179 C 
ATOM     10  C   UNL     1      16.043  29.400  21.799  1.00  0.00     0.282 C 
ATOM     11  O   UNL     1      16.968  29.534  22.871  1.00  0.00    -0.341 OA
ATOM     12  C   UNL     1      14.796  28.876  22.465  1.00  0.00     0.202 C 
ATOM     13  C   UNL     1      14.246  29.937  23.387  1.00  0.00     0.179 C 
ATOM     14  C   UNL     1      15.235  30.895  23.926  1.00  0.00     0.177 C 
BRANCH  10  15
ATOM     15  O   UNL     1      16.505  28.533  20.846  1.00  0.00    -0.341 OA
BRANCH  15  16
ATOM     16  C   UNL     1      16.717  29.118  19.609  1.00  0.00     0.184 C 
ATOM     17  C   UNL     1      15.551  29.083  18.680  1.00  0.00     0.178 C 
ATOM     18  O   UNL     1      15.848  28.520  17.446  1.00  0.00    -0.341 OA
ATOM     19  C   UNL     1      16.963  29.066  16.822  1.00  0.00     0.281 C 
ATOM     20  C   UNL     1      17.872  28.314  18.982  1.00  0.00     0.180 C 
ATOM     21  C   UNL     1      18.200  28.978  17.666  1.00  0.00     0.202 C 
BRANCH  17  22
ATOM     22  C   UNL     1      14.827  30.393  18.525  1.00  0.00     0.191 C 
BRANCH  22  23
ATOM     23  O   UNL     1      13.805  30.181  17.572  1.00  0.00    -0.394 OA
ATOM     24  H   UNL     1      14.124  29.694  16.782  1.00  0.00     0.210 HD
ENDBRANCH  22  23
ENDBRANCH  17  22
BRANCH  19  25
ATOM     25  O   UNL     1      16.786  30.360  16.421  1.00  0.00    -0.350 OA
BRANCH  25  26
ATOM     26  C   UNL     1      16.958  30.639  15.097  1.00  0.00     0.169 C 
BRANCH  26  27
ATOM     27  C   UNL     1      15.960  29.957  14.202  1.00  0.00     0.119 C 
BRANCH  27  28
ATOM     28  N   UNL     1      14.614  30.373  14.622  1.00  0.00    -0.092 NA
ATOM     29  N   UNL     1      14.432  31.579  14.774  1.00  0.00     0.001 N 
ATOM     30  N   UNL     1      14.077  32.599  15.404  1.00  0.00    -0.003 NA
ENDBRANCH  27  28
ENDBRANCH  26  27
ENDBRANCH  25  26
ENDBRANCH  19  25
BRANCH  20  31
ATOM     31  O   UNL     1      18.943  28.281  19.850  1.00  0.00    -0.387 OA
ATOM     32  H   UNL     1      19.803  28.429  19.370  1.00  0.00     0.211 HD
ENDBRANCH  20  31
BRANCH  21  33
ATOM     33  O   UNL     1      19.195  28.211  17.058  1.00  0.00    -0.385 OA
ATOM     34  H   UNL     1      19.586  28.683  16.280  1.00  0.00     0.211 HD
ENDBRANCH  21  33
ENDBRANCH  15  16
ENDBRANCH  10  15
BRANCH  12  35
ATOM     35  O   UNL     1      13.830  28.460  21.552  1.00  0.00    -0.385 OA
ATOM     36  H   UNL     1      14.189  27.674  21.069  1.00  0.00     0.211 HD
ENDBRANCH  12  35
BRANCH  13  37
ATOM     37  O   UNL     1      13.508  29.274  24.371  1.00  0.00    -0.387 OA
ATOM     38  H   UNL     1      14.073  28.731  24.975  1.00  0.00     0.211 HD
ENDBRANCH  13  37
BRANCH  14  39
ATOM     39  O   UNL     1      15.043  31.057  25.294  1.00  0.00    -0.387 OA
ATOM     40  H   UNL     1      14.268  30.465  25.532  1.00  0.00     0.211 HD
ENDBRANCH  14  39
ENDBRANCH   8   9
ENDBRANCH   7   8
ENDBRANCH   1   7
BRANCH   1  41
ATOM     41  C   UNL     1      20.255  32.763  24.534  1.00  0.00     0.364 C 
ATOM     42  O   UNL     1      20.171  33.548  23.598  1.00  0.00    -0.246 OA
BRANCH  41  43
ATOM     43  O   UNL     1      20.457  33.150  25.821  1.00  0.00    -0.477 OA
ATOM     44  H   UNL     1      21.244  32.823  26.399  1.00  0.00     0.296 HD
ENDBRANCH  41  43
ENDBRANCH   1  41
BRANCH   3  45
ATOM     45  O   UNL     1      19.818  28.968  22.325  1.00  0.00    -0.391 OA
ATOM     46  H   UNL     1      19.190  29.150  23.046  1.00  0.00     0.211 HD
ENDBRANCH   3  45
BRANCH   5  47
ATOM     47  C   UNL     1      20.795  28.392  25.366  1.00  0.00     0.176 C 
BRANCH  47  48
ATOM     48  O   UNL     1      20.482  27.409  24.443  1.00  0.00    -0.388 OA
ATOM     49  H   UNL     1      21.036  27.397  23.642  1.00  0.00     0.211 HD
ENDBRANCH  47  48
BRANCH  47  50
ATOM     50  C   UNL     1      21.565  27.830  26.519  1.00  0.00     0.165 C 
BRANCH  50  51
ATOM     51  O   UNL     1      22.810  28.483  26.588  1.00  0.00    -0.388 OA
ATOM     52  H   UNL     1      23.362  28.172  25.850  1.00  0.00     0.211 HD
ENDBRANCH  50  51
BRANCH  50  53
ATOM     53  C   UNL     1      21.818  26.362  26.465  1.00  0.00     0.154 C 
BRANCH  53  54
ATOM     54  N   UNL     1      22.775  26.002  25.442  1.00  0.00    -0.319 N 
ATOM     55  C   UNL     1      22.586  24.966  24.507  1.00  0.00     0.407 C 
ATOM     56  H   UNL     1      23.692  26.533  25.363  1.00  0.00     0.167 HD
ATOM     57  O   UNL     1      21.551  24.292  24.518  1.00  0.00    -0.225 OA
BRANCH  55  58
ATOM     58  O   UNL     1      23.542  24.658  23.545  1.00  0.00    -0.443 OA
BRANCH  58  59
ATOM     59  C   UNL     1      23.236  24.288  22.225  1.00  0.00     0.294 C 
BRANCH  59  60
ATOM     60  C   UNL     1      22.619  25.414  21.462  1.00  0.00     0.121 A 
ATOM     61  C   UNL     1      23.288  26.475  20.888  1.00  0.00     0.148 A 
ATOM     62  N   UNL     1      21.312  25.601  21.197  1.00  0.00    -0.131 NA
ATOM     63  N   UNL     1      22.377  27.268  20.298  1.00  0.00    -0.185 N 
ATOM     64  N   UNL     1      21.198  26.718  20.500  1.00  0.00    -0.059 NA
BRANCH  63  65
ATOM     65  C   UNL     1      22.696  28.464  19.600  1.00  0.00     0.257 A 
ATOM     66  N   UNL     1      21.864  28.914  18.643  1.00  0.00    -0.175 NA
ATOM     67  N   UNL     1      23.798  29.199  19.836  1.00  0.00    -0.196 NA
ATOM     68  C   UNL     1      22.117  30.051  17.946  1.00  0.00     0.225 A 
ATOM     69  C   UNL     1      24.080  30.325  19.171  1.00  0.00     0.133 A 
ATOM     70  N   UNL     1      23.241  30.745  18.230  1.00  0.00    -0.198 NA
ATOM     71  C   UNL     1      25.326  31.116  19.469  1.00  0.00     0.090 C 
BRANCH  68  72
ATOM     72  N   UNL     1      21.209  30.479  16.951  1.00  0.00    -0.368 N 
ATOM     73  H   UNL     1      21.051  31.488  16.758  1.00  0.00     0.159 HD
ATOM     74  H   UNL     1      20.677  29.788  16.389  1.00  0.00     0.159 HD
ENDBRANCH  68  72
ENDBRANCH  63  65
ENDBRANCH  59  60
ENDBRANCH  58  59
ENDBRANCH  55  58
ENDBRANCH  53  54
ENDBRANCH  50  53
ENDBRANCH  47  50
ENDBRANCH   5  47
BRANCH   4  75
ATOM     75  N   UNL     1      23.219  29.780  22.940  1.00  0.00    -0.348 N 
ATOM     76  C   UNL     1      24.412  29.095  23.308  1.00  0.00     0.217 C 
ATOM     77  H   UNL     1      23.336  30.688  22.424  1.00  0.00     0.163 HD
ATOM     78  C   UNL     1      25.723  29.663  22.968  1.00  0.00     0.114 C 
ATOM     79  O   UNL     1      24.334  28.010  23.923  1.00  0.00    -0.275 OA
ENDBRANCH   4  75
TORSDOF 31
