REMARK VINA RESULT:    -5.944     14.485     20.119
REMARK INTER + INTRA:         -22.473
REMARK INTER:                 -17.266
REMARK INTRA:                  -5.207
REMARK UNBOUND:                -7.496
REMARK SMILES CC(=O)N[C@@H]1[C@@H](O)C[C@](OC[C@H]2O[C@@H](O[C@H]3[C@H](O)[C@@H](O)[C@H](OCCN=[N+]=[N-])O[C@@H]3CO)[C@H](O)[C@@H](O)[C@H]2O)(C(=O)O)O[C@H]1C(O)[C@H](O)CNC(=O)OCc1cn(-c2ccccc2C(N)=O)nn1
REMARK SMILES IDX 9 1 8 2 6 3 5 4 42 5 41 6 10 7 11 8 12 9 14 10 13 11 32 12
REMARK SMILES IDX 34 13 36 14 15 15 16 16 29 17 28 18 21 19 17 20 19 21 30 22
REMARK SMILES IDX 31 23 22 25 23 26 24 27 25 28 26 29 27 30 18 31 20 33 33 35
REMARK SMILES IDX 35 37 37 39 38 41 39 42 40 43 7 45 43 47 44 48 45 50 46 51
REMARK SMILES IDX 47 53 48 54 49 55 50 57 51 58 52 59 53 60 54 61 66 62 55 63
REMARK SMILES IDX 65 64 56 65 61 66 57 67 60 68 58 69 59 70 62 71 64 72 63 73
REMARK SMILES IDX 4 76 2 77 1 79 3 80
REMARK H PARENT 31 24 18 32 20 34 33 36 35 38 37 40 40 44 7 46 44 49 46 52
REMARK H PARENT 48 56 63 74 63 75 4 78
REMARK Flexibility Score: inf
ROOT
ATOM      1  C   UNL     1       2.618  24.419  33.634  1.00  0.00     0.272 C 
ATOM      2  C   UNL     1       1.638  23.425  34.318  1.00  0.00     0.113 C 
ATOM      3  C   UNL     1       2.509  22.505  35.127  1.00  0.00     0.145 C 
ATOM      4  C   UNL     1       3.257  21.607  34.224  1.00  0.00     0.142 C 
ATOM      5  C   UNL     1       3.546  22.415  32.947  1.00  0.00     0.178 C 
ATOM      6  O   UNL     1       3.767  23.743  33.256  1.00  0.00    -0.332 OA
ENDROOT
BRANCH   1   7
ATOM      7  O   UNL     1       2.903  25.334  34.630  1.00  0.00    -0.338 OA
BRANCH   7   8
ATOM      8  C   UNL     1       3.035  26.622  34.206  1.00  0.00     0.199 C 
BRANCH   8   9
ATOM      9  C   UNL     1       4.449  27.152  34.367  1.00  0.00     0.179 C 
ATOM     10  C   UNL     1       6.492  26.441  35.235  1.00  0.00     0.282 C 
ATOM     11  O   UNL     1       5.184  26.105  34.917  1.00  0.00    -0.341 OA
ATOM     12  C   UNL     1       6.933  27.789  34.800  1.00  0.00     0.202 C 
ATOM     13  C   UNL     1       6.408  28.251  33.474  1.00  0.00     0.179 C 
ATOM     14  C   UNL     1       5.102  27.544  33.083  1.00  0.00     0.177 C 
BRANCH  10  15
ATOM     15  O   UNL     1       7.305  25.469  34.682  1.00  0.00    -0.341 OA
BRANCH  15  16
ATOM     16  C   UNL     1       7.507  24.381  35.514  1.00  0.00     0.184 C 
ATOM     17  C   UNL     1       7.605  24.890  36.936  1.00  0.00     0.178 C 
ATOM     18  O   UNL     1       8.882  25.060  37.349  1.00  0.00    -0.341 OA
ATOM     19  C   UNL     1       9.599  23.922  37.435  1.00  0.00     0.281 C 
ATOM     20  C   UNL     1       8.841  23.768  35.103  1.00  0.00     0.180 C 
ATOM     21  C   UNL     1       9.496  23.064  36.237  1.00  0.00     0.202 C 
BRANCH  17  22
ATOM     22  C   UNL     1       6.860  23.969  37.863  1.00  0.00     0.191 C 
BRANCH  22  23
ATOM     23  O   UNL     1       5.710  23.450  37.260  1.00  0.00    -0.394 OA
ATOM     24  H   UNL     1       6.033  22.930  36.462  1.00  0.00     0.210 HD
ENDBRANCH  22  23
ENDBRANCH  17  22
BRANCH  19  25
ATOM     25  O   UNL     1       9.410  23.218  38.633  1.00  0.00    -0.350 OA
BRANCH  25  26
ATOM     26  C   UNL     1      10.568  22.981  39.330  1.00  0.00     0.169 C 
BRANCH  26  27
ATOM     27  C   UNL     1      10.681  23.921  40.482  1.00  0.00     0.119 C 
BRANCH  27  28
ATOM     28  N   UNL     1      11.898  24.685  40.365  1.00  0.00    -0.092 NA
ATOM     29  N   UNL     1      13.019  24.165  40.419  1.00  0.00     0.001 N 
ATOM     30  N   UNL     1      13.996  23.420  40.300  1.00  0.00    -0.003 NA
ENDBRANCH  27  28
ENDBRANCH  26  27
ENDBRANCH  25  26
ENDBRANCH  19  25
BRANCH  20  31
ATOM     31  O   UNL     1       8.649  22.869  34.058  1.00  0.00    -0.387 OA
ATOM     32  H   UNL     1       9.211  22.044  34.199  1.00  0.00     0.211 HD
ENDBRANCH  20  31
BRANCH  21  33
ATOM     33  O   UNL     1      10.802  22.710  35.818  1.00  0.00    -0.385 OA
ATOM     34  H   UNL     1      10.880  22.923  34.843  1.00  0.00     0.211 HD
ENDBRANCH  21  33
ENDBRANCH  15  16
ENDBRANCH  10  15
BRANCH  12  35
ATOM     35  O   UNL     1       6.734  28.766  35.799  1.00  0.00    -0.385 OA
ATOM     36  H   UNL     1       7.622  29.118  36.025  1.00  0.00     0.211 HD
ENDBRANCH  12  35
BRANCH  13  37
ATOM     37  O   UNL     1       7.327  27.984  32.458  1.00  0.00    -0.387 OA
ATOM     38  H   UNL     1       7.125  27.113  31.997  1.00  0.00     0.211 HD
ENDBRANCH  13  37
BRANCH  14  39
ATOM     39  O   UNL     1       5.424  26.369  32.380  1.00  0.00    -0.387 OA
ATOM     40  H   UNL     1       4.695  25.731  32.324  1.00  0.00     0.211 HD
ENDBRANCH  14  39
ENDBRANCH   8   9
ENDBRANCH   7   8
ENDBRANCH   1   7
BRANCH   1  41
ATOM     41  C   UNL     1       1.970  25.003  32.457  1.00  0.00     0.364 C 
ATOM     42  O   UNL     1       0.699  25.144  32.418  1.00  0.00    -0.246 OA
BRANCH  41  43
ATOM     43  O   UNL     1       2.736  25.415  31.363  1.00  0.00    -0.477 OA
ATOM     44  H   UNL     1       2.821  26.419  31.227  1.00  0.00     0.296 HD
ENDBRANCH  41  43
ENDBRANCH   1  41
BRANCH   3  45
ATOM     45  O   UNL     1       3.472  23.335  35.756  1.00  0.00    -0.391 OA
ATOM     46  H   UNL     1       4.086  23.692  35.062  1.00  0.00     0.211 HD
ENDBRANCH   3  45
BRANCH   5  47
ATOM     47  C   UNL     1       4.636  21.758  32.149  1.00  0.00     0.176 C 
BRANCH  47  48
ATOM     48  O   UNL     1       5.323  20.907  33.037  1.00  0.00    -0.388 OA
ATOM     49  H   UNL     1       5.668  20.115  32.543  1.00  0.00     0.211 HD
ENDBRANCH  47  48
BRANCH  47  50
ATOM     50  C   UNL     1       4.055  20.821  31.086  1.00  0.00     0.165 C 
BRANCH  50  51
ATOM     51  O   UNL     1       5.068  20.511  30.164  1.00  0.00    -0.388 OA
ATOM     52  H   UNL     1       4.951  21.149  29.412  1.00  0.00     0.211 HD
ENDBRANCH  50  51
BRANCH  50  53
ATOM     53  C   UNL     1       2.908  21.434  30.357  1.00  0.00     0.154 C 
BRANCH  53  54
ATOM     54  N   UNL     1       3.327  22.031  29.118  1.00  0.00    -0.319 N 
ATOM     55  C   UNL     1       2.758  23.207  28.570  1.00  0.00     0.407 C 
ATOM     56  H   UNL     1       4.112  21.551  28.590  1.00  0.00     0.167 HD
ATOM     57  O   UNL     1       1.856  23.877  29.076  1.00  0.00    -0.225 OA
BRANCH  55  58
ATOM     58  O   UNL     1       3.243  23.689  27.331  1.00  0.00    -0.443 OA
BRANCH  58  59
ATOM     59  C   UNL     1       2.823  24.972  26.863  1.00  0.00     0.294 C 
BRANCH  59  60
ATOM     60  C   UNL     1       3.925  25.948  26.946  1.00  0.00     0.121 A 
ATOM     61  C   UNL     1       4.499  26.681  25.935  1.00  0.00     0.144 A 
ATOM     62  N   UNL     1       4.589  26.304  28.059  1.00  0.00    -0.131 NA
ATOM     63  N   UNL     1       5.484  27.456  26.441  1.00  0.00    -0.220 N 
ATOM     64  N   UNL     1       5.509  27.196  27.752  1.00  0.00    -0.062 NA
BRANCH  63  65
ATOM     65  C   UNL     1       6.341  28.362  25.771  1.00  0.00     0.079 A 
ATOM     66  C   UNL     1       7.541  27.902  25.292  1.00  0.00     0.065 A 
ATOM     67  C   UNL     1       5.992  29.686  25.598  1.00  0.00     0.029 A 
ATOM     68  C   UNL     1       8.423  28.748  24.627  1.00  0.00     0.016 A 
ATOM     69  C   UNL     1       6.864  30.551  24.934  1.00  0.00     0.002 A 
ATOM     70  C   UNL     1       8.064  30.069  24.460  1.00  0.00     0.001 A 
BRANCH  66  71
ATOM     71  C   UNL     1       7.901  26.511  25.479  1.00  0.00     0.250 C 
ATOM     72  O   UNL     1       8.809  26.226  26.299  1.00  0.00    -0.269 OA
ATOM     73  N   UNL     1       7.292  25.441  24.791  1.00  0.00    -0.366 N 
ATOM     74  H   UNL     1       6.817  24.694  25.319  1.00  0.00     0.159 HD
ATOM     75  H   UNL     1       7.325  25.410  23.762  1.00  0.00     0.159 HD
ENDBRANCH  66  71
ENDBRANCH  63  65
ENDBRANCH  59  60
ENDBRANCH  58  59
ENDBRANCH  55  58
ENDBRANCH  53  54
ENDBRANCH  50  53
ENDBRANCH  47  50
ENDBRANCH   5  47
BRANCH   4  76
ATOM     76  N   UNL     1       2.631  20.405  33.835  1.00  0.00    -0.348 N 
ATOM     77  C   UNL     1       3.036  19.130  34.305  1.00  0.00     0.217 C 
ATOM     78  H   UNL     1       1.827  20.446  33.165  1.00  0.00     0.163 HD
ATOM     79  C   UNL     1       2.406  17.849  33.920  1.00  0.00     0.114 C 
ATOM     80  O   UNL     1       4.017  19.155  35.116  1.00  0.00    -0.275 OA
ENDBRANCH   4  76
TORSDOF 31
