REMARK VINA RESULT:    -5.658     11.941     16.333
REMARK INTER + INTRA:         -21.580
REMARK INTER:                 -13.974
REMARK INTRA:                  -7.606
REMARK UNBOUND:                -7.652
REMARK SMILES CC(=O)N[C@@H]1[C@@H](O)C[C@](OC[C@H]2O[C@@H](O[C@H]3[C@H](O)[C@@H](O)[C@H](OCCN=[N+]=[N-])O[C@@H]3CO)[C@H](O)[C@@H](O)[C@H]2O)(C(=O)O)O[C@H]1C(O)[C@H](O)CNC(=O)OCc1cn(-c2ccc(Br)cc2)nn1
REMARK SMILES IDX 9 1 8 2 6 3 5 4 42 5 41 6 10 7 11 8 12 9 14 10 13 11 32 12
REMARK SMILES IDX 34 13 36 14 15 15 16 16 29 17 28 18 21 19 17 20 19 21 30 22
REMARK SMILES IDX 31 23 22 25 23 26 24 27 25 28 26 29 27 30 18 31 20 33 33 35
REMARK SMILES IDX 35 37 37 39 38 41 39 42 40 43 7 45 43 47 44 48 45 50 46 51
REMARK SMILES IDX 47 53 48 54 49 55 50 57 51 58 52 59 53 60 54 61 64 62 55 63
REMARK SMILES IDX 63 64 56 65 57 66 62 67 58 68 61 69 59 70 60 71 4 72 2 73
REMARK SMILES IDX 1 75 3 76
REMARK H PARENT 31 24 18 32 20 34 33 36 35 38 37 40 40 44 7 46 44 49 46 52
REMARK H PARENT 48 56 4 74
REMARK Flexibility Score: inf
ROOT
ATOM      1  C   UNL     1      18.487  28.823  19.280  1.00  0.00     0.272 C 
ATOM      2  C   UNL     1      18.268  29.959  18.243  1.00  0.00     0.113 C 
ATOM      3  C   UNL     1      17.369  30.968  18.855  1.00  0.00     0.145 C 
ATOM      4  C   UNL     1      18.054  31.449  20.151  1.00  0.00     0.142 C 
ATOM      5  C   UNL     1      18.016  30.250  21.069  1.00  0.00     0.178 C 
ATOM      6  O   UNL     1      18.851  29.315  20.499  1.00  0.00    -0.332 OA
ENDROOT
BRANCH   1   7
ATOM      7  O   UNL     1      19.574  28.131  18.737  1.00  0.00    -0.338 OA
BRANCH   7   8
ATOM      8  C   UNL     1      20.272  28.786  17.768  1.00  0.00     0.199 C 
BRANCH   8   9
ATOM      9  C   UNL     1      21.753  28.763  18.200  1.00  0.00     0.179 C 
ATOM     10  C   UNL     1      23.055  27.645  19.768  1.00  0.00     0.282 C 
ATOM     11  O   UNL     1      21.889  28.311  19.480  1.00  0.00    -0.341 OA
ATOM     12  C   UNL     1      24.186  27.974  18.880  1.00  0.00     0.202 C 
ATOM     13  C   UNL     1      23.905  27.931  17.411  1.00  0.00     0.179 C 
ATOM     14  C   UNL     1      22.430  27.855  17.185  1.00  0.00     0.177 C 
BRANCH  10  15
ATOM     15  O   UNL     1      22.722  26.296  19.883  1.00  0.00    -0.341 OA
BRANCH  15  16
ATOM     16  C   UNL     1      22.701  25.876  21.201  1.00  0.00     0.184 C 
ATOM     17  C   UNL     1      23.312  24.522  21.367  1.00  0.00     0.178 C 
ATOM     18  O   UNL     1      23.414  24.216  22.694  1.00  0.00    -0.341 OA
ATOM     19  C   UNL     1      22.663  24.914  23.589  1.00  0.00     0.281 C 
ATOM     20  C   UNL     1      21.251  25.717  21.688  1.00  0.00     0.180 C 
ATOM     21  C   UNL     1      21.267  25.274  23.136  1.00  0.00     0.202 C 
BRANCH  17  22
ATOM     22  C   UNL     1      24.709  24.523  20.777  1.00  0.00     0.191 C 
BRANCH  22  23
ATOM     23  O   UNL     1      25.439  25.588  21.249  1.00  0.00    -0.394 OA
ATOM     24  H   UNL     1      25.225  25.780  22.179  1.00  0.00     0.210 HD
ENDBRANCH  22  23
ENDBRANCH  17  22
BRANCH  19  25
ATOM     25  O   UNL     1      23.331  26.006  24.133  1.00  0.00    -0.350 OA
BRANCH  25  26
ATOM     26  C   UNL     1      23.711  25.841  25.451  1.00  0.00     0.169 C 
BRANCH  26  27
ATOM     27  C   UNL     1      22.853  26.560  26.438  1.00  0.00     0.119 C 
BRANCH  27  28
ATOM     28  N   UNL     1      22.436  27.839  25.888  1.00  0.00    -0.092 NA
ATOM     29  N   UNL     1      21.302  27.902  25.408  1.00  0.00     0.001 N 
ATOM     30  N   UNL     1      20.132  28.093  25.014  1.00  0.00    -0.003 NA
ENDBRANCH  27  28
ENDBRANCH  26  27
ENDBRANCH  25  26
ENDBRANCH  19  25
BRANCH  20  31
ATOM     31  O   UNL     1      20.540  26.884  21.470  1.00  0.00    -0.387 OA
ATOM     32  H   UNL     1      20.917  27.644  21.988  1.00  0.00     0.211 HD
ENDBRANCH  20  31
BRANCH  21  33
ATOM     33  O   UNL     1      20.390  24.250  23.414  1.00  0.00    -0.385 OA
ATOM     34  H   UNL     1      19.526  24.643  23.680  1.00  0.00     0.211 HD
ENDBRANCH  21  33
ENDBRANCH  15  16
ENDBRANCH  10  15
BRANCH  12  35
ATOM     35  O   UNL     1      24.647  29.263  19.267  1.00  0.00    -0.385 OA
ATOM     36  H   UNL     1      25.432  29.160  19.879  1.00  0.00     0.211 HD
ENDBRANCH  12  35
BRANCH  13  37
ATOM     37  O   UNL     1      24.511  26.796  16.822  1.00  0.00    -0.387 OA
ATOM     38  H   UNL     1      24.394  26.915  15.846  1.00  0.00     0.211 HD
ENDBRANCH  13  37
BRANCH  14  39
ATOM     39  O   UNL     1      21.947  26.550  17.256  1.00  0.00    -0.387 OA
ATOM     40  H   UNL     1      21.128  26.507  17.809  1.00  0.00     0.211 HD
ENDBRANCH  14  39
ENDBRANCH   8   9
ENDBRANCH   7   8
ENDBRANCH   1   7
BRANCH   1  41
ATOM     41  C   UNL     1      17.300  27.973  19.219  1.00  0.00     0.364 C 
ATOM     42  O   UNL     1      16.805  27.545  18.148  1.00  0.00    -0.246 OA
BRANCH  41  43
ATOM     43  O   UNL     1      16.654  27.590  20.379  1.00  0.00    -0.477 OA
ATOM     44  H   UNL     1      16.119  26.728  20.474  1.00  0.00     0.296 HD
ENDBRANCH  41  43
ENDBRANCH   1  41
BRANCH   3  45
ATOM     45  O   UNL     1      17.245  32.104  18.068  1.00  0.00    -0.391 OA
ATOM     46  H   UNL     1      17.872  32.788  18.382  1.00  0.00     0.211 HD
ENDBRANCH   3  45
BRANCH   5  47
ATOM     47  C   UNL     1      18.502  30.499  22.455  1.00  0.00     0.176 C 
BRANCH  47  48
ATOM     48  O   UNL     1      19.542  29.548  22.662  1.00  0.00    -0.388 OA
ATOM     49  H   UNL     1      20.061  29.473  21.822  1.00  0.00     0.211 HD
ENDBRANCH  47  48
BRANCH  47  50
ATOM     50  C   UNL     1      17.498  30.165  23.549  1.00  0.00     0.165 C 
BRANCH  50  51
ATOM     51  O   UNL     1      16.536  29.365  22.872  1.00  0.00    -0.388 OA
ATOM     52  H   UNL     1      15.693  29.332  23.424  1.00  0.00     0.211 HD
ENDBRANCH  50  51
BRANCH  50  53
ATOM     53  C   UNL     1      16.775  31.375  24.030  1.00  0.00     0.154 C 
BRANCH  53  54
ATOM     54  N   UNL     1      15.386  31.334  23.703  1.00  0.00    -0.319 N 
ATOM     55  C   UNL     1      14.337  31.007  24.619  1.00  0.00     0.407 C 
ATOM     56  H   UNL     1      15.057  31.558  22.710  1.00  0.00     0.167 HD
ATOM     57  O   UNL     1      14.639  30.724  25.802  1.00  0.00    -0.225 OA
BRANCH  55  58
ATOM     58  O   UNL     1      13.015  30.996  24.242  1.00  0.00    -0.443 OA
BRANCH  58  59
ATOM     59  C   UNL     1      12.452  29.844  23.668  1.00  0.00     0.294 C 
BRANCH  59  60
ATOM     60  C   UNL     1      13.076  29.618  22.345  1.00  0.00     0.121 A 
ATOM     61  C   UNL     1      12.916  30.466  21.243  1.00  0.00     0.144 A 
ATOM     62  N   UNL     1      13.872  28.630  21.908  1.00  0.00    -0.131 NA
ATOM     63  N   UNL     1      13.610  29.961  20.208  1.00  0.00    -0.220 N 
ATOM     64  N   UNL     1      14.176  28.852  20.643  1.00  0.00    -0.062 NA
BRANCH  63  65
ATOM     65  C   UNL     1      13.663  30.571  18.925  1.00  0.00     0.066 A 
ATOM     66  C   UNL     1      13.290  31.848  18.653  1.00  0.00     0.029 A 
ATOM     67  C   UNL     1      14.147  29.777  17.890  1.00  0.00     0.029 A 
ATOM     68  C   UNL     1      13.401  32.323  17.363  1.00  0.00     0.018 A 
ATOM     69  C   UNL     1      14.252  30.265  16.607  1.00  0.00     0.018 A 
ATOM     70  C   UNL     1      13.875  31.561  16.323  1.00  0.00     0.018 A 
ATOM     71  Br  UNL     1      14.016  32.258  14.552  1.00  0.00    -0.051 Br
ENDBRANCH  63  65
ENDBRANCH  59  60
ENDBRANCH  58  59
ENDBRANCH  55  58
ENDBRANCH  53  54
ENDBRANCH  50  53
ENDBRANCH  47  50
ENDBRANCH   5  47
BRANCH   4  72
ATOM     72  N   UNL     1      17.311  32.586  20.601  1.00  0.00    -0.348 N 
ATOM     73  C   UNL     1      17.943  33.776  21.054  1.00  0.00     0.217 C 
ATOM     74  H   UNL     1      16.277  32.550  20.603  1.00  0.00     0.163 HD
ATOM     75  C   UNL     1      17.201  34.968  21.528  1.00  0.00     0.114 C 
ATOM     76  O   UNL     1      19.216  33.846  21.062  1.00  0.00    -0.275 OA
ENDBRANCH   4  72
TORSDOF 30
