REMARK VINA RESULT:    -5.783      8.684     14.077
REMARK INTER + INTRA:         -23.633
REMARK INTER:                 -16.360
REMARK INTRA:                  -7.273
REMARK UNBOUND:                -7.877
REMARK SMILES CC(=O)N[C@@H]1[C@@H](O)C[C@](OC[C@H]2O[C@@H](O[C@H]3[C@H](O)[C@@H](O)[C@H](OCCN=[N+]=[N-])O[C@@H]3CO)[C@H](O)[C@@H](O)[C@H]2O)(C(=O)O)O[C@H]1C(O)[C@H](O)CNC(=O)OCc1cn(CC(O)CCc2ccccc2)nn1
REMARK SMILES IDX 43 1 42 2 9 3 8 4 41 5 6 6 5 7 10 8 11 9 12 10 14 11 13 12
REMARK SMILES IDX 32 13 34 14 36 15 15 16 16 17 29 18 28 19 21 20 17 21 19 22
REMARK SMILES IDX 30 23 31 24 22 26 23 27 24 28 25 29 26 30 27 31 18 32 20 34
REMARK SMILES IDX 33 36 35 38 37 40 38 42 39 43 40 44 7 46 4 48 2 49 1 51 3 52
REMARK SMILES IDX 44 53 45 55 46 56 47 58 48 59 49 60 50 62 51 63 52 64 53 65
REMARK SMILES IDX 54 66 68 67 55 68 67 69 56 70 57 71 58 72 59 74 60 75 61 76
REMARK SMILES IDX 62 77 66 78 63 79 65 80 64 81
REMARK H PARENT 31 25 18 33 20 35 33 37 35 39 37 41 40 45 7 47 4 50 44 54
REMARK H PARENT 46 57 48 61 58 73
REMARK Flexibility Score: inf
ROOT
ATOM      1  C   UNL     1      13.590  31.270  24.398  1.00  0.00     0.176 C 
ENDROOT
BRANCH   1   2
ATOM      2  C   UNL     1      13.315  32.288  23.275  1.00  0.00     0.178 C 
ATOM      3  C   UNL     1      13.466  31.911  20.938  1.00  0.00     0.272 C 
ATOM      4  C   UNL     1      14.923  32.211  21.066  1.00  0.00     0.113 C 
ATOM      5  O   UNL     1      12.954  31.625  22.175  1.00  0.00    -0.332 OA
ATOM      6  C   UNL     1      15.157  33.373  21.962  1.00  0.00     0.145 C 
ATOM      7  C   UNL     1      14.416  33.278  23.262  1.00  0.00     0.142 C 
BRANCH   3   8
ATOM      8  O   UNL     1      13.253  30.856  20.028  1.00  0.00    -0.338 OA
BRANCH   8   9
ATOM      9  C   UNL     1      13.914  29.705  20.266  1.00  0.00     0.199 C 
BRANCH   9  10
ATOM     10  C   UNL     1      14.555  29.148  18.973  1.00  0.00     0.179 C 
ATOM     11  C   UNL     1      15.305  29.650  16.891  1.00  0.00     0.282 C 
ATOM     12  O   UNL     1      14.570  30.056  17.976  1.00  0.00    -0.341 OA
ATOM     13  C   UNL     1      16.755  29.498  17.430  1.00  0.00     0.202 C 
ATOM     14  C   UNL     1      16.677  28.168  18.186  1.00  0.00     0.179 C 
ATOM     15  C   UNL     1      15.813  28.472  19.379  1.00  0.00     0.177 C 
BRANCH  11  16
ATOM     16  O   UNL     1      15.330  30.595  15.927  1.00  0.00    -0.341 OA
BRANCH  16  17
ATOM     17  C   UNL     1      14.810  30.312  14.686  1.00  0.00     0.184 C 
ATOM     18  C   UNL     1      14.168  31.484  14.023  1.00  0.00     0.178 C 
ATOM     19  O   UNL     1      12.870  31.353  13.643  1.00  0.00    -0.341 OA
ATOM     20  C   UNL     1      12.423  30.120  13.276  1.00  0.00     0.281 C 
ATOM     21  C   UNL     1      13.962  29.081  14.833  1.00  0.00     0.180 C 
ATOM     22  C   UNL     1      12.525  29.219  14.483  1.00  0.00     0.202 C 
BRANCH  18  23
ATOM     23  C   UNL     1      14.967  31.862  12.794  1.00  0.00     0.191 C 
BRANCH  23  24
ATOM     24  O   UNL     1      14.201  32.602  11.895  1.00  0.00    -0.394 OA
ATOM     25  H   UNL     1      14.794  33.351  11.585  1.00  0.00     0.210 HD
ENDBRANCH  23  24
ENDBRANCH  18  23
BRANCH  20  26
ATOM     26  O   UNL     1      13.056  29.594  12.162  1.00  0.00    -0.350 OA
BRANCH  26  27
ATOM     27  C   UNL     1      12.265  29.806  11.031  1.00  0.00     0.169 C 
BRANCH  27  28
ATOM     28  C   UNL     1      12.157  28.463  10.312  1.00  0.00     0.119 C 
BRANCH  28  29
ATOM     29  N   UNL     1      11.526  27.474  11.143  1.00  0.00    -0.092 NA
ATOM     30  N   UNL     1      10.325  27.616  11.451  1.00  0.00     0.001 N 
ATOM     31  N   UNL     1       9.236  27.908  11.982  1.00  0.00    -0.003 NA
ENDBRANCH  28  29
ENDBRANCH  27  28
ENDBRANCH  26  27
ENDBRANCH  20  26
BRANCH  21  32
ATOM     32  O   UNL     1      14.457  28.020  14.027  1.00  0.00    -0.387 OA
ATOM     33  H   UNL     1      15.055  27.422  14.531  1.00  0.00     0.211 HD
ENDBRANCH  21  32
BRANCH  22  34
ATOM     34  O   UNL     1      11.811  29.822  15.523  1.00  0.00    -0.385 OA
ATOM     35  H   UNL     1      12.078  30.753  15.668  1.00  0.00     0.211 HD
ENDBRANCH  22  34
ENDBRANCH  16  17
ENDBRANCH  11  16
BRANCH  13  36
ATOM     36  O   UNL     1      17.702  29.524  16.461  1.00  0.00    -0.385 OA
ATOM     37  H   UNL     1      17.412  29.633  15.541  1.00  0.00     0.211 HD
ENDBRANCH  13  36
BRANCH  14  38
ATOM     38  O   UNL     1      17.946  27.725  18.549  1.00  0.00    -0.387 OA
ATOM     39  H   UNL     1      18.562  28.486  18.641  1.00  0.00     0.211 HD
ENDBRANCH  14  38
BRANCH  15  40
ATOM     40  O   UNL     1      16.565  29.315  20.203  1.00  0.00    -0.387 OA
ATOM     41  H   UNL     1      16.249  29.280  21.136  1.00  0.00     0.211 HD
ENDBRANCH  15  40
ENDBRANCH   9  10
ENDBRANCH   8   9
ENDBRANCH   3   8
BRANCH   3  42
ATOM     42  C   UNL     1      12.792  33.062  20.288  1.00  0.00     0.364 C 
ATOM     43  O   UNL     1      11.702  33.481  20.772  1.00  0.00    -0.246 OA
BRANCH  42  44
ATOM     44  O   UNL     1      13.286  33.702  19.186  1.00  0.00    -0.477 OA
ATOM     45  H   UNL     1      13.038  34.665  19.014  1.00  0.00     0.296 HD
ENDBRANCH  42  44
ENDBRANCH   3  42
BRANCH   6  46
ATOM     46  O   UNL     1      16.564  33.420  22.167  1.00  0.00    -0.391 OA
ATOM     47  H   UNL     1      17.046  33.651  21.348  1.00  0.00     0.211 HD
ENDBRANCH   6  46
BRANCH   7  48
ATOM     48  N   UNL     1      14.009  34.562  23.776  1.00  0.00    -0.348 N 
ATOM     49  C   UNL     1      14.541  35.144  24.959  1.00  0.00     0.217 C 
ATOM     50  H   UNL     1      13.266  35.132  23.273  1.00  0.00     0.163 HD
ATOM     51  C   UNL     1      14.045  36.471  25.380  1.00  0.00     0.114 C 
ATOM     52  O   UNL     1      15.402  34.556  25.622  1.00  0.00    -0.275 OA
ENDBRANCH   7  48
ENDBRANCH   1   2
BRANCH   1  53
ATOM     53  O   UNL     1      14.645  31.701  25.178  1.00  0.00    -0.388 OA
ATOM     54  H   UNL     1      14.398  32.433  25.793  1.00  0.00     0.211 HD
ENDBRANCH   1  53
BRANCH   1  55
ATOM     55  C   UNL     1      13.630  29.854  23.964  1.00  0.00     0.165 C 
BRANCH  55  56
ATOM     56  O   UNL     1      12.711  29.116  24.666  1.00  0.00    -0.388 OA
ATOM     57  H   UNL     1      12.245  29.625  25.359  1.00  0.00     0.211 HD
ENDBRANCH  55  56
BRANCH  55  58
ATOM     58  C   UNL     1      15.036  29.350  24.198  1.00  0.00     0.154 C 
BRANCH  58  59
ATOM     59  N   UNL     1      16.025  29.761  23.275  1.00  0.00    -0.319 N 
ATOM     60  C   UNL     1      17.261  30.402  23.553  1.00  0.00     0.407 C 
ATOM     61  H   UNL     1      15.873  29.588  22.221  1.00  0.00     0.167 HD
ATOM     62  O   UNL     1      17.588  30.649  24.720  1.00  0.00    -0.225 OA
BRANCH  60  63
ATOM     63  O   UNL     1      18.124  30.764  22.531  1.00  0.00    -0.443 OA
BRANCH  63  64
ATOM     64  C   UNL     1      19.487  30.567  22.463  1.00  0.00     0.294 C 
BRANCH  64  65
ATOM     65  C   UNL     1      19.959  29.350  21.785  1.00  0.00     0.120 A 
ATOM     66  C   UNL     1      21.136  28.652  22.032  1.00  0.00     0.138 A 
ATOM     67  N   UNL     1      19.342  28.711  20.769  1.00  0.00    -0.132 NA
ATOM     68  N   UNL     1      21.169  27.645  21.164  1.00  0.00    -0.250 N 
ATOM     69  N   UNL     1      20.094  27.690  20.417  1.00  0.00    -0.067 NA
BRANCH  68  70
ATOM     70  C   UNL     1      22.290  26.671  21.092  1.00  0.00     0.177 C 
BRANCH  70  71
ATOM     71  C   UNL     1      21.796  25.419  21.734  1.00  0.00     0.136 C 
BRANCH  71  72
ATOM     72  O   UNL     1      20.462  25.542  22.158  1.00  0.00    -0.391 OA
ATOM     73  H   UNL     1      20.369  25.421  23.127  1.00  0.00     0.211 HD
ENDBRANCH  71  72
BRANCH  71  74
ATOM     74  C   UNL     1      22.645  24.889  22.820  1.00  0.00     0.038 C 
BRANCH  74  75
ATOM     75  C   UNL     1      22.114  24.566  24.140  1.00  0.00     0.038 C 
BRANCH  75  76
ATOM     76  C   UNL     1      22.927  24.759  25.322  1.00  0.00    -0.048 A 
ATOM     77  C   UNL     1      22.383  24.613  26.595  1.00  0.00     0.004 A 
ATOM     78  C   UNL     1      24.257  25.172  25.235  1.00  0.00     0.004 A 
ATOM     79  C   UNL     1      23.132  24.868  27.707  1.00  0.00     0.000 A 
ATOM     80  C   UNL     1      24.983  25.421  26.375  1.00  0.00     0.000 A 
ATOM     81  C   UNL     1      24.441  25.276  27.645  1.00  0.00     0.000 A 
ENDBRANCH  75  76
ENDBRANCH  74  75
ENDBRANCH  71  74
ENDBRANCH  70  71
ENDBRANCH  68  70
ENDBRANCH  64  65
ENDBRANCH  63  64
ENDBRANCH  60  63
ENDBRANCH  58  59
ENDBRANCH  55  58
ENDBRANCH   1  55
TORSDOF 35
