REMARK VINA RESULT:    -6.572      6.607     13.927
REMARK INTER + INTRA:         -23.755
REMARK INTER:                 -17.048
REMARK INTRA:                  -6.707
REMARK UNBOUND:                -6.425
REMARK SMILES CC(=O)N[C@@H]1[C@@H](O)C[C@](OC[C@H]2O[C@@H](O[C@H]3[C@H](O)[C@@H](O)[C@H](OCCN=[N+]=[N-])O[C@@H]3CO)[C@H](O)[C@@H](O)[C@H]2O)(C(=O)O)O[C@H]1C(O)[C@H](O)CNC(=O)OCc1cn(-c2ccc(S(=O)(=O)Nc3nccs3)cc2)nn1
REMARK SMILES IDX 43 1 42 2 9 3 8 4 41 5 6 6 5 7 10 8 11 9 12 10 14 11 13 12
REMARK SMILES IDX 32 13 34 14 36 15 15 16 16 17 29 18 28 19 21 20 17 21 19 22
REMARK SMILES IDX 30 23 31 24 22 26 23 27 24 28 25 29 26 30 27 31 18 32 20 34
REMARK SMILES IDX 33 36 35 38 37 40 38 42 39 43 40 44 7 46 4 48 2 49 1 51 3 52
REMARK SMILES IDX 44 53 45 55 46 56 47 58 48 59 49 60 50 62 51 63 52 64 53 65
REMARK SMILES IDX 54 66 72 67 55 68 71 69 56 70 57 71 70 72 58 73 69 74 59 75
REMARK SMILES IDX 60 76 61 77 62 78 63 79 64 81 65 82 68 83 66 84 67 85
REMARK H PARENT 31 25 18 33 20 35 33 37 35 39 37 41 40 45 7 47 4 50 44 54
REMARK H PARENT 46 57 48 61 63 80
REMARK Flexibility Score: inf
ROOT
ATOM      1  C   UNL     1      17.764  28.981  19.443  1.00  0.00     0.176 C 
ENDROOT
BRANCH   1   2
ATOM      2  C   UNL     1      19.229  29.185  19.636  1.00  0.00     0.178 C 
ATOM      3  C   UNL     1      21.150  27.996  19.034  1.00  0.00     0.272 C 
ATOM      4  C   UNL     1      21.731  29.254  19.715  1.00  0.00     0.113 C 
ATOM      5  O   UNL     1      19.799  27.938  19.232  1.00  0.00    -0.332 OA
ATOM      6  C   UNL     1      21.184  29.493  21.071  1.00  0.00     0.145 C 
ATOM      7  C   UNL     1      19.663  29.319  21.075  1.00  0.00     0.142 C 
BRANCH   3   8
ATOM      8  O   UNL     1      21.717  26.868  19.571  1.00  0.00    -0.338 OA
BRANCH   8   9
ATOM      9  C   UNL     1      23.074  26.761  19.400  1.00  0.00     0.199 C 
BRANCH   9  10
ATOM     10  C   UNL     1      23.753  25.952  20.481  1.00  0.00     0.179 C 
ATOM     11  C   UNL     1      24.333  25.763  22.628  1.00  0.00     0.282 C 
ATOM     12  O   UNL     1      23.375  26.342  21.762  1.00  0.00    -0.341 OA
ATOM     13  C   UNL     1      23.935  24.317  22.792  1.00  0.00     0.202 C 
ATOM     14  C   UNL     1      22.937  23.925  21.699  1.00  0.00     0.179 C 
ATOM     15  C   UNL     1      23.397  24.479  20.364  1.00  0.00     0.177 C 
BRANCH  11  16
ATOM     16  O   UNL     1      24.401  26.385  23.828  1.00  0.00    -0.341 OA
BRANCH  16  17
ATOM     17  C   UNL     1      23.748  25.756  24.873  1.00  0.00     0.184 C 
ATOM     18  C   UNL     1      22.697  26.513  25.577  1.00  0.00     0.178 C 
ATOM     19  O   UNL     1      22.637  26.033  26.916  1.00  0.00    -0.341 OA
ATOM     20  C   UNL     1      23.707  26.537  27.668  1.00  0.00     0.281 C 
ATOM     21  C   UNL     1      24.744  25.170  25.865  1.00  0.00     0.180 C 
ATOM     22  C   UNL     1      25.020  26.127  27.026  1.00  0.00     0.202 C 
BRANCH  18  23
ATOM     23  C   UNL     1      21.277  26.269  25.066  1.00  0.00     0.191 C 
BRANCH  23  24
ATOM     24  O   UNL     1      21.078  26.614  23.764  1.00  0.00    -0.394 OA
ATOM     25  H   UNL     1      21.886  27.041  23.398  1.00  0.00     0.210 HD
ENDBRANCH  23  24
ENDBRANCH  18  23
BRANCH  20  26
ATOM     26  O   UNL     1      23.607  26.024  28.942  1.00  0.00    -0.350 OA
BRANCH  26  27
ATOM     27  C   UNL     1      24.797  25.782  29.579  1.00  0.00     0.169 C 
BRANCH  27  28
ATOM     28  C   UNL     1      25.136  26.802  30.640  1.00  0.00     0.119 C 
BRANCH  28  29
ATOM     29  N   UNL     1      25.652  26.082  31.776  1.00  0.00    -0.092 NA
ATOM     30  N   UNL     1      26.816  25.692  31.767  1.00  0.00     0.001 N 
ATOM     31  N   UNL     1      27.783  24.930  31.693  1.00  0.00    -0.003 NA
ENDBRANCH  28  29
ENDBRANCH  27  28
ENDBRANCH  26  27
ENDBRANCH  20  26
BRANCH  21  32
ATOM     32  O   UNL     1      24.252  23.994  26.428  1.00  0.00    -0.387 OA
ATOM     33  H   UNL     1      24.705  23.786  27.278  1.00  0.00     0.211 HD
ENDBRANCH  21  32
BRANCH  22  34
ATOM     34  O   UNL     1      25.790  27.208  26.621  1.00  0.00    -0.385 OA
ATOM     35  H   UNL     1      25.172  27.880  26.255  1.00  0.00     0.211 HD
ENDBRANCH  22  34
ENDBRANCH  16  17
ENDBRANCH  11  16
BRANCH  13  36
ATOM     36  O   UNL     1      25.024  23.437  22.573  1.00  0.00    -0.385 OA
ATOM     37  H   UNL     1      24.764  22.509  22.670  1.00  0.00     0.211 HD
ENDBRANCH  13  36
BRANCH  14  38
ATOM     38  O   UNL     1      21.654  24.330  22.038  1.00  0.00    -0.387 OA
ATOM     39  H   UNL     1      21.580  24.570  22.998  1.00  0.00     0.211 HD
ENDBRANCH  14  38
BRANCH  15  40
ATOM     40  O   UNL     1      22.384  24.267  19.443  1.00  0.00    -0.387 OA
ATOM     41  H   UNL     1      22.677  23.910  18.589  1.00  0.00     0.211 HD
ENDBRANCH  15  40
ENDBRANCH   9  10
ENDBRANCH   8   9
ENDBRANCH   3   8
BRANCH   3  42
ATOM     42  C   UNL     1      21.475  28.141  17.614  1.00  0.00     0.364 C 
ATOM     43  O   UNL     1      20.911  27.436  16.715  1.00  0.00    -0.246 OA
BRANCH  42  44
ATOM     44  O   UNL     1      22.409  29.049  17.147  1.00  0.00    -0.477 OA
ATOM     45  H   UNL     1      22.473  29.980  17.579  1.00  0.00     0.296 HD
ENDBRANCH  42  44
ENDBRANCH   3  42
BRANCH   6  46
ATOM     46  O   UNL     1      21.775  28.697  22.052  1.00  0.00    -0.391 OA
ATOM     47  H   UNL     1      21.203  27.911  22.227  1.00  0.00     0.211 HD
ENDBRANCH   6  46
BRANCH   7  48
ATOM     48  N   UNL     1      19.054  30.365  21.816  1.00  0.00    -0.348 N 
ATOM     49  C   UNL     1      18.904  30.249  23.227  1.00  0.00     0.217 C 
ATOM     50  H   UNL     1      18.706  31.233  21.366  1.00  0.00     0.163 HD
ATOM     51  C   UNL     1      18.286  31.286  24.068  1.00  0.00     0.114 C 
ATOM     52  O   UNL     1      19.325  29.190  23.808  1.00  0.00    -0.275 OA
ENDBRANCH   7  48
ENDBRANCH   1   2
BRANCH   1  53
ATOM     53  O   UNL     1      17.295  28.113  20.479  1.00  0.00    -0.388 OA
ATOM     54  H   UNL     1      16.713  27.422  20.114  1.00  0.00     0.211 HD
ENDBRANCH   1  53
BRANCH   1  55
ATOM     55  C   UNL     1      17.327  28.425  18.118  1.00  0.00     0.165 C 
BRANCH  55  56
ATOM     56  O   UNL     1      18.272  28.983  17.190  1.00  0.00    -0.388 OA
ATOM     57  H   UNL     1      17.801  29.635  16.611  1.00  0.00     0.211 HD
ENDBRANCH  55  56
BRANCH  55  58
ATOM     58  C   UNL     1      16.005  29.030  17.661  1.00  0.00     0.154 C 
BRANCH  58  59
ATOM     59  N   UNL     1      15.074  28.867  18.747  1.00  0.00    -0.319 N 
ATOM     60  C   UNL     1      14.260  29.918  19.245  1.00  0.00     0.407 C 
ATOM     61  H   UNL     1      14.959  27.917  19.229  1.00  0.00     0.167 HD
ATOM     62  O   UNL     1      14.303  31.047  18.741  1.00  0.00    -0.225 OA
BRANCH  60  63
ATOM     63  O   UNL     1      13.393  29.717  20.313  1.00  0.00    -0.443 OA
BRANCH  63  64
ATOM     64  C   UNL     1      13.689  29.033  21.499  1.00  0.00     0.294 C 
BRANCH  64  65
ATOM     65  C   UNL     1      13.394  29.773  22.737  1.00  0.00     0.121 A 
ATOM     66  C   UNL     1      14.235  29.895  23.848  1.00  0.00     0.144 A 
ATOM     67  N   UNL     1      12.308  30.472  23.066  1.00  0.00    -0.131 NA
ATOM     68  N   UNL     1      13.636  30.656  24.800  1.00  0.00    -0.220 N 
ATOM     69  N   UNL     1      12.464  30.991  24.294  1.00  0.00    -0.062 NA
BRANCH  68  70
ATOM     70  C   UNL     1      14.213  30.994  26.073  1.00  0.00     0.066 A 
ATOM     71  C   UNL     1      15.560  30.965  26.299  1.00  0.00     0.030 A 
ATOM     72  C   UNL     1      13.361  31.350  27.103  1.00  0.00     0.030 A 
ATOM     73  C   UNL     1      16.068  31.290  27.556  1.00  0.00     0.024 A 
ATOM     74  C   UNL     1      13.813  31.678  28.358  1.00  0.00     0.024 A 
ATOM     75  C   UNL     1      15.188  31.637  28.553  1.00  0.00     0.088 A 
BRANCH  75  76
ATOM     76  S   UNL     1      15.792  32.043  30.140  1.00  0.00     0.263 S 
ATOM     77  O   UNL     1      16.746  33.211  29.983  1.00  0.00    -0.201 OA
ATOM     78  O   UNL     1      16.595  30.865  30.616  1.00  0.00    -0.201 OA
BRANCH  76  79
ATOM     79  N   UNL     1      14.497  32.402  31.185  1.00  0.00    -0.255 N 
ATOM     80  H   UNL     1      14.056  33.336  31.119  1.00  0.00     0.182 HD
BRANCH  79  81
ATOM     81  C   UNL     1      14.060  31.453  32.094  1.00  0.00     0.196 A 
ATOM     82  N   UNL     1      14.331  31.023  33.265  1.00  0.00    -0.228 NA
ATOM     83  S   UNL     1      12.636  30.331  31.689  1.00  0.00    -0.105 S 
ATOM     84  C   UNL     1      13.726  30.079  33.885  1.00  0.00     0.125 A 
ATOM     85  C   UNL     1      12.680  29.436  33.280  1.00  0.00     0.089 A 
ENDBRANCH  79  81
ENDBRANCH  76  79
ENDBRANCH  75  76
ENDBRANCH  68  70
ENDBRANCH  64  65
ENDBRANCH  63  64
ENDBRANCH  60  63
ENDBRANCH  58  59
ENDBRANCH  55  58
ENDBRANCH   1  55
TORSDOF 33
