REMARK VINA RESULT:    -5.698      8.002     12.260
REMARK INTER + INTRA:         -21.572
REMARK INTER:                 -15.305
REMARK INTRA:                  -6.267
REMARK UNBOUND:                -7.546
REMARK SMILES CC(=O)N[C@@H]1[C@@H](O)C[C@](OC[C@H]2O[C@@H](O[C@H]3[C@H](O)[C@@H](O)[C@H](OCCN=[N+]=[N-])O[C@@H]3CO)[C@H](O)[C@@H](O)[C@H]2O)(C(=O)O)O[C@H]1C(O)[C@H](O)CNC(=O)OCc1cn(-c2ccc3[nH]ncc3c2)nn1
REMARK SMILES IDX 9 1 8 2 6 3 5 4 42 5 41 6 10 7 11 8 12 9 14 10 13 11 32 12
REMARK SMILES IDX 34 13 36 14 15 15 16 16 29 17 28 18 21 19 17 20 19 21 30 22
REMARK SMILES IDX 31 23 22 25 23 26 24 27 25 28 26 29 27 30 18 31 20 33 33 35
REMARK SMILES IDX 35 37 37 39 38 41 39 42 40 43 7 45 43 47 44 48 45 50 46 51
REMARK SMILES IDX 47 53 48 54 49 55 50 57 51 58 52 59 53 60 54 61 66 62 55 63
REMARK SMILES IDX 65 64 56 65 57 66 64 67 58 68 63 69 59 70 62 71 60 72 61 73
REMARK SMILES IDX 4 75 2 76 1 78 3 79
REMARK H PARENT 31 24 18 32 20 34 33 36 35 38 37 40 40 44 7 46 44 49 46 52
REMARK H PARENT 48 56 60 74 4 77
REMARK Flexibility Score: inf
ROOT
ATOM      1  C   UNL     1      22.744  23.237  10.302  1.00  0.00     0.272 C 
ATOM      2  C   UNL     1      23.187  24.339   9.410  1.00  0.00     0.113 C 
ATOM      3  C   UNL     1      23.019  25.730   9.965  1.00  0.00     0.145 C 
ATOM      4  C   UNL     1      23.849  25.730  11.276  1.00  0.00     0.142 C 
ATOM      5  C   UNL     1      23.303  24.610  12.075  1.00  0.00     0.178 C 
ATOM      6  O   UNL     1      23.334  23.362  11.558  1.00  0.00    -0.332 OA
ENDROOT
BRANCH   1   7
ATOM      7  O   UNL     1      23.169  22.015   9.737  1.00  0.00    -0.338 OA
BRANCH   7   8
ATOM      8  C   UNL     1      22.737  21.775   8.475  1.00  0.00     0.199 C 
BRANCH   8   9
ATOM      9  C   UNL     1      22.518  20.267   8.217  1.00  0.00     0.179 C 
ATOM     10  C   UNL     1      21.301  18.803   9.537  1.00  0.00     0.282 C 
ATOM     11  O   UNL     1      22.471  19.568   9.385  1.00  0.00    -0.341 OA
ATOM     12  C   UNL     1      20.166  19.774   9.571  1.00  0.00     0.202 C 
ATOM     13  C   UNL     1      20.019  20.319   8.143  1.00  0.00     0.179 C 
ATOM     14  C   UNL     1      21.282  20.085   7.358  1.00  0.00     0.177 C 
BRANCH  10  15
ATOM     15  O   UNL     1      21.424  17.990  10.649  1.00  0.00    -0.341 OA
BRANCH  15  16
ATOM     16  C   UNL     1      22.519  18.392  11.403  1.00  0.00     0.184 C 
ATOM     17  C   UNL     1      23.451  17.286  11.793  1.00  0.00     0.178 C 
ATOM     18  O   UNL     1      24.530  17.759  12.440  1.00  0.00    -0.341 OA
ATOM     19  C   UNL     1      24.534  18.991  13.011  1.00  0.00     0.281 C 
ATOM     20  C   UNL     1      22.031  18.934  12.760  1.00  0.00     0.180 C 
ATOM     21  C   UNL     1      23.213  19.535  13.439  1.00  0.00     0.202 C 
BRANCH  17  22
ATOM     22  C   UNL     1      23.900  16.413  10.638  1.00  0.00     0.191 C 
BRANCH  22  23
ATOM     23  O   UNL     1      22.881  15.601  10.174  1.00  0.00    -0.394 OA
ATOM     24  H   UNL     1      23.270  15.101   9.393  1.00  0.00     0.210 HD
ENDBRANCH  22  23
ENDBRANCH  17  22
BRANCH  19  25
ATOM     25  O   UNL     1      25.156  19.851  12.140  1.00  0.00    -0.350 OA
BRANCH  25  26
ATOM     26  C   UNL     1      26.416  20.235  12.441  1.00  0.00     0.169 C 
BRANCH  26  27
ATOM     27  C   UNL     1      26.514  21.555  13.136  1.00  0.00     0.119 C 
BRANCH  27  28
ATOM     28  N   UNL     1      26.606  22.700  12.280  1.00  0.00    -0.092 NA
ATOM     29  N   UNL     1      27.261  23.690  12.539  1.00  0.00     0.001 N 
ATOM     30  N   UNL     1      27.620  24.820  12.940  1.00  0.00    -0.003 NA
ENDBRANCH  27  28
ENDBRANCH  26  27
ENDBRANCH  25  26
ENDBRANCH  19  25
BRANCH  20  31
ATOM     31  O   UNL     1      20.997  19.820  12.614  1.00  0.00    -0.387 OA
ATOM     32  H   UNL     1      20.243  19.664  13.240  1.00  0.00     0.211 HD
ENDBRANCH  20  31
BRANCH  21  33
ATOM     33  O   UNL     1      23.021  19.380  14.824  1.00  0.00    -0.385 OA
ATOM     34  H   UNL     1      22.459  18.590  15.026  1.00  0.00     0.211 HD
ENDBRANCH  21  33
ENDBRANCH  15  16
ENDBRANCH  10  15
BRANCH  12  35
ATOM     35  O   UNL     1      18.972  19.288  10.039  1.00  0.00    -0.385 OA
ATOM     36  H   UNL     1      18.683  18.460   9.546  1.00  0.00     0.211 HD
ENDBRANCH  12  35
BRANCH  13  37
ATOM     37  O   UNL     1      19.571  21.623   8.132  1.00  0.00    -0.387 OA
ATOM     38  H   UNL     1      19.421  21.888   9.089  1.00  0.00     0.211 HD
ENDBRANCH  13  37
BRANCH  14  39
ATOM     39  O   UNL     1      21.322  21.091   6.360  1.00  0.00    -0.387 OA
ATOM     40  H   UNL     1      21.870  21.849   6.614  1.00  0.00     0.211 HD
ENDBRANCH  14  39
ENDBRANCH   8   9
ENDBRANCH   7   8
ENDBRANCH   1   7
BRANCH   1  41
ATOM     41  C   UNL     1      21.279  23.199  10.556  1.00  0.00     0.364 C 
ATOM     42  O   UNL     1      20.888  22.514  11.559  1.00  0.00    -0.246 OA
BRANCH  41  43
ATOM     43  O   UNL     1      20.300  23.812   9.836  1.00  0.00    -0.477 OA
ATOM     44  H   UNL     1      20.128  24.818   9.857  1.00  0.00     0.296 HD
ENDBRANCH  41  43
ENDBRANCH   1  41
BRANCH   3  45
ATOM     45  O   UNL     1      23.559  26.627   9.063  1.00  0.00    -0.391 OA
ATOM     46  H   UNL     1      24.563  26.639   9.104  1.00  0.00     0.211 HD
ENDBRANCH   3  45
BRANCH   5  47
ATOM     47  C   UNL     1      23.732  24.691  13.509  1.00  0.00     0.176 C 
BRANCH  47  48
ATOM     48  O   UNL     1      22.695  25.480  14.129  1.00  0.00    -0.388 OA
ATOM     49  H   UNL     1      22.231  24.955  14.811  1.00  0.00     0.211 HD
ENDBRANCH  47  48
BRANCH  47  50
ATOM     50  C   UNL     1      23.717  23.388  14.271  1.00  0.00     0.165 C 
BRANCH  50  51
ATOM     51  O   UNL     1      22.339  23.077  14.442  1.00  0.00    -0.388 OA
ATOM     52  H   UNL     1      21.881  23.731  14.999  1.00  0.00     0.211 HD
ENDBRANCH  50  51
BRANCH  50  53
ATOM     53  C   UNL     1      24.369  23.408  15.601  1.00  0.00     0.154 C 
BRANCH  53  54
ATOM     54  N   UNL     1      23.539  23.511  16.749  1.00  0.00    -0.319 N 
ATOM     55  C   UNL     1      23.202  24.685  17.463  1.00  0.00     0.407 C 
ATOM     56  H   UNL     1      23.100  22.619  17.145  1.00  0.00     0.167 HD
ATOM     57  O   UNL     1      23.619  25.793  17.114  1.00  0.00    -0.225 OA
BRANCH  55  58
ATOM     58  O   UNL     1      22.381  24.604  18.584  1.00  0.00    -0.443 OA
BRANCH  58  59
ATOM     59  C   UNL     1      22.757  24.130  19.841  1.00  0.00     0.294 C 
BRANCH  59  60
ATOM     60  C   UNL     1      22.187  24.865  20.978  1.00  0.00     0.121 A 
ATOM     61  C   UNL     1      22.557  24.746  22.299  1.00  0.00     0.144 A 
ATOM     62  N   UNL     1      21.192  25.776  20.922  1.00  0.00    -0.131 NA
ATOM     63  N   UNL     1      21.770  25.588  22.972  1.00  0.00    -0.220 N 
ATOM     64  N   UNL     1      20.959  26.197  22.128  1.00  0.00    -0.062 NA
BRANCH  63  65
ATOM     65  C   UNL     1      21.812  25.785  24.386  1.00  0.00     0.067 A 
ATOM     66  C   UNL     1      21.264  26.909  24.963  1.00  0.00     0.030 A 
ATOM     67  C   UNL     1      22.408  24.849  25.200  1.00  0.00     0.040 A 
ATOM     68  C   UNL     1      21.308  27.097  26.323  1.00  0.00     0.030 A 
ATOM     69  C   UNL     1      22.444  25.056  26.577  1.00  0.00     0.022 A 
ATOM     70  C   UNL     1      21.898  26.180  27.171  1.00  0.00     0.065 A 
ATOM     71  C   UNL     1      22.972  24.279  27.581  1.00  0.00     0.143 A 
ATOM     72  N   UNL     1      22.095  26.078  28.497  1.00  0.00    -0.278 N 
ATOM     73  N   UNL     1      22.729  24.950  28.719  1.00  0.00    -0.183 NA
ATOM     74  H   UNL     1      21.783  26.792  29.200  1.00  0.00     0.190 HD
ENDBRANCH  63  65
ENDBRANCH  59  60
ENDBRANCH  58  59
ENDBRANCH  55  58
ENDBRANCH  53  54
ENDBRANCH  50  53
ENDBRANCH  47  50
ENDBRANCH   5  47
BRANCH   4  75
ATOM     75  N   UNL     1      23.455  27.000  11.896  1.00  0.00    -0.348 N 
ATOM     76  C   UNL     1      24.342  28.078  11.855  1.00  0.00     0.217 C 
ATOM     77  H   UNL     1      22.542  27.120  12.363  1.00  0.00     0.163 HD
ATOM     78  C   UNL     1      24.019  29.408  12.469  1.00  0.00     0.114 C 
ATOM     79  O   UNL     1      25.469  27.941  11.274  1.00  0.00    -0.275 OA
ENDBRANCH   4  75
TORSDOF 30
