REMARK VINA RESULT:    -6.938     16.064     21.607
REMARK INTER + INTRA:         -22.618
REMARK INTER:                 -17.400
REMARK INTRA:                  -5.218
REMARK UNBOUND:                -5.539
REMARK SMILES CC(=O)N[C@@H]1[C@@H](O)C[C@](OC[C@H]2O[C@@H](O[C@H]3[C@H](O)[C@@H](O)[C@H](OCCN=[N+]=[N-])O[C@@H]3CO)[C@H](O)[C@@H](O)[C@H]2O)(C(=O)O)O[C@H]1C(O)[C@H](O)CNC(=O)OCc1cn(-c2c3ccccc3nc3ccccc23)nn1
REMARK SMILES IDX 9 1 8 2 6 3 5 4 42 5 41 6 10 7 11 8 12 9 14 10 13 11 32 12
REMARK SMILES IDX 34 13 36 14 15 15 16 16 29 17 28 18 21 19 17 20 19 21 30 22
REMARK SMILES IDX 31 23 22 25 23 26 24 27 25 28 26 29 27 30 18 31 20 33 33 35
REMARK SMILES IDX 35 37 37 39 38 41 39 42 40 43 7 45 43 47 44 48 45 50 46 51
REMARK SMILES IDX 47 53 48 54 49 55 50 57 51 58 52 59 53 60 54 61 71 62 55 63
REMARK SMILES IDX 70 64 56 65 57 66 69 67 58 68 62 69 64 70 68 71 59 72 61 73
REMARK SMILES IDX 63 74 65 75 67 76 60 77 66 78 4 79 2 80 1 82 3 83
REMARK H PARENT 31 24 18 32 20 34 33 36 35 38 37 40 40 44 7 46 44 49 46 52
REMARK H PARENT 48 56 4 81
REMARK Flexibility Score: inf
ROOT
ATOM      1  C   UNL     1      21.374  28.560  23.184  1.00  0.00     0.272 C 
ATOM      2  C   UNL     1      22.897  28.900  23.571  1.00  0.00     0.113 C 
ATOM      3  C   UNL     1      22.965  28.580  25.019  1.00  0.00     0.145 C 
ATOM      4  C   UNL     1      22.530  27.175  25.381  1.00  0.00     0.142 C 
ATOM      5  C   UNL     1      21.558  26.579  24.450  1.00  0.00     0.178 C 
ATOM      6  O   UNL     1      21.320  27.234  23.290  1.00  0.00    -0.332 OA
ENDROOT
BRANCH   1   7
ATOM      7  O   UNL     1      21.415  28.918  21.834  1.00  0.00    -0.338 OA
BRANCH   7   8
ATOM      8  C   UNL     1      21.030  27.981  20.938  1.00  0.00     0.199 C 
BRANCH   8   9
ATOM      9  C   UNL     1      20.192  28.468  19.819  1.00  0.00     0.179 C 
ATOM     10  C   UNL     1      18.020  28.843  19.051  1.00  0.00     0.282 C 
ATOM     11  O   UNL     1      18.854  28.330  20.069  1.00  0.00    -0.341 OA
ATOM     12  C   UNL     1      18.728  29.228  17.821  1.00  0.00     0.202 C 
ATOM     13  C   UNL     1      19.888  30.156  18.098  1.00  0.00     0.179 C 
ATOM     14  C   UNL     1      20.524  29.909  19.426  1.00  0.00     0.177 C 
BRANCH  10  15
ATOM     15  O   UNL     1      17.219  29.852  19.569  1.00  0.00    -0.341 OA
BRANCH  15  16
ATOM     16  C   UNL     1      16.293  29.372  20.524  1.00  0.00     0.184 C 
ATOM     17  C   UNL     1      14.919  29.709  20.103  1.00  0.00     0.178 C 
ATOM     18  O   UNL     1      13.981  29.703  21.168  1.00  0.00    -0.341 OA
ATOM     19  C   UNL     1      14.361  30.720  22.036  1.00  0.00     0.281 C 
ATOM     20  C   UNL     1      16.688  30.108  21.814  1.00  0.00     0.180 C 
ATOM     21  C   UNL     1      15.560  30.146  22.808  1.00  0.00     0.202 C 
BRANCH  17  22
ATOM     22  C   UNL     1      14.391  28.725  19.071  1.00  0.00     0.191 C 
BRANCH  22  23
ATOM     23  O   UNL     1      14.761  29.029  17.786  1.00  0.00    -0.394 OA
ATOM     24  H   UNL     1      15.363  29.818  17.802  1.00  0.00     0.210 HD
ENDBRANCH  22  23
ENDBRANCH  17  22
BRANCH  19  25
ATOM     25  O   UNL     1      13.294  31.004  22.849  1.00  0.00    -0.350 OA
BRANCH  25  26
ATOM     26  C   UNL     1      12.631  29.885  23.344  1.00  0.00     0.169 C 
BRANCH  26  27
ATOM     27  C   UNL     1      11.824  30.201  24.585  1.00  0.00     0.119 C 
BRANCH  27  28
ATOM     28  N   UNL     1      10.492  29.643  24.379  1.00  0.00    -0.092 NA
ATOM     29  N   UNL     1      10.247  28.470  24.682  1.00  0.00     0.001 N 
ATOM     30  N   UNL     1       9.930  27.330  25.026  1.00  0.00    -0.003 NA
ENDBRANCH  27  28
ENDBRANCH  26  27
ENDBRANCH  25  26
ENDBRANCH  19  25
BRANCH  20  31
ATOM     31  O   UNL     1      17.846  29.555  22.335  1.00  0.00    -0.387 OA
ATOM     32  H   UNL     1      18.657  29.797  21.822  1.00  0.00     0.211 HD
ENDBRANCH  20  31
BRANCH  21  33
ATOM     33  O   UNL     1      15.905  30.958  23.865  1.00  0.00    -0.385 OA
ATOM     34  H   UNL     1      16.810  31.343  23.657  1.00  0.00     0.211 HD
ENDBRANCH  21  33
ENDBRANCH  15  16
ENDBRANCH  10  15
BRANCH  12  35
ATOM     35  O   UNL     1      19.118  28.095  17.090  1.00  0.00    -0.385 OA
ATOM     36  H   UNL     1      18.728  28.225  16.174  1.00  0.00     0.211 HD
ENDBRANCH  12  35
BRANCH  13  37
ATOM     37  O   UNL     1      19.408  31.475  17.992  1.00  0.00    -0.387 OA
ATOM     38  H   UNL     1      18.998  31.531  17.071  1.00  0.00     0.211 HD
ENDBRANCH  13  37
BRANCH  14  39
ATOM     39  O   UNL     1      20.149  30.818  20.394  1.00  0.00    -0.387 OA
ATOM     40  H   UNL     1      19.619  30.412  21.126  1.00  0.00     0.211 HD
ENDBRANCH  14  39
ENDBRANCH   8   9
ENDBRANCH   7   8
ENDBRANCH   1   7
BRANCH   1  41
ATOM     41  C   UNL     1      20.632  29.457  24.005  1.00  0.00     0.364 C 
ATOM     42  O   UNL     1      19.555  29.085  24.574  1.00  0.00    -0.246 OA
BRANCH  41  43
ATOM     43  O   UNL     1      20.966  30.787  24.284  1.00  0.00    -0.477 OA
ATOM     44  H   UNL     1      20.398  31.525  23.886  1.00  0.00     0.296 HD
ENDBRANCH  41  43
ENDBRANCH   1  41
BRANCH   3  45
ATOM     45  O   UNL     1      24.309  28.788  25.414  1.00  0.00    -0.391 OA
ATOM     46  H   UNL     1      24.884  28.115  24.964  1.00  0.00     0.211 HD
ENDBRANCH   3  45
BRANCH   5  47
ATOM     47  C   UNL     1      21.986  25.150  24.015  1.00  0.00     0.176 C 
BRANCH  47  48
ATOM     48  O   UNL     1      21.699  24.244  24.993  1.00  0.00    -0.388 OA
ATOM     49  H   UNL     1      20.925  23.635  24.780  1.00  0.00     0.211 HD
ENDBRANCH  47  48
BRANCH  47  50
ATOM     50  C   UNL     1      21.666  24.838  22.625  1.00  0.00     0.165 C 
BRANCH  50  51
ATOM     51  O   UNL     1      20.358  24.430  22.350  1.00  0.00    -0.388 OA
ATOM     52  H   UNL     1      19.717  25.180  22.425  1.00  0.00     0.211 HD
ENDBRANCH  50  51
BRANCH  50  53
ATOM     53  C   UNL     1      22.687  24.178  21.782  1.00  0.00     0.154 C 
BRANCH  53  54
ATOM     54  N   UNL     1      23.410  24.923  20.820  1.00  0.00    -0.319 N 
ATOM     55  C   UNL     1      24.415  25.871  21.104  1.00  0.00     0.407 C 
ATOM     56  H   UNL     1      23.179  24.753  19.770  1.00  0.00     0.167 HD
ATOM     57  O   UNL     1      24.780  26.197  22.244  1.00  0.00    -0.225 OA
BRANCH  55  58
ATOM     58  O   UNL     1      25.093  26.530  20.060  1.00  0.00    -0.443 OA
BRANCH  58  59
ATOM     59  C   UNL     1      25.248  25.969  18.768  1.00  0.00     0.294 C 
BRANCH  59  60
ATOM     60  C   UNL     1      26.395  25.016  18.776  1.00  0.00     0.121 A 
ATOM     61  C   UNL     1      26.362  23.638  18.775  1.00  0.00     0.144 A 
ATOM     62  N   UNL     1      27.698  25.334  18.802  1.00  0.00    -0.131 NA
ATOM     63  N   UNL     1      27.621  23.143  18.798  1.00  0.00    -0.219 N 
ATOM     64  N   UNL     1      28.412  24.203  18.815  1.00  0.00    -0.062 NA
BRANCH  63  65
ATOM     65  C   UNL     1      27.997  21.754  18.807  1.00  0.00     0.085 A 
ATOM     66  C   UNL     1      28.042  21.039  17.620  1.00  0.00     0.027 A 
ATOM     67  C   UNL     1      28.317  21.091  19.969  1.00  0.00     0.027 A 
ATOM     68  C   UNL     1      27.733  21.647  16.422  1.00  0.00     0.012 A 
ATOM     69  C   UNL     1      28.395  19.693  17.576  1.00  0.00     0.073 A 
ATOM     70  C   UNL     1      28.661  19.760  19.883  1.00  0.00     0.073 A 
ATOM     71  C   UNL     1      28.295  21.733  21.172  1.00  0.00     0.012 A 
ATOM     72  C   UNL     1      27.779  20.938  15.242  1.00  0.00     0.001 A 
ATOM     73  C   UNL     1      28.439  18.987  16.394  1.00  0.00     0.029 A 
ATOM     74  N   UNL     1      28.701  19.077  18.725  1.00  0.00    -0.248 NA
ATOM     75  C   UNL     1      28.989  19.061  21.026  1.00  0.00     0.029 A 
ATOM     76  C   UNL     1      28.630  21.005  22.307  1.00  0.00     0.001 A 
ATOM     77  C   UNL     1      28.132  19.592  15.199  1.00  0.00     0.002 A 
ATOM     78  C   UNL     1      28.980  19.673  22.267  1.00  0.00     0.002 A 
ENDBRANCH  63  65
ENDBRANCH  59  60
ENDBRANCH  58  59
ENDBRANCH  55  58
ENDBRANCH  53  54
ENDBRANCH  50  53
ENDBRANCH  47  50
ENDBRANCH   5  47
BRANCH   4  79
ATOM     79  N   UNL     1      22.109  27.156  26.764  1.00  0.00    -0.348 N 
ATOM     80  C   UNL     1      22.504  26.167  27.713  1.00  0.00     0.217 C 
ATOM     81  H   UNL     1      21.467  27.893  27.138  1.00  0.00     0.163 HD
ATOM     82  C   UNL     1      21.992  26.254  29.123  1.00  0.00     0.114 C 
ATOM     83  O   UNL     1      23.264  25.265  27.328  1.00  0.00    -0.275 OA
ENDBRANCH   4  79
TORSDOF 30
