REMARK VINA RESULT:    -5.807      6.631     14.922
REMARK INTER + INTRA:         -23.697
REMARK INTER:                 -17.670
REMARK INTRA:                  -6.027
REMARK UNBOUND:                -7.877
REMARK SMILES CC(=O)N[C@@H]1[C@@H](O)C[C@](OC[C@H]2O[C@@H](O[C@H]3[C@H](O)[C@@H](O)[C@H](OCCN=[N+]=[N-])O[C@@H]3CO)[C@H](O)[C@@H](O)[C@H]2O)(C(=O)O)O[C@H]1C(O)[C@H](O)CNC(=O)OCc1cn(CC(O)CCc2ccccc2)nn1
REMARK SMILES IDX 43 1 42 2 9 3 8 4 41 5 6 6 5 7 10 8 11 9 12 10 14 11 13 12
REMARK SMILES IDX 32 13 34 14 36 15 15 16 16 17 29 18 28 19 21 20 17 21 19 22
REMARK SMILES IDX 30 23 31 24 22 26 23 27 24 28 25 29 26 30 27 31 18 32 20 34
REMARK SMILES IDX 33 36 35 38 37 40 38 42 39 43 40 44 7 46 4 48 2 49 1 51 3 52
REMARK SMILES IDX 44 53 45 55 46 56 47 58 48 59 49 60 50 62 51 63 52 64 53 65
REMARK SMILES IDX 54 66 68 67 55 68 67 69 56 70 57 71 58 72 59 74 60 75 61 76
REMARK SMILES IDX 62 77 66 78 63 79 65 80 64 81
REMARK H PARENT 31 25 18 33 20 35 33 37 35 39 37 41 40 45 7 47 4 50 44 54
REMARK H PARENT 46 57 48 61 58 73
REMARK Flexibility Score: inf
ROOT
ATOM      1  C   UNL     1      21.861  26.413  21.231  1.00  0.00     0.176 C 
ENDROOT
BRANCH   1   2
ATOM      2  C   UNL     1      21.609  27.430  22.360  1.00  0.00     0.178 C 
ATOM      3  C   UNL     1      20.403  29.467  22.203  1.00  0.00     0.272 C 
ATOM      4  C   UNL     1      21.672  30.086  21.717  1.00  0.00     0.113 C 
ATOM      5  O   UNL     1      20.492  28.106  22.086  1.00  0.00    -0.332 OA
ATOM      6  C   UNL     1      22.840  29.612  22.505  1.00  0.00     0.145 C 
ATOM      7  C   UNL     1      22.884  28.122  22.659  1.00  0.00     0.142 C 
BRANCH   3   8
ATOM      8  O   UNL     1      19.297  29.981  21.499  1.00  0.00    -0.338 OA
BRANCH   8   9
ATOM      9  C   UNL     1      19.235  29.709  20.179  1.00  0.00     0.199 C 
BRANCH   9  10
ATOM     10  C   UNL     1      18.039  28.784  19.852  1.00  0.00     0.179 C 
ATOM     11  C   UNL     1      15.910  28.218  20.395  1.00  0.00     0.282 C 
ATOM     12  O   UNL     1      17.053  28.878  20.768  1.00  0.00    -0.341 OA
ATOM     13  C   UNL     1      15.440  28.940  19.101  1.00  0.00     0.202 C 
ATOM     14  C   UNL     1      16.403  28.376  18.052  1.00  0.00     0.179 C 
ATOM     15  C   UNL     1      17.734  28.977  18.412  1.00  0.00     0.177 C 
BRANCH  11  16
ATOM     16  O   UNL     1      14.932  28.361  21.314  1.00  0.00    -0.341 OA
BRANCH  16  17
ATOM     17  C   UNL     1      14.880  29.502  22.079  1.00  0.00     0.184 C 
ATOM     18  C   UNL     1      15.279  29.290  23.502  1.00  0.00     0.178 C 
ATOM     19  O   UNL     1      14.384  29.643  24.461  1.00  0.00    -0.341 OA
ATOM     20  C   UNL     1      13.539  30.682  24.209  1.00  0.00     0.281 C 
ATOM     21  C   UNL     1      13.533  30.126  21.851  1.00  0.00     0.180 C 
ATOM     22  C   UNL     1      12.664  30.286  23.045  1.00  0.00     0.202 C 
BRANCH  18  23
ATOM     23  C   UNL     1      16.563  30.043  23.776  1.00  0.00     0.191 C 
BRANCH  23  24
ATOM     24  O   UNL     1      16.845  30.956  22.762  1.00  0.00    -0.394 OA
ATOM     25  H   UNL     1      17.847  30.985  22.692  1.00  0.00     0.210 HD
ENDBRANCH  23  24
ENDBRANCH  18  23
BRANCH  20  26
ATOM     26  O   UNL     1      14.175  31.896  24.011  1.00  0.00    -0.350 OA
BRANCH  26  27
ATOM     27  C   UNL     1      14.412  32.505  25.245  1.00  0.00     0.169 C 
BRANCH  27  28
ATOM     28  C   UNL     1      13.074  32.542  25.981  1.00  0.00     0.119 C 
BRANCH  28  29
ATOM     29  N   UNL     1      13.258  32.765  27.390  1.00  0.00    -0.092 NA
ATOM     30  N   UNL     1      13.994  31.992  28.037  1.00  0.00     0.001 N 
ATOM     31  N   UNL     1      14.484  31.068  28.715  1.00  0.00    -0.003 NA
ENDBRANCH  28  29
ENDBRANCH  27  28
ENDBRANCH  26  27
ENDBRANCH  20  26
BRANCH  21  32
ATOM     32  O   UNL     1      13.660  31.424  21.286  1.00  0.00    -0.387 OA
ATOM     33  H   UNL     1      14.138  31.406  20.426  1.00  0.00     0.211 HD
ENDBRANCH  21  32
BRANCH  22  34
ATOM     34  O   UNL     1      12.038  29.081  23.376  1.00  0.00    -0.385 OA
ATOM     35  H   UNL     1      11.952  28.482  22.606  1.00  0.00     0.211 HD
ENDBRANCH  22  34
ENDBRANCH  16  17
ENDBRANCH  11  16
BRANCH  13  36
ATOM     36  O   UNL     1      14.132  28.740  18.809  1.00  0.00    -0.385 OA
ATOM     37  H   UNL     1      13.559  28.372  19.503  1.00  0.00     0.211 HD
ENDBRANCH  13  36
BRANCH  14  38
ATOM     38  O   UNL     1      15.997  28.718  16.765  1.00  0.00    -0.387 OA
ATOM     39  H   UNL     1      16.525  28.226  16.097  1.00  0.00     0.211 HD
ENDBRANCH  14  38
BRANCH  15  40
ATOM     40  O   UNL     1      17.639  30.342  18.121  1.00  0.00    -0.387 OA
ATOM     41  H   UNL     1      18.495  30.803  18.282  1.00  0.00     0.211 HD
ENDBRANCH  15  40
ENDBRANCH   9  10
ENDBRANCH   8   9
ENDBRANCH   3   8
BRANCH   3  42
ATOM     42  C   UNL     1      20.155  29.909  23.598  1.00  0.00     0.364 C 
ATOM     43  O   UNL     1      19.940  31.135  23.819  1.00  0.00    -0.246 OA
BRANCH  42  44
ATOM     44  O   UNL     1      20.143  29.059  24.668  1.00  0.00    -0.477 OA
ATOM     45  H   UNL     1      20.545  29.354  25.546  1.00  0.00     0.296 HD
ENDBRANCH  42  44
ENDBRANCH   3  42
BRANCH   6  46
ATOM     46  O   UNL     1      23.987  30.099  21.818  1.00  0.00    -0.391 OA
ATOM     47  H   UNL     1      24.432  30.816  22.312  1.00  0.00     0.211 HD
ENDBRANCH   6  46
BRANCH   7  48
ATOM     48  N   UNL     1      23.459  27.700  23.912  1.00  0.00    -0.348 N 
ATOM     49  C   UNL     1      24.852  27.506  24.118  1.00  0.00     0.217 C 
ATOM     50  H   UNL     1      22.835  27.506  24.752  1.00  0.00     0.163 HD
ATOM     51  C   UNL     1      25.318  27.076  25.453  1.00  0.00     0.114 C 
ATOM     52  O   UNL     1      25.659  27.695  23.202  1.00  0.00    -0.275 OA
ENDBRANCH   7  48
ENDBRANCH   1   2
BRANCH   1  53
ATOM     53  O   UNL     1      21.304  26.869  20.052  1.00  0.00    -0.388 OA
ATOM     54  H   UNL     1      21.368  26.215  19.315  1.00  0.00     0.211 HD
ENDBRANCH   1  53
BRANCH   1  55
ATOM     55  C   UNL     1      21.583  25.001  21.585  1.00  0.00     0.165 C 
BRANCH  55  56
ATOM     56  O   UNL     1      20.491  24.927  22.413  1.00  0.00    -0.388 OA
ATOM     57  H   UNL     1      19.820  25.617  22.242  1.00  0.00     0.211 HD
ENDBRANCH  55  56
BRANCH  55  58
ATOM     58  C   UNL     1      22.821  24.453  22.255  1.00  0.00     0.154 C 
BRANCH  58  59
ATOM     59  N   UNL     1      23.974  24.308  21.449  1.00  0.00    -0.319 N 
ATOM     60  C   UNL     1      25.330  24.265  21.871  1.00  0.00     0.407 C 
ATOM     61  H   UNL     1      23.868  24.213  20.380  1.00  0.00     0.167 HD
ATOM     62  O   UNL     1      25.613  24.341  23.073  1.00  0.00    -0.225 OA
BRANCH  60  63
ATOM     63  O   UNL     1      26.360  24.139  20.953  1.00  0.00    -0.443 OA
BRANCH  63  64
ATOM     64  C   UNL     1      27.670  24.548  21.088  1.00  0.00     0.294 C 
BRANCH  64  65
ATOM     65  C   UNL     1      28.665  23.522  21.432  1.00  0.00     0.120 A 
ATOM     66  C   UNL     1      28.503  22.453  22.306  1.00  0.00     0.138 A 
ATOM     67  N   UNL     1      29.936  23.458  20.982  1.00  0.00    -0.132 NA
ATOM     68  N   UNL     1      29.668  21.811  22.339  1.00  0.00    -0.250 N 
ATOM     69  N   UNL     1      30.513  22.418  21.545  1.00  0.00    -0.067 NA
BRANCH  68  70
ATOM     70  C   UNL     1      29.909  20.612  23.184  1.00  0.00     0.177 C 
BRANCH  70  71
ATOM     71  C   UNL     1      30.178  19.486  22.243  1.00  0.00     0.136 C 
BRANCH  71  72
ATOM     72  O   UNL     1      31.302  19.738  21.437  1.00  0.00    -0.391 OA
ATOM     73  H   UNL     1      31.132  20.442  20.776  1.00  0.00     0.211 HD
ENDBRANCH  71  72
BRANCH  71  74
ATOM     74  C   UNL     1      29.027  19.062  21.419  1.00  0.00     0.038 C 
BRANCH  74  75
ATOM     75  C   UNL     1      29.175  18.631  20.034  1.00  0.00     0.038 C 
BRANCH  75  76
ATOM     76  C   UNL     1      28.660  19.447  18.955  1.00  0.00    -0.048 A 
ATOM     77  C   UNL     1      28.675  18.987  17.641  1.00  0.00     0.004 A 
ATOM     78  C   UNL     1      28.206  20.748  19.175  1.00  0.00     0.004 A 
ATOM     79  C   UNL     1      28.259  19.787  16.618  1.00  0.00     0.000 A 
ATOM     80  C   UNL     1      27.794  21.528  18.122  1.00  0.00     0.000 A 
ATOM     81  C   UNL     1      27.809  21.070  16.811  1.00  0.00     0.000 A 
ENDBRANCH  75  76
ENDBRANCH  74  75
ENDBRANCH  71  74
ENDBRANCH  70  71
ENDBRANCH  68  70
ENDBRANCH  64  65
ENDBRANCH  63  64
ENDBRANCH  60  63
ENDBRANCH  58  59
ENDBRANCH  55  58
ENDBRANCH   1  55
TORSDOF 35
