REMARK VINA RESULT:    -5.477     15.617     21.278
REMARK INTER + INTRA:         -20.832
REMARK INTER:                 -13.131
REMARK INTRA:                  -7.701
REMARK UNBOUND:                -6.390
REMARK SMILES CCOC(=O)Cn1cc(COC(=O)NC[C@@H](O)C(O)[C@@H]2O[C@@](OC[C@H]3O[C@@H](O[C@H]4[C@H](O)[C@@H](O)[C@H](OCCN=[N+]=[N-])O[C@@H]4CO)[C@H](O)[C@@H](O)[C@H]3O)(C(=O)O)C[C@H](O)[C@H]2NC(C)=O)nn1
REMARK SMILES IDX 18 1 20 2 22 3 54 4 21 5 55 6 57 7 23 8 24 9 25 10 27 11
REMARK SMILES IDX 26 12 45 13 47 14 49 15 28 16 29 17 42 18 41 19 34 20 30 21
REMARK SMILES IDX 32 22 43 23 44 24 35 26 36 27 37 28 38 29 39 30 40 31 31 32
REMARK SMILES IDX 33 34 46 36 48 38 50 40 51 42 52 43 53 44 56 46 58 48 59 49
REMARK SMILES IDX 60 51 61 52 19 53 16 55 17 56 15 58 14 59 12 60 13 62 11 63
REMARK SMILES IDX 10 64 9 65 8 66 62 67 7 68 63 69 6 70 4 71 5 72 3 73 2 74
REMARK SMILES IDX 1 75
REMARK H PARENT 44 25 31 33 33 35 46 37 48 39 50 41 53 45 56 47 58 50 19 54
REMARK H PARENT 17 57 14 61
REMARK Flexibility Score: inf
ROOT
ATOM      1  C   UNL     1       2.612  20.074  30.941  1.00  0.00     0.176 C 
ENDROOT
BRANCH   1   2
ATOM      2  C   UNL     1       1.545  20.555  29.997  1.00  0.00     0.178 C 
ATOM      3  C   UNL     1       1.254  21.903  28.108  1.00  0.00     0.272 C 
ATOM      4  C   UNL     1      -0.183  21.755  28.472  1.00  0.00     0.113 C 
ATOM      5  O   UNL     1       2.074  20.994  28.811  1.00  0.00    -0.332 OA
ATOM      6  C   UNL     1      -0.465  21.924  29.930  1.00  0.00     0.145 C 
ATOM      7  C   UNL     1       0.832  21.700  30.692  1.00  0.00     0.142 C 
BRANCH   3   8
ATOM      8  O   UNL     1       1.778  23.169  28.251  1.00  0.00    -0.338 OA
BRANCH   8   9
ATOM      9  C   UNL     1       1.117  24.207  27.689  1.00  0.00     0.199 C 
BRANCH   9  10
ATOM     10  C   UNL     1       2.122  25.355  27.470  1.00  0.00     0.179 C 
ATOM     11  C   UNL     1       3.617  26.742  28.576  1.00  0.00     0.282 C 
ATOM     12  O   UNL     1       2.537  25.890  28.648  1.00  0.00    -0.341 OA
ATOM     13  C   UNL     1       4.789  26.175  27.835  1.00  0.00     0.202 C 
ATOM     14  C   UNL     1       4.329  25.907  26.424  1.00  0.00     0.179 C 
ATOM     15  C   UNL     1       3.195  24.941  26.508  1.00  0.00     0.177 C 
BRANCH  11  16
ATOM     16  O   UNL     1       4.054  27.170  29.818  1.00  0.00    -0.341 OA
BRANCH  16  17
ATOM     17  C   UNL     1       3.444  26.576  30.893  1.00  0.00     0.184 C 
ATOM     18  C   UNL     1       2.494  27.496  31.630  1.00  0.00     0.178 C 
ATOM     19  O   UNL     1       2.985  27.843  32.881  1.00  0.00    -0.341 OA
ATOM     20  C   UNL     1       3.062  26.728  33.747  1.00  0.00     0.281 C 
ATOM     21  C   UNL     1       4.509  26.095  31.879  1.00  0.00     0.180 C 
ATOM     22  C   UNL     1       3.758  25.576  33.096  1.00  0.00     0.202 C 
BRANCH  18  23
ATOM     23  C   UNL     1       1.113  26.893  31.666  1.00  0.00     0.191 C 
BRANCH  23  24
ATOM     24  O   UNL     1       1.069  25.698  30.924  1.00  0.00    -0.394 OA
ATOM     25  H   UNL     1       1.332  24.930  31.469  1.00  0.00     0.210 HD
ENDBRANCH  23  24
ENDBRANCH  18  23
BRANCH  20  26
ATOM     26  O   UNL     1       1.820  26.396  34.221  1.00  0.00    -0.350 OA
BRANCH  26  27
ATOM     27  C   UNL     1       1.597  26.328  35.554  1.00  0.00     0.169 C 
BRANCH  27  28
ATOM     28  C   UNL     1       1.413  25.006  36.200  1.00  0.00     0.119 C 
BRANCH  28  29
ATOM     29  N   UNL     1       2.540  24.428  36.849  1.00  0.00    -0.092 NA
ATOM     30  N   UNL     1       3.175  23.487  36.329  1.00  0.00     0.001 N 
ATOM     31  N   UNL     1       3.772  22.714  35.559  1.00  0.00    -0.003 NA
ENDBRANCH  28  29
ENDBRANCH  27  28
ENDBRANCH  26  27
ENDBRANCH  20  26
BRANCH  21  32
ATOM     32  O   UNL     1       5.240  25.058  31.295  1.00  0.00    -0.387 OA
ATOM     33  H   UNL     1       4.840  24.199  31.635  1.00  0.00     0.211 HD
ENDBRANCH  21  32
BRANCH  22  34
ATOM     34  O   UNL     1       4.656  24.926  33.948  1.00  0.00    -0.385 OA
ATOM     35  H   UNL     1       5.588  24.934  33.618  1.00  0.00     0.211 HD
ENDBRANCH  22  34
ENDBRANCH  16  17
ENDBRANCH  11  16
BRANCH  13  36
ATOM     36  O   UNL     1       5.814  27.113  27.837  1.00  0.00    -0.385 OA
ATOM     37  H   UNL     1       6.041  27.487  26.972  1.00  0.00     0.211 HD
ENDBRANCH  13  36
BRANCH  14  38
ATOM     38  O   UNL     1       5.402  25.302  25.731  1.00  0.00    -0.387 OA
ATOM     39  H   UNL     1       5.152  24.390  25.443  1.00  0.00     0.211 HD
ENDBRANCH  14  38
BRANCH  15  40
ATOM     40  O   UNL     1       3.739  23.682  26.854  1.00  0.00    -0.387 OA
ATOM     41  H   UNL     1       4.177  23.365  26.017  1.00  0.00     0.211 HD
ENDBRANCH  15  40
ENDBRANCH   9  10
ENDBRANCH   8   9
ENDBRANCH   3   8
BRANCH   3  42
ATOM     42  C   UNL     1       1.402  21.476  26.695  1.00  0.00     0.364 C 
ATOM     43  O   UNL     1       2.545  21.378  26.196  1.00  0.00    -0.246 OA
BRANCH  42  44
ATOM     44  O   UNL     1       0.305  21.191  25.931  1.00  0.00    -0.477 OA
ATOM     45  H   UNL     1      -0.021  20.239  25.779  1.00  0.00     0.296 HD
ENDBRANCH  42  44
ENDBRANCH   3  42
BRANCH   6  46
ATOM     46  O   UNL     1      -1.072  23.108  30.274  1.00  0.00    -0.391 OA
ATOM     47  H   UNL     1      -2.041  23.048  30.040  1.00  0.00     0.211 HD
ENDBRANCH   6  46
BRANCH   7  48
ATOM     48  N   UNL     1       0.561  21.385  32.088  1.00  0.00    -0.348 N 
ATOM     49  C   UNL     1       0.620  22.365  33.107  1.00  0.00     0.217 C 
ATOM     50  H   UNL     1       0.312  20.413  32.339  1.00  0.00     0.163 HD
ATOM     51  C   UNL     1       0.345  22.055  34.541  1.00  0.00     0.114 C 
ATOM     52  O   UNL     1       0.919  23.546  32.777  1.00  0.00    -0.275 OA
ENDBRANCH   7  48
ENDBRANCH   1   2
BRANCH   1  53
ATOM     53  O   UNL     1       3.003  18.789  30.622  1.00  0.00    -0.388 OA
ATOM     54  H   UNL     1       3.953  18.591  30.866  1.00  0.00     0.211 HD
ENDBRANCH   1  53
BRANCH   1  55
ATOM     55  C   UNL     1       3.840  20.968  30.956  1.00  0.00     0.165 C 
BRANCH  55  56
ATOM     56  O   UNL     1       4.883  20.461  30.218  1.00  0.00    -0.388 OA
ATOM     57  H   UNL     1       5.768  20.589  30.631  1.00  0.00     0.211 HD
ENDBRANCH  55  56
BRANCH  55  58
ATOM     58  C   UNL     1       4.234  21.206  32.376  1.00  0.00     0.154 C 
BRANCH  58  59
ATOM     59  N   UNL     1       5.160  22.264  32.568  1.00  0.00    -0.319 N 
ATOM     60  C   UNL     1       6.525  22.110  32.928  1.00  0.00     0.407 C 
ATOM     61  H   UNL     1       4.842  23.288  32.441  1.00  0.00     0.167 HD
ATOM     62  O   UNL     1       7.038  20.992  33.104  1.00  0.00    -0.225 OA
BRANCH  60  63
ATOM     63  O   UNL     1       7.325  23.255  33.087  1.00  0.00    -0.443 OA
BRANCH  63  64
ATOM     64  C   UNL     1       7.606  23.760  34.350  1.00  0.00     0.294 C 
BRANCH  64  65
ATOM     65  C   UNL     1       9.039  24.009  34.597  1.00  0.00     0.120 A 
ATOM     66  C   UNL     1       9.797  23.486  35.627  1.00  0.00     0.139 A 
ATOM     67  N   UNL     1       9.876  24.784  33.897  1.00  0.00    -0.132 NA
ATOM     68  N   UNL     1      11.065  23.953  35.530  1.00  0.00    -0.241 N 
ATOM     69  N   UNL     1      11.075  24.733  34.471  1.00  0.00    -0.066 NA
BRANCH  68  70
ATOM     70  C   UNL     1      12.144  23.618  36.452  1.00  0.00     0.268 C 
BRANCH  70  71
ATOM     71  C   UNL     1      12.298  24.779  37.399  1.00  0.00     0.327 C 
ATOM     72  O   UNL     1      11.471  25.012  38.302  1.00  0.00    -0.250 OA
BRANCH  71  73
ATOM     73  O   UNL     1      13.375  25.642  37.301  1.00  0.00    -0.465 OA
BRANCH  73  74
ATOM     74  C   UNL     1      14.163  25.807  36.158  1.00  0.00     0.229 C 
ATOM     75  C   UNL     1      13.754  26.999  35.327  1.00  0.00     0.049 C 
ENDBRANCH  73  74
ENDBRANCH  71  73
ENDBRANCH  70  71
ENDBRANCH  68  70
ENDBRANCH  64  65
ENDBRANCH  63  64
ENDBRANCH  60  63
ENDBRANCH  58  59
ENDBRANCH  55  58
ENDBRANCH   1  55
TORSDOF 33
