REMARK VINA RESULT:    -6.081     22.356     27.327
REMARK INTER + INTRA:         -23.858
REMARK INTER:                 -15.956
REMARK INTRA:                  -7.902
REMARK UNBOUND:                -6.934
REMARK SMILES CCOCCc1c(-c2ccccc2)nc(N)nc1-n1cc(COC(=O)NC[C@@H](O)C(O)[C@@H]2O[C@@](OC[C@H]3O[C@@H](O[C@H]4[C@H](O)[C@@H](O)[C@H](OCCN=[N+]=[N-])O[C@@H]4CO)[C@H](O)[C@@H](O)[C@H]3O)(C(=O)O)C[C@H](O)[C@H]2NC(C)=O)nn1
REMARK SMILES IDX 30 1 32 2 34 3 66 4 33 5 67 6 69 7 35 8 36 9 37 10 39 11
REMARK SMILES IDX 38 12 57 13 59 14 61 15 40 16 41 17 54 18 53 19 46 20 42 21
REMARK SMILES IDX 44 22 55 23 56 24 47 26 48 27 49 28 50 29 51 30 52 31 43 32
REMARK SMILES IDX 45 34 58 36 60 38 62 40 63 42 64 43 65 44 68 46 70 48 71 49
REMARK SMILES IDX 72 51 73 52 31 53 28 55 29 56 27 58 26 59 24 60 25 62 23 63
REMARK SMILES IDX 22 64 21 65 20 66 74 67 19 68 75 69 18 70 17 71 6 72 15 73
REMARK SMILES IDX 7 74 14 75 5 76 4 77 3 78 2 79 1 80 16 81 8 84 9 85 13 86
REMARK SMILES IDX 10 87 12 88 11 89
REMARK H PARENT 56 25 43 33 45 35 58 37 60 39 62 41 65 45 68 47 70 50 31 54
REMARK H PARENT 29 57 26 61 16 82 16 83
REMARK Flexibility Score: inf
ROOT
ATOM      1  C   UNL     1      23.321  21.681  11.787  1.00  0.00     0.176 C 
ENDROOT
BRANCH   1   2
ATOM      2  C   UNL     1      22.100  21.406  10.962  1.00  0.00     0.178 C 
ATOM      3  C   UNL     1      20.616  19.616  10.695  1.00  0.00     0.272 C 
ATOM      4  C   UNL     1      19.957  20.609   9.735  1.00  0.00     0.113 C 
ATOM      5  O   UNL     1      21.569  20.180  11.464  1.00  0.00    -0.332 OA
ATOM      6  C   UNL     1      20.947  21.269   8.825  1.00  0.00     0.145 C 
ATOM      7  C   UNL     1      22.305  21.205   9.500  1.00  0.00     0.142 C 
BRANCH   3   8
ATOM      8  O   UNL     1      21.030  18.542   9.940  1.00  0.00    -0.338 OA
BRANCH   8   9
ATOM      9  C   UNL     1      21.891  17.672  10.554  1.00  0.00     0.199 C 
BRANCH   9  10
ATOM     10  C   UNL     1      23.229  17.577   9.836  1.00  0.00     0.179 C 
ATOM     11  C   UNL     1      25.349  16.828  10.459  1.00  0.00     0.282 C 
ATOM     12  O   UNL     1      24.213  17.516  10.779  1.00  0.00    -0.341 OA
ATOM     13  C   UNL     1      24.906  15.398  10.126  1.00  0.00     0.202 C 
ATOM     14  C   UNL     1      24.251  15.525   8.751  1.00  0.00     0.179 C 
ATOM     15  C   UNL     1      23.270  16.644   8.696  1.00  0.00     0.177 C 
BRANCH  11  16
ATOM     16  O   UNL     1      26.241  16.871  11.505  1.00  0.00    -0.341 OA
BRANCH  16  17
ATOM     17  C   UNL     1      26.527  18.167  11.903  1.00  0.00     0.184 C 
ATOM     18  C   UNL     1      27.894  18.580  11.475  1.00  0.00     0.178 C 
ATOM     19  O   UNL     1      28.821  18.742  12.455  1.00  0.00    -0.341 OA
ATOM     20  C   UNL     1      28.468  19.393  13.595  1.00  0.00     0.281 C 
ATOM     21  C   UNL     1      26.263  18.367  13.365  1.00  0.00     0.180 C 
ATOM     22  C   UNL     1      27.010  19.582  13.847  1.00  0.00     0.202 C 
BRANCH  18  23
ATOM     23  C   UNL     1      27.851  19.767  10.512  1.00  0.00     0.191 C 
BRANCH  23  24
ATOM     24  O   UNL     1      26.566  20.261  10.376  1.00  0.00    -0.394 OA
ATOM     25  H   UNL     1      26.539  20.788   9.537  1.00  0.00     0.210 HD
ENDBRANCH  23  24
ENDBRANCH  18  23
BRANCH  20  26
ATOM     26  O   UNL     1      29.092  20.636  13.583  1.00  0.00    -0.350 OA
BRANCH  26  27
ATOM     27  C   UNL     1      30.276  20.681  14.277  1.00  0.00     0.169 C 
BRANCH  27  28
ATOM     28  C   UNL     1      30.115  20.925  15.758  1.00  0.00     0.119 C 
BRANCH  28  29
ATOM     29  N   UNL     1      28.975  21.815  15.966  1.00  0.00    -0.092 NA
ATOM     30  N   UNL     1      28.344  21.818  17.031  1.00  0.00     0.001 N 
ATOM     31  N   UNL     1      27.744  21.614  18.085  1.00  0.00    -0.003 NA
ENDBRANCH  28  29
ENDBRANCH  27  28
ENDBRANCH  26  27
ENDBRANCH  20  26
BRANCH  21  32
ATOM     32  O   UNL     1      24.906  18.556  13.641  1.00  0.00    -0.387 OA
ATOM     33  H   UNL     1      24.332  17.946  13.103  1.00  0.00     0.211 HD
ENDBRANCH  21  32
BRANCH  22  34
ATOM     34  O   UNL     1      26.809  19.681  15.223  1.00  0.00    -0.385 OA
ATOM     35  H   UNL     1      27.177  18.904  15.714  1.00  0.00     0.211 HD
ENDBRANCH  22  34
ENDBRANCH  16  17
ENDBRANCH  11  16
BRANCH  13  36
ATOM     36  O   UNL     1      25.958  14.517  10.062  1.00  0.00    -0.385 OA
ATOM     37  H   UNL     1      26.210  14.175  10.963  1.00  0.00     0.211 HD
ENDBRANCH  13  36
BRANCH  14  38
ATOM     38  O   UNL     1      23.799  14.325   8.253  1.00  0.00    -0.387 OA
ATOM     39  H   UNL     1      23.590  14.383   7.272  1.00  0.00     0.211 HD
ENDBRANCH  14  38
BRANCH  15  40
ATOM     40  O   UNL     1      21.989  16.074   8.529  1.00  0.00    -0.387 OA
ATOM     41  H   UNL     1      21.865  15.356   9.201  1.00  0.00     0.211 HD
ENDBRANCH  15  40
ENDBRANCH   9  10
ENDBRANCH   8   9
ENDBRANCH   3   8
BRANCH   3  42
ATOM     42  C   UNL     1      19.483  19.188  11.576  1.00  0.00     0.364 C 
ATOM     43  O   UNL     1      18.400  18.902  10.953  1.00  0.00    -0.246 OA
BRANCH  42  44
ATOM     44  O   UNL     1      19.528  19.085  12.936  1.00  0.00    -0.477 OA
ATOM     45  H   UNL     1      20.420  19.171  13.415  1.00  0.00     0.296 HD
ENDBRANCH  42  44
ENDBRANCH   3  42
BRANCH   6  46
ATOM     46  O   UNL     1      20.935  20.552   7.618  1.00  0.00    -0.391 OA
ATOM     47  H   UNL     1      20.105  20.049   7.502  1.00  0.00     0.211 HD
ENDBRANCH   6  46
BRANCH   7  48
ATOM     48  N   UNL     1      23.254  22.057   8.854  1.00  0.00    -0.348 N 
ATOM     49  C   UNL     1      24.410  21.585   8.178  1.00  0.00     0.217 C 
ATOM     50  H   UNL     1      23.058  23.082   8.878  1.00  0.00     0.163 HD
ATOM     51  C   UNL     1      25.322  22.557   7.543  1.00  0.00     0.114 C 
ATOM     52  O   UNL     1      24.643  20.359   8.124  1.00  0.00    -0.275 OA
ENDBRANCH   7  48
ENDBRANCH   1   2
BRANCH   1  53
ATOM     53  O   UNL     1      24.144  20.512  11.639  1.00  0.00    -0.388 OA
ATOM     54  H   UNL     1      23.947  20.167  10.743  1.00  0.00     0.211 HD
ENDBRANCH   1  53
BRANCH   1  55
ATOM     55  C   UNL     1      23.166  21.908  13.236  1.00  0.00     0.165 C 
BRANCH  55  56
ATOM     56  O   UNL     1      22.859  20.626  13.779  1.00  0.00    -0.388 OA
ATOM     57  H   UNL     1      23.630  20.043  13.631  1.00  0.00     0.211 HD
ENDBRANCH  55  56
BRANCH  55  58
ATOM     58  C   UNL     1      22.137  22.859  13.682  1.00  0.00     0.154 C 
BRANCH  58  59
ATOM     59  N   UNL     1      22.545  23.830  14.622  1.00  0.00    -0.319 N 
ATOM     60  C   UNL     1      22.970  25.139  14.330  1.00  0.00     0.407 C 
ATOM     61  H   UNL     1      22.558  23.611  15.687  1.00  0.00     0.167 HD
ATOM     62  O   UNL     1      23.030  25.580  13.161  1.00  0.00    -0.225 OA
BRANCH  60  63
ATOM     63  O   UNL     1      23.353  26.041  15.329  1.00  0.00    -0.443 OA
BRANCH  63  64
ATOM     64  C   UNL     1      24.241  25.679  16.365  1.00  0.00     0.294 C 
BRANCH  64  65
ATOM     65  C   UNL     1      23.518  25.352  17.616  1.00  0.00     0.121 A 
ATOM     66  C   UNL     1      23.445  26.114  18.753  1.00  0.00     0.146 A 
ATOM     67  N   UNL     1      22.809  24.234  17.894  1.00  0.00    -0.131 NA
ATOM     68  N   UNL     1      22.693  25.443  19.706  1.00  0.00    -0.202 N 
ATOM     69  N   UNL     1      22.347  24.333  19.127  1.00  0.00    -0.060 NA
BRANCH  68  70
ATOM     70  C   UNL     1      22.506  26.036  20.966  1.00  0.00     0.164 A 
ATOM     71  N   UNL     1      21.778  27.178  21.044  1.00  0.00    -0.193 NA
ATOM     72  C   UNL     1      22.957  25.486  22.175  1.00  0.00     0.026 A 
ATOM     73  C   UNL     1      21.476  27.784  22.193  1.00  0.00     0.222 A 
ATOM     74  C   UNL     1      22.657  26.085  23.361  1.00  0.00     0.081 A 
ATOM     75  N   UNL     1      21.912  27.240  23.331  1.00  0.00    -0.213 NA
BRANCH  72  76
ATOM     76  C   UNL     1      23.844  24.323  22.053  1.00  0.00     0.070 C 
BRANCH  76  77
ATOM     77  C   UNL     1      25.283  24.668  21.731  1.00  0.00     0.165 C 
BRANCH  77  78
ATOM     78  O   UNL     1      26.247  23.874  22.271  1.00  0.00    -0.381 OA
BRANCH  78  79
ATOM     79  C   UNL     1      26.959  23.067  21.436  1.00  0.00     0.156 C 
ATOM     80  C   UNL     1      28.450  23.049  21.815  1.00  0.00     0.035 C 
ENDBRANCH  78  79
ENDBRANCH  77  78
ENDBRANCH  76  77
ENDBRANCH  72  76
BRANCH  73  81
ATOM     81  N   UNL     1      20.706  28.990  22.222  1.00  0.00    -0.368 N 
ATOM     82  H   UNL     1      20.455  29.472  21.335  1.00  0.00     0.159 HD
ATOM     83  H   UNL     1      20.373  29.421  23.099  1.00  0.00     0.159 HD
ENDBRANCH  73  81
BRANCH  74  84
ATOM     84  C   UNL     1      23.061  25.568  24.649  1.00  0.00     0.001 A 
ATOM     85  C   UNL     1      24.335  25.891  25.111  1.00  0.00     0.010 A 
ATOM     86  C   UNL     1      22.227  24.797  25.438  1.00  0.00     0.010 A 
ATOM     87  C   UNL     1      24.786  25.456  26.351  1.00  0.00     0.001 A 
ATOM     88  C   UNL     1      22.692  24.375  26.660  1.00  0.00     0.001 A 
ATOM     89  C   UNL     1      23.945  24.690  27.124  1.00  0.00     0.000 A 
ENDBRANCH  74  84
ENDBRANCH  68  70
ENDBRANCH  64  65
ENDBRANCH  63  64
ENDBRANCH  60  63
ENDBRANCH  58  59
ENDBRANCH  55  58
ENDBRANCH   1  55
TORSDOF 36
