REMARK VINA RESULT:    -5.422      4.238      7.510
REMARK INTER + INTRA:         -21.429
REMARK INTER:                 -13.502
REMARK INTRA:                  -7.927
REMARK UNBOUND:                -7.606
REMARK SMILES CC(=O)N[C@@H]1[C@@H](O)C[C@](OC[C@H]2O[C@@H](O[C@H]3[C@H](O)[C@@H](O)[C@H](OCCN=[N+]=[N-])O[C@@H]3CO)[C@H](O)[C@@H](O)[C@H]2O)(C(=O)O)O[C@H]1C(O)[C@H](O)CNC(=O)OCc1cn(-c2ccc(CO)cn2)nn1
REMARK SMILES IDX 9 1 8 2 6 3 5 4 42 5 41 6 10 7 11 8 12 9 14 10 13 11 32 12
REMARK SMILES IDX 34 13 36 14 15 15 16 16 29 17 28 18 21 19 17 20 19 21 30 22
REMARK SMILES IDX 31 23 22 25 23 26 24 27 25 28 26 29 27 30 18 31 20 33 33 35
REMARK SMILES IDX 35 37 37 39 38 41 39 42 40 43 7 45 43 47 44 48 45 50 46 51
REMARK SMILES IDX 47 53 48 54 49 55 50 57 51 58 52 59 53 60 54 61 65 62 55 63
REMARK SMILES IDX 64 64 56 65 57 66 63 67 58 68 62 69 59 70 60 71 61 72 4 74
REMARK SMILES IDX 2 75 1 77 3 78
REMARK H PARENT 31 24 18 32 20 34 33 36 35 38 37 40 40 44 7 46 44 49 46 52
REMARK H PARENT 48 56 61 73 4 76
REMARK Flexibility Score: inf
ROOT
ATOM      1  C   UNL     1      27.031  24.217  19.069  1.00  0.00     0.272 C 
ATOM      2  C   UNL     1      26.985  23.739  20.472  1.00  0.00     0.113 C 
ATOM      3  C   UNL     1      25.897  24.401  21.270  1.00  0.00     0.145 C 
ATOM      4  C   UNL     1      24.594  24.372  20.496  1.00  0.00     0.142 C 
ATOM      5  C   UNL     1      24.792  24.883  19.128  1.00  0.00     0.178 C 
ATOM      6  O   UNL     1      25.805  24.287  18.459  1.00  0.00    -0.332 OA
ENDROOT
BRANCH   1   7
ATOM      7  O   UNL     1      27.849  23.461  18.247  1.00  0.00    -0.338 OA
BRANCH   7   8
ATOM      8  C   UNL     1      27.297  22.246  17.898  1.00  0.00     0.199 C 
BRANCH   8   9
ATOM      9  C   UNL     1      27.644  21.924  16.476  1.00  0.00     0.179 C 
ATOM     10  C   UNL     1      27.247  20.428  14.828  1.00  0.00     0.282 C 
ATOM     11  O   UNL     1      26.618  21.201  15.838  1.00  0.00    -0.341 OA
ATOM     12  C   UNL     1      28.112  21.286  14.000  1.00  0.00     0.202 C 
ATOM     13  C   UNL     1      27.920  22.783  14.171  1.00  0.00     0.179 C 
ATOM     14  C   UNL     1      27.873  23.148  15.651  1.00  0.00     0.177 C 
BRANCH  10  15
ATOM     15  O   UNL     1      26.273  19.710  14.126  1.00  0.00    -0.341 OA
BRANCH  15  16
ATOM     16  C   UNL     1      25.291  20.520  13.599  1.00  0.00     0.184 C 
ATOM     17  C   UNL     1      23.927  20.356  14.191  1.00  0.00     0.178 C 
ATOM     18  O   UNL     1      23.001  19.797  13.314  1.00  0.00    -0.341 OA
ATOM     19  C   UNL     1      23.387  18.577  12.819  1.00  0.00     0.281 C 
ATOM     20  C   UNL     1      25.179  20.138  12.111  1.00  0.00     0.180 C 
ATOM     21  C   UNL     1      24.761  18.661  12.136  1.00  0.00     0.202 C 
BRANCH  17  22
ATOM     22  C   UNL     1      23.391  21.772  14.474  1.00  0.00     0.191 C 
BRANCH  22  23
ATOM     23  O   UNL     1      24.461  22.629  14.775  1.00  0.00    -0.394 OA
ATOM     24  H   UNL     1      24.653  23.236  13.998  1.00  0.00     0.210 HD
ENDBRANCH  22  23
ENDBRANCH  17  22
BRANCH  19  25
ATOM     25  O   UNL     1      22.445  18.166  11.881  1.00  0.00    -0.350 OA
BRANCH  25  26
ATOM     26  C   UNL     1      22.926  17.231  11.001  1.00  0.00     0.169 C 
BRANCH  26  27
ATOM     27  C   UNL     1      21.992  17.193   9.797  1.00  0.00     0.119 C 
BRANCH  27  28
ATOM     28  N   UNL     1      22.128  15.925   9.093  1.00  0.00    -0.092 NA
ATOM     29  N   UNL     1      22.083  14.837   9.641  1.00  0.00     0.001 N 
ATOM     30  N   UNL     1      21.670  13.742  10.022  1.00  0.00    -0.003 NA
ENDBRANCH  27  28
ENDBRANCH  26  27
ENDBRANCH  25  26
ENDBRANCH  19  25
BRANCH  20  31
ATOM     31  O   UNL     1      24.308  20.934  11.419  1.00  0.00    -0.387 OA
ATOM     32  H   UNL     1      23.517  21.096  11.954  1.00  0.00     0.211 HD
ENDBRANCH  20  31
BRANCH  21  33
ATOM     33  O   UNL     1      25.715  18.003  12.908  1.00  0.00    -0.385 OA
ATOM     34  H   UNL     1      26.505  17.845  12.331  1.00  0.00     0.211 HD
ENDBRANCH  21  33
ENDBRANCH  15  16
ENDBRANCH  10  15
BRANCH  12  35
ATOM     35  O   UNL     1      29.465  20.990  14.292  1.00  0.00    -0.385 OA
ATOM     36  H   UNL     1      29.831  21.608  14.975  1.00  0.00     0.211 HD
ENDBRANCH  12  35
BRANCH  13  37
ATOM     37  O   UNL     1      26.826  23.254  13.465  1.00  0.00    -0.387 OA
ATOM     38  H   UNL     1      26.037  23.404  14.007  1.00  0.00     0.211 HD
ENDBRANCH  13  37
BRANCH  14  39
ATOM     39  O   UNL     1      26.867  24.076  15.815  1.00  0.00    -0.387 OA
ATOM     40  H   UNL     1      25.999  23.629  15.769  1.00  0.00     0.211 HD
ENDBRANCH  14  39
ENDBRANCH   8   9
ENDBRANCH   7   8
ENDBRANCH   1   7
BRANCH   1  41
ATOM     41  C   UNL     1      27.588  25.623  18.983  1.00  0.00     0.364 C 
ATOM     42  O   UNL     1      28.041  26.240  19.976  1.00  0.00    -0.246 OA
BRANCH  41  43
ATOM     43  O   UNL     1      27.614  26.290  17.775  1.00  0.00    -0.477 OA
ATOM     44  H   UNL     1      26.732  26.505  17.294  1.00  0.00     0.296 HD
ENDBRANCH  41  43
ENDBRANCH   1  41
BRANCH   3  45
ATOM     45  O   UNL     1      25.688  23.590  22.403  1.00  0.00    -0.391 OA
ATOM     46  H   UNL     1      24.776  23.253  22.475  1.00  0.00     0.211 HD
ENDBRANCH   3  45
BRANCH   5  47
ATOM     47  C   UNL     1      23.528  24.878  18.289  1.00  0.00     0.176 C 
BRANCH  47  48
ATOM     48  O   UNL     1      23.603  23.860  17.339  1.00  0.00    -0.388 OA
ATOM     49  H   UNL     1      22.722  23.706  16.924  1.00  0.00     0.211 HD
ENDBRANCH  47  48
BRANCH  47  50
ATOM     50  C   UNL     1      23.219  26.147  17.590  1.00  0.00     0.165 C 
BRANCH  50  51
ATOM     51  O   UNL     1      22.016  26.099  16.872  1.00  0.00    -0.388 OA
ATOM     52  H   UNL     1      22.025  26.630  16.062  1.00  0.00     0.211 HD
ENDBRANCH  50  51
BRANCH  50  53
ATOM     53  C   UNL     1      24.320  26.727  16.750  1.00  0.00     0.154 C 
BRANCH  53  54
ATOM     54  N   UNL     1      24.669  25.838  15.673  1.00  0.00    -0.319 N 
ATOM     55  C   UNL     1      24.404  26.208  14.334  1.00  0.00     0.407 C 
ATOM     56  H   UNL     1      25.130  24.895  15.889  1.00  0.00     0.167 HD
ATOM     57  O   UNL     1      23.870  27.295  14.021  1.00  0.00    -0.225 OA
BRANCH  55  58
ATOM     58  O   UNL     1      24.733  25.358  13.272  1.00  0.00    -0.443 OA
BRANCH  58  59
ATOM     59  C   UNL     1      24.385  25.725  11.968  1.00  0.00     0.294 C 
BRANCH  59  60
ATOM     60  C   UNL     1      23.217  25.057  11.407  1.00  0.00     0.121 A 
ATOM     61  C   UNL     1      22.792  23.778  11.669  1.00  0.00     0.146 A 
ATOM     62  N   UNL     1      22.339  25.564  10.526  1.00  0.00    -0.131 NA
ATOM     63  N   UNL     1      21.678  23.542  10.947  1.00  0.00    -0.202 N 
ATOM     64  N   UNL     1      21.438  24.649  10.269  1.00  0.00    -0.061 NA
BRANCH  63  65
ATOM     65  C   UNL     1      20.953  22.322  10.953  1.00  0.00     0.155 A 
ATOM     66  C   UNL     1      20.398  21.807  12.120  1.00  0.00     0.049 A 
ATOM     67  N   UNL     1      20.782  21.610   9.827  1.00  0.00    -0.237 NA
ATOM     68  C   UNL     1      19.700  20.607  12.108  1.00  0.00     0.011 A 
ATOM     69  C   UNL     1      20.104  20.438   9.793  1.00  0.00     0.119 A 
ATOM     70  C   UNL     1      19.540  19.899  10.938  1.00  0.00    -0.004 A 
BRANCH  70  71
ATOM     71  C   UNL     1      18.793  18.613  10.932  1.00  0.00     0.193 C 
BRANCH  71  72
ATOM     72  O   UNL     1      17.984  18.504  12.063  1.00  0.00    -0.392 OA
ATOM     73  H   UNL     1      18.308  19.048  12.810  1.00  0.00     0.211 HD
ENDBRANCH  71  72
ENDBRANCH  70  71
ENDBRANCH  63  65
ENDBRANCH  59  60
ENDBRANCH  58  59
ENDBRANCH  55  58
ENDBRANCH  53  54
ENDBRANCH  50  53
ENDBRANCH  47  50
ENDBRANCH   5  47
BRANCH   4  74
ATOM     74  N   UNL     1      23.578  25.127  21.232  1.00  0.00    -0.348 N 
ATOM     75  C   UNL     1      22.314  24.613  21.508  1.00  0.00     0.217 C 
ATOM     76  H   UNL     1      23.829  26.081  21.561  1.00  0.00     0.163 HD
ATOM     77  C   UNL     1      21.359  25.502  22.270  1.00  0.00     0.114 C 
ATOM     78  O   UNL     1      21.933  23.484  21.169  1.00  0.00    -0.275 OA
ENDBRANCH   4  74
TORSDOF 32
