REMARK VINA RESULT:    -6.336      6.736     12.756
REMARK INTER + INTRA:         -21.317
REMARK INTER:                 -14.604
REMARK INTRA:                  -6.714
REMARK UNBOUND:                -5.351
REMARK SMILES CC(=O)N[C@@H]1[C@@H](O)C[C@](OC[C@H]2O[C@@H](O[C@H]3[C@H](O)[C@@H](O)[C@H](OCCN=[N+]=[N-])O[C@@H]3CO)[C@H](O)[C@@H](O)[C@H]2O)(C(=O)O)O[C@H]1C(O)[C@H](O)CNC(=O)OCc1cn(-c2ccc([N+](=O)[O-])cc2)nn1
REMARK SMILES IDX 9 1 8 2 6 3 5 4 42 5 41 6 10 7 11 8 12 9 14 10 13 11 32 12
REMARK SMILES IDX 34 13 36 14 15 15 16 16 29 17 28 18 21 19 17 20 19 21 30 22
REMARK SMILES IDX 31 23 22 25 23 26 24 27 25 28 26 29 27 30 18 31 20 33 33 35
REMARK SMILES IDX 35 37 37 39 38 41 39 42 40 43 7 45 43 47 44 48 45 50 46 51
REMARK SMILES IDX 47 53 48 54 49 55 50 57 51 58 52 59 53 60 54 61 66 62 55 63
REMARK SMILES IDX 65 64 56 65 57 66 64 67 58 68 63 69 59 70 60 71 61 72 62 73
REMARK SMILES IDX 4 74 2 75 1 77 3 78
REMARK H PARENT 31 24 18 32 20 34 33 36 35 38 37 40 40 44 7 46 44 49 46 52
REMARK H PARENT 48 56 4 76
REMARK Flexibility Score: inf
ROOT
ATOM      1  C   UNL     1      24.826  27.773  21.169  1.00  0.00     0.272 C 
ATOM      2  C   UNL     1      24.192  28.993  21.753  1.00  0.00     0.113 C 
ATOM      3  C   UNL     1      22.796  29.101  21.314  1.00  0.00     0.145 C 
ATOM      4  C   UNL     1      22.387  28.182  20.148  1.00  0.00     0.142 C 
ATOM      5  C   UNL     1      23.511  28.051  19.232  1.00  0.00     0.178 C 
ATOM      6  O   UNL     1      24.773  27.877  19.790  1.00  0.00    -0.332 OA
ENDROOT
BRANCH   1   7
ATOM      7  O   UNL     1      24.378  26.584  21.655  1.00  0.00    -0.338 OA
BRANCH   7   8
ATOM      8  C   UNL     1      24.759  26.249  22.914  1.00  0.00     0.199 C 
BRANCH   8   9
ATOM      9  C   UNL     1      24.380  24.813  23.257  1.00  0.00     0.179 C 
ATOM     10  C   UNL     1      22.320  24.830  24.363  1.00  0.00     0.282 C 
ATOM     11  O   UNL     1      23.672  24.704  24.424  1.00  0.00    -0.341 OA
ATOM     12  C   UNL     1      21.684  25.019  23.047  1.00  0.00     0.202 C 
ATOM     13  C   UNL     1      22.345  24.178  21.987  1.00  0.00     0.179 C 
ATOM     14  C   UNL     1      23.818  24.029  22.126  1.00  0.00     0.177 C 
BRANCH  10  15
ATOM     15  O   UNL     1      21.945  25.769  25.319  1.00  0.00    -0.341 OA
BRANCH  15  16
ATOM     16  C   UNL     1      22.898  26.188  26.185  1.00  0.00     0.184 C 
ATOM     17  C   UNL     1      22.648  25.792  27.624  1.00  0.00     0.178 C 
ATOM     18  O   UNL     1      23.677  26.342  28.416  1.00  0.00    -0.341 OA
ATOM     19  C   UNL     1      23.478  27.718  28.525  1.00  0.00     0.281 C 
ATOM     20  C   UNL     1      22.818  27.727  26.202  1.00  0.00     0.180 C 
ATOM     21  C   UNL     1      23.868  28.273  27.149  1.00  0.00     0.202 C 
BRANCH  17  22
ATOM     22  C   UNL     1      22.683  24.307  27.872  1.00  0.00     0.191 C 
BRANCH  22  23
ATOM     23  O   UNL     1      23.827  23.842  27.178  1.00  0.00    -0.394 OA
ATOM     24  H   UNL     1      24.273  24.593  26.703  1.00  0.00     0.210 HD
ENDBRANCH  22  23
ENDBRANCH  17  22
BRANCH  19  25
ATOM     25  O   UNL     1      24.324  28.252  29.462  1.00  0.00    -0.350 OA
BRANCH  25  26
ATOM     26  C   UNL     1      25.383  27.465  29.836  1.00  0.00     0.169 C 
BRANCH  26  27
ATOM     27  C   UNL     1      25.362  27.007  31.268  1.00  0.00     0.119 C 
BRANCH  27  28
ATOM     28  N   UNL     1      25.736  25.591  31.302  1.00  0.00    -0.092 NA
ATOM     29  N   UNL     1      26.915  25.278  31.220  1.00  0.00     0.001 N 
ATOM     30  N   UNL     1      28.095  25.012  31.373  1.00  0.00    -0.003 NA
ENDBRANCH  27  28
ENDBRANCH  26  27
ENDBRANCH  25  26
ENDBRANCH  19  25
BRANCH  20  31
ATOM     31  O   UNL     1      22.893  28.261  24.945  1.00  0.00    -0.387 OA
ATOM     32  H   UNL     1      23.272  29.159  24.888  1.00  0.00     0.211 HD
ENDBRANCH  20  31
BRANCH  21  33
ATOM     33  O   UNL     1      23.862  29.641  27.118  1.00  0.00    -0.385 OA
ATOM     34  H   UNL     1      23.543  29.981  27.988  1.00  0.00     0.211 HD
ENDBRANCH  21  33
ENDBRANCH  15  16
ENDBRANCH  10  15
BRANCH  12  35
ATOM     35  O   UNL     1      20.363  24.533  23.107  1.00  0.00    -0.385 OA
ATOM     36  H   UNL     1      19.817  25.038  23.739  1.00  0.00     0.211 HD
ENDBRANCH  12  35
BRANCH  13  37
ATOM     37  O   UNL     1      21.991  24.690  20.715  1.00  0.00    -0.387 OA
ATOM     38  H   UNL     1      22.501  24.195  20.052  1.00  0.00     0.211 HD
ENDBRANCH  13  37
BRANCH  14  39
ATOM     39  O   UNL     1      24.542  24.281  20.969  1.00  0.00    -0.387 OA
ATOM     40  H   UNL     1      24.021  23.900  20.210  1.00  0.00     0.211 HD
ENDBRANCH  14  39
ENDBRANCH   8   9
ENDBRANCH   7   8
ENDBRANCH   1   7
BRANCH   1  41
ATOM     41  C   UNL     1      26.314  27.860  21.437  1.00  0.00     0.364 C 
ATOM     42  O   UNL     1      27.104  27.102  20.841  1.00  0.00    -0.246 OA
BRANCH  41  43
ATOM     43  O   UNL     1      26.786  28.772  22.339  1.00  0.00    -0.477 OA
ATOM     44  H   UNL     1      26.429  29.717  22.455  1.00  0.00     0.296 HD
ENDBRANCH  41  43
ENDBRANCH   1  41
BRANCH   3  45
ATOM     45  O   UNL     1      21.916  28.812  22.355  1.00  0.00    -0.391 OA
ATOM     46  H   UNL     1      21.045  28.530  22.013  1.00  0.00     0.211 HD
ENDBRANCH   3  45
BRANCH   5  47
ATOM     47  C   UNL     1      23.498  27.138  18.086  1.00  0.00     0.176 C 
BRANCH  47  48
ATOM     48  O   UNL     1      23.285  25.786  18.371  1.00  0.00    -0.388 OA
ATOM     49  H   UNL     1      23.336  25.191  17.603  1.00  0.00     0.211 HD
ENDBRANCH  47  48
BRANCH  47  50
ATOM     50  C   UNL     1      22.666  27.433  16.880  1.00  0.00     0.165 C 
BRANCH  50  51
ATOM     51  O   UNL     1      21.328  27.208  16.988  1.00  0.00    -0.388 OA
ATOM     52  H   UNL     1      20.820  27.514  16.191  1.00  0.00     0.211 HD
ENDBRANCH  50  51
BRANCH  50  53
ATOM     53  C   UNL     1      23.330  27.036  15.589  1.00  0.00     0.154 C 
BRANCH  53  54
ATOM     54  N   UNL     1      24.285  25.966  15.700  1.00  0.00    -0.319 N 
ATOM     55  C   UNL     1      25.482  25.878  14.949  1.00  0.00     0.407 C 
ATOM     56  H   UNL     1      24.120  25.174  16.377  1.00  0.00     0.167 HD
ATOM     57  O   UNL     1      25.755  26.757  14.126  1.00  0.00    -0.225 OA
BRANCH  55  58
ATOM     58  O   UNL     1      26.374  24.816  15.109  1.00  0.00    -0.443 OA
BRANCH  58  59
ATOM     59  C   UNL     1      26.043  23.590  15.704  1.00  0.00     0.294 C 
BRANCH  59  60
ATOM     60  C   UNL     1      26.430  23.583  17.130  1.00  0.00     0.121 A 
ATOM     61  C   UNL     1      27.184  22.633  17.817  1.00  0.00     0.144 A 
ATOM     62  N   UNL     1      26.141  24.524  18.077  1.00  0.00    -0.131 NA
ATOM     63  N   UNL     1      27.323  23.012  19.101  1.00  0.00    -0.220 N 
ATOM     64  N   UNL     1      26.683  24.154  19.223  1.00  0.00    -0.062 NA
BRANCH  63  65
ATOM     65  C   UNL     1      28.037  22.325  20.135  1.00  0.00     0.067 A 
ATOM     66  C   UNL     1      28.333  20.984  20.097  1.00  0.00     0.035 A 
ATOM     67  C   UNL     1      28.454  23.031  21.255  1.00  0.00     0.035 A 
ATOM     68  C   UNL     1      29.022  20.361  21.137  1.00  0.00     0.088 A 
ATOM     69  C   UNL     1      29.135  22.419  22.285  1.00  0.00     0.088 A 
ATOM     70  C   UNL     1      29.434  21.074  22.249  1.00  0.00     0.269 A 
BRANCH  70  71
ATOM     71  N   UNL     1      30.133  20.427  23.306  1.00  0.00     0.062 N 
ATOM     72  O   UNL     1      30.634  19.294  23.220  1.00  0.00    -0.258 OA
ATOM     73  O   UNL     1      30.259  21.100  24.495  1.00  0.00    -0.258 OA
ENDBRANCH  70  71
ENDBRANCH  63  65
ENDBRANCH  59  60
ENDBRANCH  58  59
ENDBRANCH  55  58
ENDBRANCH  53  54
ENDBRANCH  50  53
ENDBRANCH  47  50
ENDBRANCH   5  47
BRANCH   4  74
ATOM     74  N   UNL     1      21.331  28.996  19.523  1.00  0.00    -0.348 N 
ATOM     75  C   UNL     1      19.965  28.795  19.785  1.00  0.00     0.217 C 
ATOM     76  H   UNL     1      21.630  29.747  18.877  1.00  0.00     0.163 HD
ATOM     77  C   UNL     1      18.974  29.675  19.095  1.00  0.00     0.114 C 
ATOM     78  O   UNL     1      19.555  27.921  20.563  1.00  0.00    -0.275 OA
ENDBRANCH   4  74
TORSDOF 31
