REMARK VINA RESULT:    -5.854     14.390     19.951
REMARK INTER + INTRA:         -22.247
REMARK INTER:                 -14.889
REMARK INTRA:                  -7.359
REMARK UNBOUND:                -7.496
REMARK SMILES CC(=O)N[C@@H]1[C@@H](O)C[C@](OC[C@H]2O[C@@H](O[C@H]3[C@H](O)[C@@H](O)[C@H](OCCN=[N+]=[N-])O[C@@H]3CO)[C@H](O)[C@@H](O)[C@H]2O)(C(=O)O)O[C@H]1C(O)[C@H](O)CNC(=O)OCc1cn(-c2ccccc2C(N)=O)nn1
REMARK SMILES IDX 9 1 8 2 6 3 5 4 42 5 41 6 10 7 11 8 12 9 14 10 13 11 32 12
REMARK SMILES IDX 34 13 36 14 15 15 16 16 29 17 28 18 21 19 17 20 19 21 30 22
REMARK SMILES IDX 31 23 22 25 23 26 24 27 25 28 26 29 27 30 18 31 20 33 33 35
REMARK SMILES IDX 35 37 37 39 38 41 39 42 40 43 7 45 43 47 44 48 45 50 46 51
REMARK SMILES IDX 47 53 48 54 49 55 50 57 51 58 52 59 53 60 54 61 66 62 55 63
REMARK SMILES IDX 65 64 56 65 61 66 57 67 60 68 58 69 59 70 62 71 64 72 63 73
REMARK SMILES IDX 4 76 2 77 1 79 3 80
REMARK H PARENT 31 24 18 32 20 34 33 36 35 38 37 40 40 44 7 46 44 49 46 52
REMARK H PARENT 48 56 63 74 63 75 4 78
REMARK Flexibility Score: inf
ROOT
ATOM      1  C   UNL     1       2.032  23.998  33.218  1.00  0.00     0.272 C 
ATOM      2  C   UNL     1       1.309  22.961  34.123  1.00  0.00     0.113 C 
ATOM      3  C   UNL     1       2.379  22.400  35.016  1.00  0.00     0.145 C 
ATOM      4  C   UNL     1       3.277  21.530  34.230  1.00  0.00     0.142 C 
ATOM      5  C   UNL     1       3.350  22.140  32.819  1.00  0.00     0.178 C 
ATOM      6  O   UNL     1       3.289  23.519  32.886  1.00  0.00    -0.332 OA
ENDROOT
BRANCH   1   7
ATOM      7  O   UNL     1       2.142  25.114  34.026  1.00  0.00    -0.338 OA
BRANCH   7   8
ATOM      8  C   UNL     1       1.767  26.287  33.441  1.00  0.00     0.199 C 
BRANCH   8   9
ATOM      9  C   UNL     1       2.929  27.244  33.243  1.00  0.00     0.179 C 
ATOM     10  C   UNL     1       5.090  27.557  34.056  1.00  0.00     0.282 C 
ATOM     11  O   UNL     1       3.965  26.746  34.029  1.00  0.00    -0.341 OA
ATOM     12  C   UNL     1       5.067  28.719  33.136  1.00  0.00     0.202 C 
ATOM     13  C   UNL     1       4.422  28.483  31.802  1.00  0.00     0.179 C 
ATOM     14  C   UNL     1       3.420  27.321  31.834  1.00  0.00     0.177 C 
BRANCH  10  15
ATOM     15  O   UNL     1       6.177  26.748  33.780  1.00  0.00    -0.341 OA
BRANCH  15  16
ATOM     16  C   UNL     1       6.251  25.629  34.591  1.00  0.00     0.184 C 
ATOM     17  C   UNL     1       6.900  26.035  35.896  1.00  0.00     0.178 C 
ATOM     18  O   UNL     1       8.227  25.774  35.929  1.00  0.00    -0.341 OA
ATOM     19  C   UNL     1       8.541  24.464  35.885  1.00  0.00     0.281 C 
ATOM     20  C   UNL     1       7.150  24.632  33.867  1.00  0.00     0.180 C 
ATOM     21  C   UNL     1       7.840  23.722  34.818  1.00  0.00     0.202 C 
BRANCH  17  22
ATOM     22  C   UNL     1       6.195  25.374  37.048  1.00  0.00     0.191 C 
BRANCH  22  23
ATOM     23  O   UNL     1       4.810  25.345  36.856  1.00  0.00    -0.394 OA
ATOM     24  H   UNL     1       4.675  25.196  35.872  1.00  0.00     0.210 HD
ENDBRANCH  22  23
ENDBRANCH  17  22
BRANCH  19  25
ATOM     25  O   UNL     1       8.484  23.822  37.130  1.00  0.00    -0.350 OA
BRANCH  25  26
ATOM     26  C   UNL     1       9.711  23.619  37.710  1.00  0.00     0.169 C 
BRANCH  26  27
ATOM     27  C   UNL     1      10.274  22.304  37.287  1.00  0.00     0.119 C 
BRANCH  27  28
ATOM     28  N   UNL     1      11.458  22.519  36.493  1.00  0.00    -0.092 NA
ATOM     29  N   UNL     1      12.060  23.600  36.473  1.00  0.00     0.001 N 
ATOM     30  N   UNL     1      12.595  24.673  36.764  1.00  0.00    -0.003 NA
ENDBRANCH  27  28
ENDBRANCH  26  27
ENDBRANCH  25  26
ENDBRANCH  19  25
BRANCH  20  31
ATOM     31  O   UNL     1       6.398  23.875  32.974  1.00  0.00    -0.387 OA
ATOM     32  H   UNL     1       6.822  22.970  32.838  1.00  0.00     0.211 HD
ENDBRANCH  20  31
BRANCH  21  33
ATOM     33  O   UNL     1       8.793  22.979  34.078  1.00  0.00    -0.385 OA
ATOM     34  H   UNL     1       8.885  23.408  33.179  1.00  0.00     0.211 HD
ENDBRANCH  21  33
ENDBRANCH  15  16
ENDBRANCH  10  15
BRANCH  12  35
ATOM     35  O   UNL     1       4.557  29.882  33.752  1.00  0.00    -0.385 OA
ATOM     36  H   UNL     1       4.785  30.634  33.163  1.00  0.00     0.211 HD
ENDBRANCH  12  35
BRANCH  13  37
ATOM     37  O   UNL     1       5.380  28.160  30.840  1.00  0.00    -0.387 OA
ATOM     38  H   UNL     1       5.050  28.354  29.911  1.00  0.00     0.211 HD
ENDBRANCH  13  37
BRANCH  14  39
ATOM     39  O   UNL     1       4.110  26.129  31.547  1.00  0.00    -0.387 OA
ATOM     40  H   UNL     1       3.931  25.773  30.662  1.00  0.00     0.211 HD
ENDBRANCH  14  39
ENDBRANCH   8   9
ENDBRANCH   7   8
ENDBRANCH   1   7
BRANCH   1  41
ATOM     41  C   UNL     1       1.241  24.217  32.005  1.00  0.00     0.364 C 
ATOM     42  O   UNL     1       1.817  24.409  30.880  1.00  0.00    -0.246 OA
BRANCH  41  43
ATOM     43  O   UNL     1      -0.156  24.217  32.066  1.00  0.00    -0.477 OA
ATOM     44  H   UNL     1      -0.644  24.100  31.182  1.00  0.00     0.296 HD
ENDBRANCH  41  43
ENDBRANCH   1  41
BRANCH   3  45
ATOM     45  O   UNL     1       3.158  23.510  35.432  1.00  0.00    -0.391 OA
ATOM     46  H   UNL     1       3.297  23.451  36.413  1.00  0.00     0.211 HD
ENDBRANCH   3  45
BRANCH   5  47
ATOM     47  C   UNL     1       4.533  21.592  32.073  1.00  0.00     0.176 C 
BRANCH  47  48
ATOM     48  O   UNL     1       5.300  20.877  33.013  1.00  0.00    -0.388 OA
ATOM     49  H   UNL     1       5.502  19.968  32.661  1.00  0.00     0.211 HD
ENDBRANCH  47  48
BRANCH  47  50
ATOM     50  C   UNL     1       4.100  20.542  31.046  1.00  0.00     0.165 C 
BRANCH  50  51
ATOM     51  O   UNL     1       5.151  20.350  30.134  1.00  0.00    -0.388 OA
ATOM     52  H   UNL     1       5.223  21.201  29.626  1.00  0.00     0.211 HD
ENDBRANCH  50  51
BRANCH  50  53
ATOM     53  C   UNL     1       2.878  20.951  30.298  1.00  0.00     0.154 C 
BRANCH  53  54
ATOM     54  N   UNL     1       3.161  22.003  29.360  1.00  0.00    -0.319 N 
ATOM     55  C   UNL     1       2.509  22.150  28.110  1.00  0.00     0.407 C 
ATOM     56  H   UNL     1       3.907  22.707  29.631  1.00  0.00     0.167 HD
ATOM     57  O   UNL     1       1.617  21.423  27.671  1.00  0.00    -0.225 OA
BRANCH  55  58
ATOM     58  O   UNL     1       2.888  23.217  27.261  1.00  0.00    -0.443 OA
BRANCH  58  59
ATOM     59  C   UNL     1       2.426  24.539  27.544  1.00  0.00     0.294 C 
BRANCH  59  60
ATOM     60  C   UNL     1       3.548  25.494  27.571  1.00  0.00     0.121 A 
ATOM     61  C   UNL     1       4.241  26.033  26.513  1.00  0.00     0.144 A 
ATOM     62  N   UNL     1       4.116  26.023  28.669  1.00  0.00    -0.131 NA
ATOM     63  N   UNL     1       5.200  26.864  26.978  1.00  0.00    -0.220 N 
ATOM     64  N   UNL     1       5.091  26.832  28.309  1.00  0.00    -0.062 NA
BRANCH  63  65
ATOM     65  C   UNL     1       6.149  27.627  26.253  1.00  0.00     0.079 A 
ATOM     66  C   UNL     1       6.050  28.994  26.276  1.00  0.00     0.065 A 
ATOM     67  C   UNL     1       7.157  27.020  25.532  1.00  0.00     0.029 A 
ATOM     68  C   UNL     1       6.954  29.793  25.582  1.00  0.00     0.016 A 
ATOM     69  C   UNL     1       8.073  27.804  24.828  1.00  0.00     0.002 A 
ATOM     70  C   UNL     1       7.957  29.176  24.864  1.00  0.00     0.001 A 
BRANCH  66  71
ATOM     71  C   UNL     1       4.989  29.624  27.035  1.00  0.00     0.250 C 
ATOM     72  O   UNL     1       3.907  29.892  26.455  1.00  0.00    -0.269 OA
ATOM     73  N   UNL     1       5.091  29.961  28.400  1.00  0.00    -0.366 N 
ATOM     74  H   UNL     1       4.427  29.559  29.080  1.00  0.00     0.159 HD
ATOM     75  H   UNL     1       5.828  30.608  28.714  1.00  0.00     0.159 HD
ENDBRANCH  66  71
ENDBRANCH  63  65
ENDBRANCH  59  60
ENDBRANCH  58  59
ENDBRANCH  55  58
ENDBRANCH  53  54
ENDBRANCH  50  53
ENDBRANCH  47  50
ENDBRANCH   5  47
BRANCH   4  76
ATOM     76  N   UNL     1       2.914  20.175  34.089  1.00  0.00    -0.348 N 
ATOM     77  C   UNL     1       3.096  19.211  35.113  1.00  0.00     0.217 C 
ATOM     78  H   UNL     1       2.488  19.856  33.187  1.00  0.00     0.163 HD
ATOM     79  C   UNL     1       2.728  17.783  35.003  1.00  0.00     0.114 C 
ATOM     80  O   UNL     1       3.616  19.669  36.181  1.00  0.00    -0.275 OA
ENDBRANCH   4  76
TORSDOF 31
