REMARK VINA RESULT:    -6.150      3.548      9.730
REMARK INTER + INTRA:         -26.081
REMARK INTER:                 -18.310
REMARK INTRA:                  -7.771
REMARK UNBOUND:                -7.166
REMARK SMILES CC(=O)N[C@@H]1[C@@H](O)C[C@](OC[C@H]2O[C@@H](O[C@H]3[C@H](O)[C@@H](O)[C@H](OCCN=[N+]=[N-])O[C@@H]3CO)[C@H](O)[C@@H](O)[C@H]2O)(C(=O)O)O[C@H]1C(O)[C@H](O)CNC(=O)OCc1cn(CCCCCCCCCCC(=O)O)nn1
REMARK SMILES IDX 51 1 49 2 48 3 50 5 47 6 45 7 43 8 42 9 9 10 8 11 41 12 6 13
REMARK SMILES IDX 5 14 10 15 11 16 12 17 14 18 13 19 32 20 34 21 36 22 15 23
REMARK SMILES IDX 16 24 29 25 28 26 21 27 17 28 19 29 30 30 31 31 22 33 23 34
REMARK SMILES IDX 24 35 25 36 26 37 27 38 18 39 20 41 33 43 35 45 37 47 38 49
REMARK SMILES IDX 39 50 40 51 7 53 4 55 2 56 1 58 3 59 44 60 46 62 52 64 53 65
REMARK SMILES IDX 54 66 70 67 55 68 69 69 56 70 57 71 58 72 59 73 60 74 61 75
REMARK SMILES IDX 62 76 63 77 64 78 65 79 66 80 67 81 68 82
REMARK H PARENT 48 4 31 32 18 40 20 42 33 44 35 46 37 48 40 52 7 54 4 57 44 61
REMARK H PARENT 46 63 68 83
REMARK Flexibility Score: inf
ROOT
ATOM      1  O   UNL     1      18.651  29.935  24.064  1.00  0.00    -0.443 OA
ENDROOT
BRANCH   1   2
ATOM      2  C   UNL     1      20.020  29.603  24.170  1.00  0.00     0.407 C 
ATOM      3  N   UNL     1      20.989  30.248  23.360  1.00  0.00    -0.319 N 
ATOM      4  H   UNL     1      20.662  30.975  22.670  1.00  0.00     0.167 HD
ATOM      5  O   UNL     1      20.412  28.736  24.983  1.00  0.00    -0.225 OA
BRANCH   3   6
ATOM      6  C   UNL     1      22.386  29.949  23.442  1.00  0.00     0.154 C 
BRANCH   6   7
ATOM      7  C   UNL     1      22.824  28.753  22.604  1.00  0.00     0.165 C 
BRANCH   7   8
ATOM      8  C   UNL     1      23.505  27.820  23.544  1.00  0.00     0.176 C 
BRANCH   8   9
ATOM      9  C   UNL     1      23.328  26.346  23.262  1.00  0.00     0.178 C 
ATOM     10  C   UNL     1      23.397  24.861  21.473  1.00  0.00     0.272 C 
ATOM     11  C   UNL     1      22.269  24.121  22.160  1.00  0.00     0.113 C 
ATOM     12  O   UNL     1      23.353  26.173  21.906  1.00  0.00    -0.332 OA
ATOM     13  C   UNL     1      21.346  25.008  22.931  1.00  0.00     0.145 C 
ATOM     14  C   UNL     1      22.151  25.755  23.973  1.00  0.00     0.142 C 
BRANCH  10  15
ATOM     15  O   UNL     1      23.251  24.803  20.077  1.00  0.00    -0.338 OA
BRANCH  15  16
ATOM     16  C   UNL     1      23.132  25.984  19.427  1.00  0.00     0.199 C 
BRANCH  16  17
ATOM     17  C   UNL     1      22.669  25.645  17.994  1.00  0.00     0.179 C 
ATOM     18  C   UNL     1      22.377  27.686  16.833  1.00  0.00     0.282 C 
ATOM     19  O   UNL     1      21.886  26.585  17.450  1.00  0.00    -0.341 OA
ATOM     20  C   UNL     1      23.816  27.601  16.493  1.00  0.00     0.202 C 
ATOM     21  C   UNL     1      24.134  26.179  16.048  1.00  0.00     0.179 C 
ATOM     22  C   UNL     1      23.849  25.195  17.164  1.00  0.00     0.177 C 
BRANCH  18  23
ATOM     23  O   UNL     1      22.050  28.792  17.659  1.00  0.00    -0.341 OA
BRANCH  23  24
ATOM     24  C   UNL     1      20.865  29.331  17.176  1.00  0.00     0.184 C 
ATOM     25  C   UNL     1      20.937  30.768  16.776  1.00  0.00     0.178 C 
ATOM     26  O   UNL     1      19.695  31.251  16.483  1.00  0.00    -0.341 OA
ATOM     27  C   UNL     1      18.633  30.432  16.396  1.00  0.00     0.281 C 
ATOM     28  C   UNL     1      19.780  29.245  18.263  1.00  0.00     0.180 C 
ATOM     29  C   UNL     1      18.465  29.478  17.555  1.00  0.00     0.202 C 
BRANCH  25  30
ATOM     30  C   UNL     1      21.877  31.029  15.614  1.00  0.00     0.191 C 
BRANCH  30  31
ATOM     31  O   UNL     1      23.199  31.082  15.972  1.00  0.00    -0.394 OA
ATOM     32  H   UNL     1      23.341  30.470  16.741  1.00  0.00     0.210 HD
ENDBRANCH  30  31
ENDBRANCH  25  30
BRANCH  27  33
ATOM     33  O   UNL     1      18.697  29.683  15.228  1.00  0.00    -0.350 OA
BRANCH  33  34
ATOM     34  C   UNL     1      17.603  28.829  15.090  1.00  0.00     0.169 C 
BRANCH  34  35
ATOM     35  C   UNL     1      17.011  28.889  13.710  1.00  0.00     0.119 C 
BRANCH  35  36
ATOM     36  N   UNL     1      15.760  29.648  13.772  1.00  0.00    -0.092 NA
ATOM     37  N   UNL     1      14.665  29.062  13.919  1.00  0.00     0.001 N 
ATOM     38  N   UNL     1      13.740  28.231  14.050  1.00  0.00    -0.003 NA
ENDBRANCH  35  36
ENDBRANCH  34  35
ENDBRANCH  33  34
ENDBRANCH  27  33
BRANCH  28  39
ATOM     39  O   UNL     1      19.760  28.020  18.896  1.00  0.00    -0.387 OA
ATOM     40  H   UNL     1      19.213  28.009  19.720  1.00  0.00     0.211 HD
ENDBRANCH  28  39
BRANCH  29  41
ATOM     41  O   UNL     1      17.602  30.075  18.468  1.00  0.00    -0.385 OA
ATOM     42  H   UNL     1      16.765  29.515  18.497  1.00  0.00     0.211 HD
ENDBRANCH  29  41
ENDBRANCH  23  24
ENDBRANCH  18  23
BRANCH  20  43
ATOM     43  O   UNL     1      24.162  28.403  15.397  1.00  0.00    -0.385 OA
ATOM     44  H   UNL     1      23.420  28.284  14.733  1.00  0.00     0.211 HD
ENDBRANCH  20  43
BRANCH  21  45
ATOM     45  O   UNL     1      25.469  26.071  15.662  1.00  0.00    -0.387 OA
ATOM     46  H   UNL     1      25.480  25.499  14.853  1.00  0.00     0.211 HD
ENDBRANCH  21  45
BRANCH  22  47
ATOM     47  O   UNL     1      24.976  25.104  17.943  1.00  0.00    -0.387 OA
ATOM     48  H   UNL     1      25.458  24.271  17.704  1.00  0.00     0.211 HD
ENDBRANCH  22  47
ENDBRANCH  16  17
ENDBRANCH  15  16
ENDBRANCH  10  15
BRANCH  10  49
ATOM     49  C   UNL     1      24.702  24.250  21.740  1.00  0.00     0.364 C 
ATOM     50  O   UNL     1      25.626  24.244  20.910  1.00  0.00    -0.246 OA
BRANCH  49  51
ATOM     51  O   UNL     1      24.957  23.641  22.957  1.00  0.00    -0.477 OA
ATOM     52  H   UNL     1      24.226  23.491  23.657  1.00  0.00     0.296 HD
ENDBRANCH  49  51
ENDBRANCH  10  49
BRANCH  13  53
ATOM     53  O   UNL     1      20.551  25.843  22.176  1.00  0.00    -0.391 OA
ATOM     54  H   UNL     1      20.026  25.370  21.469  1.00  0.00     0.211 HD
ENDBRANCH  13  53
BRANCH  14  55
ATOM     55  N   UNL     1      22.469  24.831  25.011  1.00  0.00    -0.348 N 
ATOM     56  C   UNL     1      22.469  25.150  26.399  1.00  0.00     0.217 C 
ATOM     57  H   UNL     1      22.726  23.841  24.780  1.00  0.00     0.163 HD
ATOM     58  C   UNL     1      22.809  24.138  27.415  1.00  0.00     0.114 C 
ATOM     59  O   UNL     1      22.171  26.313  26.725  1.00  0.00    -0.275 OA
ENDBRANCH  14  55
ENDBRANCH   8   9
BRANCH   8  60
ATOM     60  O   UNL     1      23.216  28.191  24.829  1.00  0.00    -0.388 OA
ATOM     61  H   UNL     1      23.858  28.786  25.247  1.00  0.00     0.211 HD
ENDBRANCH   8  60
ENDBRANCH   7   8
BRANCH   7  62
ATOM     62  O   UNL     1      23.632  29.246  21.586  1.00  0.00    -0.388 OA
ATOM     63  H   UNL     1      23.329  28.951  20.693  1.00  0.00     0.211 HD
ENDBRANCH   7  62
ENDBRANCH   6   7
ENDBRANCH   3   6
ENDBRANCH   1   2
BRANCH   1  64
ATOM     64  C   UNL     1      18.281  30.760  22.951  1.00  0.00     0.294 C 
BRANCH  64  65
ATOM     65  C   UNL     1      17.354  29.970  22.114  1.00  0.00     0.120 A 
ATOM     66  C   UNL     1      15.974  30.049  22.168  1.00  0.00     0.138 A 
ATOM     67  N   UNL     1      17.656  29.067  21.171  1.00  0.00    -0.132 NA
ATOM     68  N   UNL     1      15.508  29.183  21.248  1.00  0.00    -0.252 N 
ATOM     69  N   UNL     1      16.560  28.592  20.649  1.00  0.00    -0.067 NA
BRANCH  68  70
ATOM     70  C   UNL     1      14.153  28.885  20.901  1.00  0.00     0.146 C 
BRANCH  70  71
ATOM     71  C   UNL     1      13.130  29.855  21.378  1.00  0.00     0.024 C 
BRANCH  71  72
ATOM     72  C   UNL     1      12.471  29.535  22.673  1.00  0.00     0.002 C 
BRANCH  72  73
ATOM     73  C   UNL     1      12.198  30.694  23.566  1.00  0.00     0.000 C 
BRANCH  73  74
ATOM     74  C   UNL     1      10.898  31.388  23.346  1.00  0.00     0.000 C 
BRANCH  74  75
ATOM     75  C   UNL     1       9.825  30.764  24.196  1.00  0.00     0.000 C 
BRANCH  75  76
ATOM     76  C   UNL     1       8.426  31.067  23.705  1.00  0.00     0.000 C 
BRANCH  76  77
ATOM     77  C   UNL     1       7.462  29.949  23.931  1.00  0.00     0.001 C 
BRANCH  77  78
ATOM     78  C   UNL     1       7.772  29.082  25.113  1.00  0.00     0.012 C 
BRANCH  78  79
ATOM     79  C   UNL     1       8.011  27.666  24.615  1.00  0.00     0.122 C 
BRANCH  79  80
ATOM     80  C   UNL     1       9.217  27.128  25.265  1.00  0.00     0.303 C 
ATOM     81  O   UNL     1       9.124  26.370  26.253  1.00  0.00    -0.252 OA
BRANCH  80  82
ATOM     82  O   UNL     1      10.489  27.444  24.807  1.00  0.00    -0.481 OA
ATOM     83  H   UNL     1      11.043  28.171  25.222  1.00  0.00     0.296 HD
ENDBRANCH  80  82
ENDBRANCH  79  80
ENDBRANCH  78  79
ENDBRANCH  77  78
ENDBRANCH  76  77
ENDBRANCH  75  76
ENDBRANCH  74  75
ENDBRANCH  73  74
ENDBRANCH  72  73
ENDBRANCH  71  72
ENDBRANCH  70  71
ENDBRANCH  68  70
ENDBRANCH  64  65
ENDBRANCH   1  64
TORSDOF 41
