REMARK VINA RESULT:    -5.793      8.611     13.803
REMARK INTER + INTRA:         -23.661
REMARK INTER:                 -15.415
REMARK INTRA:                  -8.246
REMARK UNBOUND:                -7.877
REMARK SMILES CC(=O)N[C@@H]1[C@@H](O)C[C@](OC[C@H]2O[C@@H](O[C@H]3[C@H](O)[C@@H](O)[C@H](OCCN=[N+]=[N-])O[C@@H]3CO)[C@H](O)[C@@H](O)[C@H]2O)(C(=O)O)O[C@H]1C(O)[C@H](O)CNC(=O)OCc1cn(CC(O)CCc2ccccc2)nn1
REMARK SMILES IDX 43 1 42 2 9 3 8 4 41 5 6 6 5 7 10 8 11 9 12 10 14 11 13 12
REMARK SMILES IDX 32 13 34 14 36 15 15 16 16 17 29 18 28 19 21 20 17 21 19 22
REMARK SMILES IDX 30 23 31 24 22 26 23 27 24 28 25 29 26 30 27 31 18 32 20 34
REMARK SMILES IDX 33 36 35 38 37 40 38 42 39 43 40 44 7 46 4 48 2 49 1 51 3 52
REMARK SMILES IDX 44 53 45 55 46 56 47 58 48 59 49 60 50 62 51 63 52 64 53 65
REMARK SMILES IDX 54 66 68 67 55 68 67 69 56 70 57 71 58 72 59 74 60 75 61 76
REMARK SMILES IDX 62 77 66 78 63 79 65 80 64 81
REMARK H PARENT 31 25 18 33 20 35 33 37 35 39 37 41 40 45 7 47 4 50 44 54
REMARK H PARENT 46 57 48 61 58 73
REMARK Flexibility Score: inf
ROOT
ATOM      1  C   UNL     1      21.678  32.004  23.109  1.00  0.00     0.176 C 
ENDROOT
BRANCH   1   2
ATOM      2  C   UNL     1      22.330  30.760  22.476  1.00  0.00     0.178 C 
ATOM      3  C   UNL     1      21.352  29.280  20.902  1.00  0.00     0.272 C 
ATOM      4  C   UNL     1      20.754  28.565  22.069  1.00  0.00     0.113 C 
ATOM      5  O   UNL     1      21.754  30.528  21.296  1.00  0.00    -0.332 OA
ATOM      6  C   UNL     1      21.735  28.425  23.177  1.00  0.00     0.145 C 
ATOM      7  C   UNL     1      22.434  29.708  23.514  1.00  0.00     0.142 C 
BRANCH   3   8
ATOM      8  O   UNL     1      20.437  29.339  19.832  1.00  0.00    -0.338 OA
BRANCH   8   9
ATOM      9  C   UNL     1      19.243  29.913  20.084  1.00  0.00     0.199 C 
BRANCH   9  10
ATOM     10  C   UNL     1      18.078  28.935  19.801  1.00  0.00     0.179 C 
ATOM     11  C   UNL     1      15.983  28.300  20.395  1.00  0.00     0.282 C 
ATOM     12  O   UNL     1      17.105  29.012  20.731  1.00  0.00    -0.341 OA
ATOM     13  C   UNL     1      15.463  28.971  19.093  1.00  0.00     0.202 C 
ATOM     14  C   UNL     1      16.429  28.419  18.040  1.00  0.00     0.179 C 
ATOM     15  C   UNL     1      17.741  29.081  18.362  1.00  0.00     0.177 C 
BRANCH  11  16
ATOM     16  O   UNL     1      15.016  28.427  21.328  1.00  0.00    -0.341 OA
BRANCH  16  17
ATOM     17  C   UNL     1      14.923  29.589  22.057  1.00  0.00     0.184 C 
ATOM     18  C   UNL     1      15.399  29.454  23.465  1.00  0.00     0.178 C 
ATOM     19  O   UNL     1      14.526  29.782  24.454  1.00  0.00    -0.341 OA
ATOM     20  C   UNL     1      13.604  30.755  24.208  1.00  0.00     0.281 C 
ATOM     21  C   UNL     1      13.530  30.116  21.871  1.00  0.00     0.180 C 
ATOM     22  C   UNL     1      12.706  30.264  23.099  1.00  0.00     0.202 C 
BRANCH  18  23
ATOM     23  C   UNL     1      16.642  30.296  23.654  1.00  0.00     0.191 C 
BRANCH  23  24
ATOM     24  O   UNL     1      17.797  29.518  23.613  1.00  0.00    -0.394 OA
ATOM     25  H   UNL     1      18.055  29.362  24.570  1.00  0.00     0.210 HD
ENDBRANCH  23  24
ENDBRANCH  18  23
BRANCH  20  26
ATOM     26  O   UNL     1      14.150  32.000  23.941  1.00  0.00    -0.350 OA
BRANCH  26  27
ATOM     27  C   UNL     1      14.144  32.772  25.105  1.00  0.00     0.169 C 
BRANCH  27  28
ATOM     28  C   UNL     1      15.459  33.549  25.123  1.00  0.00     0.119 C 
BRANCH  28  29
ATOM     29  N   UNL     1      16.177  33.333  26.349  1.00  0.00    -0.092 NA
ATOM     30  N   UNL     1      16.517  32.172  26.659  1.00  0.00     0.001 N 
ATOM     31  N   UNL     1      16.594  31.007  27.092  1.00  0.00    -0.003 NA
ENDBRANCH  28  29
ENDBRANCH  27  28
ENDBRANCH  26  27
ENDBRANCH  20  26
BRANCH  21  32
ATOM     32  O   UNL     1      13.546  31.399  21.260  1.00  0.00    -0.387 OA
ATOM     33  H   UNL     1      12.802  31.964  21.570  1.00  0.00     0.211 HD
ENDBRANCH  21  32
BRANCH  22  34
ATOM     34  O   UNL     1      12.176  29.033  23.498  1.00  0.00    -0.385 OA
ATOM     35  H   UNL     1      12.109  28.398  22.756  1.00  0.00     0.211 HD
ENDBRANCH  22  34
ENDBRANCH  16  17
ENDBRANCH  11  16
BRANCH  13  36
ATOM     36  O   UNL     1      14.159  28.713  18.829  1.00  0.00    -0.385 OA
ATOM     37  H   UNL     1      13.729  27.990  19.315  1.00  0.00     0.211 HD
ENDBRANCH  13  36
BRANCH  14  38
ATOM     38  O   UNL     1      15.989  28.714  16.753  1.00  0.00    -0.387 OA
ATOM     39  H   UNL     1      16.122  29.668  16.555  1.00  0.00     0.211 HD
ENDBRANCH  14  38
BRANCH  15  40
ATOM     40  O   UNL     1      17.588  30.433  18.040  1.00  0.00    -0.387 OA
ATOM     41  H   UNL     1      17.448  30.980  18.848  1.00  0.00     0.211 HD
ENDBRANCH  15  40
ENDBRANCH   9  10
ENDBRANCH   8   9
ENDBRANCH   3   8
BRANCH   3  42
ATOM     42  C   UNL     1      22.463  28.464  20.355  1.00  0.00     0.364 C 
ATOM     43  O   UNL     1      22.201  27.330  19.862  1.00  0.00    -0.246 OA
BRANCH  42  44
ATOM     44  O   UNL     1      23.768  28.872  20.351  1.00  0.00    -0.477 OA
ATOM     45  H   UNL     1      24.068  29.585  19.703  1.00  0.00     0.296 HD
ENDBRANCH  42  44
ENDBRANCH   3  42
BRANCH   6  46
ATOM     46  O   UNL     1      20.993  27.930  24.285  1.00  0.00    -0.391 OA
ATOM     47  H   UNL     1      20.907  28.598  24.995  1.00  0.00     0.211 HD
ENDBRANCH   6  46
BRANCH   7  48
ATOM     48  N   UNL     1      23.788  29.512  23.966  1.00  0.00    -0.348 N 
ATOM     49  C   UNL     1      24.131  29.121  25.289  1.00  0.00     0.217 C 
ATOM     50  H   UNL     1      24.605  29.666  23.302  1.00  0.00     0.163 HD
ATOM     51  C   UNL     1      25.559  28.948  25.629  1.00  0.00     0.114 C 
ATOM     52  O   UNL     1      23.255  28.927  26.139  1.00  0.00    -0.275 OA
ENDBRANCH   7  48
ENDBRANCH   1   2
BRANCH   1  53
ATOM     53  O   UNL     1      22.533  32.564  24.037  1.00  0.00    -0.388 OA
ATOM     54  H   UNL     1      23.349  32.028  24.186  1.00  0.00     0.211 HD
ENDBRANCH   1  53
BRANCH   1  55
ATOM     55  C   UNL     1      20.271  31.824  23.538  1.00  0.00     0.165 C 
BRANCH  55  56
ATOM     56  O   UNL     1      19.420  32.090  22.494  1.00  0.00    -0.388 OA
ATOM     57  H   UNL     1      19.464  31.430  21.774  1.00  0.00     0.211 HD
ENDBRANCH  55  56
BRANCH  55  58
ATOM     58  C   UNL     1      20.030  32.762  24.698  1.00  0.00     0.154 C 
BRANCH  58  59
ATOM     59  N   UNL     1      20.412  32.305  25.980  1.00  0.00    -0.319 N 
ATOM     60  C   UNL     1      20.226  31.010  26.533  1.00  0.00     0.407 C 
ATOM     61  H   UNL     1      20.910  32.980  26.659  1.00  0.00     0.167 HD
ATOM     62  O   UNL     1      19.687  30.118  25.867  1.00  0.00    -0.225 OA
BRANCH  60  63
ATOM     63  O   UNL     1      20.641  30.718  27.823  1.00  0.00    -0.443 OA
BRANCH  63  64
ATOM     64  C   UNL     1      20.193  29.707  28.648  1.00  0.00     0.294 C 
BRANCH  64  65
ATOM     65  C   UNL     1      21.162  28.669  29.029  1.00  0.00     0.120 A 
ATOM     66  C   UNL     1      21.221  27.361  28.561  1.00  0.00     0.138 A 
ATOM     67  N   UNL     1      22.152  28.795  29.937  1.00  0.00    -0.132 NA
ATOM     68  N   UNL     1      22.227  26.774  29.203  1.00  0.00    -0.250 N 
ATOM     69  N   UNL     1      22.776  27.639  30.019  1.00  0.00    -0.067 NA
BRANCH  68  70
ATOM     70  C   UNL     1      22.603  25.351  28.995  1.00  0.00     0.177 C 
BRANCH  70  71
ATOM     71  C   UNL     1      23.768  25.359  28.064  1.00  0.00     0.136 C 
BRANCH  71  72
ATOM     72  O   UNL     1      24.252  26.660  27.846  1.00  0.00    -0.391 OA
ATOM     73  H   UNL     1      25.102  26.821  28.308  1.00  0.00     0.211 HD
ENDBRANCH  71  72
BRANCH  71  74
ATOM     74  C   UNL     1      23.556  24.657  26.781  1.00  0.00     0.038 C 
BRANCH  74  75
ATOM     75  C   UNL     1      22.285  24.702  26.067  1.00  0.00     0.038 C 
BRANCH  75  76
ATOM     76  C   UNL     1      22.255  24.622  24.622  1.00  0.00    -0.048 A 
ATOM     77  C   UNL     1      23.434  24.622  23.882  1.00  0.00     0.004 A 
ATOM     78  C   UNL     1      21.053  24.622  23.914  1.00  0.00     0.004 A 
ATOM     79  C   UNL     1      23.401  24.621  22.518  1.00  0.00     0.000 A 
ATOM     80  C   UNL     1      21.055  24.621  22.540  1.00  0.00     0.000 A 
ATOM     81  C   UNL     1      22.230  24.622  21.801  1.00  0.00     0.000 A 
ENDBRANCH  75  76
ENDBRANCH  74  75
ENDBRANCH  71  74
ENDBRANCH  70  71
ENDBRANCH  68  70
ENDBRANCH  64  65
ENDBRANCH  63  64
ENDBRANCH  60  63
ENDBRANCH  58  59
ENDBRANCH  55  58
ENDBRANCH   1  55
TORSDOF 35
