REMARK VINA RESULT:    -5.290      5.342     11.770
REMARK INTER + INTRA:         -20.620
REMARK INTER:                 -15.296
REMARK INTRA:                  -5.324
REMARK UNBOUND:                -7.600
REMARK SMILES CC(=O)N[C@@H]1[C@@H](O)C[C@](OC[C@H]2O[C@@H](O[C@H]3[C@H](O)[C@@H](O)[C@H](OCCN=[N+]=[N-])O[C@@H]3CO)[C@H](O)[C@@H](O)[C@H]2O)(C(=O)O)O[C@H]1C(O)[C@H](O)CNC(=O)OCc1cn(-c2ccc(Cl)cc2)nn1
REMARK SMILES IDX 9 1 8 2 6 3 5 4 42 5 41 6 10 7 11 8 12 9 14 10 13 11 32 12
REMARK SMILES IDX 34 13 36 14 15 15 16 16 29 17 28 18 21 19 17 20 19 21 30 22
REMARK SMILES IDX 31 23 22 25 23 26 24 27 25 28 26 29 27 30 18 31 20 33 33 35
REMARK SMILES IDX 35 37 37 39 38 41 39 42 40 43 7 45 43 47 44 48 45 50 46 51
REMARK SMILES IDX 47 53 48 54 49 55 50 57 51 58 52 59 53 60 54 61 64 62 55 63
REMARK SMILES IDX 63 64 56 65 57 66 62 67 58 68 61 69 59 70 60 71 4 72 2 73
REMARK SMILES IDX 1 75 3 76
REMARK H PARENT 31 24 18 32 20 34 33 36 35 38 37 40 40 44 7 46 44 49 46 52
REMARK H PARENT 48 56 4 74
REMARK Flexibility Score: inf
ROOT
ATOM      1  C   UNL     1      15.123  29.470  19.962  1.00  0.00     0.272 C 
ATOM      2  C   UNL     1      14.087  28.720  20.692  1.00  0.00     0.113 C 
ATOM      3  C   UNL     1      13.974  28.861  22.155  1.00  0.00     0.145 C 
ATOM      4  C   UNL     1      14.884  29.964  22.649  1.00  0.00     0.142 C 
ATOM      5  C   UNL     1      16.230  29.705  21.937  1.00  0.00     0.178 C 
ATOM      6  O   UNL     1      15.961  30.296  20.665  1.00  0.00    -0.332 OA
ENDROOT
BRANCH   1   7
ATOM      7  O   UNL     1      14.456  30.245  18.972  1.00  0.00    -0.338 OA
BRANCH   7   8
ATOM      8  C   UNL     1      14.165  31.517  19.382  1.00  0.00     0.199 C 
BRANCH   8   9
ATOM      9  C   UNL     1      12.665  31.797  19.343  1.00  0.00     0.179 C 
ATOM     10  C   UNL     1      11.415  33.558  20.276  1.00  0.00     0.282 C 
ATOM     11  O   UNL     1      12.233  32.442  20.457  1.00  0.00    -0.341 OA
ATOM     12  C   UNL     1      12.159  34.549  19.482  1.00  0.00     0.202 C 
ATOM     13  C   UNL     1      12.493  33.958  18.119  1.00  0.00     0.179 C 
ATOM     14  C   UNL     1      12.263  32.481  18.056  1.00  0.00     0.177 C 
BRANCH  10  15
ATOM     15  O   UNL     1      11.069  33.916  21.578  1.00  0.00    -0.341 OA
BRANCH  15  16
ATOM     16  C   UNL     1      10.072  33.254  22.155  1.00  0.00     0.184 C 
ATOM     17  C   UNL     1       8.909  34.102  22.530  1.00  0.00     0.178 C 
ATOM     18  O   UNL     1       7.795  33.324  22.832  1.00  0.00    -0.341 OA
ATOM     19  C   UNL     1       7.951  32.446  23.855  1.00  0.00     0.281 C 
ATOM     20  C   UNL     1      10.462  32.499  23.443  1.00  0.00     0.180 C 
ATOM     21  C   UNL     1       9.330  32.451  24.405  1.00  0.00     0.202 C 
BRANCH  17  22
ATOM     22  C   UNL     1       8.501  35.164  21.558  1.00  0.00     0.191 C 
BRANCH  22  23
ATOM     23  O   UNL     1       9.424  36.207  21.494  1.00  0.00    -0.394 OA
ATOM     24  H   UNL     1       9.317  36.681  20.636  1.00  0.00     0.210 HD
ENDBRANCH  22  23
ENDBRANCH  17  22
BRANCH  19  25
ATOM     25  O   UNL     1       7.667  31.144  23.424  1.00  0.00    -0.350 OA
BRANCH  25  26
ATOM     26  C   UNL     1       6.888  30.460  24.344  1.00  0.00     0.169 C 
BRANCH  26  27
ATOM     27  C   UNL     1       7.599  29.323  25.014  1.00  0.00     0.119 C 
BRANCH  27  28
ATOM     28  N   UNL     1       6.924  28.095  24.600  1.00  0.00    -0.092 NA
ATOM     29  N   UNL     1       7.673  27.130  24.364  1.00  0.00     0.001 N 
ATOM     30  N   UNL     1       8.333  26.074  24.464  1.00  0.00    -0.003 NA
ENDBRANCH  27  28
ENDBRANCH  26  27
ENDBRANCH  25  26
ENDBRANCH  19  25
BRANCH  20  31
ATOM     31  O   UNL     1      10.802  31.214  23.056  1.00  0.00    -0.387 OA
ATOM     32  H   UNL     1      11.121  30.744  23.891  1.00  0.00     0.211 HD
ENDBRANCH  20  31
BRANCH  21  33
ATOM     33  O   UNL     1       9.433  33.437  25.408  1.00  0.00    -0.385 OA
ATOM     34  H   UNL     1       9.775  34.235  24.949  1.00  0.00     0.211 HD
ENDBRANCH  21  33
ENDBRANCH  15  16
ENDBRANCH  10  15
BRANCH  12  35
ATOM     35  O   UNL     1      11.505  35.764  19.271  1.00  0.00    -0.385 OA
ATOM     36  H   UNL     1      12.112  36.546  19.480  1.00  0.00     0.211 HD
ENDBRANCH  12  35
BRANCH  13  37
ATOM     37  O   UNL     1      13.793  34.335  17.791  1.00  0.00    -0.387 OA
ATOM     38  H   UNL     1      13.870  34.891  17.001  1.00  0.00     0.211 HD
ENDBRANCH  13  37
BRANCH  14  39
ATOM     39  O   UNL     1      13.098  31.916  17.061  1.00  0.00    -0.387 OA
ATOM     40  H   UNL     1      13.687  32.628  16.756  1.00  0.00     0.211 HD
ENDBRANCH  14  39
ENDBRANCH   8   9
ENDBRANCH   7   8
ENDBRANCH   1   7
BRANCH   1  41
ATOM     41  C   UNL     1      15.966  28.491  19.185  1.00  0.00     0.364 C 
ATOM     42  O   UNL     1      16.329  28.719  18.010  1.00  0.00    -0.246 OA
BRANCH  41  43
ATOM     43  O   UNL     1      16.349  27.316  19.782  1.00  0.00    -0.477 OA
ATOM     44  H   UNL     1      16.802  26.550  19.287  1.00  0.00     0.296 HD
ENDBRANCH  41  43
ENDBRANCH   1  41
BRANCH   3  45
ATOM     45  O   UNL     1      12.677  29.212  22.532  1.00  0.00    -0.391 OA
ATOM     46  H   UNL     1      12.223  29.579  21.750  1.00  0.00     0.211 HD
ENDBRANCH   3  45
BRANCH   5  47
ATOM     47  C   UNL     1      17.369  30.429  22.559  1.00  0.00     0.176 C 
BRANCH  47  48
ATOM     48  O   UNL     1      17.944  29.589  23.502  1.00  0.00    -0.388 OA
ATOM     49  H   UNL     1      18.773  29.144  23.201  1.00  0.00     0.211 HD
ENDBRANCH  47  48
BRANCH  47  50
ATOM     50  C   UNL     1      18.384  31.064  21.708  1.00  0.00     0.165 C 
BRANCH  50  51
ATOM     51  O   UNL     1      17.743  32.250  21.193  1.00  0.00    -0.388 OA
ATOM     52  H   UNL     1      18.415  32.957  21.054  1.00  0.00     0.211 HD
ENDBRANCH  50  51
BRANCH  50  53
ATOM     53  C   UNL     1      18.676  30.288  20.432  1.00  0.00     0.154 C 
BRANCH  53  54
ATOM     54  N   UNL     1      19.480  29.113  20.626  1.00  0.00    -0.319 N 
ATOM     55  C   UNL     1      19.980  28.431  19.487  1.00  0.00     0.407 C 
ATOM     56  H   UNL     1      19.718  28.727  21.570  1.00  0.00     0.167 HD
ATOM     57  O   UNL     1      19.724  28.819  18.307  1.00  0.00    -0.225 OA
BRANCH  55  58
ATOM     58  O   UNL     1      20.772  27.307  19.626  1.00  0.00    -0.443 OA
BRANCH  58  59
ATOM     59  C   UNL     1      21.901  27.277  20.502  1.00  0.00     0.294 C 
BRANCH  59  60
ATOM     60  C   UNL     1      21.590  26.466  21.715  1.00  0.00     0.121 A 
ATOM     61  C   UNL     1      22.064  26.726  22.994  1.00  0.00     0.144 A 
ATOM     62  N   UNL     1      20.823  25.371  21.803  1.00  0.00    -0.131 NA
ATOM     63  N   UNL     1      21.572  25.786  23.812  1.00  0.00    -0.220 N 
ATOM     64  N   UNL     1      20.841  24.997  23.079  1.00  0.00    -0.062 NA
BRANCH  63  65
ATOM     65  C   UNL     1      21.863  25.754  25.211  1.00  0.00     0.066 A 
ATOM     66  C   UNL     1      22.483  24.673  25.785  1.00  0.00     0.030 A 
ATOM     67  C   UNL     1      21.526  26.810  26.012  1.00  0.00     0.030 A 
ATOM     68  C   UNL     1      22.780  24.612  27.149  1.00  0.00     0.023 A 
ATOM     69  C   UNL     1      21.809  26.776  27.370  1.00  0.00     0.023 A 
ATOM     70  C   UNL     1      22.439  25.672  27.946  1.00  0.00     0.041 A 
ATOM     71  Cl  UNL     1      22.793  25.642  29.675  1.00  0.00    -0.084 Cl
ENDBRANCH  63  65
ENDBRANCH  59  60
ENDBRANCH  58  59
ENDBRANCH  55  58
ENDBRANCH  53  54
ENDBRANCH  50  53
ENDBRANCH  47  50
ENDBRANCH   5  47
BRANCH   4  72
ATOM     72  N   UNL     1      14.955  29.990  24.061  1.00  0.00    -0.348 N 
ATOM     73  C   UNL     1      14.243  31.005  24.792  1.00  0.00     0.217 C 
ATOM     74  H   UNL     1      15.478  29.315  24.642  1.00  0.00     0.163 HD
ATOM     75  C   UNL     1      14.296  31.060  26.281  1.00  0.00     0.114 C 
ATOM     76  O   UNL     1      13.572  31.847  24.141  1.00  0.00    -0.275 OA
ENDBRANCH   4  72
TORSDOF 30
