REMARK VINA RESULT:    -6.221      4.034      6.020
REMARK INTER + INTRA:         -22.700
REMARK INTER:                 -16.381
REMARK INTRA:                  -6.320
REMARK UNBOUND:                -7.387
REMARK SMILES CC(=O)N[C@@H]1[C@@H](O)C[C@](OC[C@H]2O[C@@H](O[C@H]3[C@H](O)[C@@H](O)[C@H](OCCN=[N+]=[N-])O[C@@H]3CO)[C@H](O)[C@@H](O)[C@H]2O)(C(=O)O)O[C@H]1C(O)[C@H](O)CNC(=O)OCc1cn(C23CC4CC(CC(C4)C2)C3)nn1
REMARK SMILES IDX 9 1 8 2 6 3 5 4 42 5 41 6 10 7 11 8 12 9 14 10 13 11 32 12
REMARK SMILES IDX 34 13 36 14 15 15 16 16 29 17 28 18 21 19 17 20 19 21 30 22
REMARK SMILES IDX 31 23 22 25 23 26 24 27 25 28 26 29 27 30 18 31 20 33 33 35
REMARK SMILES IDX 35 37 37 39 38 41 39 42 40 43 7 45 43 47 44 48 45 50 46 51
REMARK SMILES IDX 47 53 48 54 49 55 50 57 51 58 52 59 53 60 54 61 67 62 55 63
REMARK SMILES IDX 66 64 56 65 65 66 64 67 57 68 60 69 62 70 58 71 59 72 61 73
REMARK SMILES IDX 63 74 4 75 2 76 1 78 3 79
REMARK H PARENT 31 24 18 32 20 34 33 36 35 38 37 40 40 44 7 46 44 49 46 52
REMARK H PARENT 48 56 4 77
REMARK Flexibility Score: inf
ROOT
ATOM      1  C   UNL     1      22.769  25.390  23.069  1.00  0.00     0.272 C 
ATOM      2  C   UNL     1      22.935  24.167  22.233  1.00  0.00     0.113 C 
ATOM      3  C   UNL     1      24.367  24.033  21.757  1.00  0.00     0.145 C 
ATOM      4  C   UNL     1      24.526  25.105  20.669  1.00  0.00     0.142 C 
ATOM      5  C   UNL     1      23.921  26.350  21.245  1.00  0.00     0.178 C 
ATOM      6  O   UNL     1      23.742  26.347  22.605  1.00  0.00    -0.332 OA
ENDROOT
BRANCH   1   7
ATOM      7  O   UNL     1      23.012  25.289  24.368  1.00  0.00    -0.338 OA
BRANCH   7   8
ATOM      8  C   UNL     1      22.202  25.377  25.392  1.00  0.00     0.199 C 
BRANCH   8   9
ATOM      9  C   UNL     1      22.400  26.317  26.534  1.00  0.00     0.179 C 
ATOM     10  C   UNL     1      23.711  27.883  27.470  1.00  0.00     0.282 C 
ATOM     11  O   UNL     1      23.626  27.049  26.336  1.00  0.00    -0.341 OA
ATOM     12  C   UNL     1      22.983  29.135  27.104  1.00  0.00     0.202 C 
ATOM     13  C   UNL     1      21.786  28.734  26.261  1.00  0.00     0.179 C 
ATOM     14  C   UNL     1      21.287  27.356  26.622  1.00  0.00     0.177 C 
BRANCH  10  15
ATOM     15  O   UNL     1      25.034  28.073  27.852  1.00  0.00    -0.341 OA
BRANCH  15  16
ATOM     16  C   UNL     1      25.219  27.589  29.113  1.00  0.00     0.184 C 
ATOM     17  C   UNL     1      25.774  28.520  30.129  1.00  0.00     0.178 C 
ATOM     18  O   UNL     1      25.463  27.955  31.387  1.00  0.00    -0.341 OA
ATOM     19  C   UNL     1      26.248  26.803  31.627  1.00  0.00     0.281 C 
ATOM     20  C   UNL     1      26.153  26.374  29.133  1.00  0.00     0.180 C 
ATOM     21  C   UNL     1      26.139  25.816  30.514  1.00  0.00     0.202 C 
BRANCH  17  22
ATOM     22  C   UNL     1      25.342  29.936  30.048  1.00  0.00     0.191 C 
BRANCH  22  23
ATOM     23  O   UNL     1      25.824  30.457  28.836  1.00  0.00    -0.394 OA
ATOM     24  H   UNL     1      26.687  30.040  28.577  1.00  0.00     0.210 HD
ENDBRANCH  22  23
ENDBRANCH  17  22
BRANCH  19  25
ATOM     25  O   UNL     1      25.713  26.245  32.766  1.00  0.00    -0.350 OA
BRANCH  25  26
ATOM     26  C   UNL     1      26.351  26.492  33.925  1.00  0.00     0.169 C 
BRANCH  26  27
ATOM     27  C   UNL     1      27.820  26.708  33.750  1.00  0.00     0.119 C 
BRANCH  27  28
ATOM     28  N   UNL     1      28.561  25.487  34.088  1.00  0.00    -0.092 NA
ATOM     29  N   UNL     1      28.261  24.917  35.129  1.00  0.00     0.001 N 
ATOM     30  N   UNL     1      28.282  24.358  36.246  1.00  0.00    -0.003 NA
ENDBRANCH  27  28
ENDBRANCH  26  27
ENDBRANCH  25  26
ENDBRANCH  19  25
BRANCH  20  31
ATOM     31  O   UNL     1      25.721  25.388  28.247  1.00  0.00    -0.387 OA
ATOM     32  H   UNL     1      24.743  25.438  28.168  1.00  0.00     0.211 HD
ENDBRANCH  20  31
BRANCH  21  33
ATOM     33  O   UNL     1      27.198  24.915  30.601  1.00  0.00    -0.385 OA
ATOM     34  H   UNL     1      27.571  24.903  31.503  1.00  0.00     0.211 HD
ENDBRANCH  21  33
ENDBRANCH  15  16
ENDBRANCH  10  15
BRANCH  12  35
ATOM     35  O   UNL     1      22.627  29.945  28.152  1.00  0.00    -0.385 OA
ATOM     36  H   UNL     1      21.795  30.433  27.944  1.00  0.00     0.211 HD
ENDBRANCH  12  35
BRANCH  13  37
ATOM     37  O   UNL     1      22.032  28.845  24.898  1.00  0.00    -0.387 OA
ATOM     38  H   UNL     1      22.377  29.775  24.704  1.00  0.00     0.211 HD
ENDBRANCH  13  37
BRANCH  14  39
ATOM     39  O   UNL     1      20.308  27.003  25.704  1.00  0.00    -0.387 OA
ATOM     40  H   UNL     1      19.544  26.541  26.139  1.00  0.00     0.211 HD
ENDBRANCH  14  39
ENDBRANCH   8   9
ENDBRANCH   7   8
ENDBRANCH   1   7
BRANCH   1  41
ATOM     41  C   UNL     1      21.501  26.059  22.736  1.00  0.00     0.364 C 
ATOM     42  O   UNL     1      21.258  27.268  22.842  1.00  0.00    -0.246 OA
BRANCH  41  43
ATOM     43  O   UNL     1      20.475  25.196  22.250  1.00  0.00    -0.477 OA
ATOM     44  H   UNL     1      20.693  24.231  22.118  1.00  0.00     0.296 HD
ENDBRANCH  41  43
ENDBRANCH   1  41
BRANCH   3  45
ATOM     45  O   UNL     1      25.231  24.367  22.792  1.00  0.00    -0.391 OA
ATOM     46  H   UNL     1      25.660  25.227  22.549  1.00  0.00     0.211 HD
ENDBRANCH   3  45
BRANCH   5  47
ATOM     47  C   UNL     1      24.870  27.587  21.010  1.00  0.00     0.176 C 
BRANCH  47  48
ATOM     48  O   UNL     1      25.711  27.488  22.138  1.00  0.00    -0.388 OA
ATOM     49  H   UNL     1      25.780  26.520  22.325  1.00  0.00     0.211 HD
ENDBRANCH  47  48
BRANCH  47  50
ATOM     50  C   UNL     1      24.102  28.830  21.065  1.00  0.00     0.165 C 
BRANCH  50  51
ATOM     51  O   UNL     1      23.352  29.028  22.238  1.00  0.00    -0.388 OA
ATOM     52  H   UNL     1      23.381  30.002  22.480  1.00  0.00     0.211 HD
ENDBRANCH  50  51
BRANCH  50  53
ATOM     53  C   UNL     1      23.259  29.177  19.898  1.00  0.00     0.154 C 
BRANCH  53  54
ATOM     54  N   UNL     1      21.875  28.925  20.062  1.00  0.00    -0.319 N 
ATOM     55  C   UNL     1      21.112  27.887  19.509  1.00  0.00     0.407 C 
ATOM     56  H   UNL     1      21.346  29.639  20.705  1.00  0.00     0.167 HD
ATOM     57  O   UNL     1      21.625  27.047  18.753  1.00  0.00    -0.225 OA
BRANCH  55  58
ATOM     58  O   UNL     1      19.735  27.815  19.830  1.00  0.00    -0.443 OA
BRANCH  58  59
ATOM     59  C   UNL     1      18.935  28.935  19.546  1.00  0.00     0.294 C 
BRANCH  59  60
ATOM     60  C   UNL     1      17.592  28.741  20.114  1.00  0.00     0.120 A 
ATOM     61  C   UNL     1      16.935  29.633  20.923  1.00  0.00     0.138 A 
ATOM     62  N   UNL     1      16.767  27.689  19.963  1.00  0.00    -0.132 NA
ATOM     63  N   UNL     1      15.749  29.100  21.229  1.00  0.00    -0.246 N 
ATOM     64  N   UNL     1      15.676  27.926  20.635  1.00  0.00    -0.066 NA
BRANCH  63  65
ATOM     65  C   UNL     1      14.772  29.762  22.071  1.00  0.00     0.065 C 
ATOM     66  C   UNL     1      14.811  31.231  21.787  1.00  0.00     0.034 C 
ATOM     67  C   UNL     1      13.403  29.149  21.860  1.00  0.00     0.034 C 
ATOM     68  C   UNL     1      15.134  29.555  23.531  1.00  0.00     0.034 C 
ATOM     69  C   UNL     1      13.784  31.957  22.619  1.00  0.00    -0.008 C 
ATOM     70  C   UNL     1      12.389  29.926  22.646  1.00  0.00    -0.008 C 
ATOM     71  C   UNL     1      14.086  30.258  24.362  1.00  0.00    -0.008 C 
ATOM     72  C   UNL     1      14.094  31.734  24.078  1.00  0.00     0.007 C 
ATOM     73  C   UNL     1      12.427  31.379  22.285  1.00  0.00     0.007 C 
ATOM     74  C   UNL     1      12.699  29.732  24.123  1.00  0.00     0.007 C 
ENDBRANCH  63  65
ENDBRANCH  59  60
ENDBRANCH  58  59
ENDBRANCH  55  58
ENDBRANCH  53  54
ENDBRANCH  50  53
ENDBRANCH  47  50
ENDBRANCH   5  47
BRANCH   4  75
ATOM     75  N   UNL     1      23.760  24.668  19.497  1.00  0.00    -0.348 N 
ATOM     76  C   UNL     1      24.335  24.676  18.196  1.00  0.00     0.217 C 
ATOM     77  H   UNL     1      22.767  24.344  19.607  1.00  0.00     0.163 HD
ATOM     78  C   UNL     1      23.529  24.230  17.002  1.00  0.00     0.114 C 
ATOM     79  O   UNL     1      25.518  25.062  18.074  1.00  0.00    -0.275 OA
ENDBRANCH   4  75
TORSDOF 30
