REMARK VINA RESULT:    -5.691      9.948     15.491
REMARK INTER + INTRA:         -21.153
REMARK INTER:                 -15.680
REMARK INTRA:                  -5.474
REMARK UNBOUND:                -7.145
REMARK SMILES CC(=O)N[C@@H]1[C@@H](O)C[C@](OC[C@H]2O[C@@H](O[C@H]3[C@H](O)[C@@H](O)[C@H](OCCN=[N+]=[N-])O[C@@H]3CO)[C@H](O)[C@@H](O)[C@H]2O)(C(=O)O)O[C@H]1C(O)[C@H](O)CNC(=O)OCc1cn(-c2ccccc2Br)nn1
REMARK SMILES IDX 9 1 8 2 6 3 5 4 42 5 41 6 10 7 11 8 12 9 14 10 13 11 32 12
REMARK SMILES IDX 34 13 36 14 15 15 16 16 29 17 28 18 21 19 17 20 19 21 30 22
REMARK SMILES IDX 31 23 22 25 23 26 24 27 25 28 26 29 27 30 18 31 20 33 33 35
REMARK SMILES IDX 35 37 37 39 38 41 39 42 40 43 7 45 43 47 44 48 45 50 46 51
REMARK SMILES IDX 47 53 48 54 49 55 50 57 51 58 52 59 53 60 54 61 64 62 55 63
REMARK SMILES IDX 63 64 56 65 57 66 61 67 58 68 60 69 62 70 59 71 4 72 2 73
REMARK SMILES IDX 1 75 3 76
REMARK H PARENT 31 24 18 32 20 34 33 36 35 38 37 40 40 44 7 46 44 49 46 52
REMARK H PARENT 48 56 4 74
REMARK Flexibility Score: inf
ROOT
ATOM      1  C   UNL     1      16.084  30.243  23.006  1.00  0.00     0.272 C 
ATOM      2  C   UNL     1      15.095  29.153  22.832  1.00  0.00     0.113 C 
ATOM      3  C   UNL     1      14.127  29.445  21.732  1.00  0.00     0.145 C 
ATOM      4  C   UNL     1      14.715  29.989  20.479  1.00  0.00     0.142 C 
ATOM      5  C   UNL     1      16.124  30.434  20.663  1.00  0.00     0.178 C 
ATOM      6  O   UNL     1      16.473  30.927  21.874  1.00  0.00    -0.332 OA
ENDROOT
BRANCH   1   7
ATOM      7  O   UNL     1      17.275  29.877  23.606  1.00  0.00    -0.338 OA
BRANCH   7   8
ATOM      8  C   UNL     1      18.332  30.710  23.463  1.00  0.00     0.199 C 
BRANCH   8   9
ATOM      9  C   UNL     1      19.413  30.245  24.470  1.00  0.00     0.179 C 
ATOM     10  C   UNL     1      20.954  28.532  24.649  1.00  0.00     0.282 C 
ATOM     11  O   UNL     1      19.677  28.933  24.360  1.00  0.00    -0.341 OA
ATOM     12  C   UNL     1      21.553  29.275  25.822  1.00  0.00     0.202 C 
ATOM     13  C   UNL     1      21.514  30.771  25.592  1.00  0.00     0.179 C 
ATOM     14  C   UNL     1      20.601  31.119  24.432  1.00  0.00     0.177 C 
BRANCH  10  15
ATOM     15  O   UNL     1      21.787  28.534  23.540  1.00  0.00    -0.341 OA
BRANCH  15  16
ATOM     16  C   UNL     1      21.918  27.313  22.921  1.00  0.00     0.184 C 
ATOM     17  C   UNL     1      20.964  27.094  21.772  1.00  0.00     0.178 C 
ATOM     18  O   UNL     1      21.486  26.051  21.022  1.00  0.00    -0.341 OA
ATOM     19  C   UNL     1      21.663  24.884  21.694  1.00  0.00     0.281 C 
ATOM     20  C   UNL     1      21.616  26.173  23.886  1.00  0.00     0.180 C 
ATOM     21  C   UNL     1      21.556  24.893  23.161  1.00  0.00     0.202 C 
BRANCH  17  22
ATOM     22  C   UNL     1      20.760  28.284  20.895  1.00  0.00     0.191 C 
BRANCH  22  23
ATOM     23  O   UNL     1      20.128  27.880  19.721  1.00  0.00    -0.394 OA
ATOM     24  H   UNL     1      19.446  27.217  19.925  1.00  0.00     0.210 HD
ENDBRANCH  22  23
ENDBRANCH  17  22
BRANCH  19  25
ATOM     25  O   UNL     1      22.952  24.418  21.344  1.00  0.00    -0.350 OA
BRANCH  25  26
ATOM     26  C   UNL     1      23.423  24.941  20.173  1.00  0.00     0.169 C 
BRANCH  26  27
ATOM     27  C   UNL     1      23.030  24.202  18.932  1.00  0.00     0.119 C 
BRANCH  27  28
ATOM     28  N   UNL     1      23.286  25.087  17.806  1.00  0.00    -0.092 NA
ATOM     29  N   UNL     1      22.612  26.095  17.653  1.00  0.00     0.001 N 
ATOM     30  N   UNL     1      21.997  27.145  17.519  1.00  0.00    -0.003 NA
ENDBRANCH  27  28
ENDBRANCH  26  27
ENDBRANCH  25  26
ENDBRANCH  19  25
BRANCH  20  31
ATOM     31  O   UNL     1      22.557  26.102  24.901  1.00  0.00    -0.387 OA
ATOM     32  H   UNL     1      22.162  26.140  25.803  1.00  0.00     0.211 HD
ENDBRANCH  20  31
BRANCH  21  33
ATOM     33  O   UNL     1      20.350  24.260  23.587  1.00  0.00    -0.385 OA
ATOM     34  H   UNL     1      20.093  24.565  24.488  1.00  0.00     0.211 HD
ENDBRANCH  21  33
ENDBRANCH  15  16
ENDBRANCH  10  15
BRANCH  12  35
ATOM     35  O   UNL     1      20.946  28.909  27.025  1.00  0.00    -0.385 OA
ATOM     36  H   UNL     1      20.121  28.387  26.871  1.00  0.00     0.211 HD
ENDBRANCH  12  35
BRANCH  13  37
ATOM     37  O   UNL     1      22.787  31.287  25.460  1.00  0.00    -0.387 OA
ATOM     38  H   UNL     1      23.417  30.596  25.171  1.00  0.00     0.211 HD
ENDBRANCH  13  37
BRANCH  14  39
ATOM     39  O   UNL     1      21.343  31.025  23.266  1.00  0.00    -0.387 OA
ATOM     40  H   UNL     1      20.866  31.378  22.476  1.00  0.00     0.211 HD
ENDBRANCH  14  39
ENDBRANCH   8   9
ENDBRANCH   7   8
ENDBRANCH   1   7
BRANCH   1  41
ATOM     41  C   UNL     1      15.387  31.301  23.842  1.00  0.00     0.364 C 
ATOM     42  O   UNL     1      15.005  30.951  24.979  1.00  0.00    -0.246 OA
BRANCH  41  43
ATOM     43  O   UNL     1      15.166  32.577  23.417  1.00  0.00    -0.477 OA
ATOM     44  H   UNL     1      15.396  32.850  22.449  1.00  0.00     0.296 HD
ENDBRANCH  41  43
ENDBRANCH   1  41
BRANCH   3  45
ATOM     45  O   UNL     1      13.389  28.267  21.474  1.00  0.00    -0.391 OA
ATOM     46  H   UNL     1      12.436  28.534  21.364  1.00  0.00     0.211 HD
ENDBRANCH   3  45
BRANCH   5  47
ATOM     47  C   UNL     1      17.110  29.428  20.070  1.00  0.00     0.176 C 
BRANCH  47  48
ATOM     48  O   UNL     1      18.021  29.996  19.214  1.00  0.00    -0.388 OA
ATOM     49  H   UNL     1      18.945  29.989  19.602  1.00  0.00     0.211 HD
ENDBRANCH  47  48
BRANCH  47  50
ATOM     50  C   UNL     1      16.374  28.318  19.302  1.00  0.00     0.165 C 
BRANCH  50  51
ATOM     51  O   UNL     1      16.429  27.178  20.064  1.00  0.00    -0.388 OA
ATOM     52  H   UNL     1      15.610  26.660  20.144  1.00  0.00     0.211 HD
ENDBRANCH  50  51
BRANCH  50  53
ATOM     53  C   UNL     1      16.998  28.112  17.961  1.00  0.00     0.154 C 
BRANCH  53  54
ATOM     54  N   UNL     1      16.261  28.739  16.918  1.00  0.00    -0.319 N 
ATOM     55  C   UNL     1      16.665  29.816  16.101  1.00  0.00     0.407 C 
ATOM     56  H   UNL     1      15.282  28.364  16.710  1.00  0.00     0.167 HD
ATOM     57  O   UNL     1      17.781  30.327  16.234  1.00  0.00    -0.225 OA
BRANCH  55  58
ATOM     58  O   UNL     1      15.809  30.327  15.126  1.00  0.00    -0.443 OA
BRANCH  58  59
ATOM     59  C   UNL     1      15.370  29.616  13.994  1.00  0.00     0.294 C 
BRANCH  59  60
ATOM     60  C   UNL     1      13.928  29.230  14.127  1.00  0.00     0.121 A 
ATOM     61  C   UNL     1      12.887  30.131  14.353  1.00  0.00     0.144 A 
ATOM     62  N   UNL     1      13.369  28.032  14.077  1.00  0.00    -0.131 NA
ATOM     63  N   UNL     1      11.754  29.419  14.426  1.00  0.00    -0.219 N 
ATOM     64  N   UNL     1      12.049  28.153  14.259  1.00  0.00    -0.062 NA
BRANCH  63  65
ATOM     65  C   UNL     1      10.451  29.929  14.648  1.00  0.00     0.081 A 
ATOM     66  C   UNL     1      10.085  30.476  15.858  1.00  0.00     0.029 A 
ATOM     67  C   UNL     1       9.517  29.888  13.649  1.00  0.00     0.043 A 
ATOM     68  C   UNL     1       8.795  30.968  16.039  1.00  0.00     0.002 A 
ATOM     69  C   UNL     1       8.241  30.372  13.821  1.00  0.00     0.018 A 
ATOM     70  Br  UNL     1       9.981  29.135  11.961  1.00  0.00    -0.048 Br
ATOM     71  C   UNL     1       7.865  30.921  15.024  1.00  0.00     0.001 A 
ENDBRANCH  63  65
ENDBRANCH  59  60
ENDBRANCH  58  59
ENDBRANCH  55  58
ENDBRANCH  53  54
ENDBRANCH  50  53
ENDBRANCH  47  50
ENDBRANCH   5  47
BRANCH   4  72
ATOM     72  N   UNL     1      13.927  31.050  19.894  1.00  0.00    -0.348 N 
ATOM     73  C   UNL     1      13.447  30.963  18.564  1.00  0.00     0.217 C 
ATOM     74  H   UNL     1      13.699  31.899  20.448  1.00  0.00     0.163 HD
ATOM     75  C   UNL     1      12.641  32.106  18.039  1.00  0.00     0.114 C 
ATOM     76  O   UNL     1      13.678  29.978  17.838  1.00  0.00    -0.275 OA
ENDBRANCH   4  72
TORSDOF 30
