REMARK VINA RESULT:    -4.840      3.783      8.520
REMARK INTER + INTRA:         -22.931
REMARK INTER:                 -15.243
REMARK INTRA:                  -7.689
REMARK UNBOUND:                -9.744
REMARK SMILES CC(=O)N[C@@H]1[C@@H](O)C[C@](OC[C@H]2O[C@@H](O[C@H]3[C@H](O)[C@@H](O)[C@H](OCCN=[N+]=[N-])O[C@@H]3CO)[C@H](O)[C@@H](O)[C@H]2O)(C(=O)O)O[C@H]1C(O)[C@H](O)CNC(=O)OCc1cn(CC(O)Cn2ccnc2[N+](=O)[O-])nn1
REMARK SMILES IDX 43 1 42 2 9 3 8 4 41 5 6 6 5 7 10 8 11 9 12 10 14 11 13 12
REMARK SMILES IDX 32 13 34 14 36 15 15 16 16 17 29 18 28 19 21 20 17 21 19 22
REMARK SMILES IDX 30 23 31 24 22 26 23 27 24 28 25 29 26 30 27 31 18 32 20 34
REMARK SMILES IDX 33 36 35 38 37 40 38 42 39 43 40 44 7 46 4 48 2 49 1 51 3 52
REMARK SMILES IDX 44 53 45 55 46 56 47 58 48 59 49 60 50 62 51 63 52 64 53 65
REMARK SMILES IDX 54 66 69 67 55 68 68 69 56 70 57 71 58 72 59 74 60 75 61 76
REMARK SMILES IDX 64 77 62 78 63 79 65 80 66 81 67 82
REMARK H PARENT 31 25 18 33 20 35 33 37 35 39 37 41 40 45 7 47 4 50 44 54
REMARK H PARENT 46 57 48 61 58 73
REMARK Flexibility Score: inf
ROOT
ATOM      1  C   UNL     1      21.825  26.943  21.091  1.00  0.00     0.176 C 
ENDROOT
BRANCH   1   2
ATOM      2  C   UNL     1      21.824  28.106  22.128  1.00  0.00     0.178 C 
ATOM      3  C   UNL     1      20.189  29.214  23.332  1.00  0.00     0.272 C 
ATOM      4  C   UNL     1      20.865  30.526  23.065  1.00  0.00     0.113 C 
ATOM      5  O   UNL     1      20.454  28.313  22.306  1.00  0.00    -0.332 OA
ATOM      6  C   UNL     1      21.527  30.542  21.693  1.00  0.00     0.145 C 
ATOM      7  C   UNL     1      22.408  29.312  21.518  1.00  0.00     0.142 C 
BRANCH   3   8
ATOM      8  O   UNL     1      18.802  29.305  23.333  1.00  0.00    -0.338 OA
BRANCH   8   9
ATOM      9  C   UNL     1      18.221  30.505  23.494  1.00  0.00     0.199 C 
BRANCH   9  10
ATOM     10  C   UNL     1      16.945  30.676  22.693  1.00  0.00     0.179 C 
ATOM     11  C   UNL     1      15.983  30.235  20.726  1.00  0.00     0.282 C 
ATOM     12  O   UNL     1      16.804  29.649  21.721  1.00  0.00    -0.341 OA
ATOM     13  C   UNL     1      14.648  30.631  21.307  1.00  0.00     0.202 C 
ATOM     14  C   UNL     1      14.548  29.971  22.681  1.00  0.00     0.179 C 
ATOM     15  C   UNL     1      15.688  30.553  23.523  1.00  0.00     0.177 C 
BRANCH  11  16
ATOM     16  O   UNL     1      15.794  29.390  19.652  1.00  0.00    -0.341 OA
BRANCH  16  17
ATOM     17  C   UNL     1      16.739  29.706  18.704  1.00  0.00     0.184 C 
ATOM     18  C   UNL     1      16.190  29.771  17.286  1.00  0.00     0.178 C 
ATOM     19  O   UNL     1      17.162  30.475  16.569  1.00  0.00    -0.341 OA
ATOM     20  C   UNL     1      18.348  29.810  16.419  1.00  0.00     0.281 C 
ATOM     21  C   UNL     1      17.855  28.674  18.637  1.00  0.00     0.180 C 
ATOM     22  C   UNL     1      18.824  28.990  17.562  1.00  0.00     0.202 C 
BRANCH  18  23
ATOM     23  C   UNL     1      14.860  30.423  17.177  1.00  0.00     0.191 C 
BRANCH  23  24
ATOM     24  O   UNL     1      13.883  29.476  17.461  1.00  0.00    -0.394 OA
ATOM     25  H   UNL     1      14.119  28.895  18.227  1.00  0.00     0.210 HD
ENDBRANCH  23  24
ENDBRANCH  18  23
BRANCH  20  26
ATOM     26  O   UNL     1      19.331  30.812  16.197  1.00  0.00    -0.350 OA
BRANCH  26  27
ATOM     27  C   UNL     1      19.992  31.171  17.344  1.00  0.00     0.169 C 
BRANCH  27  28
ATOM     28  C   UNL     1      21.383  31.644  16.901  1.00  0.00     0.119 C 
BRANCH  28  29
ATOM     29  N   UNL     1      22.427  30.818  17.424  1.00  0.00    -0.092 NA
ATOM     30  N   UNL     1      22.211  29.640  17.789  1.00  0.00     0.001 N 
ATOM     31  N   UNL     1      22.304  28.424  17.816  1.00  0.00    -0.003 NA
ENDBRANCH  28  29
ENDBRANCH  27  28
ENDBRANCH  26  27
ENDBRANCH  20  26
BRANCH  21  32
ATOM     32  O   UNL     1      18.536  28.655  19.872  1.00  0.00    -0.387 OA
ATOM     33  H   UNL     1      19.239  27.988  19.783  1.00  0.00     0.211 HD
ENDBRANCH  21  32
BRANCH  22  34
ATOM     34  O   UNL     1      19.233  27.744  17.022  1.00  0.00    -0.385 OA
ATOM     35  H   UNL     1      18.909  26.993  17.585  1.00  0.00     0.211 HD
ENDBRANCH  22  34
ENDBRANCH  16  17
ENDBRANCH  11  16
BRANCH  13  36
ATOM     36  O   UNL     1      14.607  32.020  21.420  1.00  0.00    -0.385 OA
ATOM     37  H   UNL     1      14.538  32.306  22.374  1.00  0.00     0.211 HD
ENDBRANCH  13  36
BRANCH  14  38
ATOM     38  O   UNL     1      14.842  28.630  22.516  1.00  0.00    -0.387 OA
ATOM     39  H   UNL     1      15.763  28.452  22.770  1.00  0.00     0.211 HD
ENDBRANCH  14  38
BRANCH  15  40
ATOM     40  O   UNL     1      15.833  29.697  24.591  1.00  0.00    -0.387 OA
ATOM     41  H   UNL     1      15.255  29.944  25.356  1.00  0.00     0.211 HD
ENDBRANCH  15  40
ENDBRANCH   9  10
ENDBRANCH   8   9
ENDBRANCH   3   8
BRANCH   3  42
ATOM     42  C   UNL     1      20.640  28.633  24.604  1.00  0.00     0.364 C 
ATOM     43  O   UNL     1      20.532  27.382  24.855  1.00  0.00    -0.246 OA
BRANCH  42  44
ATOM     44  O   UNL     1      21.207  29.367  25.627  1.00  0.00    -0.477 OA
ATOM     45  H   UNL     1      21.550  30.325  25.511  1.00  0.00     0.296 HD
ENDBRANCH  42  44
ENDBRANCH   3  42
BRANCH   6  46
ATOM     46  O   UNL     1      20.602  30.663  20.674  1.00  0.00    -0.391 OA
ATOM     47  H   UNL     1      19.902  29.965  20.730  1.00  0.00     0.211 HD
ENDBRANCH   6  46
BRANCH   7  48
ATOM     48  N   UNL     1      23.773  29.624  21.802  1.00  0.00    -0.348 N 
ATOM     49  C   UNL     1      24.902  29.363  21.034  1.00  0.00     0.217 C 
ATOM     50  H   UNL     1      23.985  30.155  22.749  1.00  0.00     0.163 HD
ATOM     51  C   UNL     1      26.282  29.806  21.489  1.00  0.00     0.114 C 
ATOM     52  O   UNL     1      24.879  28.772  19.952  1.00  0.00    -0.275 OA
ENDBRANCH   7  48
ENDBRANCH   1   2
BRANCH   1  53
ATOM     53  O   UNL     1      20.823  27.252  20.137  1.00  0.00    -0.388 OA
ATOM     54  H   UNL     1      20.511  28.167  20.210  1.00  0.00     0.211 HD
ENDBRANCH   1  53
BRANCH   1  55
ATOM     55  C   UNL     1      21.614  25.612  21.643  1.00  0.00     0.165 C 
BRANCH  55  56
ATOM     56  O   UNL     1      20.455  25.386  22.340  1.00  0.00    -0.388 OA
ATOM     57  H   UNL     1      20.386  25.888  23.183  1.00  0.00     0.211 HD
ENDBRANCH  55  56
BRANCH  55  58
ATOM     58  C   UNL     1      22.809  25.113  22.492  1.00  0.00     0.154 C 
BRANCH  58  59
ATOM     59  N   UNL     1      22.312  25.036  23.861  1.00  0.00    -0.319 N 
ATOM     60  C   UNL     1      23.175  24.703  24.956  1.00  0.00     0.407 C 
ATOM     61  H   UNL     1      21.306  25.224  24.069  1.00  0.00     0.167 HD
ATOM     62  O   UNL     1      24.384  24.475  24.741  1.00  0.00    -0.225 OA
BRANCH  60  63
ATOM     63  O   UNL     1      22.697  24.625  26.247  1.00  0.00    -0.443 OA
BRANCH  63  64
ATOM     64  C   UNL     1      22.476  25.681  27.130  1.00  0.00     0.294 C 
BRANCH  64  65
ATOM     65  C   UNL     1      23.429  25.603  28.264  1.00  0.00     0.120 A 
ATOM     66  C   UNL     1      24.787  25.860  28.223  1.00  0.00     0.138 A 
ATOM     67  N   UNL     1      23.185  25.280  29.543  1.00  0.00    -0.132 NA
ATOM     68  N   UNL     1      25.302  25.685  29.465  1.00  0.00    -0.249 N 
ATOM     69  N   UNL     1      24.310  25.333  30.242  1.00  0.00    -0.067 NA
BRANCH  68  70
ATOM     70  C   UNL     1      26.707  25.915  29.785  1.00  0.00     0.181 C 
BRANCH  70  71
ATOM     71  C   UNL     1      26.839  25.588  31.270  1.00  0.00     0.170 C 
BRANCH  71  72
ATOM     72  O   UNL     1      27.981  24.846  31.455  1.00  0.00    -0.388 OA
ATOM     73  H   UNL     1      27.769  23.882  31.441  1.00  0.00     0.211 HD
ENDBRANCH  71  72
BRANCH  71  74
ATOM     74  C   UNL     1      26.806  26.843  32.087  1.00  0.00     0.239 C 
BRANCH  74  75
ATOM     75  N   UNL     1      26.071  26.606  33.318  1.00  0.00    -0.227 N 
ATOM     76  C   UNL     1      24.734  26.896  33.433  1.00  0.00     0.204 A 
ATOM     77  C   UNL     1      26.511  26.088  34.465  1.00  0.00     0.434 A 
ATOM     78  C   UNL     1      24.351  26.534  34.705  1.00  0.00     0.245 A 
ATOM     79  N   UNL     1      25.447  26.044  35.316  1.00  0.00    -0.074 NA
BRANCH  77  80
ATOM     80  N   UNL     1      27.833  25.672  34.759  1.00  0.00    -0.047 N 
ATOM     81  O   UNL     1      28.235  24.509  34.440  1.00  0.00    -0.390 OA
ATOM     82  O   UNL     1      28.751  26.460  35.396  1.00  0.00    -0.390 OA
ENDBRANCH  77  80
ENDBRANCH  74  75
ENDBRANCH  71  74
ENDBRANCH  70  71
ENDBRANCH  68  70
ENDBRANCH  64  65
ENDBRANCH  63  64
ENDBRANCH  60  63
ENDBRANCH  58  59
ENDBRANCH  55  58
ENDBRANCH   1  55
TORSDOF 35
