REMARK VINA RESULT:    -5.444      4.973     10.474
REMARK INTER + INTRA:         -23.908
REMARK INTER:                 -15.800
REMARK INTRA:                  -8.108
REMARK UNBOUND:                -7.166
REMARK SMILES CC(=O)N[C@@H]1[C@@H](O)C[C@](OC[C@H]2O[C@@H](O[C@H]3[C@H](O)[C@@H](O)[C@H](OCCN=[N+]=[N-])O[C@@H]3CO)[C@H](O)[C@@H](O)[C@H]2O)(C(=O)O)O[C@H]1C(O)[C@H](O)CNC(=O)OCc1cn(CCCCCCCCCCC(=O)O)nn1
REMARK SMILES IDX 51 1 49 2 48 3 50 5 47 6 45 7 43 8 42 9 9 10 8 11 41 12 6 13
REMARK SMILES IDX 5 14 10 15 11 16 12 17 14 18 13 19 32 20 34 21 36 22 15 23
REMARK SMILES IDX 16 24 29 25 28 26 21 27 17 28 19 29 30 30 31 31 22 33 23 34
REMARK SMILES IDX 24 35 25 36 26 37 27 38 18 39 20 41 33 43 35 45 37 47 38 49
REMARK SMILES IDX 39 50 40 51 7 53 4 55 2 56 1 58 3 59 44 60 46 62 52 64 53 65
REMARK SMILES IDX 54 66 70 67 55 68 69 69 56 70 57 71 58 72 59 73 60 74 61 75
REMARK SMILES IDX 62 76 63 77 64 78 65 79 66 80 67 81 68 82
REMARK H PARENT 48 4 31 32 18 40 20 42 33 44 35 46 37 48 40 52 7 54 4 57 44 61
REMARK H PARENT 46 63 68 83
REMARK Flexibility Score: inf
ROOT
ATOM      1  O   UNL     1       8.586  34.151  20.505  1.00  0.00    -0.443 OA
ENDROOT
BRANCH   1   2
ATOM      2  C   UNL     1       9.977  34.192  20.264  1.00  0.00     0.407 C 
ATOM      3  N   UNL     1      10.577  33.313  19.328  1.00  0.00    -0.319 N 
ATOM      4  H   UNL     1       9.962  32.622  18.823  1.00  0.00     0.167 HD
ATOM      5  O   UNL     1      10.713  35.005  20.867  1.00  0.00    -0.225 OA
BRANCH   3   6
ATOM      6  C   UNL     1      11.981  33.325  19.046  1.00  0.00     0.154 C 
BRANCH   6   7
ATOM      7  C   UNL     1      12.693  32.008  19.335  1.00  0.00     0.165 C 
BRANCH   7   8
ATOM      8  C   UNL     1      13.502  32.239  20.563  1.00  0.00     0.176 C 
BRANCH   8   9
ATOM      9  C   UNL     1      14.300  31.059  21.066  1.00  0.00     0.178 C 
ATOM     10  C   UNL     1      16.349  30.020  20.704  1.00  0.00     0.272 C 
ATOM     11  C   UNL     1      15.630  28.712  20.957  1.00  0.00     0.113 C 
ATOM     12  O   UNL     1      15.405  30.933  20.271  1.00  0.00    -0.332 OA
ATOM     13  C   UNL     1      14.204  28.711  20.510  1.00  0.00     0.145 C 
ATOM     14  C   UNL     1      13.470  29.824  21.230  1.00  0.00     0.142 C 
BRANCH  10  15
ATOM     15  O   UNL     1      17.350  29.856  19.732  1.00  0.00    -0.338 OA
BRANCH  15  16
ATOM     16  C   UNL     1      17.042  30.235  18.470  1.00  0.00     0.199 C 
BRANCH  16  17
ATOM     17  C   UNL     1      17.014  28.945  17.624  1.00  0.00     0.179 C 
ATOM     18  C   UNL     1      15.976  29.462  15.561  1.00  0.00     0.282 C 
ATOM     19  O   UNL     1      15.973  28.880  16.784  1.00  0.00    -0.341 OA
ATOM     20  C   UNL     1      17.320  29.863  15.083  1.00  0.00     0.202 C 
ATOM     21  C   UNL     1      18.332  28.807  15.510  1.00  0.00     0.179 C 
ATOM     22  C   UNL     1      18.378  28.694  17.020  1.00  0.00     0.177 C 
BRANCH  18  23
ATOM     23  O   UNL     1      15.049  30.533  15.621  1.00  0.00    -0.341 OA
BRANCH  23  24
ATOM     24  C   UNL     1      14.009  30.227  14.753  1.00  0.00     0.184 C 
ATOM     25  C   UNL     1      13.654  31.303  13.781  1.00  0.00     0.178 C 
ATOM     26  O   UNL     1      12.520  30.981  13.095  1.00  0.00    -0.341 OA
ATOM     27  C   UNL     1      11.971  29.758  13.195  1.00  0.00     0.281 C 
ATOM     28  C   UNL     1      12.731  29.943  15.561  1.00  0.00     0.180 C 
ATOM     29  C   UNL     1      11.782  29.255  14.607  1.00  0.00     0.202 C 
BRANCH  25  30
ATOM     30  C   UNL     1      14.768  31.633  12.805  1.00  0.00     0.191 C 
BRANCH  30  31
ATOM     31  O   UNL     1      15.764  32.407  13.343  1.00  0.00    -0.394 OA
ATOM     32  H   UNL     1      16.482  32.510  12.666  1.00  0.00     0.210 HD
ENDBRANCH  30  31
ENDBRANCH  25  30
BRANCH  27  33
ATOM     33  O   UNL     1      12.739  28.829  12.506  1.00  0.00    -0.350 OA
BRANCH  33  34
ATOM     34  C   UNL     1      12.487  28.850  11.135  1.00  0.00     0.169 C 
BRANCH  34  35
ATOM     35  C   UNL     1      11.542  27.759  10.716  1.00  0.00     0.119 C 
BRANCH  35  36
ATOM     36  N   UNL     1      10.232  28.356  10.447  1.00  0.00    -0.092 NA
ATOM     37  N   UNL     1       9.293  28.227  11.262  1.00  0.00     0.001 N 
ATOM     38  N   UNL     1       8.551  27.929  12.224  1.00  0.00    -0.003 NA
ENDBRANCH  35  36
ENDBRANCH  34  35
ENDBRANCH  33  34
ENDBRANCH  27  33
BRANCH  28  39
ATOM     39  O   UNL     1      12.963  29.135  16.653  1.00  0.00    -0.387 OA
ATOM     40  H   UNL     1      13.629  28.423  16.486  1.00  0.00     0.211 HD
ENDBRANCH  28  39
BRANCH  29  41
ATOM     41  O   UNL     1      10.488  29.583  14.999  1.00  0.00    -0.385 OA
ATOM     42  H   UNL     1      10.256  30.459  14.560  1.00  0.00     0.211 HD
ENDBRANCH  29  41
ENDBRANCH  23  24
ENDBRANCH  18  23
BRANCH  20  43
ATOM     43  O   UNL     1      17.409  29.897  13.684  1.00  0.00    -0.385 OA
ATOM     44  H   UNL     1      17.870  30.761  13.466  1.00  0.00     0.211 HD
ENDBRANCH  20  43
BRANCH  21  45
ATOM     45  O   UNL     1      19.601  29.119  15.028  1.00  0.00    -0.387 OA
ATOM     46  H   UNL     1      20.226  28.476  15.451  1.00  0.00     0.211 HD
ENDBRANCH  21  45
BRANCH  22  47
ATOM     47  O   UNL     1      19.283  29.617  17.485  1.00  0.00    -0.387 OA
ATOM     48  H   UNL     1      19.465  30.270  16.762  1.00  0.00     0.211 HD
ENDBRANCH  22  47
ENDBRANCH  16  17
ENDBRANCH  15  16
ENDBRANCH  10  15
BRANCH  10  49
ATOM     49  C   UNL     1      17.057  30.500  21.894  1.00  0.00     0.364 C 
ATOM     50  O   UNL     1      17.693  31.566  21.917  1.00  0.00    -0.246 OA
BRANCH  49  51
ATOM     51  O   UNL     1      17.040  29.763  23.066  1.00  0.00    -0.477 OA
ATOM     52  H   UNL     1      16.279  29.119  23.297  1.00  0.00     0.296 HD
ENDBRANCH  49  51
ENDBRANCH  10  49
BRANCH  13  53
ATOM     53  O   UNL     1      14.005  28.741  19.147  1.00  0.00    -0.391 OA
ATOM     54  H   UNL     1      13.047  28.844  18.881  1.00  0.00     0.211 HD
ENDBRANCH  13  53
BRANCH  14  55
ATOM     55  N   UNL     1      13.268  29.401  22.576  1.00  0.00    -0.348 N 
ATOM     56  C   UNL     1      12.217  29.868  23.415  1.00  0.00     0.217 C 
ATOM     57  H   UNL     1      13.914  28.702  23.016  1.00  0.00     0.163 HD
ATOM     58  C   UNL     1      12.073  29.383  24.800  1.00  0.00     0.114 C 
ATOM     59  O   UNL     1      11.423  30.699  22.940  1.00  0.00    -0.275 OA
ENDBRANCH  14  55
ENDBRANCH   8   9
BRANCH   8  60
ATOM     60  O   UNL     1      12.715  32.837  21.511  1.00  0.00    -0.388 OA
ATOM     61  H   UNL     1      13.191  33.288  22.225  1.00  0.00     0.211 HD
ENDBRANCH   8  60
ENDBRANCH   7   8
BRANCH   7  62
ATOM     62  O   UNL     1      13.433  31.691  18.202  1.00  0.00    -0.388 OA
ATOM     63  H   UNL     1      12.999  32.009  17.373  1.00  0.00     0.211 HD
ENDBRANCH   7  62
ENDBRANCH   6   7
ENDBRANCH   3   6
ENDBRANCH   1   2
BRANCH   1  64
ATOM     64  C   UNL     1       7.842  33.160  19.782  1.00  0.00     0.294 C 
BRANCH  64  65
ATOM     65  C   UNL     1       7.295  32.215  20.778  1.00  0.00     0.120 A 
ATOM     66  C   UNL     1       7.675  32.156  22.106  1.00  0.00     0.138 A 
ATOM     67  N   UNL     1       6.356  31.276  20.599  1.00  0.00    -0.132 NA
ATOM     68  N   UNL     1       6.942  31.177  22.668  1.00  0.00    -0.252 N 
ATOM     69  N   UNL     1       6.139  30.651  21.722  1.00  0.00    -0.067 NA
BRANCH  68  70
ATOM     70  C   UNL     1       6.947  30.714  24.021  1.00  0.00     0.146 C 
BRANCH  70  71
ATOM     71  C   UNL     1       8.253  30.223  24.537  1.00  0.00     0.024 C 
BRANCH  71  72
ATOM     72  C   UNL     1       8.443  28.747  24.552  1.00  0.00     0.002 C 
BRANCH  72  73
ATOM     73  C   UNL     1       7.205  27.935  24.707  1.00  0.00     0.000 C 
BRANCH  73  74
ATOM     74  C   UNL     1       7.039  27.254  26.022  1.00  0.00     0.000 C 
BRANCH  74  75
ATOM     75  C   UNL     1       5.820  27.777  26.728  1.00  0.00     0.000 C 
BRANCH  75  76
ATOM     76  C   UNL     1       4.807  28.396  25.788  1.00  0.00     0.000 C 
BRANCH  76  77
ATOM     77  C   UNL     1       3.514  27.651  25.734  1.00  0.00     0.001 C 
BRANCH  77  78
ATOM     78  C   UNL     1       3.592  26.303  25.086  1.00  0.00     0.012 C 
BRANCH  78  79
ATOM     79  C   UNL     1       2.714  25.345  25.873  1.00  0.00     0.122 C 
BRANCH  79  80
ATOM     80  C   UNL     1       3.538  24.665  26.887  1.00  0.00     0.303 C 
ATOM     81  O   UNL     1       3.544  25.058  28.072  1.00  0.00    -0.252 OA
BRANCH  80  82
ATOM     82  O   UNL     1       4.331  23.574  26.561  1.00  0.00    -0.481 OA
ATOM     83  H   UNL     1       3.982  22.633  26.581  1.00  0.00     0.296 HD
ENDBRANCH  80  82
ENDBRANCH  79  80
ENDBRANCH  78  79
ENDBRANCH  77  78
ENDBRANCH  76  77
ENDBRANCH  75  76
ENDBRANCH  74  75
ENDBRANCH  73  74
ENDBRANCH  72  73
ENDBRANCH  71  72
ENDBRANCH  70  71
ENDBRANCH  68  70
ENDBRANCH  64  65
ENDBRANCH   1  64
TORSDOF 41
