REMARK VINA RESULT:    -5.593      2.886      8.710
REMARK INTER + INTRA:         -21.138
REMARK INTER:                 -13.039
REMARK INTRA:                  -8.099
REMARK UNBOUND:                -6.390
REMARK SMILES CCOC(=O)Cn1cc(COC(=O)NC[C@@H](O)C(O)[C@@H]2O[C@@](OC[C@H]3O[C@@H](O[C@H]4[C@H](O)[C@@H](O)[C@H](OCCN=[N+]=[N-])O[C@@H]4CO)[C@H](O)[C@@H](O)[C@H]3O)(C(=O)O)C[C@H](O)[C@H]2NC(C)=O)nn1
REMARK SMILES IDX 18 1 20 2 22 3 54 4 21 5 55 6 57 7 23 8 24 9 25 10 27 11
REMARK SMILES IDX 26 12 45 13 47 14 49 15 28 16 29 17 42 18 41 19 34 20 30 21
REMARK SMILES IDX 32 22 43 23 44 24 35 26 36 27 37 28 38 29 39 30 40 31 31 32
REMARK SMILES IDX 33 34 46 36 48 38 50 40 51 42 52 43 53 44 56 46 58 48 59 49
REMARK SMILES IDX 60 51 61 52 19 53 16 55 17 56 15 58 14 59 12 60 13 62 11 63
REMARK SMILES IDX 10 64 9 65 8 66 62 67 7 68 63 69 6 70 4 71 5 72 3 73 2 74
REMARK SMILES IDX 1 75
REMARK H PARENT 44 25 31 33 33 35 46 37 48 39 50 41 53 45 56 47 58 50 19 54
REMARK H PARENT 17 57 14 61
REMARK Flexibility Score: inf
ROOT
ATOM      1  C   UNL     1      21.341  29.630  19.577  1.00  0.00     0.176 C 
ENDROOT
BRANCH   1   2
ATOM      2  C   UNL     1      21.099  30.562  20.732  1.00  0.00     0.178 C 
ATOM      3  C   UNL     1      19.615  30.925  22.503  1.00  0.00     0.272 C 
ATOM      4  C   UNL     1      20.321  32.236  22.561  1.00  0.00     0.113 C 
ATOM      5  O   UNL     1      20.292  29.996  21.684  1.00  0.00    -0.332 OA
ATOM      6  C   UNL     1      20.534  32.876  21.227  1.00  0.00     0.145 C 
ATOM      7  C   UNL     1      20.425  31.797  20.162  1.00  0.00     0.142 C 
BRANCH   3   8
ATOM      8  O   UNL     1      18.295  30.977  22.112  1.00  0.00    -0.338 OA
BRANCH   8   9
ATOM      9  C   UNL     1      17.462  31.820  22.764  1.00  0.00     0.199 C 
BRANCH   9  10
ATOM     10  C   UNL     1      16.016  31.335  22.542  1.00  0.00     0.179 C 
ATOM     11  C   UNL     1      14.683  30.084  21.114  1.00  0.00     0.282 C 
ATOM     12  O   UNL     1      15.858  30.773  21.315  1.00  0.00    -0.341 OA
ATOM     13  C   UNL     1      14.382  29.073  22.178  1.00  0.00     0.202 C 
ATOM     14  C   UNL     1      14.248  29.828  23.476  1.00  0.00     0.179 C 
ATOM     15  C   UNL     1      15.545  30.527  23.714  1.00  0.00     0.177 C 
BRANCH  11  16
ATOM     16  O   UNL     1      14.630  29.450  19.884  1.00  0.00    -0.341 OA
BRANCH  16  17
ATOM     17  C   UNL     1      15.683  29.704  19.045  1.00  0.00     0.184 C 
ATOM     18  C   UNL     1      15.261  30.244  17.695  1.00  0.00     0.178 C 
ATOM     19  O   UNL     1      15.474  29.318  16.684  1.00  0.00    -0.341 OA
ATOM     20  C   UNL     1      16.850  29.055  16.489  1.00  0.00     0.281 C 
ATOM     21  C   UNL     1      16.475  28.416  18.820  1.00  0.00     0.180 C 
ATOM     22  C   UNL     1      17.536  28.745  17.781  1.00  0.00     0.202 C 
BRANCH  18  23
ATOM     23  C   UNL     1      15.913  31.579  17.444  1.00  0.00     0.191 C 
BRANCH  23  24
ATOM     24  O   UNL     1      16.504  32.077  18.620  1.00  0.00    -0.394 OA
ATOM     25  H   UNL     1      17.464  31.895  18.642  1.00  0.00     0.210 HD
ENDBRANCH  23  24
ENDBRANCH  18  23
BRANCH  20  26
ATOM     26  O   UNL     1      17.447  30.082  15.806  1.00  0.00    -0.350 OA
BRANCH  26  27
ATOM     27  C   UNL     1      18.152  29.830  14.678  1.00  0.00     0.169 C 
BRANCH  27  28
ATOM     28  C   UNL     1      19.533  29.299  14.781  1.00  0.00     0.119 C 
BRANCH  28  29
ATOM     29  N   UNL     1      20.327  29.737  15.878  1.00  0.00    -0.092 NA
ATOM     30  N   UNL     1      21.429  29.209  16.131  1.00  0.00     0.001 N 
ATOM     31  N   UNL     1      22.561  28.695  16.083  1.00  0.00    -0.003 NA
ENDBRANCH  28  29
ENDBRANCH  27  28
ENDBRANCH  26  27
ENDBRANCH  20  26
BRANCH  21  32
ATOM     32  O   UNL     1      17.087  28.038  20.018  1.00  0.00    -0.387 OA
ATOM     33  H   UNL     1      17.106  28.860  20.600  1.00  0.00     0.211 HD
ENDBRANCH  21  32
BRANCH  22  34
ATOM     34  O   UNL     1      18.431  27.676  17.682  1.00  0.00    -0.385 OA
ATOM     35  H   UNL     1      19.292  27.839  18.141  1.00  0.00     0.211 HD
ENDBRANCH  22  34
ENDBRANCH  16  17
ENDBRANCH  11  16
BRANCH  13  36
ATOM     36  O   UNL     1      13.187  28.438  21.865  1.00  0.00    -0.385 OA
ATOM     37  H   UNL     1      12.515  28.996  21.443  1.00  0.00     0.211 HD
ENDBRANCH  13  36
BRANCH  14  38
ATOM     38  O   UNL     1      14.038  28.881  24.503  1.00  0.00    -0.387 OA
ATOM     39  H   UNL     1      13.951  27.973  24.119  1.00  0.00     0.211 HD
ENDBRANCH  14  38
BRANCH  15  40
ATOM     40  O   UNL     1      16.494  29.543  24.075  1.00  0.00    -0.387 OA
ATOM     41  H   UNL     1      16.160  29.187  24.945  1.00  0.00     0.211 HD
ENDBRANCH  15  40
ENDBRANCH   9  10
ENDBRANCH   8   9
ENDBRANCH   3   8
BRANCH   3  42
ATOM     42  C   UNL     1      19.696  30.316  23.853  1.00  0.00     0.364 C 
ATOM     43  O   UNL     1      20.101  31.003  24.817  1.00  0.00    -0.246 OA
BRANCH  42  44
ATOM     44  O   UNL     1      19.335  29.014  24.057  1.00  0.00    -0.477 OA
ATOM     45  H   UNL     1      19.351  28.582  24.977  1.00  0.00     0.296 HD
ENDBRANCH  42  44
ENDBRANCH   3  42
BRANCH   6  46
ATOM     46  O   UNL     1      19.723  33.953  20.961  1.00  0.00    -0.391 OA
ATOM     47  H   UNL     1      19.206  33.764  20.128  1.00  0.00     0.211 HD
ENDBRANCH   6  46
BRANCH   7  48
ATOM     48  N   UNL     1      21.066  32.227  18.927  1.00  0.00    -0.348 N 
ATOM     49  C   UNL     1      20.343  32.840  17.876  1.00  0.00     0.217 C 
ATOM     50  H   UNL     1      22.085  32.082  18.819  1.00  0.00     0.163 HD
ATOM     51  C   UNL     1      20.988  33.284  16.605  1.00  0.00     0.114 C 
ATOM     52  O   UNL     1      19.104  33.013  18.032  1.00  0.00    -0.275 OA
ENDBRANCH   7  48
ENDBRANCH   1   2
BRANCH   1  53
ATOM     53  O   UNL     1      22.645  29.728  19.135  1.00  0.00    -0.388 OA
ATOM     54  H   UNL     1      23.317  29.431  19.813  1.00  0.00     0.211 HD
ENDBRANCH   1  53
BRANCH   1  55
ATOM     55  C   UNL     1      21.048  28.178  19.914  1.00  0.00     0.165 C 
BRANCH  55  56
ATOM     56  O   UNL     1      19.763  27.977  20.361  1.00  0.00    -0.388 OA
ATOM     57  H   UNL     1      19.587  27.063  20.682  1.00  0.00     0.211 HD
ENDBRANCH  55  56
BRANCH  55  58
ATOM     58  C   UNL     1      22.056  27.712  20.911  1.00  0.00     0.154 C 
BRANCH  58  59
ATOM     59  N   UNL     1      21.523  26.969  21.997  1.00  0.00    -0.319 N 
ATOM     60  C   UNL     1      21.337  25.561  22.020  1.00  0.00     0.407 C 
ATOM     61  H   UNL     1      21.219  27.477  22.900  1.00  0.00     0.167 HD
ATOM     62  O   UNL     1      21.645  24.840  21.056  1.00  0.00    -0.225 OA
BRANCH  60  63
ATOM     63  O   UNL     1      20.793  24.961  23.170  1.00  0.00    -0.443 OA
BRANCH  63  64
ATOM     64  C   UNL     1      21.537  24.851  24.337  1.00  0.00     0.294 C 
BRANCH  64  65
ATOM     65  C   UNL     1      21.484  26.045  25.203  1.00  0.00     0.120 A 
ATOM     66  C   UNL     1      22.542  26.606  25.892  1.00  0.00     0.139 A 
ATOM     67  N   UNL     1      20.422  26.804  25.500  1.00  0.00    -0.132 NA
ATOM     68  N   UNL     1      22.102  27.682  26.587  1.00  0.00    -0.241 N 
ATOM     69  N   UNL     1      20.816  27.772  26.324  1.00  0.00    -0.066 NA
BRANCH  68  70
ATOM     70  C   UNL     1      22.940  28.519  27.436  1.00  0.00     0.268 C 
BRANCH  70  71
ATOM     71  C   UNL     1      23.723  27.598  28.336  1.00  0.00     0.327 C 
ATOM     72  O   UNL     1      24.953  27.442  28.215  1.00  0.00    -0.250 OA
BRANCH  71  73
ATOM     73  O   UNL     1      23.099  26.883  29.343  1.00  0.00    -0.465 OA
BRANCH  73  74
ATOM     74  C   UNL     1      23.659  26.615  30.596  1.00  0.00     0.229 C 
ATOM     75  C   UNL     1      24.191  25.208  30.714  1.00  0.00     0.049 C 
ENDBRANCH  73  74
ENDBRANCH  71  73
ENDBRANCH  70  71
ENDBRANCH  68  70
ENDBRANCH  64  65
ENDBRANCH  63  64
ENDBRANCH  60  63
ENDBRANCH  58  59
ENDBRANCH  55  58
ENDBRANCH   1  55
TORSDOF 33
