REMARK VINA RESULT:    -5.717     13.205     17.368
REMARK INTER + INTRA:         -20.668
REMARK INTER:                 -13.765
REMARK INTRA:                  -6.903
REMARK UNBOUND:                -6.597
REMARK SMILES CC(=O)N[C@@H]1[C@@H](O)C[C@](OC[C@H]2O[C@@H](O[C@H]3[C@H](O)[C@@H](O)[C@H](OCCN=[N+]=[N-])O[C@@H]3CO)[C@H](O)[C@@H](O)[C@H]2O)(C(=O)O)O[C@H]1C(O)[C@H](O)CNC(=O)OCc1cn(-c2ccccc2)nn1
REMARK SMILES IDX 9 1 8 2 6 3 5 4 42 5 41 6 10 7 11 8 12 9 14 10 13 11 32 12
REMARK SMILES IDX 34 13 36 14 15 15 16 16 29 17 28 18 21 19 17 20 19 21 30 22
REMARK SMILES IDX 31 23 22 25 23 26 24 27 25 28 26 29 27 30 18 31 20 33 33 35
REMARK SMILES IDX 35 37 37 39 38 41 39 42 40 43 7 45 43 47 44 48 45 50 46 51
REMARK SMILES IDX 47 53 48 54 49 55 50 57 51 58 52 59 53 60 54 61 63 62 55 63
REMARK SMILES IDX 62 64 56 65 57 66 61 67 58 68 60 69 59 70 4 71 2 72 1 74
REMARK SMILES IDX 3 75
REMARK H PARENT 31 24 18 32 20 34 33 36 35 38 37 40 40 44 7 46 44 49 46 52
REMARK H PARENT 48 56 4 73
REMARK Flexibility Score: inf
ROOT
ATOM      1  C   UNL     1       1.531  25.330  26.051  1.00  0.00     0.272 C 
ATOM      2  C   UNL     1       2.217  25.792  24.819  1.00  0.00     0.113 C 
ATOM      3  C   UNL     1       2.937  27.083  24.943  1.00  0.00     0.145 C 
ATOM      4  C   UNL     1       3.672  27.158  26.268  1.00  0.00     0.142 C 
ATOM      5  C   UNL     1       2.621  26.982  27.341  1.00  0.00     0.178 C 
ATOM      6  O   UNL     1       2.220  25.674  27.253  1.00  0.00    -0.332 OA
ENDROOT
BRANCH   1   7
ATOM      7  O   UNL     1       1.405  23.978  26.178  1.00  0.00    -0.338 OA
BRANCH   7   8
ATOM      8  C   UNL     1       2.253  23.203  26.829  1.00  0.00     0.199 C 
BRANCH   8   9
ATOM      9  C   UNL     1       1.844  22.267  27.899  1.00  0.00     0.179 C 
ATOM     10  C   UNL     1       2.491  21.684  30.065  1.00  0.00     0.282 C 
ATOM     11  O   UNL     1       2.871  22.372  28.892  1.00  0.00    -0.341 OA
ATOM     12  C   UNL     1       1.241  20.879  29.927  1.00  0.00     0.202 C 
ATOM     13  C   UNL     1       0.071  21.746  29.514  1.00  0.00     0.179 C 
ATOM     14  C   UNL     1       0.579  22.805  28.579  1.00  0.00     0.177 C 
BRANCH  10  15
ATOM     15  O   UNL     1       2.323  22.598  31.040  1.00  0.00    -0.341 OA
BRANCH  15  16
ATOM     16  C   UNL     1       3.050  22.582  32.172  1.00  0.00     0.184 C 
ATOM     17  C   UNL     1       3.846  21.320  32.413  1.00  0.00     0.178 C 
ATOM     18  O   UNL     1       4.047  21.259  33.806  1.00  0.00    -0.341 OA
ATOM     19  C   UNL     1       2.862  20.689  34.321  1.00  0.00     0.281 C 
ATOM     20  C   UNL     1       2.216  22.863  33.423  1.00  0.00     0.180 C 
ATOM     21  C   UNL     1       1.673  21.566  33.987  1.00  0.00     0.202 C 
BRANCH  17  22
ATOM     22  C   UNL     1       5.217  21.372  31.775  1.00  0.00     0.191 C 
BRANCH  22  23
ATOM     23  O   UNL     1       5.795  22.609  32.073  1.00  0.00    -0.394 OA
ATOM     24  H   UNL     1       6.003  23.127  31.234  1.00  0.00     0.210 HD
ENDBRANCH  22  23
ENDBRANCH  17  22
BRANCH  19  25
ATOM     25  O   UNL     1       2.916  20.518  35.670  1.00  0.00    -0.350 OA
BRANCH  25  26
ATOM     26  C   UNL     1       2.423  19.351  36.186  1.00  0.00     0.169 C 
BRANCH  26  27
ATOM     27  C   UNL     1       3.380  18.201  36.192  1.00  0.00     0.119 C 
BRANCH  27  28
ATOM     28  N   UNL     1       3.513  17.624  37.479  1.00  0.00    -0.092 NA
ATOM     29  N   UNL     1       4.593  17.633  38.098  1.00  0.00     0.001 N 
ATOM     30  N   UNL     1       5.780  17.438  38.405  1.00  0.00    -0.003 NA
ENDBRANCH  27  28
ENDBRANCH  26  27
ENDBRANCH  25  26
ENDBRANCH  19  25
BRANCH  20  31
ATOM     31  O   UNL     1       2.941  23.476  34.434  1.00  0.00    -0.387 OA
ATOM     32  H   UNL     1       2.375  23.675  35.219  1.00  0.00     0.211 HD
ENDBRANCH  20  31
BRANCH  21  33
ATOM     33  O   UNL     1       0.817  20.925  33.115  1.00  0.00    -0.385 OA
ATOM     34  H   UNL     1       0.227  20.269  33.551  1.00  0.00     0.211 HD
ENDBRANCH  21  33
ENDBRANCH  15  16
ENDBRANCH  10  15
BRANCH  12  35
ATOM     35  O   UNL     1       1.373  19.722  29.170  1.00  0.00    -0.385 OA
ATOM     36  H   UNL     1       1.220  19.969  28.222  1.00  0.00     0.211 HD
ENDBRANCH  12  35
BRANCH  13  37
ATOM     37  O   UNL     1      -0.446  22.359  30.639  1.00  0.00    -0.387 OA
ATOM     38  H   UNL     1      -1.337  22.026  30.911  1.00  0.00     0.211 HD
ENDBRANCH  13  37
BRANCH  14  39
ATOM     39  O   UNL     1       0.994  23.954  29.292  1.00  0.00    -0.387 OA
ATOM     40  H   UNL     1       1.005  23.789  30.257  1.00  0.00     0.211 HD
ENDBRANCH  14  39
ENDBRANCH   8   9
ENDBRANCH   7   8
ENDBRANCH   1   7
BRANCH   1  41
ATOM     41  C   UNL     1       0.252  26.058  26.216  1.00  0.00     0.364 C 
ATOM     42  O   UNL     1      -0.255  26.701  25.298  1.00  0.00    -0.246 OA
BRANCH  41  43
ATOM     43  O   UNL     1      -0.422  26.032  27.455  1.00  0.00    -0.477 OA
ATOM     44  H   UNL     1       0.037  26.454  28.260  1.00  0.00     0.296 HD
ENDBRANCH  41  43
ENDBRANCH   1  41
BRANCH   3  45
ATOM     45  O   UNL     1       3.807  27.239  23.867  1.00  0.00    -0.391 OA
ATOM     46  H   UNL     1       3.332  27.743  23.184  1.00  0.00     0.211 HD
ENDBRANCH   3  45
BRANCH   5  47
ATOM     47  C   UNL     1       3.219  27.159  28.732  1.00  0.00     0.176 C 
BRANCH  47  48
ATOM     48  O   UNL     1       2.187  27.202  29.630  1.00  0.00    -0.388 OA
ATOM     49  H   UNL     1       1.303  27.360  29.232  1.00  0.00     0.211 HD
ENDBRANCH  47  48
BRANCH  47  50
ATOM     50  C   UNL     1       4.265  26.194  29.108  1.00  0.00     0.165 C 
BRANCH  50  51
ATOM     51  O   UNL     1       3.580  25.017  29.548  1.00  0.00    -0.388 OA
ATOM     52  H   UNL     1       2.817  24.911  28.951  1.00  0.00     0.211 HD
ENDBRANCH  50  51
BRANCH  50  53
ATOM     53  C   UNL     1       5.035  26.639  30.362  1.00  0.00     0.154 C 
BRANCH  53  54
ATOM     54  N   UNL     1       5.124  25.587  31.343  1.00  0.00    -0.319 N 
ATOM     55  C   UNL     1       5.086  25.865  32.753  1.00  0.00     0.407 C 
ATOM     56  H   UNL     1       5.219  24.580  31.093  1.00  0.00     0.167 HD
ATOM     57  O   UNL     1       4.959  27.038  33.172  1.00  0.00    -0.225 OA
BRANCH  55  58
ATOM     58  O   UNL     1       5.183  24.844  33.682  1.00  0.00    -0.443 OA
BRANCH  58  59
ATOM     59  C   UNL     1       5.873  25.027  34.912  1.00  0.00     0.294 C 
BRANCH  59  60
ATOM     60  C   UNL     1       7.292  24.655  34.635  1.00  0.00     0.121 A 
ATOM     61  C   UNL     1       8.378  25.358  35.139  1.00  0.00     0.144 A 
ATOM     62  N   UNL     1       7.812  23.659  33.913  1.00  0.00    -0.131 NA
ATOM     63  N   UNL     1       9.524  24.770  34.707  1.00  0.00    -0.220 N 
ATOM     64  N   UNL     1       9.144  23.750  33.971  1.00  0.00    -0.062 NA
BRANCH  63  65
ATOM     65  C   UNL     1      10.851  25.182  34.993  1.00  0.00     0.066 A 
ATOM     66  C   UNL     1      11.672  24.456  35.823  1.00  0.00     0.028 A 
ATOM     67  C   UNL     1      11.350  26.333  34.426  1.00  0.00     0.028 A 
ATOM     68  C   UNL     1      12.966  24.846  36.100  1.00  0.00     0.002 A 
ATOM     69  C   UNL     1      12.651  26.722  34.707  1.00  0.00     0.002 A 
ATOM     70  C   UNL     1      13.486  26.011  35.534  1.00  0.00     0.000 A 
ENDBRANCH  63  65
ENDBRANCH  59  60
ENDBRANCH  58  59
ENDBRANCH  55  58
ENDBRANCH  53  54
ENDBRANCH  50  53
ENDBRANCH  47  50
ENDBRANCH   5  47
BRANCH   4  71
ATOM     71  N   UNL     1       4.484  28.319  26.364  1.00  0.00    -0.348 N 
ATOM     72  C   UNL     1       5.861  28.228  26.034  1.00  0.00     0.217 C 
ATOM     73  H   UNL     1       4.107  29.240  26.653  1.00  0.00     0.163 HD
ATOM     74  C   UNL     1       6.739  29.434  26.124  1.00  0.00     0.114 C 
ATOM     75  O   UNL     1       6.401  27.145  25.654  1.00  0.00    -0.275 OA
ENDBRANCH   4  71
TORSDOF 30
