REMARK VINA RESULT:    -6.027      2.909      6.608
REMARK INTER + INTRA:         -21.134
REMARK INTER:                 -15.252
REMARK INTRA:                  -5.881
REMARK UNBOUND:                -6.298
REMARK SMILES CC(=O)N[C@@H]1[C@@H](O)C[C@](OC[C@H]2O[C@@H](O[C@H]3[C@H](O)[C@@H](O)[C@H](OCCN=[N+]=[N-])O[C@@H]3CO)[C@H](O)[C@@H](O)[C@H]2O)(C(=O)O)O[C@H]1C(O)[C@H](O)CNC(=O)OCc1cn(-c2c(C)cc(C)cc2C)nn1
REMARK SMILES IDX 9 1 8 2 6 3 5 4 42 5 41 6 10 7 11 8 12 9 14 10 13 11 32 12
REMARK SMILES IDX 34 13 36 14 15 15 16 16 29 17 28 18 21 19 17 20 19 21 30 22
REMARK SMILES IDX 31 23 22 25 23 26 24 27 25 28 26 29 27 30 18 31 20 33 33 35
REMARK SMILES IDX 35 37 37 39 38 41 39 42 40 43 7 45 43 47 44 48 45 50 46 51
REMARK SMILES IDX 47 53 48 54 49 55 50 57 51 58 52 59 53 60 54 61 66 62 55 63
REMARK SMILES IDX 65 64 56 65 57 66 63 67 58 68 59 69 62 70 64 71 60 72 61 73
REMARK SMILES IDX 4 74 2 75 1 77 3 78
REMARK H PARENT 31 24 18 32 20 34 33 36 35 38 37 40 40 44 7 46 44 49 46 52
REMARK H PARENT 48 56 4 76
REMARK Flexibility Score: inf
ROOT
ATOM      1  C   UNL     1      19.387  30.344  21.935  1.00  0.00     0.272 C 
ATOM      2  C   UNL     1      20.233  31.310  21.202  1.00  0.00     0.113 C 
ATOM      3  C   UNL     1      20.265  31.173  19.700  1.00  0.00     0.145 C 
ATOM      4  C   UNL     1      20.155  29.731  19.317  1.00  0.00     0.142 C 
ATOM      5  C   UNL     1      20.654  28.946  20.536  1.00  0.00     0.178 C 
ATOM      6  O   UNL     1      19.615  29.030  21.502  1.00  0.00    -0.332 OA
ENDROOT
BRANCH   1   7
ATOM      7  O   UNL     1      18.047  30.586  21.990  1.00  0.00    -0.338 OA
BRANCH   7   8
ATOM      8  C   UNL     1      17.584  31.831  22.205  1.00  0.00     0.199 C 
BRANCH   8   9
ATOM      9  C   UNL     1      16.050  31.773  22.134  1.00  0.00     0.179 C 
ATOM     10  C   UNL     1      14.461  30.475  21.091  1.00  0.00     0.282 C 
ATOM     11  O   UNL     1      15.639  31.192  20.950  1.00  0.00    -0.341 OA
ATOM     12  C   UNL     1      14.809  29.263  21.916  1.00  0.00     0.202 C 
ATOM     13  C   UNL     1      15.156  29.784  23.303  1.00  0.00     0.179 C 
ATOM     14  C   UNL     1      15.414  31.248  23.367  1.00  0.00     0.177 C 
BRANCH  10  15
ATOM     15  O   UNL     1      13.814  30.242  19.938  1.00  0.00    -0.341 OA
BRANCH  15  16
ATOM     16  C   UNL     1      14.352  30.667  18.777  1.00  0.00     0.184 C 
ATOM     17  C   UNL     1      13.240  31.061  17.820  1.00  0.00     0.178 C 
ATOM     18  O   UNL     1      13.007  30.127  16.855  1.00  0.00    -0.341 OA
ATOM     19  C   UNL     1      14.073  29.899  15.998  1.00  0.00     0.281 C 
ATOM     20  C   UNL     1      15.162  29.523  18.161  1.00  0.00     0.180 C 
ATOM     21  C   UNL     1      15.386  29.781  16.682  1.00  0.00     0.202 C 
BRANCH  17  22
ATOM     22  C   UNL     1      13.471  32.455  17.263  1.00  0.00     0.191 C 
BRANCH  22  23
ATOM     23  O   UNL     1      12.392  32.855  16.478  1.00  0.00    -0.394 OA
ATOM     24  H   UNL     1      12.635  33.049  15.544  1.00  0.00     0.210 HD
ENDBRANCH  22  23
ENDBRANCH  17  22
BRANCH  19  25
ATOM     25  O   UNL     1      14.150  30.895  15.014  1.00  0.00    -0.350 OA
BRANCH  25  26
ATOM     26  C   UNL     1      14.173  30.404  13.733  1.00  0.00     0.169 C 
BRANCH  26  27
ATOM     27  C   UNL     1      12.914  30.610  12.947  1.00  0.00     0.119 C 
BRANCH  27  28
ATOM     28  N   UNL     1      12.371  29.361  12.443  1.00  0.00    -0.092 NA
ATOM     29  N   UNL     1      12.315  28.349  13.170  1.00  0.00     0.001 N 
ATOM     30  N   UNL     1      12.292  27.489  14.058  1.00  0.00    -0.003 NA
ENDBRANCH  27  28
ENDBRANCH  26  27
ENDBRANCH  25  26
ENDBRANCH  19  25
BRANCH  20  31
ATOM     31  O   UNL     1      16.389  29.351  18.752  1.00  0.00    -0.387 OA
ATOM     32  H   UNL     1      16.378  28.820  19.590  1.00  0.00     0.211 HD
ENDBRANCH  20  31
BRANCH  21  33
ATOM     33  O   UNL     1      16.064  28.674  16.177  1.00  0.00    -0.385 OA
ATOM     34  H   UNL     1      17.052  28.796  16.245  1.00  0.00     0.211 HD
ENDBRANCH  21  33
ENDBRANCH  15  16
ENDBRANCH  10  15
BRANCH  12  35
ATOM     35  O   UNL     1      13.735  28.388  22.063  1.00  0.00    -0.385 OA
ATOM     36  H   UNL     1      13.676  27.857  21.212  1.00  0.00     0.211 HD
ENDBRANCH  12  35
BRANCH  13  37
ATOM     37  O   UNL     1      16.252  29.108  23.837  1.00  0.00    -0.387 OA
ATOM     38  H   UNL     1      16.249  28.138  23.636  1.00  0.00     0.211 HD
ENDBRANCH  13  37
BRANCH  14  39
ATOM     39  O   UNL     1      16.263  31.477  24.477  1.00  0.00    -0.387 OA
ATOM     40  H   UNL     1      16.171  30.755  25.140  1.00  0.00     0.211 HD
ENDBRANCH  14  39
ENDBRANCH   8   9
ENDBRANCH   7   8
ENDBRANCH   1   7
BRANCH   1  41
ATOM     41  C   UNL     1      19.919  30.313  23.351  1.00  0.00     0.364 C 
ATOM     42  O   UNL     1      21.067  30.715  23.565  1.00  0.00    -0.246 OA
BRANCH  41  43
ATOM     43  O   UNL     1      19.150  29.848  24.400  1.00  0.00    -0.477 OA
ATOM     44  H   UNL     1      18.156  29.966  24.481  1.00  0.00     0.296 HD
ENDBRANCH  41  43
ENDBRANCH   1  41
BRANCH   3  45
ATOM     45  O   UNL     1      19.242  31.973  19.194  1.00  0.00    -0.391 OA
ATOM     46  H   UNL     1      19.652  32.820  18.825  1.00  0.00     0.211 HD
ENDBRANCH   3  45
BRANCH   5  47
ATOM     47  C   UNL     1      20.831  27.496  20.314  1.00  0.00     0.176 C 
BRANCH  47  48
ATOM     48  O   UNL     1      20.440  26.850  21.544  1.00  0.00    -0.388 OA
ATOM     49  H   UNL     1      19.662  26.265  21.356  1.00  0.00     0.211 HD
ENDBRANCH  47  48
BRANCH  47  50
ATOM     50  C   UNL     1      22.245  26.980  20.135  1.00  0.00     0.165 C 
BRANCH  50  51
ATOM     51  O   UNL     1      22.305  26.788  18.701  1.00  0.00    -0.388 OA
ATOM     52  H   UNL     1      21.436  27.010  18.315  1.00  0.00     0.211 HD
ENDBRANCH  50  51
BRANCH  50  53
ATOM     53  C   UNL     1      22.399  25.575  20.661  1.00  0.00     0.154 C 
BRANCH  53  54
ATOM     54  N   UNL     1      23.074  25.440  21.915  1.00  0.00    -0.319 N 
ATOM     55  C   UNL     1      22.419  24.785  23.002  1.00  0.00     0.407 C 
ATOM     56  H   UNL     1      24.053  25.822  22.050  1.00  0.00     0.167 HD
ATOM     57  O   UNL     1      21.250  24.365  22.784  1.00  0.00    -0.225 OA
BRANCH  55  58
ATOM     58  O   UNL     1      23.022  24.609  24.242  1.00  0.00    -0.443 OA
BRANCH  58  59
ATOM     59  C   UNL     1      22.307  24.734  25.448  1.00  0.00     0.294 C 
BRANCH  59  60
ATOM     60  C   UNL     1      23.052  25.456  26.515  1.00  0.00     0.121 A 
ATOM     61  C   UNL     1      24.211  25.080  27.153  1.00  0.00     0.144 A 
ATOM     62  N   UNL     1      22.711  26.654  27.073  1.00  0.00    -0.131 NA
ATOM     63  N   UNL     1      24.542  26.021  28.053  1.00  0.00    -0.220 N 
ATOM     64  N   UNL     1      23.598  26.958  27.966  1.00  0.00    -0.062 NA
BRANCH  63  65
ATOM     65  C   UNL     1      25.666  26.052  28.953  1.00  0.00     0.072 A 
ATOM     66  C   UNL     1      26.833  26.590  28.470  1.00  0.00    -0.025 A 
ATOM     67  C   UNL     1      25.545  25.562  30.206  1.00  0.00    -0.025 A 
ATOM     68  C   UNL     1      26.926  27.124  27.067  1.00  0.00     0.047 C 
ATOM     69  C   UNL     1      27.923  26.625  29.316  1.00  0.00     0.009 A 
ATOM     70  C   UNL     1      26.677  25.619  31.027  1.00  0.00     0.009 A 
ATOM     71  C   UNL     1      24.299  24.975  30.764  1.00  0.00     0.047 C 
ATOM     72  C   UNL     1      27.871  26.146  30.600  1.00  0.00    -0.050 A 
ATOM     73  C   UNL     1      29.078  26.215  31.461  1.00  0.00     0.044 C 
ENDBRANCH  63  65
ENDBRANCH  59  60
ENDBRANCH  58  59
ENDBRANCH  55  58
ENDBRANCH  53  54
ENDBRANCH  50  53
ENDBRANCH  47  50
ENDBRANCH   5  47
BRANCH   4  74
ATOM     74  N   UNL     1      20.756  29.352  18.112  1.00  0.00    -0.348 N 
ATOM     75  C   UNL     1      20.038  28.791  17.017  1.00  0.00     0.217 C 
ATOM     76  H   UNL     1      21.773  29.494  17.972  1.00  0.00     0.163 HD
ATOM     77  C   UNL     1      20.712  28.399  15.742  1.00  0.00     0.114 C 
ATOM     78  O   UNL     1      18.813  28.638  17.154  1.00  0.00    -0.275 OA
ENDBRANCH   4  74
TORSDOF 30
