REMARK VINA RESULT:    -5.413      4.849      8.839
REMARK INTER + INTRA:         -20.663
REMARK INTER:                 -15.411
REMARK INTRA:                  -5.251
REMARK UNBOUND:                -6.390
REMARK SMILES CCOC(=O)Cn1cc(COC(=O)NC[C@@H](O)C(O)[C@@H]2O[C@@](OC[C@H]3O[C@@H](O[C@H]4[C@H](O)[C@@H](O)[C@H](OCCN=[N+]=[N-])O[C@@H]4CO)[C@H](O)[C@@H](O)[C@H]3O)(C(=O)O)C[C@H](O)[C@H]2NC(C)=O)nn1
REMARK SMILES IDX 18 1 20 2 22 3 54 4 21 5 55 6 57 7 23 8 24 9 25 10 27 11
REMARK SMILES IDX 26 12 45 13 47 14 49 15 28 16 29 17 42 18 41 19 34 20 30 21
REMARK SMILES IDX 32 22 43 23 44 24 35 26 36 27 37 28 38 29 39 30 40 31 31 32
REMARK SMILES IDX 33 34 46 36 48 38 50 40 51 42 52 43 53 44 56 46 58 48 59 49
REMARK SMILES IDX 60 51 61 52 19 53 16 55 17 56 15 58 14 59 12 60 13 62 11 63
REMARK SMILES IDX 10 64 9 65 8 66 62 67 7 68 63 69 6 70 4 71 5 72 3 73 2 74
REMARK SMILES IDX 1 75
REMARK H PARENT 44 25 31 33 33 35 46 37 48 39 50 41 53 45 56 47 58 50 19 54
REMARK H PARENT 17 57 14 61
REMARK Flexibility Score: inf
ROOT
ATOM      1  C   UNL     1      23.352  24.619  18.690  1.00  0.00     0.176 C 
ENDROOT
BRANCH   1   2
ATOM      2  C   UNL     1      23.494  24.276  20.147  1.00  0.00     0.178 C 
ATOM      3  C   UNL     1      22.946  25.082  22.273  1.00  0.00     0.272 C 
ATOM      4  C   UNL     1      23.921  24.040  22.700  1.00  0.00     0.113 C 
ATOM      5  O   UNL     1      22.575  24.937  20.919  1.00  0.00    -0.332 OA
ATOM      6  C   UNL     1      25.175  24.004  21.886  1.00  0.00     0.145 C 
ATOM      7  C   UNL     1      24.896  24.690  20.558  1.00  0.00     0.142 C 
BRANCH   3   8
ATOM      8  O   UNL     1      23.339  26.386  22.484  1.00  0.00    -0.338 OA
BRANCH   8   9
ATOM      9  C   UNL     1      22.386  27.343  22.560  1.00  0.00     0.199 C 
BRANCH   9  10
ATOM     10  C   UNL     1      22.558  28.290  21.357  1.00  0.00     0.179 C 
ATOM     11  C   UNL     1      21.398  29.725  19.951  1.00  0.00     0.282 C 
ATOM     12  O   UNL     1      21.359  28.687  20.855  1.00  0.00    -0.341 OA
ATOM     13  C   UNL     1      22.170  30.917  20.426  1.00  0.00     0.202 C 
ATOM     14  C   UNL     1      23.589  30.460  20.652  1.00  0.00     0.179 C 
ATOM     15  C   UNL     1      23.543  29.374  21.674  1.00  0.00     0.177 C 
BRANCH  11  16
ATOM     16  O   UNL     1      20.139  30.150  19.559  1.00  0.00    -0.341 OA
BRANCH  16  17
ATOM     17  C   UNL     1      19.499  29.340  18.656  1.00  0.00     0.184 C 
ATOM     18  C   UNL     1      19.236  30.012  17.326  1.00  0.00     0.178 C 
ATOM     19  O   UNL     1      17.884  30.258  17.135  1.00  0.00    -0.341 OA
ATOM     20  C   UNL     1      17.139  29.061  17.024  1.00  0.00     0.281 C 
ATOM     21  C   UNL     1      18.160  28.889  19.240  1.00  0.00     0.180 C 
ATOM     22  C   UNL     1      17.455  28.114  18.137  1.00  0.00     0.202 C 
BRANCH  18  23
ATOM     23  C   UNL     1      19.872  29.221  16.212  1.00  0.00     0.191 C 
BRANCH  23  24
ATOM     24  O   UNL     1      20.434  28.027  16.702  1.00  0.00    -0.394 OA
ATOM     25  H   UNL     1      20.150  27.851  17.620  1.00  0.00     0.210 HD
ENDBRANCH  23  24
ENDBRANCH  18  23
BRANCH  20  26
ATOM     26  O   UNL     1      17.309  28.498  15.786  1.00  0.00    -0.350 OA
BRANCH  26  27
ATOM     27  C   UNL     1      16.506  28.860  14.758  1.00  0.00     0.169 C 
BRANCH  27  28
ATOM     28  C   UNL     1      15.083  29.185  15.019  1.00  0.00     0.119 C 
BRANCH  28  29
ATOM     29  N   UNL     1      14.195  29.195  13.907  1.00  0.00    -0.092 NA
ATOM     30  N   UNL     1      13.268  28.364  13.810  1.00  0.00     0.001 N 
ATOM     31  N   UNL     1      12.312  27.594  14.008  1.00  0.00    -0.003 NA
ENDBRANCH  28  29
ENDBRANCH  27  28
ENDBRANCH  26  27
ENDBRANCH  20  26
BRANCH  21  32
ATOM     32  O   UNL     1      18.395  28.051  20.333  1.00  0.00    -0.387 OA
ATOM     33  H   UNL     1      18.366  27.108  19.981  1.00  0.00     0.211 HD
ENDBRANCH  21  32
BRANCH  22  34
ATOM     34  O   UNL     1      16.321  27.491  18.665  1.00  0.00    -0.385 OA
ATOM     35  H   UNL     1      15.881  26.871  18.033  1.00  0.00     0.211 HD
ENDBRANCH  22  34
ENDBRANCH  16  17
ENDBRANCH  11  16
BRANCH  13  36
ATOM     36  O   UNL     1      22.130  31.896  19.441  1.00  0.00    -0.385 OA
ATOM     37  H   UNL     1      22.031  31.571  18.533  1.00  0.00     0.211 HD
ENDBRANCH  13  36
BRANCH  14  38
ATOM     38  O   UNL     1      24.314  31.556  21.173  1.00  0.00    -0.387 OA
ATOM     39  H   UNL     1      24.262  32.326  20.553  1.00  0.00     0.211 HD
ENDBRANCH  14  38
BRANCH  15  40
ATOM     40  O   UNL     1      23.257  29.980  22.920  1.00  0.00    -0.387 OA
ATOM     41  H   UNL     1      23.206  30.954  22.713  1.00  0.00     0.211 HD
ENDBRANCH  15  40
ENDBRANCH   9  10
ENDBRANCH   8   9
ENDBRANCH   3   8
BRANCH   3  42
ATOM     42  C   UNL     1      21.680  24.835  23.005  1.00  0.00     0.364 C 
ATOM     43  O   UNL     1      21.719  24.516  24.214  1.00  0.00    -0.246 OA
BRANCH  42  44
ATOM     44  O   UNL     1      20.473  24.948  22.375  1.00  0.00    -0.477 OA
ATOM     45  H   UNL     1      20.315  24.600  21.433  1.00  0.00     0.296 HD
ENDBRANCH  42  44
ENDBRANCH   3  42
BRANCH   6  46
ATOM     46  O   UNL     1      26.289  24.511  22.509  1.00  0.00    -0.391 OA
ATOM     47  H   UNL     1      26.015  25.293  23.066  1.00  0.00     0.211 HD
ENDBRANCH   6  46
BRANCH   7  48
ATOM     48  N   UNL     1      25.879  24.294  19.558  1.00  0.00    -0.348 N 
ATOM     49  C   UNL     1      27.034  25.066  19.290  1.00  0.00     0.217 C 
ATOM     50  H   UNL     1      25.727  23.416  19.032  1.00  0.00     0.163 HD
ATOM     51  C   UNL     1      28.049  24.671  18.268  1.00  0.00     0.114 C 
ATOM     52  O   UNL     1      27.203  26.129  19.948  1.00  0.00    -0.275 OA
ENDBRANCH   7  48
ENDBRANCH   1   2
BRANCH   1  53
ATOM     53  O   UNL     1      22.290  23.939  18.129  1.00  0.00    -0.388 OA
ATOM     54  H   UNL     1      21.439  24.038  18.646  1.00  0.00     0.211 HD
ENDBRANCH   1  53
BRANCH   1  55
ATOM     55  C   UNL     1      23.163  26.106  18.445  1.00  0.00     0.165 C 
BRANCH  55  56
ATOM     56  O   UNL     1      21.861  26.516  18.607  1.00  0.00    -0.388 OA
ATOM     57  H   UNL     1      21.618  27.307  18.071  1.00  0.00     0.211 HD
ENDBRANCH  55  56
BRANCH  55  58
ATOM     58  C   UNL     1      23.677  26.430  17.082  1.00  0.00     0.154 C 
BRANCH  58  59
ATOM     59  N   UNL     1      23.313  25.501  16.071  1.00  0.00    -0.319 N 
ATOM     60  C   UNL     1      22.940  25.834  14.742  1.00  0.00     0.407 C 
ATOM     61  H   UNL     1      23.306  24.443  16.289  1.00  0.00     0.167 HD
ATOM     62  O   UNL     1      22.906  27.010  14.342  1.00  0.00    -0.225 OA
BRANCH  60  63
ATOM     63  O   UNL     1      22.601  24.803  13.848  1.00  0.00    -0.443 OA
BRANCH  63  64
ATOM     64  C   UNL     1      22.436  23.498  14.293  1.00  0.00     0.294 C 
BRANCH  64  65
ATOM     65  C   UNL     1      22.174  22.521  13.219  1.00  0.00     0.120 A 
ATOM     66  C   UNL     1      20.952  22.254  12.633  1.00  0.00     0.139 A 
ATOM     67  N   UNL     1      23.045  21.704  12.614  1.00  0.00    -0.132 NA
ATOM     68  N   UNL     1      21.107  21.289  11.695  1.00  0.00    -0.241 N 
ATOM     69  N   UNL     1      22.386  20.982  11.711  1.00  0.00    -0.066 NA
BRANCH  68  70
ATOM     70  C   UNL     1      20.029  20.747  10.877  1.00  0.00     0.268 C 
BRANCH  70  71
ATOM     71  C   UNL     1      19.742  19.357  11.382  1.00  0.00     0.327 C 
ATOM     72  O   UNL     1      19.624  19.104  12.597  1.00  0.00    -0.250 OA
BRANCH  71  73
ATOM     73  O   UNL     1      19.596  18.295  10.507  1.00  0.00    -0.465 OA
BRANCH  73  74
ATOM     74  C   UNL     1      19.491  18.416   9.117  1.00  0.00     0.229 C 
ATOM     75  C   UNL     1      20.314  17.393   8.374  1.00  0.00     0.049 C 
ENDBRANCH  73  74
ENDBRANCH  71  73
ENDBRANCH  70  71
ENDBRANCH  68  70
ENDBRANCH  64  65
ENDBRANCH  63  64
ENDBRANCH  60  63
ENDBRANCH  58  59
ENDBRANCH  55  58
ENDBRANCH   1  55
TORSDOF 33
