REMARK VINA RESULT:    -6.123      4.083      9.390
REMARK INTER + INTRA:         -22.275
REMARK INTER:                 -12.676
REMARK INTRA:                  -9.600
REMARK UNBOUND:                -6.131
REMARK SMILES COCC(C(N)=O)n1cc(COC(=O)NC[C@@H](O)C(O)[C@@H]2O[C@@](OC[C@H]3O[C@@H](O[C@H]4[C@H](O)[C@@H](O)[C@H](OCCN=[N+]=[N-])O[C@@H]4CO)[C@H](O)[C@@H](O)[C@H]3O)(C(=O)O)C[C@H](O)[C@H]2NC(C)=O)nn1
REMARK SMILES IDX 23 1 55 2 56 3 58 4 21 5 22 6 24 7 25 8 26 9 28 10 27 11
REMARK SMILES IDX 46 12 48 13 50 14 29 15 30 16 43 17 42 18 35 19 31 20 33 21
REMARK SMILES IDX 44 22 45 23 36 25 37 26 38 27 39 28 40 29 41 30 32 31 34 33
REMARK SMILES IDX 47 35 49 37 51 39 52 41 53 42 54 43 57 45 19 47 20 48 17 50
REMARK SMILES IDX 18 51 16 53 15 54 13 55 14 57 12 58 11 59 10 60 9 61 63 62
REMARK SMILES IDX 8 63 64 64 4 65 3 66 2 67 1 68 5 69 7 70 6 71 59 74 60 75
REMARK SMILES IDX 61 77 62 78
REMARK H PARENT 45 24 32 32 34 34 47 36 49 38 51 40 54 44 57 46 20 49 18 52
REMARK H PARENT 15 56 6 72 6 73 59 76
REMARK Flexibility Score: inf
ROOT
ATOM      1  C   UNL     1      22.681  26.107  20.354  1.00  0.00     0.272 C 
ATOM      2  C   UNL     1      22.560  24.940  21.256  1.00  0.00     0.113 C 
ATOM      3  C   UNL     1      21.796  25.131  22.514  1.00  0.00     0.145 C 
ATOM      4  C   UNL     1      22.065  26.499  23.082  1.00  0.00     0.142 C 
ATOM      5  C   UNL     1      23.321  27.024  22.404  1.00  0.00     0.178 C 
ATOM      6  O   UNL     1      23.066  27.237  21.074  1.00  0.00    -0.332 OA
ENDROOT
BRANCH   1   7
ATOM      7  O   UNL     1      21.581  26.450  19.618  1.00  0.00    -0.338 OA
BRANCH   7   8
ATOM      8  C   UNL     1      21.215  27.755  19.583  1.00  0.00     0.199 C 
BRANCH   8   9
ATOM      9  C   UNL     1      21.350  28.365  18.182  1.00  0.00     0.179 C 
ATOM     10  C   UNL     1      19.523  29.760  17.848  1.00  0.00     0.282 C 
ATOM     11  O   UNL     1      20.135  28.542  17.585  1.00  0.00    -0.341 OA
ATOM     12  C   UNL     1      20.394  30.932  17.555  1.00  0.00     0.202 C 
ATOM     13  C   UNL     1      21.694  30.870  18.288  1.00  0.00     0.179 C 
ATOM     14  C   UNL     1      22.290  29.517  18.135  1.00  0.00     0.177 C 
BRANCH  10  15
ATOM     15  O   UNL     1      18.993  29.823  19.124  1.00  0.00    -0.341 OA
BRANCH  15  16
ATOM     16  C   UNL     1      17.600  29.796  19.086  1.00  0.00     0.184 C 
ATOM     17  C   UNL     1      16.920  30.648  20.089  1.00  0.00     0.178 C 
ATOM     18  O   UNL     1      15.566  30.710  19.875  1.00  0.00    -0.341 OA
ATOM     19  C   UNL     1      15.011  29.554  19.322  1.00  0.00     0.281 C 
ATOM     20  C   UNL     1      17.209  28.341  19.400  1.00  0.00     0.180 C 
ATOM     21  C   UNL     1      15.768  28.317  19.780  1.00  0.00     0.202 C 
BRANCH  17  22
ATOM     22  C   UNL     1      17.418  32.080  20.148  1.00  0.00     0.191 C 
BRANCH  22  23
ATOM     23  O   UNL     1      18.727  32.106  20.625  1.00  0.00    -0.394 OA
ATOM     24  H   UNL     1      19.388  31.966  19.907  1.00  0.00     0.210 HD
ENDBRANCH  22  23
ENDBRANCH  17  22
BRANCH  19  25
ATOM     25  O   UNL     1      14.943  29.677  17.979  1.00  0.00    -0.350 OA
BRANCH  25  26
ATOM     26  C   UNL     1      14.268  30.701  17.410  1.00  0.00     0.169 C 
BRANCH  26  27
ATOM     27  C   UNL     1      14.928  31.453  16.308  1.00  0.00     0.119 C 
BRANCH  27  28
ATOM     28  N   UNL     1      16.291  31.782  16.584  1.00  0.00    -0.092 NA
ATOM     29  N   UNL     1      17.171  31.495  15.777  1.00  0.00     0.001 N 
ATOM     30  N   UNL     1      17.997  31.677  14.868  1.00  0.00    -0.003 NA
ENDBRANCH  27  28
ENDBRANCH  26  27
ENDBRANCH  25  26
ENDBRANCH  19  25
BRANCH  20  31
ATOM     31  O   UNL     1      17.460  27.541  18.287  1.00  0.00    -0.387 OA
ATOM     32  H   UNL     1      17.928  26.741  18.623  1.00  0.00     0.211 HD
ENDBRANCH  20  31
BRANCH  21  33
ATOM     33  O   UNL     1      15.619  28.262  21.183  1.00  0.00    -0.385 OA
ATOM     34  H   UNL     1      15.263  29.140  21.506  1.00  0.00     0.211 HD
ENDBRANCH  21  33
ENDBRANCH  15  16
ENDBRANCH  10  15
BRANCH  12  35
ATOM     35  O   UNL     1      20.702  30.879  16.183  1.00  0.00    -0.385 OA
ATOM     36  H   UNL     1      20.777  31.782  15.807  1.00  0.00     0.211 HD
ENDBRANCH  12  35
BRANCH  13  37
ATOM     37  O   UNL     1      21.590  31.305  19.609  1.00  0.00    -0.387 OA
ATOM     38  H   UNL     1      21.345  30.506  20.149  1.00  0.00     0.211 HD
ENDBRANCH  13  37
BRANCH  14  39
ATOM     39  O   UNL     1      23.300  29.307  19.076  1.00  0.00    -0.387 OA
ATOM     40  H   UNL     1      23.288  30.019  19.769  1.00  0.00     0.211 HD
ENDBRANCH  14  39
ENDBRANCH   8   9
ENDBRANCH   7   8
ENDBRANCH   1   7
BRANCH   1  41
ATOM     41  C   UNL     1      23.849  25.837  19.441  1.00  0.00     0.364 C 
ATOM     42  O   UNL     1      24.709  26.708  19.209  1.00  0.00    -0.246 OA
BRANCH  41  43
ATOM     43  O   UNL     1      23.952  24.600  18.861  1.00  0.00    -0.477 OA
ATOM     44  H   UNL     1      23.155  24.083  18.524  1.00  0.00     0.296 HD
ENDBRANCH  41  43
ENDBRANCH   1  41
BRANCH   3  45
ATOM     45  O   UNL     1      20.435  24.866  22.399  1.00  0.00    -0.391 OA
ATOM     46  H   UNL     1      20.117  24.375  23.198  1.00  0.00     0.211 HD
ENDBRANCH   3  45
BRANCH   5  47
ATOM     47  C   UNL     1      23.743  28.327  23.053  1.00  0.00     0.176 C 
BRANCH  47  48
ATOM     48  O   UNL     1      24.988  28.737  22.686  1.00  0.00    -0.388 OA
ATOM     49  H   UNL     1      25.366  29.514  23.119  1.00  0.00     0.211 HD
ENDBRANCH  47  48
BRANCH  47  50
ATOM     50  C   UNL     1      22.730  29.402  22.766  1.00  0.00     0.165 C 
BRANCH  50  51
ATOM     51  O   UNL     1      23.224  30.123  21.651  1.00  0.00    -0.388 OA
ATOM     52  H   UNL     1      24.009  30.665  21.937  1.00  0.00     0.211 HD
ENDBRANCH  50  51
BRANCH  50  53
ATOM     53  C   UNL     1      22.551  30.399  23.860  1.00  0.00     0.154 C 
BRANCH  53  54
ATOM     54  N   UNL     1      21.353  30.282  24.624  1.00  0.00    -0.319 N 
ATOM     55  C   UNL     1      20.131  30.903  24.247  1.00  0.00     0.407 C 
ATOM     56  H   UNL     1      21.335  29.718  25.517  1.00  0.00     0.167 HD
ATOM     57  O   UNL     1      20.092  31.582  23.210  1.00  0.00    -0.225 OA
BRANCH  55  58
ATOM     58  O   UNL     1      18.968  30.771  25.013  1.00  0.00    -0.443 OA
BRANCH  58  59
ATOM     59  C   UNL     1      17.849  31.584  24.829  1.00  0.00     0.294 C 
BRANCH  59  60
ATOM     60  C   UNL     1      16.630  30.878  24.414  1.00  0.00     0.120 A 
ATOM     61  C   UNL     1      15.378  31.440  24.398  1.00  0.00     0.139 A 
ATOM     62  N   UNL     1      16.552  29.610  23.995  1.00  0.00    -0.132 NA
ATOM     63  N   UNL     1      14.554  30.483  23.964  1.00  0.00    -0.237 N 
ATOM     64  N   UNL     1      15.276  29.387  23.724  1.00  0.00    -0.066 NA
BRANCH  63  65
ATOM     65  C   UNL     1      13.121  30.628  23.787  1.00  0.00     0.223 C 
BRANCH  65  66
ATOM     66  C   UNL     1      12.771  32.076  23.909  1.00  0.00     0.197 C 
BRANCH  66  67
ATOM     67  O   UNL     1      12.107  32.349  25.078  1.00  0.00    -0.382 OA
ATOM     68  C   UNL     1      12.445  33.579  25.576  1.00  0.00     0.195 C 
ENDBRANCH  66  67
ENDBRANCH  65  66
BRANCH  65  69
ATOM     69  C   UNL     1      12.810  30.121  22.409  1.00  0.00     0.244 C 
ATOM     70  O   UNL     1      12.455  30.939  21.536  1.00  0.00    -0.273 OA
ATOM     71  N   UNL     1      12.931  28.734  22.143  1.00  0.00    -0.368 N 
ATOM     72  H   UNL     1      12.130  28.094  22.019  1.00  0.00     0.159 HD
ATOM     73  H   UNL     1      13.894  28.340  22.072  1.00  0.00     0.159 HD
ENDBRANCH  65  69
ENDBRANCH  63  65
ENDBRANCH  59  60
ENDBRANCH  58  59
ENDBRANCH  55  58
ENDBRANCH  53  54
ENDBRANCH  50  53
ENDBRANCH  47  50
ENDBRANCH   5  47
BRANCH   4  74
ATOM     74  N   UNL     1      22.214  26.449  24.534  1.00  0.00    -0.348 N 
ATOM     75  C   UNL     1      21.227  26.924  25.439  1.00  0.00     0.217 C 
ATOM     76  H   UNL     1      23.082  26.044  24.965  1.00  0.00     0.163 HD
ATOM     77  C   UNL     1      21.354  26.882  26.905  1.00  0.00     0.114 C 
ATOM     78  O   UNL     1      20.163  27.416  24.931  1.00  0.00    -0.275 OA
ENDBRANCH   4  74
TORSDOF 33
