REMARK VINA RESULT:    -5.773      2.050      4.019
REMARK INTER + INTRA:         -22.042
REMARK INTER:                 -12.077
REMARK INTRA:                  -9.965
REMARK UNBOUND:                -7.496
REMARK SMILES CC(=O)N[C@@H]1[C@@H](O)C[C@](OC[C@H]2O[C@@H](O[C@H]3[C@H](O)[C@@H](O)[C@H](OCCN=[N+]=[N-])O[C@@H]3CO)[C@H](O)[C@@H](O)[C@H]2O)(C(=O)O)O[C@H]1C(O)[C@H](O)CNC(=O)OCc1cn(-c2ccccc2C(N)=O)nn1
REMARK SMILES IDX 9 1 8 2 6 3 5 4 42 5 41 6 10 7 11 8 12 9 14 10 13 11 32 12
REMARK SMILES IDX 34 13 36 14 15 15 16 16 29 17 28 18 21 19 17 20 19 21 30 22
REMARK SMILES IDX 31 23 22 25 23 26 24 27 25 28 26 29 27 30 18 31 20 33 33 35
REMARK SMILES IDX 35 37 37 39 38 41 39 42 40 43 7 45 43 47 44 48 45 50 46 51
REMARK SMILES IDX 47 53 48 54 49 55 50 57 51 58 52 59 53 60 54 61 66 62 55 63
REMARK SMILES IDX 65 64 56 65 61 66 57 67 60 68 58 69 59 70 62 71 64 72 63 73
REMARK SMILES IDX 4 76 2 77 1 79 3 80
REMARK H PARENT 31 24 18 32 20 34 33 36 35 38 37 40 40 44 7 46 44 49 46 52
REMARK H PARENT 48 56 63 74 63 75 4 78
REMARK Flexibility Score: inf
ROOT
ATOM      1  C   UNL     1      18.129  32.093  24.298  1.00  0.00     0.272 C 
ATOM      2  C   UNL     1      19.090  33.149  23.682  1.00  0.00     0.113 C 
ATOM      3  C   UNL     1      19.369  32.664  22.288  1.00  0.00     0.145 C 
ATOM      4  C   UNL     1      20.238  31.471  22.341  1.00  0.00     0.142 C 
ATOM      5  C   UNL     1      19.855  30.710  23.623  1.00  0.00     0.178 C 
ATOM      6  O   UNL     1      18.501  30.829  23.868  1.00  0.00    -0.332 OA
ENDROOT
BRANCH   1   7
ATOM      7  O   UNL     1      16.894  32.434  23.780  1.00  0.00    -0.338 OA
BRANCH   7   8
ATOM      8  C   UNL     1      15.830  31.842  24.393  1.00  0.00     0.199 C 
BRANCH   8   9
ATOM      9  C   UNL     1      14.728  31.461  23.420  1.00  0.00     0.179 C 
ATOM     10  C   UNL     1      14.442  31.196  21.123  1.00  0.00     0.282 C 
ATOM     11  O   UNL     1      15.328  31.428  22.164  1.00  0.00    -0.341 OA
ATOM     12  C   UNL     1      13.052  30.869  21.523  1.00  0.00     0.202 C 
ATOM     13  C   UNL     1      12.908  30.019  22.749  1.00  0.00     0.179 C 
ATOM     14  C   UNL     1      14.129  30.117  23.676  1.00  0.00     0.177 C 
BRANCH  10  15
ATOM     15  O   UNL     1      14.974  30.173  20.360  1.00  0.00    -0.341 OA
BRANCH  15  16
ATOM     16  C   UNL     1      16.267  30.421  19.931  1.00  0.00     0.184 C 
ATOM     17  C   UNL     1      16.263  30.449  18.418  1.00  0.00     0.178 C 
ATOM     18  O   UNL     1      16.630  29.270  17.867  1.00  0.00    -0.341 OA
ATOM     19  C   UNL     1      17.905  28.909  18.112  1.00  0.00     0.281 C 
ATOM     20  C   UNL     1      17.113  29.248  20.413  1.00  0.00     0.180 C 
ATOM     21  C   UNL     1      18.290  29.020  19.533  1.00  0.00     0.202 C 
BRANCH  17  22
ATOM     22  C   UNL     1      17.139  31.568  17.923  1.00  0.00     0.191 C 
BRANCH  22  23
ATOM     23  O   UNL     1      17.473  32.455  18.951  1.00  0.00    -0.394 OA
ATOM     24  H   UNL     1      16.657  32.513  19.535  1.00  0.00     0.210 HD
ENDBRANCH  22  23
ENDBRANCH  17  22
BRANCH  19  25
ATOM     25  O   UNL     1      18.839  29.492  17.243  1.00  0.00    -0.350 OA
BRANCH  25  26
ATOM     26  C   UNL     1      19.072  28.763  16.104  1.00  0.00     0.169 C 
BRANCH  26  27
ATOM     27  C   UNL     1      20.512  28.385  16.017  1.00  0.00     0.119 C 
BRANCH  27  28
ATOM     28  N   UNL     1      20.924  27.765  17.251  1.00  0.00    -0.092 NA
ATOM     29  N   UNL     1      21.991  28.042  17.814  1.00  0.00     0.001 N 
ATOM     30  N   UNL     1      22.978  28.613  18.284  1.00  0.00    -0.003 NA
ENDBRANCH  27  28
ENDBRANCH  26  27
ENDBRANCH  25  26
ENDBRANCH  19  25
BRANCH  20  31
ATOM     31  O   UNL     1      17.553  29.481  21.712  1.00  0.00    -0.387 OA
ATOM     32  H   UNL     1      18.139  28.722  22.025  1.00  0.00     0.211 HD
ENDBRANCH  20  31
BRANCH  21  33
ATOM     33  O   UNL     1      18.891  27.802  19.937  1.00  0.00    -0.385 OA
ATOM     34  H   UNL     1      19.744  27.697  19.426  1.00  0.00     0.211 HD
ENDBRANCH  21  33
ENDBRANCH  15  16
ENDBRANCH  10  15
BRANCH  12  35
ATOM     35  O   UNL     1      12.231  32.015  21.595  1.00  0.00    -0.385 OA
ATOM     36  H   UNL     1      11.307  31.704  21.478  1.00  0.00     0.211 HD
ENDBRANCH  12  35
BRANCH  13  37
ATOM     37  O   UNL     1      12.775  28.673  22.405  1.00  0.00    -0.387 OA
ATOM     38  H   UNL     1      13.436  28.407  21.695  1.00  0.00     0.211 HD
ENDBRANCH  13  37
BRANCH  14  39
ATOM     39  O   UNL     1      15.064  29.141  23.288  1.00  0.00    -0.387 OA
ATOM     40  H   UNL     1      14.972  28.298  23.759  1.00  0.00     0.211 HD
ENDBRANCH  14  39
ENDBRANCH   8   9
ENDBRANCH   7   8
ENDBRANCH   1   7
BRANCH   1  41
ATOM     41  C   UNL     1      18.202  32.167  25.759  1.00  0.00     0.364 C 
ATOM     42  O   UNL     1      18.314  33.298  26.347  1.00  0.00    -0.246 OA
BRANCH  41  43
ATOM     43  O   UNL     1      18.149  31.001  26.528  1.00  0.00    -0.477 OA
ATOM     44  H   UNL     1      18.139  30.124  26.013  1.00  0.00     0.296 HD
ENDBRANCH  41  43
ENDBRANCH   1  41
BRANCH   3  45
ATOM     45  O   UNL     1      18.122  32.229  21.771  1.00  0.00    -0.391 OA
ATOM     46  H   UNL     1      17.957  31.300  22.077  1.00  0.00     0.211 HD
ENDBRANCH   3  45
BRANCH   5  47
ATOM     47  C   UNL     1      20.368  29.299  23.566  1.00  0.00     0.176 C 
BRANCH  47  48
ATOM     48  O   UNL     1      20.441  28.956  22.201  1.00  0.00    -0.388 OA
ATOM     49  H   UNL     1      19.528  28.764  21.854  1.00  0.00     0.211 HD
ENDBRANCH  47  48
BRANCH  47  50
ATOM     50  C   UNL     1      21.815  29.217  24.064  1.00  0.00     0.165 C 
BRANCH  50  51
ATOM     51  O   UNL     1      22.601  28.639  23.054  1.00  0.00    -0.388 OA
ATOM     52  H   UNL     1      22.556  29.269  22.287  1.00  0.00     0.211 HD
ENDBRANCH  50  51
BRANCH  50  53
ATOM     53  C   UNL     1      21.941  28.400  25.304  1.00  0.00     0.154 C 
BRANCH  53  54
ATOM     54  N   UNL     1      21.470  27.056  25.101  1.00  0.00    -0.319 N 
ATOM     55  C   UNL     1      22.311  25.917  25.062  1.00  0.00     0.407 C 
ATOM     56  H   UNL     1      20.425  26.923  24.972  1.00  0.00     0.167 HD
ATOM     57  O   UNL     1      23.534  25.916  25.211  1.00  0.00    -0.225 OA
BRANCH  55  58
ATOM     58  O   UNL     1      21.732  24.646  24.835  1.00  0.00    -0.443 OA
BRANCH  58  59
ATOM     59  C   UNL     1      20.755  24.492  23.802  1.00  0.00     0.294 C 
BRANCH  59  60
ATOM     60  C   UNL     1      21.258  25.019  22.521  1.00  0.00     0.121 A 
ATOM     61  C   UNL     1      22.200  24.476  21.681  1.00  0.00     0.144 A 
ATOM     62  N   UNL     1      20.876  26.163  21.927  1.00  0.00    -0.131 NA
ATOM     63  N   UNL     1      22.372  25.283  20.611  1.00  0.00    -0.220 N 
ATOM     64  N   UNL     1      21.540  26.312  20.799  1.00  0.00    -0.062 NA
BRANCH  63  65
ATOM     65  C   UNL     1      23.240  25.126  19.503  1.00  0.00     0.079 A 
ATOM     66  C   UNL     1      24.475  25.719  19.544  1.00  0.00     0.065 A 
ATOM     67  C   UNL     1      22.863  24.393  18.395  1.00  0.00     0.029 A 
ATOM     68  C   UNL     1      25.367  25.599  18.483  1.00  0.00     0.016 A 
ATOM     69  C   UNL     1      23.744  24.261  17.320  1.00  0.00     0.002 A 
ATOM     70  C   UNL     1      24.980  24.866  17.381  1.00  0.00     0.001 A 
BRANCH  66  71
ATOM     71  C   UNL     1      24.863  26.487  20.710  1.00  0.00     0.250 C 
ATOM     72  O   UNL     1      25.572  25.936  21.588  1.00  0.00    -0.269 OA
ATOM     73  N   UNL     1      24.491  27.830  20.927  1.00  0.00    -0.366 N 
ATOM     74  H   UNL     1      25.219  28.552  21.038  1.00  0.00     0.159 HD
ATOM     75  H   UNL     1      23.494  28.084  20.975  1.00  0.00     0.159 HD
ENDBRANCH  66  71
ENDBRANCH  63  65
ENDBRANCH  59  60
ENDBRANCH  58  59
ENDBRANCH  55  58
ENDBRANCH  53  54
ENDBRANCH  50  53
ENDBRANCH  47  50
ENDBRANCH   5  47
BRANCH   4  76
ATOM     76  N   UNL     1      21.633  31.681  22.372  1.00  0.00    -0.348 N 
ATOM     77  C   UNL     1      22.474  31.470  21.250  1.00  0.00     0.217 C 
ATOM     78  H   UNL     1      22.076  32.007  23.263  1.00  0.00     0.163 HD
ATOM     79  C   UNL     1      23.938  31.679  21.244  1.00  0.00     0.114 C 
ATOM     80  O   UNL     1      21.868  31.075  20.203  1.00  0.00    -0.275 OA
ENDBRANCH   4  76
TORSDOF 31
