REMARK VINA RESULT:    -4.910      3.242      8.278
REMARK INTER + INTRA:         -21.263
REMARK INTER:                 -13.732
REMARK INTRA:                  -7.531
REMARK UNBOUND:                -8.028
REMARK SMILES CCN(CC)CCn1cc(COC(=O)NC[C@@H](O)C(O)[C@@H]2O[C@@](OC[C@H]3O[C@@H](O[C@H]4[C@H](O)[C@@H](O)[C@H](OCCN=[N+]=[N-])O[C@@H]4CO)[C@H](O)[C@@H](O)[C@H]3O)(C(=O)O)C[C@H](O)[C@H]2NC(C)=O)nn1
REMARK SMILES IDX 19 1 21 2 23 3 55 4 22 5 56 6 58 7 24 8 25 9 26 10 28 11
REMARK SMILES IDX 27 12 46 13 48 14 50 15 29 16 30 17 43 18 42 19 35 20 31 21
REMARK SMILES IDX 33 22 44 23 45 24 36 26 37 27 38 28 39 29 40 30 41 31 32 32
REMARK SMILES IDX 34 34 47 36 49 38 51 40 52 42 53 43 54 44 57 46 59 48 60 49
REMARK SMILES IDX 61 51 62 52 20 53 17 55 18 56 16 58 15 59 13 60 14 62 12 63
REMARK SMILES IDX 11 64 10 65 9 66 63 67 8 68 64 69 7 70 6 71 3 72 2 73 1 74
REMARK SMILES IDX 4 75 5 76
REMARK H PARENT 45 25 32 33 34 35 47 37 49 39 51 41 54 45 57 47 59 50 20 54
REMARK H PARENT 18 57 15 61
REMARK Flexibility Score: inf
ROOT
ATOM      1  C   UNL     1      13.331  34.126  24.802  1.00  0.00     0.176 C 
ENDROOT
BRANCH   1   2
ATOM      2  C   UNL     1      12.778  33.071  23.881  1.00  0.00     0.178 C 
ATOM      3  C   UNL     1      12.628  30.801  23.533  1.00  0.00     0.272 C 
ATOM      4  C   UNL     1      11.679  31.344  22.453  1.00  0.00     0.113 C 
ATOM      5  O   UNL     1      13.065  31.814  24.357  1.00  0.00    -0.332 OA
ATOM      6  C   UNL     1      12.286  32.419  21.611  1.00  0.00     0.145 C 
ATOM      7  C   UNL     1      13.329  33.146  22.474  1.00  0.00     0.142 C 
BRANCH   3   8
ATOM      8  O   UNL     1      13.626  30.126  22.872  1.00  0.00    -0.338 OA
BRANCH   8   9
ATOM      9  C   UNL     1      13.221  29.150  21.995  1.00  0.00     0.199 C 
BRANCH   9  10
ATOM     10  C   UNL     1      14.408  28.606  21.181  1.00  0.00     0.179 C 
ATOM     11  C   UNL     1      14.933  28.809  18.897  1.00  0.00     0.282 C 
ATOM     12  O   UNL     1      14.001  28.570  19.896  1.00  0.00    -0.341 OA
ATOM     13  C   UNL     1      16.307  28.464  19.311  1.00  0.00     0.202 C 
ATOM     14  C   UNL     1      16.755  29.142  20.576  1.00  0.00     0.179 C 
ATOM     15  C   UNL     1      15.545  29.562  21.382  1.00  0.00     0.177 C 
BRANCH  11  16
ATOM     16  O   UNL     1      14.683  30.109  18.482  1.00  0.00    -0.341 OA
BRANCH  16  17
ATOM     17  C   UNL     1      14.645  30.281  17.144  1.00  0.00     0.184 C 
ATOM     18  C   UNL     1      15.279  31.573  16.697  1.00  0.00     0.178 C 
ATOM     19  O   UNL     1      15.278  31.587  15.272  1.00  0.00    -0.341 OA
ATOM     20  C   UNL     1      14.022  31.965  14.851  1.00  0.00     0.281 C 
ATOM     21  C   UNL     1      13.232  30.270  16.569  1.00  0.00     0.180 C 
ATOM     22  C   UNL     1      12.943  31.452  15.700  1.00  0.00     0.202 C 
BRANCH  18  23
ATOM     23  C   UNL     1      16.632  31.855  17.241  1.00  0.00     0.191 C 
BRANCH  23  24
ATOM     24  O   UNL     1      16.497  32.174  18.587  1.00  0.00    -0.394 OA
ATOM     25  H   UNL     1      16.417  33.144  18.761  1.00  0.00     0.210 HD
ENDBRANCH  23  24
ENDBRANCH  18  23
BRANCH  20  26
ATOM     26  O   UNL     1      13.845  31.751  13.488  1.00  0.00    -0.350 OA
BRANCH  26  27
ATOM     27  C   UNL     1      14.529  30.689  12.978  1.00  0.00     0.169 C 
BRANCH  27  28
ATOM     28  C   UNL     1      13.655  29.759  12.157  1.00  0.00     0.119 C 
BRANCH  28  29
ATOM     29  N   UNL     1      12.948  28.818  13.004  1.00  0.00    -0.092 NA
ATOM     30  N   UNL     1      12.139  27.994  12.559  1.00  0.00     0.001 N 
ATOM     31  N   UNL     1      11.053  27.536  12.201  1.00  0.00    -0.003 NA
ENDBRANCH  28  29
ENDBRANCH  27  28
ENDBRANCH  26  27
ENDBRANCH  20  26
BRANCH  21  32
ATOM     32  O   UNL     1      13.069  29.110  15.837  1.00  0.00    -0.387 OA
ATOM     33  H   UNL     1      13.901  28.738  15.479  1.00  0.00     0.211 HD
ENDBRANCH  21  32
BRANCH  22  34
ATOM     34  O   UNL     1      12.390  32.518  16.453  1.00  0.00    -0.385 OA
ATOM     35  H   UNL     1      11.405  32.412  16.387  1.00  0.00     0.211 HD
ENDBRANCH  22  34
ENDBRANCH  16  17
ENDBRANCH  11  16
BRANCH  13  36
ATOM     36  O   UNL     1      16.356  27.062  19.566  1.00  0.00    -0.385 OA
ATOM     37  H   UNL     1      17.273  26.763  19.701  1.00  0.00     0.211 HD
ENDBRANCH  13  36
BRANCH  14  38
ATOM     38  O   UNL     1      17.631  30.196  20.374  1.00  0.00    -0.387 OA
ATOM     39  H   UNL     1      18.450  29.938  19.922  1.00  0.00     0.211 HD
ENDBRANCH  14  38
BRANCH  15  40
ATOM     40  O   UNL     1      15.156  30.819  20.940  1.00  0.00    -0.387 OA
ATOM     41  H   UNL     1      14.181  30.819  20.716  1.00  0.00     0.211 HD
ENDBRANCH  15  40
ENDBRANCH   9  10
ENDBRANCH   8   9
ENDBRANCH   3   8
BRANCH   3  42
ATOM     42  C   UNL     1      11.786  29.868  24.323  1.00  0.00     0.364 C 
ATOM     43  O   UNL     1      10.511  29.918  24.246  1.00  0.00    -0.246 OA
BRANCH  42  44
ATOM     44  O   UNL     1      12.277  28.902  25.178  1.00  0.00    -0.477 OA
ATOM     45  H   UNL     1      12.573  28.004  24.811  1.00  0.00     0.296 HD
ENDBRANCH  42  44
ENDBRANCH   3  42
BRANCH   6  46
ATOM     46  O   UNL     1      12.788  32.004  20.401  1.00  0.00    -0.391 OA
ATOM     47  H   UNL     1      12.402  32.594  19.704  1.00  0.00     0.211 HD
ENDBRANCH   6  46
BRANCH   7  48
ATOM     48  N   UNL     1      13.578  34.464  21.998  1.00  0.00    -0.348 N 
ATOM     49  C   UNL     1      14.682  34.663  21.091  1.00  0.00     0.217 C 
ATOM     50  H   UNL     1      13.033  35.310  22.239  1.00  0.00     0.163 HD
ATOM     51  C   UNL     1      15.002  36.010  20.555  1.00  0.00     0.114 C 
ATOM     52  O   UNL     1      15.411  33.704  20.724  1.00  0.00    -0.275 OA
ENDBRANCH   7  48
ENDBRANCH   1   2
BRANCH   1  53
ATOM     53  O   UNL     1      12.427  35.180  24.852  1.00  0.00    -0.388 OA
ATOM     54  H   UNL     1      11.782  35.025  25.613  1.00  0.00     0.211 HD
ENDBRANCH   1  53
BRANCH   1  55
ATOM     55  C   UNL     1      13.432  33.501  26.170  1.00  0.00     0.165 C 
BRANCH  55  56
ATOM     56  O   UNL     1      12.631  34.221  27.063  1.00  0.00    -0.388 OA
ATOM     57  H   UNL     1      12.739  35.182  26.864  1.00  0.00     0.211 HD
ENDBRANCH  55  56
BRANCH  55  58
ATOM     58  C   UNL     1      14.805  33.380  26.720  1.00  0.00     0.154 C 
BRANCH  58  59
ATOM     59  N   UNL     1      15.741  32.774  25.837  1.00  0.00    -0.319 N 
ATOM     60  C   UNL     1      16.090  31.393  26.023  1.00  0.00     0.407 C 
ATOM     61  H   UNL     1      16.180  33.293  25.076  1.00  0.00     0.167 HD
ATOM     62  O   UNL     1      15.591  30.723  26.949  1.00  0.00    -0.225 OA
BRANCH  60  63
ATOM     63  O   UNL     1      17.000  30.823  25.147  1.00  0.00    -0.443 OA
BRANCH  63  64
ATOM     64  C   UNL     1      18.323  31.380  25.081  1.00  0.00     0.294 C 
BRANCH  64  65
ATOM     65  C   UNL     1      19.105  30.555  24.150  1.00  0.00     0.120 A 
ATOM     66  C   UNL     1      20.214  29.793  24.532  1.00  0.00     0.138 A 
ATOM     67  N   UNL     1      18.970  30.345  22.843  1.00  0.00    -0.132 NA
ATOM     68  N   UNL     1      20.695  29.160  23.448  1.00  0.00    -0.251 N 
ATOM     69  N   UNL     1      19.931  29.508  22.447  1.00  0.00    -0.067 NA
BRANCH  68  70
ATOM     70  C   UNL     1      21.835  28.265  23.382  1.00  0.00     0.161 C 
BRANCH  70  71
ATOM     71  C   UNL     1      21.435  26.961  24.035  1.00  0.00     0.108 C 
BRANCH  71  72
ATOM     72  N   UNL     1      21.201  25.901  23.098  1.00  0.00    -0.302 NA
BRANCH  72  73
ATOM     73  C   UNL     1      21.103  24.618  23.739  1.00  0.00     0.081 C 
ATOM     74  C   UNL     1      22.057  24.598  24.928  1.00  0.00     0.021 C 
ENDBRANCH  72  73
BRANCH  72  75
ATOM     75  C   UNL     1      22.106  25.916  21.991  1.00  0.00     0.081 C 
ATOM     76  C   UNL     1      22.122  24.576  21.284  1.00  0.00     0.021 C 
ENDBRANCH  72  75
ENDBRANCH  71  72
ENDBRANCH  70  71
ENDBRANCH  68  70
ENDBRANCH  64  65
ENDBRANCH  63  64
ENDBRANCH  60  63
ENDBRANCH  58  59
ENDBRANCH  55  58
ENDBRANCH   1  55
TORSDOF 34
