REMARK VINA RESULT:    -5.540     16.295     19.761
REMARK INTER + INTRA:         -20.404
REMARK INTER:                 -12.062
REMARK INTRA:                  -8.343
REMARK UNBOUND:                -6.769
REMARK SMILES CC(=O)N[C@@H]1[C@@H](O)C[C@](OC[C@H]2O[C@@H](O[C@H]3[C@H](O)[C@@H](O)[C@H](OCCN=[N+]=[N-])O[C@@H]3CO)[C@H](O)[C@@H](O)[C@H]2O)(C(=O)O)O[C@H]1C(O)[C@H](O)CNC(=O)OCc1cn(-c2cccnc2)nn1
REMARK SMILES IDX 9 1 8 2 6 3 5 4 42 5 41 6 10 7 11 8 12 9 14 10 13 11 32 12
REMARK SMILES IDX 34 13 36 14 15 15 16 16 29 17 28 18 21 19 17 20 19 21 30 22
REMARK SMILES IDX 31 23 22 25 23 26 24 27 25 28 26 29 27 30 18 31 20 33 33 35
REMARK SMILES IDX 35 37 37 39 38 41 39 42 40 43 7 45 43 47 44 48 45 50 46 51
REMARK SMILES IDX 47 53 48 54 49 55 50 57 51 58 52 59 53 60 54 61 63 62 55 63
REMARK SMILES IDX 62 64 56 65 57 66 61 67 58 68 60 69 59 70 4 71 2 72 1 74
REMARK SMILES IDX 3 75
REMARK H PARENT 31 24 18 32 20 34 33 36 35 38 37 40 40 44 7 46 44 49 46 52
REMARK H PARENT 48 56 4 73
REMARK Flexibility Score: inf
ROOT
ATOM      1  C   UNL     1       3.367  23.023  34.566  1.00  0.00     0.272 C 
ATOM      2  C   UNL     1       4.624  22.564  33.946  1.00  0.00     0.113 C 
ATOM      3  C   UNL     1       4.403  21.953  32.606  1.00  0.00     0.145 C 
ATOM      4  C   UNL     1       3.377  22.669  31.764  1.00  0.00     0.142 C 
ATOM      5  C   UNL     1       2.785  23.857  32.433  1.00  0.00     0.178 C 
ATOM      6  O   UNL     1       2.420  23.615  33.750  1.00  0.00    -0.332 OA
ENDROOT
BRANCH   1   7
ATOM      7  O   UNL     1       3.585  23.957  35.577  1.00  0.00    -0.338 OA
BRANCH   7   8
ATOM      8  C   UNL     1       4.871  24.163  35.959  1.00  0.00     0.199 C 
BRANCH   8   9
ATOM      9  C   UNL     1       4.854  25.301  36.999  1.00  0.00     0.179 C 
ATOM     10  C   UNL     1       7.162  25.308  37.402  1.00  0.00     0.282 C 
ATOM     11  O   UNL     1       5.871  25.160  37.862  1.00  0.00    -0.341 OA
ATOM     12  C   UNL     1       7.252  26.468  36.472  1.00  0.00     0.202 C 
ATOM     13  C   UNL     1       6.054  27.385  36.757  1.00  0.00     0.179 C 
ATOM     14  C   UNL     1       4.788  26.660  36.326  1.00  0.00     0.177 C 
BRANCH  10  15
ATOM     15  O   UNL     1       7.520  24.086  36.836  1.00  0.00    -0.341 OA
BRANCH  15  16
ATOM     16  C   UNL     1       8.831  23.976  36.510  1.00  0.00     0.184 C 
ATOM     17  C   UNL     1       9.130  23.305  35.205  1.00  0.00     0.178 C 
ATOM     18  O   UNL     1      10.372  23.772  34.773  1.00  0.00    -0.341 OA
ATOM     19  C   UNL     1      11.332  23.815  35.778  1.00  0.00     0.281 C 
ATOM     20  C   UNL     1       9.647  23.193  37.534  1.00  0.00     0.180 C 
ATOM     21  C   UNL     1      11.026  22.889  36.932  1.00  0.00     0.202 C 
BRANCH  17  22
ATOM     22  C   UNL     1       8.132  23.484  34.122  1.00  0.00     0.191 C 
BRANCH  22  23
ATOM     23  O   UNL     1       8.015  22.379  33.320  1.00  0.00    -0.394 OA
ATOM     24  H   UNL     1       8.274  21.587  33.858  1.00  0.00     0.210 HD
ENDBRANCH  22  23
ENDBRANCH  17  22
BRANCH  19  25
ATOM     25  O   UNL     1      11.560  25.071  36.263  1.00  0.00    -0.350 OA
BRANCH  25  26
ATOM     26  C   UNL     1      12.824  25.508  36.438  1.00  0.00     0.169 C 
BRANCH  26  27
ATOM     27  C   UNL     1      13.222  26.016  37.780  1.00  0.00     0.119 C 
BRANCH  27  28
ATOM     28  N   UNL     1      12.507  25.510  38.900  1.00  0.00    -0.092 NA
ATOM     29  N   UNL     1      12.999  24.684  39.697  1.00  0.00     0.001 N 
ATOM     30  N   UNL     1      13.333  23.546  40.070  1.00  0.00    -0.003 NA
ENDBRANCH  27  28
ENDBRANCH  26  27
ENDBRANCH  25  26
ENDBRANCH  19  25
BRANCH  20  31
ATOM     31  O   UNL     1       9.859  23.984  38.654  1.00  0.00    -0.387 OA
ATOM     32  H   UNL     1      10.001  24.941  38.429  1.00  0.00     0.211 HD
ENDBRANCH  20  31
BRANCH  21  33
ATOM     33  O   UNL     1      11.130  21.558  36.533  1.00  0.00    -0.385 OA
ATOM     34  H   UNL     1      11.890  21.150  37.016  1.00  0.00     0.211 HD
ENDBRANCH  21  33
ENDBRANCH  15  16
ENDBRANCH  10  15
BRANCH  12  35
ATOM     35  O   UNL     1       8.366  27.259  36.813  1.00  0.00    -0.385 OA
ATOM     36  H   UNL     1       9.083  27.099  36.126  1.00  0.00     0.211 HD
ENDBRANCH  12  35
BRANCH  13  37
ATOM     37  O   UNL     1       6.180  28.622  36.181  1.00  0.00    -0.387 OA
ATOM     38  H   UNL     1       6.338  28.526  35.209  1.00  0.00     0.211 HD
ENDBRANCH  13  37
BRANCH  14  39
ATOM     39  O   UNL     1       4.697  26.580  34.951  1.00  0.00    -0.387 OA
ATOM     40  H   UNL     1       5.577  26.853  34.575  1.00  0.00     0.211 HD
ENDBRANCH  14  39
ENDBRANCH   8   9
ENDBRANCH   7   8
ENDBRANCH   1   7
BRANCH   1  41
ATOM     41  C   UNL     1       2.735  21.813  35.224  1.00  0.00     0.364 C 
ATOM     42  O   UNL     1       1.734  21.305  34.694  1.00  0.00    -0.246 OA
BRANCH  41  43
ATOM     43  O   UNL     1       3.220  21.255  36.382  1.00  0.00    -0.477 OA
ATOM     44  H   UNL     1       3.429  20.274  36.514  1.00  0.00     0.296 HD
ENDBRANCH  41  43
ENDBRANCH   1  41
BRANCH   3  45
ATOM     45  O   UNL     1       5.658  21.961  31.955  1.00  0.00    -0.391 OA
ATOM     46  H   UNL     1       5.573  22.068  30.989  1.00  0.00     0.211 HD
ENDBRANCH   3  45
BRANCH   5  47
ATOM     47  C   UNL     1       3.547  25.131  32.285  1.00  0.00     0.176 C 
BRANCH  47  48
ATOM     48  O   UNL     1       2.712  26.185  32.740  1.00  0.00    -0.388 OA
ATOM     49  H   UNL     1       2.355  25.939  33.638  1.00  0.00     0.211 HD
ENDBRANCH  47  48
BRANCH  47  50
ATOM     50  C   UNL     1       3.965  25.512  30.900  1.00  0.00     0.165 C 
BRANCH  50  51
ATOM     51  O   UNL     1       5.357  25.904  31.107  1.00  0.00    -0.388 OA
ATOM     52  H   UNL     1       5.355  26.368  31.979  1.00  0.00     0.211 HD
ENDBRANCH  50  51
BRANCH  50  53
ATOM     53  C   UNL     1       3.363  26.769  30.361  1.00  0.00     0.154 C 
BRANCH  53  54
ATOM     54  N   UNL     1       4.125  27.967  30.504  1.00  0.00    -0.319 N 
ATOM     55  C   UNL     1       3.531  29.059  31.240  1.00  0.00     0.407 C 
ATOM     56  H   UNL     1       5.063  28.137  30.156  1.00  0.00     0.167 HD
ATOM     57  O   UNL     1       2.387  28.894  31.711  1.00  0.00    -0.225 OA
BRANCH  55  58
ATOM     58  O   UNL     1       4.190  30.249  31.422  1.00  0.00    -0.443 OA
BRANCH  58  59
ATOM     59  C   UNL     1       4.761  30.552  32.671  1.00  0.00     0.294 C 
BRANCH  59  60
ATOM     60  C   UNL     1       5.908  29.649  32.905  1.00  0.00     0.121 A 
ATOM     61  C   UNL     1       7.245  29.951  33.025  1.00  0.00     0.144 A 
ATOM     62  N   UNL     1       5.838  28.292  33.050  1.00  0.00    -0.131 NA
ATOM     63  N   UNL     1       7.937  28.819  33.234  1.00  0.00    -0.219 N 
ATOM     64  N   UNL     1       7.057  27.834  33.243  1.00  0.00    -0.062 NA
BRANCH  63  65
ATOM     65  C   UNL     1       9.331  28.600  33.424  1.00  0.00     0.085 A 
ATOM     66  C   UNL     1      10.238  29.633  33.536  1.00  0.00     0.031 A 
ATOM     67  C   UNL     1       9.845  27.320  33.498  1.00  0.00     0.139 A 
ATOM     68  C   UNL     1      11.583  29.396  33.712  1.00  0.00     0.022 A 
ATOM     69  N   UNL     1      11.172  27.099  33.671  1.00  0.00    -0.262 NA
ATOM     70  C   UNL     1      12.057  28.106  33.779  1.00  0.00     0.111 A 
ENDBRANCH  63  65
ENDBRANCH  59  60
ENDBRANCH  58  59
ENDBRANCH  55  58
ENDBRANCH  53  54
ENDBRANCH  50  53
ENDBRANCH  47  50
ENDBRANCH   5  47
BRANCH   4  71
ATOM     71  N   UNL     1       2.316  21.752  31.355  1.00  0.00    -0.348 N 
ATOM     72  C   UNL     1       2.533  20.588  30.577  1.00  0.00     0.217 C 
ATOM     73  H   UNL     1       1.315  21.936  31.639  1.00  0.00     0.163 HD
ATOM     74  C   UNL     1       1.411  19.681  30.178  1.00  0.00     0.114 C 
ATOM     75  O   UNL     1       3.697  20.287  30.198  1.00  0.00    -0.275 OA
ENDBRANCH   4  71
TORSDOF 30
