REMARK VINA RESULT:    -4.854      3.779     10.731
REMARK INTER + INTRA:         -22.281
REMARK INTER:                 -13.569
REMARK INTRA:                  -8.712
REMARK UNBOUND:                -9.623
REMARK SMILES CC(=O)N[C@@H]1[C@@H](O)C[C@](OC[C@H]2O[C@@H](O[C@H]3[C@H](O)[C@@H](O)[C@H](OCCN=[N+]=[N-])O[C@@H]3CO)[C@H](O)[C@@H](O)[C@H]2O)(C(=O)O)O[C@H]1C(O)[C@H](O)CNC(=O)OCc1cn(Cc2ccc(C(=O)O)cc2)nn1
REMARK SMILES IDX 43 1 42 2 9 3 8 4 41 5 6 6 5 7 10 8 11 9 12 10 14 11 13 12
REMARK SMILES IDX 32 13 34 14 36 15 15 16 16 17 29 18 28 19 21 20 17 21 19 22
REMARK SMILES IDX 30 23 31 24 22 26 23 27 24 28 25 29 26 30 27 31 18 32 20 34
REMARK SMILES IDX 33 36 35 38 37 40 38 42 39 43 40 44 7 46 4 48 2 49 1 51 3 52
REMARK SMILES IDX 44 53 45 55 46 56 47 58 48 59 49 60 50 62 51 63 52 64 53 65
REMARK SMILES IDX 54 66 67 67 55 68 66 69 56 70 57 71 58 72 65 73 59 74 64 75
REMARK SMILES IDX 60 76 61 77 62 78 63 79
REMARK H PARENT 31 25 18 33 20 35 33 37 35 39 37 41 40 45 7 47 4 50 44 54
REMARK H PARENT 46 57 48 61 63 80
REMARK Flexibility Score: inf
ROOT
ATOM      1  C   UNL     1      21.901  28.128  23.576  1.00  0.00     0.176 C 
ENDROOT
BRANCH   1   2
ATOM      2  C   UNL     1      22.668  26.789  23.622  1.00  0.00     0.178 C 
ATOM      3  C   UNL     1      23.350  25.326  21.891  1.00  0.00     0.272 C 
ATOM      4  C   UNL     1      22.581  24.252  22.549  1.00  0.00     0.113 C 
ATOM      5  O   UNL     1      23.111  26.588  22.372  1.00  0.00    -0.332 OA
ATOM      6  C   UNL     1      21.332  24.749  23.246  1.00  0.00     0.145 C 
ATOM      7  C   UNL     1      21.774  25.789  24.233  1.00  0.00     0.142 C 
BRANCH   3   8
ATOM      8  O   UNL     1      23.082  25.390  20.549  1.00  0.00    -0.338 OA
BRANCH   8   9
ATOM      9  C   UNL     1      22.991  24.257  19.821  1.00  0.00     0.199 C 
BRANCH   9  10
ATOM     10  C   UNL     1      23.075  24.587  18.311  1.00  0.00     0.179 C 
ATOM     11  C   UNL     1      22.488  26.253  16.792  1.00  0.00     0.282 C 
ATOM     12  O   UNL     1      22.348  25.716  18.070  1.00  0.00    -0.341 OA
ATOM     13  C   UNL     1      23.226  25.381  15.840  1.00  0.00     0.202 C 
ATOM     14  C   UNL     1      24.578  25.062  16.441  1.00  0.00     0.179 C 
ATOM     15  C   UNL     1      24.518  24.718  17.897  1.00  0.00     0.177 C 
BRANCH  11  16
ATOM     16  O   UNL     1      23.108  27.496  16.917  1.00  0.00    -0.341 OA
BRANCH  16  17
ATOM     17  C   UNL     1      22.205  28.507  17.071  1.00  0.00     0.184 C 
ATOM     18  C   UNL     1      21.921  28.816  18.495  1.00  0.00     0.178 C 
ATOM     19  O   UNL     1      21.210  30.019  18.617  1.00  0.00    -0.341 OA
ATOM     20  C   UNL     1      20.209  30.108  17.646  1.00  0.00     0.281 C 
ATOM     21  C   UNL     1      20.907  28.037  16.386  1.00  0.00     0.180 C 
ATOM     22  C   UNL     1      19.788  28.784  17.081  1.00  0.00     0.202 C 
BRANCH  18  23
ATOM     23  C   UNL     1      23.198  28.958  19.275  1.00  0.00     0.191 C 
BRANCH  23  24
ATOM     24  O   UNL     1      22.834  29.568  20.497  1.00  0.00    -0.394 OA
ATOM     25  H   UNL     1      23.628  29.894  20.963  1.00  0.00     0.210 HD
ENDBRANCH  23  24
ENDBRANCH  18  23
BRANCH  20  26
ATOM     26  O   UNL     1      20.607  30.991  16.670  1.00  0.00    -0.350 OA
BRANCH  26  27
ATOM     27  C   UNL     1      19.639  31.873  16.247  1.00  0.00     0.169 C 
BRANCH  27  28
ATOM     28  C   UNL     1      19.481  31.995  14.768  1.00  0.00     0.119 C 
BRANCH  28  29
ATOM     29  N   UNL     1      18.267  31.244  14.413  1.00  0.00    -0.092 NA
ATOM     30  N   UNL     1      18.305  30.104  13.963  1.00  0.00     0.001 N 
ATOM     31  N   UNL     1      18.601  29.046  13.420  1.00  0.00    -0.003 NA
ENDBRANCH  28  29
ENDBRANCH  27  28
ENDBRANCH  26  27
ENDBRANCH  20  26
BRANCH  21  32
ATOM     32  O   UNL     1      20.949  28.316  15.037  1.00  0.00    -0.387 OA
ATOM     33  H   UNL     1      20.195  27.861  14.541  1.00  0.00     0.211 HD
ENDBRANCH  21  32
BRANCH  22  34
ATOM     34  O   UNL     1      19.210  27.974  18.030  1.00  0.00    -0.385 OA
ATOM     35  H   UNL     1      18.654  28.466  18.660  1.00  0.00     0.211 HD
ENDBRANCH  22  34
ENDBRANCH  16  17
ENDBRANCH  11  16
BRANCH  13  36
ATOM     36  O   UNL     1      22.527  24.196  15.567  1.00  0.00    -0.385 OA
ATOM     37  H   UNL     1      22.588  24.064  14.582  1.00  0.00     0.211 HD
ENDBRANCH  13  36
BRANCH  14  38
ATOM     38  O   UNL     1      25.480  26.109  16.251  1.00  0.00    -0.387 OA
ATOM     39  H   UNL     1      25.859  26.024  15.331  1.00  0.00     0.211 HD
ENDBRANCH  14  38
BRANCH  15  40
ATOM     40  O   UNL     1      25.200  25.651  18.690  1.00  0.00    -0.387 OA
ATOM     41  H   UNL     1      24.694  26.504  18.632  1.00  0.00     0.211 HD
ENDBRANCH  15  40
ENDBRANCH   9  10
ENDBRANCH   8   9
ENDBRANCH   3   8
BRANCH   3  42
ATOM     42  C   UNL     1      24.819  25.073  22.132  1.00  0.00     0.364 C 
ATOM     43  O   UNL     1      25.193  24.161  22.911  1.00  0.00    -0.246 OA
BRANCH  42  44
ATOM     44  O   UNL     1      25.799  25.828  21.510  1.00  0.00    -0.477 OA
ATOM     45  H   UNL     1      25.644  26.847  21.460  1.00  0.00     0.296 HD
ENDBRANCH  42  44
ENDBRANCH   3  42
BRANCH   6  46
ATOM     46  O   UNL     1      20.472  25.216  22.277  1.00  0.00    -0.391 OA
ATOM     47  H   UNL     1      20.637  24.740  21.422  1.00  0.00     0.211 HD
ENDBRANCH   6  46
BRANCH   7  48
ATOM     48  N   UNL     1      22.469  25.118  25.323  1.00  0.00    -0.348 N 
ATOM     49  C   UNL     1      22.327  25.561  26.684  1.00  0.00     0.217 C 
ATOM     50  H   UNL     1      23.099  24.296  25.201  1.00  0.00     0.163 HD
ATOM     51  C   UNL     1      23.058  24.845  27.777  1.00  0.00     0.114 C 
ATOM     52  O   UNL     1      21.595  26.537  26.918  1.00  0.00    -0.275 OA
ENDBRANCH   7  48
ENDBRANCH   1   2
BRANCH   1  53
ATOM     53  O   UNL     1      20.553  27.994  23.654  1.00  0.00    -0.388 OA
ATOM     54  H   UNL     1      20.016  28.592  23.090  1.00  0.00     0.211 HD
ENDBRANCH   1  53
BRANCH   1  55
ATOM     55  C   UNL     1      22.471  29.118  24.563  1.00  0.00     0.165 C 
BRANCH  55  56
ATOM     56  O   UNL     1      21.743  29.084  25.710  1.00  0.00    -0.388 OA
ATOM     57  H   UNL     1      21.232  28.268  25.877  1.00  0.00     0.211 HD
ENDBRANCH  55  56
BRANCH  55  58
ATOM     58  C   UNL     1      22.695  30.424  23.904  1.00  0.00     0.154 C 
BRANCH  58  59
ATOM     59  N   UNL     1      21.582  30.825  23.089  1.00  0.00    -0.319 N 
ATOM     60  C   UNL     1      20.428  31.474  23.581  1.00  0.00     0.407 C 
ATOM     61  H   UNL     1      21.601  30.633  22.049  1.00  0.00     0.167 HD
ATOM     62  O   UNL     1      20.288  31.752  24.781  1.00  0.00    -0.225 OA
BRANCH  60  63
ATOM     63  O   UNL     1      19.355  31.853  22.749  1.00  0.00    -0.443 OA
BRANCH  63  64
ATOM     64  C   UNL     1      19.407  31.571  21.362  1.00  0.00     0.294 C 
BRANCH  64  65
ATOM     65  C   UNL     1      18.599  30.398  20.988  1.00  0.00     0.120 A 
ATOM     66  C   UNL     1      17.275  30.318  20.655  1.00  0.00     0.138 A 
ATOM     67  N   UNL     1      19.081  29.142  20.935  1.00  0.00    -0.132 NA
ATOM     68  N   UNL     1      16.990  29.019  20.412  1.00  0.00    -0.248 N 
ATOM     69  N   UNL     1      18.101  28.328  20.589  1.00  0.00    -0.067 NA
BRANCH  68  70
ATOM     70  C   UNL     1      15.694  28.517  20.036  1.00  0.00     0.181 C 
BRANCH  70  71
ATOM     71  C   UNL     1      15.275  29.078  18.736  1.00  0.00    -0.026 A 
ATOM     72  C   UNL     1      14.069  29.737  18.628  1.00  0.00     0.006 A 
ATOM     73  C   UNL     1      16.082  28.928  17.612  1.00  0.00     0.006 A 
ATOM     74  C   UNL     1      13.728  30.221  17.378  1.00  0.00     0.016 A 
ATOM     75  C   UNL     1      15.736  29.412  16.370  1.00  0.00     0.016 A 
ATOM     76  C   UNL     1      14.533  30.070  16.266  1.00  0.00     0.059 A 
BRANCH  76  77
ATOM     77  C   UNL     1      14.113  30.599  14.978  1.00  0.00     0.335 C 
ATOM     78  O   UNL     1      12.913  30.612  14.669  1.00  0.00    -0.246 OA
BRANCH  77  79
ATOM     79  O   UNL     1      15.055  31.085  14.100  1.00  0.00    -0.478 OA
ATOM     80  H   UNL     1      15.279  32.076  14.037  1.00  0.00     0.297 HD
ENDBRANCH  77  79
ENDBRANCH  76  77
ENDBRANCH  70  71
ENDBRANCH  68  70
ENDBRANCH  64  65
ENDBRANCH  63  64
ENDBRANCH  60  63
ENDBRANCH  58  59
ENDBRANCH  55  58
ENDBRANCH   1  55
TORSDOF 33
