REMARK VINA RESULT:    -6.203      6.434     12.437
REMARK INTER + INTRA:         -22.781
REMARK INTER:                 -16.357
REMARK INTRA:                  -6.425
REMARK UNBOUND:                -6.425
REMARK SMILES CC(=O)N[C@@H]1[C@@H](O)C[C@](OC[C@H]2O[C@@H](O[C@H]3[C@H](O)[C@@H](O)[C@H](OCCN=[N+]=[N-])O[C@@H]3CO)[C@H](O)[C@@H](O)[C@H]2O)(C(=O)O)O[C@H]1C(O)[C@H](O)CNC(=O)OCc1cn(-c2ccc(S(=O)(=O)Nc3nccs3)cc2)nn1
REMARK SMILES IDX 43 1 42 2 9 3 8 4 41 5 6 6 5 7 10 8 11 9 12 10 14 11 13 12
REMARK SMILES IDX 32 13 34 14 36 15 15 16 16 17 29 18 28 19 21 20 17 21 19 22
REMARK SMILES IDX 30 23 31 24 22 26 23 27 24 28 25 29 26 30 27 31 18 32 20 34
REMARK SMILES IDX 33 36 35 38 37 40 38 42 39 43 40 44 7 46 4 48 2 49 1 51 3 52
REMARK SMILES IDX 44 53 45 55 46 56 47 58 48 59 49 60 50 62 51 63 52 64 53 65
REMARK SMILES IDX 54 66 72 67 55 68 71 69 56 70 57 71 70 72 58 73 69 74 59 75
REMARK SMILES IDX 60 76 61 77 62 78 63 79 64 81 65 82 68 83 66 84 67 85
REMARK H PARENT 31 25 18 33 20 35 33 37 35 39 37 41 40 45 7 47 4 50 44 54
REMARK H PARENT 46 57 48 61 63 80
REMARK Flexibility Score: inf
ROOT
ATOM      1  C   UNL     1      16.929  30.917  22.741  1.00  0.00     0.176 C 
ENDROOT
BRANCH   1   2
ATOM      2  C   UNL     1      15.749  30.106  22.323  1.00  0.00     0.178 C 
ATOM      3  C   UNL     1      14.834  29.469  20.267  1.00  0.00     0.272 C 
ATOM      4  C   UNL     1      13.915  28.754  21.282  1.00  0.00     0.113 C 
ATOM      5  O   UNL     1      15.655  30.348  20.917  1.00  0.00    -0.332 OA
ATOM      6  C   UNL     1      13.345  29.666  22.300  1.00  0.00     0.145 C 
ATOM      7  C   UNL     1      14.424  30.600  22.853  1.00  0.00     0.142 C 
BRANCH   3   8
ATOM      8  O   UNL     1      14.077  30.169  19.362  1.00  0.00    -0.338 OA
BRANCH   8   9
ATOM      9  C   UNL     1      14.492  31.455  19.127  1.00  0.00     0.199 C 
BRANCH   9  10
ATOM     10  C   UNL     1      15.002  31.673  17.721  1.00  0.00     0.179 C 
ATOM     11  C   UNL     1      16.561  31.247  16.182  1.00  0.00     0.282 C 
ATOM     12  O   UNL     1      15.933  30.715  17.333  1.00  0.00    -0.341 OA
ATOM     13  C   UNL     1      15.613  31.003  15.033  1.00  0.00     0.202 C 
ATOM     14  C   UNL     1      14.220  30.660  15.571  1.00  0.00     0.179 C 
ATOM     15  C   UNL     1      13.869  31.597  16.711  1.00  0.00     0.177 C 
BRANCH  11  16
ATOM     16  O   UNL     1      17.770  30.690  15.936  1.00  0.00    -0.341 OA
BRANCH  16  17
ATOM     17  C   UNL     1      18.408  30.126  17.026  1.00  0.00     0.184 C 
ATOM     18  C   UNL     1      19.656  30.760  17.491  1.00  0.00     0.178 C 
ATOM     19  O   UNL     1      20.458  29.751  18.094  1.00  0.00    -0.341 OA
ATOM     20  C   UNL     1      21.060  28.948  17.116  1.00  0.00     0.281 C 
ATOM     21  C   UNL     1      18.608  28.630  16.828  1.00  0.00     0.180 C 
ATOM     22  C   UNL     1      19.988  28.312  16.250  1.00  0.00     0.202 C 
BRANCH  18  23
ATOM     23  C   UNL     1      19.480  31.775  18.620  1.00  0.00     0.191 C 
BRANCH  23  24
ATOM     24  O   UNL     1      19.847  31.321  19.850  1.00  0.00    -0.394 OA
ATOM     25  H   UNL     1      20.804  31.490  20.004  1.00  0.00     0.210 HD
ENDBRANCH  23  24
ENDBRANCH  18  23
BRANCH  20  26
ATOM     26  O   UNL     1      21.803  27.983  17.759  1.00  0.00    -0.350 OA
BRANCH  26  27
ATOM     27  C   UNL     1      22.033  28.202  19.092  1.00  0.00     0.169 C 
BRANCH  27  28
ATOM     28  C   UNL     1      22.200  26.934  19.896  1.00  0.00     0.119 C 
BRANCH  28  29
ATOM     29  N   UNL     1      21.200  26.949  20.933  1.00  0.00    -0.092 NA
ATOM     30  N   UNL     1      21.177  26.044  21.763  1.00  0.00     0.001 N 
ATOM     31  N   UNL     1      20.818  25.027  22.360  1.00  0.00    -0.003 NA
ENDBRANCH  28  29
ENDBRANCH  27  28
ENDBRANCH  26  27
ENDBRANCH  20  26
BRANCH  21  32
ATOM     32  O   UNL     1      18.520  27.950  18.042  1.00  0.00    -0.387 OA
ATOM     33  H   UNL     1      17.616  27.586  18.184  1.00  0.00     0.211 HD
ENDBRANCH  21  32
BRANCH  22  34
ATOM     34  O   UNL     1      20.077  28.680  14.915  1.00  0.00    -0.385 OA
ATOM     35  H   UNL     1      19.785  29.617  14.855  1.00  0.00     0.211 HD
ENDBRANCH  22  34
ENDBRANCH  16  17
ENDBRANCH  11  16
BRANCH  13  36
ATOM     36  O   UNL     1      15.390  32.177  14.269  1.00  0.00    -0.385 OA
ATOM     37  H   UNL     1      16.220  32.595  14.000  1.00  0.00     0.211 HD
ENDBRANCH  13  36
BRANCH  14  38
ATOM     38  O   UNL     1      14.149  29.322  15.930  1.00  0.00    -0.387 OA
ATOM     39  H   UNL     1      13.223  29.045  16.153  1.00  0.00     0.211 HD
ENDBRANCH  14  38
BRANCH  15  40
ATOM     40  O   UNL     1      12.695  31.140  17.289  1.00  0.00    -0.387 OA
ATOM     41  H   UNL     1      12.733  31.026  18.253  1.00  0.00     0.211 HD
ENDBRANCH  15  40
ENDBRANCH   9  10
ENDBRANCH   8   9
ENDBRANCH   3   8
BRANCH   3  42
ATOM     42  C   UNL     1      15.601  28.402  19.622  1.00  0.00     0.364 C 
ATOM     43  O   UNL     1      16.336  27.601  20.285  1.00  0.00    -0.246 OA
BRANCH  42  44
ATOM     44  O   UNL     1      15.580  28.185  18.255  1.00  0.00    -0.477 OA
ATOM     45  H   UNL     1      15.886  27.278  17.879  1.00  0.00     0.296 HD
ENDBRANCH  42  44
ENDBRANCH   3  42
BRANCH   6  46
ATOM     46  O   UNL     1      12.251  30.396  21.835  1.00  0.00    -0.391 OA
ATOM     47  H   UNL     1      12.052  30.133  20.904  1.00  0.00     0.211 HD
ENDBRANCH   6  46
BRANCH   7  48
ATOM     48  N   UNL     1      14.313  30.695  24.264  1.00  0.00    -0.348 N 
ATOM     49  C   UNL     1      14.061  31.954  24.879  1.00  0.00     0.217 C 
ATOM     50  H   UNL     1      14.408  29.868  24.884  1.00  0.00     0.163 HD
ATOM     51  C   UNL     1      13.930  32.138  26.333  1.00  0.00     0.114 C 
ATOM     52  O   UNL     1      13.937  32.989  24.138  1.00  0.00    -0.275 OA
ENDBRANCH   7  48
ENDBRANCH   1   2
BRANCH   1  53
ATOM     53  O   UNL     1      17.652  31.291  21.564  1.00  0.00    -0.388 OA
ATOM     54  H   UNL     1      17.055  31.687  20.903  1.00  0.00     0.211 HD
ENDBRANCH   1  53
BRANCH   1  55
ATOM     55  C   UNL     1      17.883  30.275  23.706  1.00  0.00     0.165 C 
BRANCH  55  56
ATOM     56  O   UNL     1      17.494  30.820  24.977  1.00  0.00    -0.388 OA
ATOM     57  H   UNL     1      16.766  30.261  25.353  1.00  0.00     0.211 HD
ENDBRANCH  55  56
BRANCH  55  58
ATOM     58  C   UNL     1      19.302  30.802  23.531  1.00  0.00     0.154 C 
BRANCH  58  59
ATOM     59  N   UNL     1      20.188  29.681  23.702  1.00  0.00    -0.319 N 
ATOM     60  C   UNL     1      20.626  29.215  24.970  1.00  0.00     0.407 C 
ATOM     61  H   UNL     1      20.557  29.142  22.852  1.00  0.00     0.167 HD
ATOM     62  O   UNL     1      20.240  29.756  26.012  1.00  0.00    -0.225 OA
BRANCH  60  63
ATOM     63  O   UNL     1      21.503  28.142  25.082  1.00  0.00    -0.443 OA
BRANCH  63  64
ATOM     64  C   UNL     1      21.151  26.814  25.356  1.00  0.00     0.294 C 
BRANCH  64  65
ATOM     65  C   UNL     1      22.164  26.037  26.090  1.00  0.00     0.121 A 
ATOM     66  C   UNL     1      23.021  26.525  27.082  1.00  0.00     0.144 A 
ATOM     67  N   UNL     1      22.477  24.747  25.987  1.00  0.00    -0.131 NA
ATOM     68  N   UNL     1      23.815  25.524  27.541  1.00  0.00    -0.220 N 
ATOM     69  N   UNL     1      23.460  24.453  26.854  1.00  0.00    -0.062 NA
BRANCH  68  70
ATOM     70  C   UNL     1      24.813  25.662  28.567  1.00  0.00     0.066 A 
ATOM     71  C   UNL     1      26.094  26.050  28.296  1.00  0.00     0.030 A 
ATOM     72  C   UNL     1      24.452  25.377  29.872  1.00  0.00     0.030 A 
ATOM     73  C   UNL     1      27.028  26.156  29.326  1.00  0.00     0.024 A 
ATOM     74  C   UNL     1      25.335  25.467  30.920  1.00  0.00     0.024 A 
ATOM     75  C   UNL     1      26.630  25.864  30.609  1.00  0.00     0.088 A 
BRANCH  75  76
ATOM     76  S   UNL     1      27.777  25.981  31.920  1.00  0.00     0.263 S 
ATOM     77  O   UNL     1      29.123  26.343  31.321  1.00  0.00    -0.201 OA
ATOM     78  O   UNL     1      27.903  24.606  32.514  1.00  0.00    -0.201 OA
BRANCH  76  79
ATOM     79  N   UNL     1      27.247  27.128  33.060  1.00  0.00    -0.255 N 
ATOM     80  H   UNL     1      27.455  28.127  32.886  1.00  0.00     0.182 HD
BRANCH  79  81
ATOM     81  C   UNL     1      26.557  26.714  34.187  1.00  0.00     0.196 A 
ATOM     82  N   UNL     1      25.359  26.527  34.585  1.00  0.00    -0.228 NA
ATOM     83  S   UNL     1      27.462  26.230  35.735  1.00  0.00    -0.105 S 
ATOM     84  C   UNL     1      25.001  26.119  35.746  1.00  0.00     0.125 A 
ATOM     85  C   UNL     1      25.954  25.842  36.689  1.00  0.00     0.089 A 
ENDBRANCH  79  81
ENDBRANCH  76  79
ENDBRANCH  75  76
ENDBRANCH  68  70
ENDBRANCH  64  65
ENDBRANCH  63  64
ENDBRANCH  60  63
ENDBRANCH  58  59
ENDBRANCH  55  58
ENDBRANCH   1  55
TORSDOF 33
