REMARK VINA RESULT:    -5.259      5.018     10.942
REMARK INTER + INTRA:         -22.341
REMARK INTER:                 -14.988
REMARK INTRA:                  -7.353
REMARK UNBOUND:                -8.936
REMARK SMILES CC(=O)N[C@@H]1[C@@H](O)C[C@](OC[C@H]2O[C@@H](O[C@H]3[C@H](O)[C@@H](O)[C@H](OCCN=[N+]=[N-])O[C@@H]3CO)[C@H](O)[C@@H](O)[C@H]2O)(C(=O)O)O[C@H]1C(O)[C@H](O)CNC(=O)OCc1cn(-c2ccc(S(N)(=O)=O)cc2)nn1
REMARK SMILES IDX 9 1 8 2 6 3 5 4 42 5 41 6 10 7 11 8 12 9 14 10 13 11 32 12
REMARK SMILES IDX 34 13 36 14 15 15 16 16 29 17 28 18 21 19 17 20 19 21 30 22
REMARK SMILES IDX 31 23 22 25 23 26 24 27 25 28 26 29 27 30 18 31 20 33 33 35
REMARK SMILES IDX 35 37 37 39 38 41 39 42 40 43 7 45 43 47 44 48 45 50 46 51
REMARK SMILES IDX 47 53 48 54 49 55 50 57 51 58 52 59 53 60 54 61 67 62 55 63
REMARK SMILES IDX 66 64 56 65 57 66 65 67 58 68 64 69 59 70 60 71 62 72 63 73
REMARK SMILES IDX 61 74 4 77 2 78 1 80 3 81
REMARK H PARENT 31 24 18 32 20 34 33 36 35 38 37 40 40 44 7 46 44 49 46 52
REMARK H PARENT 48 56 61 75 61 76 4 79
REMARK Flexibility Score: inf
ROOT
ATOM      1  C   UNL     1      17.973  29.599  19.591  1.00  0.00     0.272 C 
ATOM      2  C   UNL     1      18.550  30.632  20.571  1.00  0.00     0.113 C 
ATOM      3  C   UNL     1      19.491  31.573  19.906  1.00  0.00     0.145 C 
ATOM      4  C   UNL     1      20.330  30.813  18.911  1.00  0.00     0.142 C 
ATOM      5  C   UNL     1      20.268  29.350  19.368  1.00  0.00     0.178 C 
ATOM      6  O   UNL     1      19.001  28.901  19.002  1.00  0.00    -0.332 OA
ENDROOT
BRANCH   1   7
ATOM      7  O   UNL     1      17.189  30.326  18.704  1.00  0.00    -0.338 OA
BRANCH   7   8
ATOM      8  C   UNL     1      17.100  29.788  17.452  1.00  0.00     0.199 C 
BRANCH   8   9
ATOM      9  C   UNL     1      15.619  29.452  17.199  1.00  0.00     0.179 C 
ATOM     10  C   UNL     1      13.551  30.391  17.759  1.00  0.00     0.282 C 
ATOM     11  O   UNL     1      14.902  30.119  18.140  1.00  0.00    -0.341 OA
ATOM     12  C   UNL     1      13.699  31.362  16.623  1.00  0.00     0.202 C 
ATOM     13  C   UNL     1      14.277  30.648  15.408  1.00  0.00     0.179 C 
ATOM     14  C   UNL     1      15.229  29.571  15.782  1.00  0.00     0.177 C 
BRANCH  10  15
ATOM     15  O   UNL     1      12.942  30.952  18.826  1.00  0.00    -0.341 OA
BRANCH  15  16
ATOM     16  C   UNL     1      13.768  31.120  19.969  1.00  0.00     0.184 C 
ATOM     17  C   UNL     1      13.012  30.693  21.143  1.00  0.00     0.178 C 
ATOM     18  O   UNL     1      13.143  31.454  22.286  1.00  0.00    -0.341 OA
ATOM     19  C   UNL     1      14.292  32.181  22.414  1.00  0.00     0.281 C 
ATOM     20  C   UNL     1      14.291  32.537  19.999  1.00  0.00     0.180 C 
ATOM     21  C   UNL     1      14.302  33.211  21.315  1.00  0.00     0.202 C 
BRANCH  17  22
ATOM     22  C   UNL     1      13.264  29.258  21.557  1.00  0.00     0.191 C 
BRANCH  22  23
ATOM     23  O   UNL     1      13.911  28.563  20.545  1.00  0.00    -0.394 OA
ATOM     24  H   UNL     1      14.528  27.876  20.901  1.00  0.00     0.210 HD
ENDBRANCH  22  23
ENDBRANCH  17  22
BRANCH  19  25
ATOM     25  O   UNL     1      15.461  31.462  22.480  1.00  0.00    -0.350 OA
BRANCH  25  26
ATOM     26  C   UNL     1      16.503  32.276  22.907  1.00  0.00     0.169 C 
BRANCH  26  27
ATOM     27  C   UNL     1      16.499  32.280  24.433  1.00  0.00     0.119 C 
BRANCH  27  28
ATOM     28  N   UNL     1      16.932  30.987  24.886  1.00  0.00    -0.092 NA
ATOM     29  N   UNL     1      18.047  30.514  24.574  1.00  0.00     0.001 N 
ATOM     30  N   UNL     1      18.784  29.782  23.890  1.00  0.00    -0.003 NA
ENDBRANCH  27  28
ENDBRANCH  26  27
ENDBRANCH  25  26
ENDBRANCH  19  25
BRANCH  20  31
ATOM     31  O   UNL     1      15.585  32.606  19.474  1.00  0.00    -0.387 OA
ATOM     32  H   UNL     1      16.230  32.348  20.172  1.00  0.00     0.211 HD
ENDBRANCH  20  31
BRANCH  21  33
ATOM     33  O   UNL     1      13.259  34.110  21.506  1.00  0.00    -0.385 OA
ATOM     34  H   UNL     1      13.595  34.737  22.225  1.00  0.00     0.211 HD
ENDBRANCH  21  33
ENDBRANCH  15  16
ENDBRANCH  10  15
BRANCH  12  35
ATOM     35  O   UNL     1      12.590  32.102  16.333  1.00  0.00    -0.385 OA
ATOM     36  H   UNL     1      12.638  32.631  15.514  1.00  0.00     0.211 HD
ENDBRANCH  12  35
BRANCH  13  37
ATOM     37  O   UNL     1      14.746  31.549  14.466  1.00  0.00    -0.387 OA
ATOM     38  H   UNL     1      15.503  31.240  13.929  1.00  0.00     0.211 HD
ENDBRANCH  13  37
BRANCH  14  39
ATOM     39  O   UNL     1      16.413  29.785  15.034  1.00  0.00    -0.387 OA
ATOM     40  H   UNL     1      17.152  29.756  15.710  1.00  0.00     0.211 HD
ENDBRANCH  14  39
ENDBRANCH   8   9
ENDBRANCH   7   8
ENDBRANCH   1   7
BRANCH   1  41
ATOM     41  C   UNL     1      17.108  28.720  20.462  1.00  0.00     0.364 C 
ATOM     42  O   UNL     1      16.718  27.596  20.062  1.00  0.00    -0.246 OA
BRANCH  41  43
ATOM     43  O   UNL     1      16.720  29.122  21.725  1.00  0.00    -0.477 OA
ATOM     44  H   UNL     1      16.032  28.567  22.211  1.00  0.00     0.296 HD
ENDBRANCH  41  43
ENDBRANCH   1  41
BRANCH   3  45
ATOM     45  O   UNL     1      18.756  32.608  19.331  1.00  0.00    -0.391 OA
ATOM     46  H   UNL     1      17.796  32.452  19.495  1.00  0.00     0.211 HD
ENDBRANCH   3  45
BRANCH   5  47
ATOM     47  C   UNL     1      21.307  28.522  18.662  1.00  0.00     0.176 C 
BRANCH  47  48
ATOM     48  O   UNL     1      21.382  27.216  19.100  1.00  0.00    -0.388 OA
ATOM     49  H   UNL     1      20.790  27.031  19.871  1.00  0.00     0.211 HD
ENDBRANCH  47  48
BRANCH  47  50
ATOM     50  C   UNL     1      21.072  28.547  17.169  1.00  0.00     0.165 C 
BRANCH  50  51
ATOM     51  O   UNL     1      20.073  27.614  16.816  1.00  0.00    -0.388 OA
ATOM     52  H   UNL     1      19.473  28.003  16.118  1.00  0.00     0.211 HD
ENDBRANCH  50  51
BRANCH  50  53
ATOM     53  C   UNL     1      22.333  28.260  16.394  1.00  0.00     0.154 C 
BRANCH  53  54
ATOM     54  N   UNL     1      23.110  27.204  17.000  1.00  0.00    -0.319 N 
ATOM     55  C   UNL     1      22.900  25.858  16.601  1.00  0.00     0.407 C 
ATOM     56  H   UNL     1      23.828  27.387  17.727  1.00  0.00     0.167 HD
ATOM     57  O   UNL     1      22.026  25.617  15.717  1.00  0.00    -0.225 OA
BRANCH  55  58
ATOM     58  O   UNL     1      23.594  24.777  17.116  1.00  0.00    -0.443 OA
BRANCH  58  59
ATOM     59  C   UNL     1      24.437  24.881  18.238  1.00  0.00     0.294 C 
BRANCH  59  60
ATOM     60  C   UNL     1      23.635  24.653  19.469  1.00  0.00     0.121 A 
ATOM     61  C   UNL     1      24.055  24.905  20.781  1.00  0.00     0.144 A 
ATOM     62  N   UNL     1      22.387  24.174  19.609  1.00  0.00    -0.131 NA
ATOM     63  N   UNL     1      23.058  24.572  21.637  1.00  0.00    -0.220 N 
ATOM     64  N   UNL     1      22.071  24.138  20.912  1.00  0.00    -0.062 NA
BRANCH  63  65
ATOM     65  C   UNL     1      23.088  24.676  23.066  1.00  0.00     0.066 A 
ATOM     66  C   UNL     1      21.947  24.950  23.785  1.00  0.00     0.030 A 
ATOM     67  C   UNL     1      24.261  24.500  23.765  1.00  0.00     0.030 A 
ATOM     68  C   UNL     1      21.980  25.048  25.175  1.00  0.00     0.024 A 
ATOM     69  C   UNL     1      24.304  24.595  25.155  1.00  0.00     0.024 A 
ATOM     70  C   UNL     1      23.158  24.871  25.872  1.00  0.00     0.082 A 
BRANCH  70  71
ATOM     71  S   UNL     1      23.165  25.000  27.631  1.00  0.00     0.238 S 
ATOM     72  O   UNL     1      24.455  25.609  28.122  1.00  0.00    -0.207 OA
ATOM     73  O   UNL     1      22.051  25.888  28.094  1.00  0.00    -0.207 OA
BRANCH  71  74
ATOM     74  N   UNL     1      22.963  23.440  28.366  1.00  0.00    -0.225 NA
ATOM     75  H   UNL     1      22.500  22.812  27.649  1.00  0.00     0.137 HD
ATOM     76  H   UNL     1      22.386  23.485  29.238  1.00  0.00     0.137 HD
ENDBRANCH  71  74
ENDBRANCH  70  71
ENDBRANCH  63  65
ENDBRANCH  59  60
ENDBRANCH  58  59
ENDBRANCH  55  58
ENDBRANCH  53  54
ENDBRANCH  50  53
ENDBRANCH  47  50
ENDBRANCH   5  47
BRANCH   4  77
ATOM     77  N   UNL     1      21.693  31.262  18.816  1.00  0.00    -0.348 N 
ATOM     78  C   UNL     1      22.150  31.905  17.646  1.00  0.00     0.217 C 
ATOM     79  H   UNL     1      22.357  31.125  19.601  1.00  0.00     0.163 HD
ATOM     80  C   UNL     1      23.563  32.353  17.586  1.00  0.00     0.114 C 
ATOM     81  O   UNL     1      21.415  32.114  16.654  1.00  0.00    -0.275 OA
ENDBRANCH   4  77
TORSDOF 32
