REMARK VINA RESULT:    -6.264     12.800     18.564
REMARK INTER + INTRA:         -21.613
REMARK INTER:                 -16.152
REMARK INTRA:                  -5.460
REMARK UNBOUND:                -5.460
REMARK SMILES CC(=O)N[C@@H]1[C@@H](O)C[C@](OC[C@H]2O[C@@H](O[C@H]3[C@H](O)[C@@H](O)[C@H](OCCN=[N+]=[N-])O[C@@H]3CO)[C@H](O)[C@@H](O)[C@H]2O)(C(=O)O)O[C@H]1C(O)[C@H](O)CNC(=O)OCc1cn(C(c2ccccc2)c2ccccc2)nn1
REMARK SMILES IDX 9 1 8 2 6 3 5 4 42 5 41 6 10 7 11 8 12 9 14 10 13 11 32 12
REMARK SMILES IDX 34 13 36 14 15 15 16 16 29 17 28 18 21 19 17 20 19 21 30 22
REMARK SMILES IDX 31 23 22 25 23 26 24 27 25 28 26 29 27 30 18 31 20 33 33 35
REMARK SMILES IDX 35 37 37 39 38 41 39 42 40 43 7 45 43 47 44 48 45 50 46 51
REMARK SMILES IDX 47 53 48 54 49 55 50 57 51 58 52 59 53 60 54 61 70 62 55 63
REMARK SMILES IDX 69 64 56 65 57 66 58 67 62 68 59 69 61 70 60 71 63 72 64 73
REMARK SMILES IDX 68 74 65 75 67 76 66 77 4 78 2 79 1 81 3 82
REMARK H PARENT 31 24 18 32 20 34 33 36 35 38 37 40 40 44 7 46 44 49 46 52
REMARK H PARENT 48 56 4 80
REMARK Flexibility Score: inf
ROOT
ATOM      1  C   UNL     1      11.441  27.003  35.552  1.00  0.00     0.272 C 
ATOM      2  C   UNL     1      10.547  26.931  34.296  1.00  0.00     0.113 C 
ATOM      3  C   UNL     1      10.005  28.266  33.988  1.00  0.00     0.145 C 
ATOM      4  C   UNL     1      11.134  29.242  33.773  1.00  0.00     0.142 C 
ATOM      5  C   UNL     1      12.411  28.815  34.399  1.00  0.00     0.178 C 
ATOM      6  O   UNL     1      12.306  28.028  35.500  1.00  0.00    -0.332 OA
ENDROOT
BRANCH   1   7
ATOM      7  O   UNL     1      12.151  25.794  35.630  1.00  0.00    -0.338 OA
BRANCH   7   8
ATOM      8  C   UNL     1      11.365  24.724  35.293  1.00  0.00     0.199 C 
BRANCH   8   9
ATOM      9  C   UNL     1      11.599  23.520  36.204  1.00  0.00     0.179 C 
ATOM     10  C   UNL     1      11.790  24.059  38.519  1.00  0.00     0.282 C 
ATOM     11  O   UNL     1      12.268  23.839  37.279  1.00  0.00    -0.341 OA
ATOM     12  C   UNL     1      10.344  24.011  38.654  1.00  0.00     0.202 C 
ATOM     13  C   UNL     1       9.654  23.068  37.732  1.00  0.00     0.179 C 
ATOM     14  C   UNL     1      10.317  22.756  36.447  1.00  0.00     0.177 C 
BRANCH  10  15
ATOM     15  O   UNL     1      12.390  25.305  38.882  1.00  0.00    -0.341 OA
BRANCH  15  16
ATOM     16  C   UNL     1      13.750  25.242  38.847  1.00  0.00     0.184 C 
ATOM     17  C   UNL     1      14.346  25.208  40.210  1.00  0.00     0.178 C 
ATOM     18  O   UNL     1      15.716  24.925  40.134  1.00  0.00    -0.341 OA
ATOM     19  C   UNL     1      16.387  26.007  39.632  1.00  0.00     0.281 C 
ATOM     20  C   UNL     1      14.348  26.460  38.153  1.00  0.00     0.180 C 
ATOM     21  C   UNL     1      15.549  26.946  38.863  1.00  0.00     0.202 C 
BRANCH  17  22
ATOM     22  C   UNL     1      13.656  24.275  41.185  1.00  0.00     0.191 C 
BRANCH  22  23
ATOM     23  O   UNL     1      13.815  22.963  40.749  1.00  0.00    -0.394 OA
ATOM     24  H   UNL     1      13.802  22.862  39.775  1.00  0.00     0.210 HD
ENDBRANCH  22  23
ENDBRANCH  17  22
BRANCH  19  25
ATOM     25  O   UNL     1      17.543  25.623  38.932  1.00  0.00    -0.350 OA
BRANCH  25  26
ATOM     26  C   UNL     1      17.919  26.470  37.930  1.00  0.00     0.169 C 
BRANCH  26  27
ATOM     27  C   UNL     1      18.064  25.694  36.641  1.00  0.00     0.119 C 
BRANCH  27  28
ATOM     28  N   UNL     1      19.401  25.121  36.503  1.00  0.00    -0.092 NA
ATOM     29  N   UNL     1      19.675  23.996  36.903  1.00  0.00     0.001 N 
ATOM     30  N   UNL     1      19.928  23.022  37.622  1.00  0.00    -0.003 NA
ENDBRANCH  27  28
ENDBRANCH  26  27
ENDBRANCH  25  26
ENDBRANCH  19  25
BRANCH  20  31
ATOM     31  O   UNL     1      14.561  26.104  36.820  1.00  0.00    -0.387 OA
ATOM     32  H   UNL     1      14.412  26.874  36.207  1.00  0.00     0.211 HD
ENDBRANCH  20  31
BRANCH  21  33
ATOM     33  O   UNL     1      15.145  28.023  39.705  1.00  0.00    -0.385 OA
ATOM     34  H   UNL     1      15.783  28.763  39.503  1.00  0.00     0.211 HD
ENDBRANCH  21  33
ENDBRANCH  15  16
ENDBRANCH  10  15
BRANCH  12  35
ATOM     35  O   UNL     1       9.912  23.646  39.955  1.00  0.00    -0.385 OA
ATOM     36  H   UNL     1       9.536  24.470  40.347  1.00  0.00     0.211 HD
ENDBRANCH  12  35
BRANCH  13  37
ATOM     37  O   UNL     1       8.331  23.501  37.456  1.00  0.00    -0.387 OA
ATOM     38  H   UNL     1       8.321  24.491  37.383  1.00  0.00     0.211 HD
ENDBRANCH  13  37
BRANCH  14  39
ATOM     39  O   UNL     1       9.463  23.105  35.389  1.00  0.00    -0.387 OA
ATOM     40  H   UNL     1       9.936  23.602  34.681  1.00  0.00     0.211 HD
ENDBRANCH  14  39
ENDBRANCH   8   9
ENDBRANCH   7   8
ENDBRANCH   1   7
BRANCH   1  41
ATOM     41  C   UNL     1      10.515  27.089  36.682  1.00  0.00     0.364 C 
ATOM     42  O   UNL     1       9.346  26.666  36.589  1.00  0.00    -0.246 OA
BRANCH  41  43
ATOM     43  O   UNL     1      10.883  27.643  37.910  1.00  0.00    -0.477 OA
ATOM     44  H   UNL     1      10.763  27.127  38.770  1.00  0.00     0.296 HD
ENDBRANCH  41  43
ENDBRANCH   1  41
BRANCH   3  45
ATOM     45  O   UNL     1       9.252  28.146  32.800  1.00  0.00    -0.391 OA
ATOM     46  H   UNL     1       9.670  27.494  32.184  1.00  0.00     0.211 HD
ENDBRANCH   3  45
BRANCH   5  47
ATOM     47  C   UNL     1      13.466  28.270  33.480  1.00  0.00     0.176 C 
BRANCH  47  48
ATOM     48  O   UNL     1      14.393  27.599  34.305  1.00  0.00    -0.388 OA
ATOM     49  H   UNL     1      15.189  28.125  34.496  1.00  0.00     0.211 HD
ENDBRANCH  47  48
BRANCH  47  50
ATOM     50  C   UNL     1      14.212  29.267  32.670  1.00  0.00     0.165 C 
BRANCH  50  51
ATOM     51  O   UNL     1      14.305  28.758  31.379  1.00  0.00    -0.388 OA
ATOM     52  H   UNL     1      13.774  27.931  31.249  1.00  0.00     0.211 HD
ENDBRANCH  50  51
BRANCH  50  53
ATOM     53  C   UNL     1      15.569  29.633  33.162  1.00  0.00     0.154 C 
BRANCH  53  54
ATOM     54  N   UNL     1      16.673  29.153  32.395  1.00  0.00    -0.319 N 
ATOM     55  C   UNL     1      17.438  28.004  32.615  1.00  0.00     0.407 C 
ATOM     56  H   UNL     1      16.958  29.739  31.544  1.00  0.00     0.167 HD
ATOM     57  O   UNL     1      17.197  27.269  33.580  1.00  0.00    -0.225 OA
BRANCH  55  58
ATOM     58  O   UNL     1      18.483  27.656  31.762  1.00  0.00    -0.443 OA
BRANCH  58  59
ATOM     59  C   UNL     1      19.141  28.672  30.990  1.00  0.00     0.294 C 
BRANCH  59  60
ATOM     60  C   UNL     1      20.410  28.111  30.461  1.00  0.00     0.120 A 
ATOM     61  C   UNL     1      20.519  26.852  29.945  1.00  0.00     0.139 A 
ATOM     62  N   UNL     1      21.584  28.733  30.411  1.00  0.00    -0.132 NA
ATOM     63  N   UNL     1      21.805  26.724  29.576  1.00  0.00    -0.240 N 
ATOM     64  N   UNL     1      22.437  27.868  29.862  1.00  0.00    -0.066 NA
BRANCH  63  65
ATOM     65  C   UNL     1      22.477  25.600  28.958  1.00  0.00     0.169 C 
BRANCH  65  66
ATOM     66  C   UNL     1      23.884  25.627  29.377  1.00  0.00    -0.019 A 
ATOM     67  C   UNL     1      24.241  25.275  30.663  1.00  0.00     0.006 A 
ATOM     68  C   UNL     1      24.909  26.012  28.539  1.00  0.00     0.006 A 
ATOM     69  C   UNL     1      25.563  25.309  31.085  1.00  0.00     0.000 A 
ATOM     70  C   UNL     1      26.238  26.050  28.951  1.00  0.00     0.000 A 
ATOM     71  C   UNL     1      26.575  25.694  30.242  1.00  0.00     0.000 A 
ENDBRANCH  65  66
BRANCH  65  72
ATOM     72  C   UNL     1      22.261  25.607  27.497  1.00  0.00    -0.019 A 
ATOM     73  C   UNL     1      21.705  26.756  26.946  1.00  0.00     0.006 A 
ATOM     74  C   UNL     1      22.540  24.566  26.661  1.00  0.00     0.006 A 
ATOM     75  C   UNL     1      21.449  26.832  25.603  1.00  0.00     0.000 A 
ATOM     76  C   UNL     1      22.285  24.635  25.303  1.00  0.00     0.000 A 
ATOM     77  C   UNL     1      21.736  25.771  24.767  1.00  0.00     0.000 A 
ENDBRANCH  65  72
ENDBRANCH  63  65
ENDBRANCH  59  60
ENDBRANCH  58  59
ENDBRANCH  55  58
ENDBRANCH  53  54
ENDBRANCH  50  53
ENDBRANCH  47  50
ENDBRANCH   5  47
BRANCH   4  78
ATOM     78  N   UNL     1      10.667  30.498  34.391  1.00  0.00    -0.348 N 
ATOM     79  C   UNL     1      10.887  31.768  33.789  1.00  0.00     0.217 C 
ATOM     80  H   UNL     1      10.150  30.497  35.306  1.00  0.00     0.163 HD
ATOM     81  C   UNL     1      10.397  33.029  34.441  1.00  0.00     0.114 C 
ATOM     82  O   UNL     1      11.492  31.873  32.701  1.00  0.00    -0.275 OA
ENDBRANCH   4  78
TORSDOF 32
