REMARK VINA RESULT:    -4.871      4.691     15.359
REMARK INTER + INTRA:         -21.625
REMARK INTER:                 -15.467
REMARK INTRA:                  -6.159
REMARK UNBOUND:                -8.780
REMARK SMILES COc1ccc(Cn2cc(COC(=O)NC[C@@H](O)C(O)[C@@H]3O[C@@](OC[C@H]4O[C@@H](O[C@H]5[C@H](O)[C@@H](O)[C@H](OCCN=[N+]=[N-])O[C@@H]5CO)[C@H](O)[C@@H](O)[C@H]4O)(C(=O)O)C[C@H](O)[C@H]3NC(C)=O)nn2)cc1OC
REMARK SMILES IDX 23 1 55 2 56 3 58 4 21 5 22 6 24 7 25 8 26 9 28 10 27 11
REMARK SMILES IDX 46 12 48 13 50 14 29 15 30 16 43 17 42 18 35 19 31 20 33 21
REMARK SMILES IDX 44 22 45 23 36 25 37 26 38 27 39 28 40 29 41 30 32 31 34 33
REMARK SMILES IDX 47 35 49 37 51 39 52 41 53 42 54 43 57 45 19 47 20 48 17 50
REMARK SMILES IDX 18 51 16 53 15 54 13 55 14 57 12 58 11 59 10 60 9 61 63 62
REMARK SMILES IDX 8 63 64 64 7 65 6 66 65 67 5 68 66 69 4 70 3 71 67 72 68 73
REMARK SMILES IDX 2 74 1 75 59 76 60 77 61 79 62 80
REMARK H PARENT 45 24 32 32 34 34 47 36 49 38 51 40 54 44 57 46 20 49 18 52
REMARK H PARENT 15 56 59 78
REMARK Flexibility Score: inf
ROOT
ATOM      1  C   UNL     1      30.403  20.304  22.061  1.00  0.00     0.272 C 
ATOM      2  C   UNL     1      29.450  19.146  21.819  1.00  0.00     0.113 C 
ATOM      3  C   UNL     1      29.073  18.817  20.421  1.00  0.00     0.145 C 
ATOM      4  C   UNL     1      29.302  20.032  19.528  1.00  0.00     0.142 C 
ATOM      5  C   UNL     1      29.064  21.204  20.394  1.00  0.00     0.178 C 
ATOM      6  O   UNL     1      30.161  21.401  21.212  1.00  0.00    -0.332 OA
ENDROOT
BRANCH   1   7
ATOM      7  O   UNL     1      31.655  19.790  21.750  1.00  0.00    -0.338 OA
BRANCH   7   8
ATOM      8  C   UNL     1      32.683  20.673  21.623  1.00  0.00     0.199 C 
BRANCH   8   9
ATOM      9  C   UNL     1      33.995  20.034  21.990  1.00  0.00     0.179 C 
ATOM     10  C   UNL     1      35.035  18.217  22.872  1.00  0.00     0.282 C 
ATOM     11  O   UNL     1      33.854  18.643  22.151  1.00  0.00    -0.341 OA
ATOM     12  C   UNL     1      36.191  18.255  21.984  1.00  0.00     0.202 C 
ATOM     13  C   UNL     1      36.258  19.533  21.164  1.00  0.00     0.179 C 
ATOM     14  C   UNL     1      34.960  20.138  20.800  1.00  0.00     0.177 C 
BRANCH  10  15
ATOM     15  O   UNL     1      34.732  16.977  23.398  1.00  0.00    -0.341 OA
BRANCH  15  16
ATOM     16  C   UNL     1      34.185  17.114  24.674  1.00  0.00     0.184 C 
ATOM     17  C   UNL     1      34.883  16.319  25.705  1.00  0.00     0.178 C 
ATOM     18  O   UNL     1      34.437  16.746  26.953  1.00  0.00    -0.341 OA
ATOM     19  C   UNL     1      33.122  17.044  26.981  1.00  0.00     0.281 C 
ATOM     20  C   UNL     1      32.721  16.669  24.579  1.00  0.00     0.180 C 
ATOM     21  C   UNL     1      32.253  16.299  25.993  1.00  0.00     0.202 C 
BRANCH  17  22
ATOM     22  C   UNL     1      36.388  16.395  25.598  1.00  0.00     0.191 C 
BRANCH  22  23
ATOM     23  O   UNL     1      36.720  17.748  25.666  1.00  0.00    -0.394 OA
ATOM     24  H   UNL     1      37.608  17.886  25.218  1.00  0.00     0.210 HD
ENDBRANCH  22  23
ENDBRANCH  17  22
BRANCH  19  25
ATOM     25  O   UNL     1      32.974  18.438  26.644  1.00  0.00    -0.350 OA
BRANCH  25  26
ATOM     26  C   UNL     1      32.849  19.135  27.863  1.00  0.00     0.169 C 
BRANCH  26  27
ATOM     27  C   UNL     1      31.887  18.466  28.827  1.00  0.00     0.119 C 
BRANCH  27  28
ATOM     28  N   UNL     1      32.349  18.682  30.170  1.00  0.00    -0.092 NA
ATOM     29  N   UNL     1      32.830  17.775  30.855  1.00  0.00     0.001 N 
ATOM     30  N   UNL     1      33.089  16.655  31.339  1.00  0.00    -0.003 NA
ENDBRANCH  27  28
ENDBRANCH  26  27
ENDBRANCH  25  26
ENDBRANCH  19  25
BRANCH  20  31
ATOM     31  O   UNL     1      31.981  17.771  24.181  1.00  0.00    -0.387 OA
ATOM     32  H   UNL     1      31.731  17.643  23.216  1.00  0.00     0.211 HD
ENDBRANCH  20  31
BRANCH  21  33
ATOM     33  O   UNL     1      32.418  14.944  26.159  1.00  0.00    -0.385 OA
ATOM     34  H   UNL     1      32.245  14.652  27.095  1.00  0.00     0.211 HD
ENDBRANCH  21  33
ENDBRANCH  15  16
ENDBRANCH  10  15
BRANCH  12  35
ATOM     35  O   UNL     1      37.383  18.191  22.687  1.00  0.00    -0.385 OA
ATOM     36  H   UNL     1      37.653  19.084  23.050  1.00  0.00     0.211 HD
ENDBRANCH  12  35
BRANCH  13  37
ATOM     37  O   UNL     1      37.035  19.252  20.008  1.00  0.00    -0.387 OA
ATOM     38  H   UNL     1      36.531  18.571  19.491  1.00  0.00     0.211 HD
ENDBRANCH  13  37
BRANCH  14  39
ATOM     39  O   UNL     1      34.333  19.428  19.752  1.00  0.00    -0.387 OA
ATOM     40  H   UNL     1      34.121  18.476  20.041  1.00  0.00     0.211 HD
ENDBRANCH  14  39
ENDBRANCH   8   9
ENDBRANCH   7   8
ENDBRANCH   1   7
BRANCH   1  41
ATOM     41  C   UNL     1      30.232  20.756  23.466  1.00  0.00     0.364 C 
ATOM     42  O   UNL     1      30.802  20.190  24.402  1.00  0.00    -0.246 OA
BRANCH  41  43
ATOM     43  O   UNL     1      29.412  21.853  23.840  1.00  0.00    -0.477 OA
ATOM     44  H   UNL     1      29.508  22.161  24.836  1.00  0.00     0.296 HD
ENDBRANCH  41  43
ENDBRANCH   1  41
BRANCH   3  45
ATOM     45  O   UNL     1      29.812  17.770  19.925  1.00  0.00    -0.391 OA
ATOM     46  H   UNL     1      29.253  16.939  19.887  1.00  0.00     0.211 HD
ENDBRANCH   3  45
BRANCH   5  47
ATOM     47  C   UNL     1      28.526  22.371  19.704  1.00  0.00     0.176 C 
BRANCH  47  48
ATOM     48  O   UNL     1      27.200  22.294  19.295  1.00  0.00    -0.388 OA
ATOM     49  H   UNL     1      26.576  22.829  19.799  1.00  0.00     0.211 HD
ENDBRANCH  47  48
BRANCH  47  50
ATOM     50  C   UNL     1      28.337  23.543  20.812  1.00  0.00     0.165 C 
BRANCH  50  51
ATOM     51  O   UNL     1      27.741  22.986  21.876  1.00  0.00    -0.388 OA
ATOM     52  H   UNL     1      26.994  22.365  21.634  1.00  0.00     0.211 HD
ENDBRANCH  50  51
BRANCH  50  53
ATOM     53  C   UNL     1      27.872  24.755  20.181  1.00  0.00     0.154 C 
BRANCH  53  54
ATOM     54  N   UNL     1      26.673  25.444  20.522  1.00  0.00    -0.319 N 
ATOM     55  C   UNL     1      25.618  25.374  19.579  1.00  0.00     0.407 C 
ATOM     56  H   UNL     1      26.502  25.992  21.362  1.00  0.00     0.167 HD
ATOM     57  O   UNL     1      25.766  24.731  18.488  1.00  0.00    -0.225 OA
BRANCH  55  58
ATOM     58  O   UNL     1      24.367  25.965  19.725  1.00  0.00    -0.443 OA
BRANCH  58  59
ATOM     59  C   UNL     1      23.214  25.137  19.350  1.00  0.00     0.294 C 
BRANCH  59  60
ATOM     60  C   UNL     1      22.273  25.362  20.485  1.00  0.00     0.120 A 
ATOM     61  C   UNL     1      22.080  24.466  21.563  1.00  0.00     0.138 A 
ATOM     62  N   UNL     1      21.530  26.435  20.727  1.00  0.00    -0.132 NA
ATOM     63  N   UNL     1      21.214  25.088  22.398  1.00  0.00    -0.248 N 
ATOM     64  N   UNL     1      20.898  26.234  21.903  1.00  0.00    -0.067 NA
BRANCH  63  65
ATOM     65  C   UNL     1      20.776  24.532  23.706  1.00  0.00     0.181 C 
BRANCH  65  66
ATOM     66  C   UNL     1      21.744  25.186  24.692  1.00  0.00    -0.023 A 
ATOM     67  C   UNL     1      21.435  26.350  25.362  1.00  0.00     0.056 A 
ATOM     68  C   UNL     1      22.884  24.509  24.983  1.00  0.00     0.010 A 
ATOM     69  C   UNL     1      22.378  26.754  26.350  1.00  0.00     0.161 A 
ATOM     70  C   UNL     1      23.818  24.932  25.978  1.00  0.00     0.051 A 
ATOM     71  C   UNL     1      23.497  26.086  26.642  1.00  0.00     0.160 A 
BRANCH  69  72
ATOM     72  O   UNL     1      22.126  27.929  27.060  1.00  0.00    -0.493 OA
ATOM     73  C   UNL     1      21.564  29.086  26.431  1.00  0.00     0.278 C 
ENDBRANCH  69  72
BRANCH  71  74
ATOM     74  O   UNL     1      24.350  26.573  27.672  1.00  0.00    -0.493 OA
ATOM     75  C   UNL     1      25.677  26.014  27.774  1.00  0.00     0.278 C 
ENDBRANCH  71  74
ENDBRANCH  65  66
ENDBRANCH  63  65
ENDBRANCH  59  60
ENDBRANCH  58  59
ENDBRANCH  55  58
ENDBRANCH  53  54
ENDBRANCH  50  53
ENDBRANCH  47  50
ENDBRANCH   5  47
BRANCH   4  76
ATOM     76  N   UNL     1      28.433  19.929  18.386  1.00  0.00    -0.348 N 
ATOM     77  C   UNL     1      28.918  19.366  17.200  1.00  0.00     0.217 C 
ATOM     78  H   UNL     1      27.422  20.239  18.391  1.00  0.00     0.163 HD
ATOM     79  C   UNL     1      28.156  19.210  15.924  1.00  0.00     0.114 C 
ATOM     80  O   UNL     1      30.127  18.910  17.091  1.00  0.00    -0.275 OA
ENDBRANCH   4  76
TORSDOF 33
