REMARK VINA RESULT:    -6.215     15.639     20.894
REMARK INTER + INTRA:         -21.111
REMARK INTER:                 -12.120
REMARK INTRA:                  -8.991
REMARK UNBOUND:                -5.087
REMARK SMILES CC(=O)N[C@@H]1[C@@H](O)C[C@](OC[C@H]2O[C@@H](O[C@H]3[C@H](O)[C@@H](O)[C@H](OCCN=[N+]=[N-])O[C@@H]3CO)[C@H](O)[C@@H](O)[C@H]2O)(C(=O)O)O[C@H]1C(O)[C@H](O)CNC(=O)OCc1cn(CS(=O)(=O)c2ccccc2)nn1
REMARK SMILES IDX 9 1 8 2 6 3 5 4 42 5 41 6 10 7 11 8 12 9 14 10 13 11 32 12
REMARK SMILES IDX 34 13 36 14 15 15 16 16 29 17 28 18 21 19 17 20 19 21 30 22
REMARK SMILES IDX 31 23 22 25 23 26 24 27 25 28 26 29 27 30 18 31 20 33 33 35
REMARK SMILES IDX 35 37 37 39 38 41 39 42 40 43 7 45 43 47 44 48 45 50 46 51
REMARK SMILES IDX 47 53 48 54 49 55 50 57 51 58 52 59 53 60 54 61 67 62 55 63
REMARK SMILES IDX 66 64 56 65 57 66 58 67 59 68 60 69 61 70 65 71 62 72 64 73
REMARK SMILES IDX 63 74 4 75 2 76 1 78 3 79
REMARK H PARENT 31 24 18 32 20 34 33 36 35 38 37 40 40 44 7 46 44 49 46 52
REMARK H PARENT 48 56 4 77
REMARK Flexibility Score: inf
ROOT
ATOM      1  C   UNL     1      10.998  25.066  37.424  1.00  0.00     0.272 C 
ATOM      2  C   UNL     1      11.476  23.766  36.920  1.00  0.00     0.113 C 
ATOM      3  C   UNL     1      10.389  22.753  36.623  1.00  0.00     0.145 C 
ATOM      4  C   UNL     1       9.517  22.697  37.828  1.00  0.00     0.142 C 
ATOM      5  C   UNL     1       9.070  24.050  38.306  1.00  0.00     0.178 C 
ATOM      6  O   UNL     1      10.001  25.020  38.386  1.00  0.00    -0.332 OA
ENDROOT
BRANCH   1   7
ATOM      7  O   UNL     1      10.735  25.984  36.429  1.00  0.00    -0.338 OA
BRANCH   7   8
ATOM      8  C   UNL     1      11.627  26.073  35.411  1.00  0.00     0.199 C 
BRANCH   8   9
ATOM      9  C   UNL     1      10.903  26.073  34.048  1.00  0.00     0.179 C 
ATOM     10  C   UNL     1       8.641  26.766  34.081  1.00  0.00     0.282 C 
ATOM     11  O   UNL     1       9.608  25.822  34.279  1.00  0.00    -0.341 OA
ATOM     12  C   UNL     1       9.145  28.138  34.318  1.00  0.00     0.202 C 
ATOM     13  C   UNL     1      10.395  28.423  33.541  1.00  0.00     0.179 C 
ATOM     14  C   UNL     1      11.203  27.238  33.199  1.00  0.00     0.177 C 
BRANCH  10  15
ATOM     15  O   UNL     1       7.604  26.410  34.961  1.00  0.00    -0.341 OA
BRANCH  15  16
ATOM     16  C   UNL     1       6.505  25.850  34.405  1.00  0.00     0.184 C 
ATOM     17  C   UNL     1       5.255  26.119  35.190  1.00  0.00     0.178 C 
ATOM     18  O   UNL     1       4.178  25.896  34.337  1.00  0.00    -0.341 OA
ATOM     19  C   UNL     1       4.231  24.732  33.623  1.00  0.00     0.281 C 
ATOM     20  C   UNL     1       6.599  24.304  34.409  1.00  0.00     0.180 C 
ATOM     21  C   UNL     1       5.277  23.765  34.026  1.00  0.00     0.202 C 
BRANCH  17  22
ATOM     22  C   UNL     1       5.130  27.481  35.775  1.00  0.00     0.191 C 
BRANCH  22  23
ATOM     23  O   UNL     1       5.548  28.423  34.842  1.00  0.00    -0.394 OA
ATOM     24  H   UNL     1       6.319  28.076  34.336  1.00  0.00     0.210 HD
ENDBRANCH  22  23
ENDBRANCH  17  22
BRANCH  19  25
ATOM     25  O   UNL     1       4.433  25.088  32.292  1.00  0.00    -0.350 OA
BRANCH  25  26
ATOM     26  C   UNL     1       3.582  26.151  31.909  1.00  0.00     0.169 C 
BRANCH  26  27
ATOM     27  C   UNL     1       3.999  26.648  30.541  1.00  0.00     0.119 C 
BRANCH  27  28
ATOM     28  N   UNL     1       5.377  27.119  30.644  1.00  0.00    -0.092 NA
ATOM     29  N   UNL     1       5.609  28.058  31.432  1.00  0.00     0.001 N 
ATOM     30  N   UNL     1       5.725  29.147  32.024  1.00  0.00    -0.003 NA
ENDBRANCH  27  28
ENDBRANCH  26  27
ENDBRANCH  25  26
ENDBRANCH  19  25
BRANCH  20  31
ATOM     31  O   UNL     1       7.575  23.881  33.523  1.00  0.00    -0.387 OA
ATOM     32  H   UNL     1       7.275  24.108  32.606  1.00  0.00     0.211 HD
ENDBRANCH  20  31
BRANCH  21  33
ATOM     33  O   UNL     1       4.767  23.049  35.139  1.00  0.00    -0.385 OA
ATOM     34  H   UNL     1       5.428  22.436  35.523  1.00  0.00     0.211 HD
ENDBRANCH  21  33
ENDBRANCH  15  16
ENDBRANCH  10  15
BRANCH  12  35
ATOM     35  O   UNL     1       8.213  29.115  33.842  1.00  0.00    -0.385 OA
ATOM     36  H   UNL     1       8.773  29.834  33.463  1.00  0.00     0.211 HD
ENDBRANCH  12  35
BRANCH  13  37
ATOM     37  O   UNL     1      11.180  29.402  34.200  1.00  0.00    -0.387 OA
ATOM     38  H   UNL     1      11.853  28.945  34.781  1.00  0.00     0.211 HD
ENDBRANCH  13  37
BRANCH  14  39
ATOM     39  O   UNL     1      12.567  27.587  33.220  1.00  0.00    -0.387 OA
ATOM     40  H   UNL     1      13.008  27.116  32.467  1.00  0.00     0.211 HD
ENDBRANCH  14  39
ENDBRANCH   8   9
ENDBRANCH   7   8
ENDBRANCH   1   7
BRANCH   1  41
ATOM     41  C   UNL     1      12.161  25.632  38.224  1.00  0.00     0.364 C 
ATOM     42  O   UNL     1      11.991  26.712  38.813  1.00  0.00    -0.246 OA
BRANCH  41  43
ATOM     43  O   UNL     1      13.366  24.952  38.285  1.00  0.00    -0.477 OA
ATOM     44  H   UNL     1      13.440  24.079  38.828  1.00  0.00     0.296 HD
ENDBRANCH  41  43
ENDBRANCH   1  41
BRANCH   3  45
ATOM     45  O   UNL     1       9.757  23.103  35.462  1.00  0.00    -0.391 OA
ATOM     46  H   UNL     1       8.800  22.837  35.545  1.00  0.00     0.211 HD
ENDBRANCH   3  45
BRANCH   5  47
ATOM     47  C   UNL     1       7.772  24.494  37.673  1.00  0.00     0.176 C 
BRANCH  47  48
ATOM     48  O   UNL     1       6.833  23.473  37.548  1.00  0.00    -0.388 OA
ATOM     49  H   UNL     1       6.430  23.397  36.671  1.00  0.00     0.211 HD
ENDBRANCH  47  48
BRANCH  47  50
ATOM     50  C   UNL     1       7.138  25.674  38.393  1.00  0.00     0.165 C 
BRANCH  50  51
ATOM     51  O   UNL     1       7.741  26.874  38.089  1.00  0.00    -0.388 OA
ATOM     52  H   UNL     1       7.354  27.657  38.510  1.00  0.00     0.211 HD
ENDBRANCH  50  51
BRANCH  50  53
ATOM     53  C   UNL     1       6.972  25.486  39.853  1.00  0.00     0.154 C 
BRANCH  53  54
ATOM     54  N   UNL     1       6.330  24.285  40.294  1.00  0.00    -0.319 N 
ATOM     55  C   UNL     1       4.950  24.116  40.548  1.00  0.00     0.407 C 
ATOM     56  H   UNL     1       6.949  23.431  40.450  1.00  0.00     0.167 HD
ATOM     57  O   UNL     1       4.144  25.051  40.384  1.00  0.00    -0.225 OA
BRANCH  55  58
ATOM     58  O   UNL     1       4.502  22.880  40.986  1.00  0.00    -0.443 OA
BRANCH  58  59
ATOM     59  C   UNL     1       4.881  21.655  40.430  1.00  0.00     0.294 C 
BRANCH  59  60
ATOM     60  C   UNL     1       4.178  21.453  39.150  1.00  0.00     0.120 A 
ATOM     61  C   UNL     1       3.206  20.488  38.945  1.00  0.00     0.139 A 
ATOM     62  N   UNL     1       4.289  22.097  37.978  1.00  0.00    -0.132 NA
ATOM     63  N   UNL     1       2.762  20.572  37.677  1.00  0.00    -0.237 N 
ATOM     64  N   UNL     1       3.447  21.564  37.118  1.00  0.00    -0.066 NA
BRANCH  63  65
ATOM     65  C   UNL     1       1.751  19.758  37.061  1.00  0.00     0.287 C 
BRANCH  65  66
ATOM     66  S   UNL     1       2.535  18.919  35.685  1.00  0.00     0.198 S 
ATOM     67  O   UNL     1       1.870  17.625  35.409  1.00  0.00    -0.222 OA
ATOM     68  O   UNL     1       3.995  18.729  36.064  1.00  0.00    -0.222 OA
BRANCH  66  69
ATOM     69  C   UNL     1       2.432  19.981  34.304  1.00  0.00     0.069 A 
ATOM     70  C   UNL     1       1.253  20.594  33.939  1.00  0.00     0.020 A 
ATOM     71  C   UNL     1       3.539  20.242  33.527  1.00  0.00     0.020 A 
ATOM     72  C   UNL     1       1.171  21.428  32.854  1.00  0.00     0.001 A 
ATOM     73  C   UNL     1       3.473  21.073  32.438  1.00  0.00     0.001 A 
ATOM     74  C   UNL     1       2.282  21.667  32.103  1.00  0.00     0.000 A 
ENDBRANCH  66  69
ENDBRANCH  65  66
ENDBRANCH  63  65
ENDBRANCH  59  60
ENDBRANCH  58  59
ENDBRANCH  55  58
ENDBRANCH  53  54
ENDBRANCH  50  53
ENDBRANCH  47  50
ENDBRANCH   5  47
BRANCH   4  75
ATOM     75  N   UNL     1      10.271  22.087  38.917  1.00  0.00    -0.348 N 
ATOM     76  C   UNL     1       9.626  21.564  40.073  1.00  0.00     0.217 C 
ATOM     77  H   UNL     1      11.334  22.009  38.897  1.00  0.00     0.163 HD
ATOM     78  C   UNL     1      10.453  20.946  41.169  1.00  0.00     0.114 C 
ATOM     79  O   UNL     1       8.368  21.612  40.189  1.00  0.00    -0.275 OA
ENDBRANCH   4  75
TORSDOF 32
