REMARK VINA RESULT:    -5.394      1.888      2.297
REMARK INTER + INTRA:         -23.209
REMARK INTER:                 -15.662
REMARK INTRA:                  -7.546
REMARK UNBOUND:                -8.356
REMARK SMILES CC(=O)N[C@@H]1[C@@H](O)C[C@](OC[C@H]2O[C@@H](O[C@H]3[C@H](O)[C@@H](O)[C@H](OCCN=[N+]=[N-])O[C@@H]3CO)[C@H](O)[C@@H](O)[C@H]2O)(C(=O)O)O[C@H]1C(O)[C@H](O)CNC(=O)OCc1cn([C@@H](CCC(=O)O)C(=O)O)nn1
REMARK SMILES IDX 43 1 42 2 9 3 8 4 41 5 6 6 5 7 10 8 11 9 12 10 14 11 13 12
REMARK SMILES IDX 32 13 34 14 36 15 15 16 16 17 29 18 28 19 21 20 17 21 19 22
REMARK SMILES IDX 30 23 31 24 22 26 23 27 24 28 25 29 26 30 27 31 18 32 20 34
REMARK SMILES IDX 33 36 35 38 37 40 38 42 39 43 40 44 7 46 4 48 2 49 1 51 3 52
REMARK SMILES IDX 44 53 45 55 46 56 47 58 48 59 49 60 50 62 51 63 52 64 53 65
REMARK SMILES IDX 54 66 66 67 55 68 65 69 56 70 57 71 58 72 59 73 60 74 61 75
REMARK SMILES IDX 62 77 63 78 64 79
REMARK H PARENT 31 25 18 33 20 35 33 37 35 39 37 41 40 45 7 47 4 50 44 54
REMARK H PARENT 46 57 48 61 61 76 64 80
REMARK Flexibility Score: inf
ROOT
ATOM      1  C   UNL     1      15.193  33.224  21.688  1.00  0.00     0.176 C 
ENDROOT
BRANCH   1   2
ATOM      2  C   UNL     1      14.497  31.885  21.931  1.00  0.00     0.178 C 
ATOM      3  C   UNL     1      15.094  29.631  21.602  1.00  0.00     0.272 C 
ATOM      4  C   UNL     1      13.980  29.341  20.678  1.00  0.00     0.113 C 
ATOM      5  O   UNL     1      15.409  30.988  21.376  1.00  0.00    -0.332 OA
ATOM      6  C   UNL     1      13.300  30.592  20.192  1.00  0.00     0.145 C 
ATOM      7  C   UNL     1      13.229  31.734  21.140  1.00  0.00     0.142 C 
BRANCH   3   8
ATOM      8  O   UNL     1      16.230  28.921  21.272  1.00  0.00    -0.338 OA
BRANCH   8   9
ATOM      9  C   UNL     1      16.311  27.998  20.349  1.00  0.00     0.199 C 
BRANCH   9  10
ATOM     10  C   UNL     1      17.135  28.127  19.098  1.00  0.00     0.179 C 
ATOM     11  C   UNL     1      17.039  29.630  17.316  1.00  0.00     0.282 C 
ATOM     12  O   UNL     1      16.429  28.647  18.052  1.00  0.00    -0.341 OA
ATOM     13  C   UNL     1      17.366  30.786  18.236  1.00  0.00     0.202 C 
ATOM     14  C   UNL     1      18.377  30.329  19.238  1.00  0.00     0.179 C 
ATOM     15  C   UNL     1      18.444  28.851  19.389  1.00  0.00     0.177 C 
BRANCH  11  16
ATOM     16  O   UNL     1      16.141  30.078  16.345  1.00  0.00    -0.341 OA
BRANCH  16  17
ATOM     17  C   UNL     1      16.082  29.314  15.207  1.00  0.00     0.184 C 
ATOM     18  C   UNL     1      16.368  30.142  13.958  1.00  0.00     0.178 C 
ATOM     19  O   UNL     1      15.252  30.108  13.125  1.00  0.00    -0.341 OA
ATOM     20  C   UNL     1      14.188  30.844  13.718  1.00  0.00     0.281 C 
ATOM     21  C   UNL     1      14.661  28.801  15.084  1.00  0.00     0.180 C 
ATOM     22  C   UNL     1      13.760  30.043  14.910  1.00  0.00     0.202 C 
BRANCH  18  23
ATOM     23  C   UNL     1      17.521  29.516  13.192  1.00  0.00     0.191 C 
BRANCH  23  24
ATOM     24  O   UNL     1      17.231  28.229  12.780  1.00  0.00    -0.394 OA
ATOM     25  H   UNL     1      16.773  28.214  11.900  1.00  0.00     0.210 HD
ENDBRANCH  23  24
ENDBRANCH  18  23
BRANCH  20  26
ATOM     26  O   UNL     1      13.246  31.035  12.750  1.00  0.00    -0.350 OA
BRANCH  26  27
ATOM     27  C   UNL     1      13.103  30.017  11.849  1.00  0.00     0.169 C 
BRANCH  27  28
ATOM     28  C   UNL     1      13.350  30.422  10.410  1.00  0.00     0.119 C 
BRANCH  28  29
ATOM     29  N   UNL     1      13.883  29.332   9.617  1.00  0.00    -0.092 NA
ATOM     30  N   UNL     1      13.199  28.427   9.150  1.00  0.00     0.001 N 
ATOM     31  N   UNL     1      12.423  27.687   8.584  1.00  0.00    -0.003 NA
ENDBRANCH  28  29
ENDBRANCH  27  28
ENDBRANCH  26  27
ENDBRANCH  20  26
BRANCH  21  32
ATOM     32  O   UNL     1      14.495  27.929  14.015  1.00  0.00    -0.387 OA
ATOM     33  H   UNL     1      13.661  28.124  13.484  1.00  0.00     0.211 HD
ENDBRANCH  21  32
BRANCH  22  34
ATOM     34  O   UNL     1      14.048  30.828  16.055  1.00  0.00    -0.385 OA
ATOM     35  H   UNL     1      13.517  30.458  16.806  1.00  0.00     0.211 HD
ENDBRANCH  22  34
ENDBRANCH  16  17
ENDBRANCH  11  16
BRANCH  13  36
ATOM     36  O   UNL     1      17.850  31.872  17.506  1.00  0.00    -0.385 OA
ATOM     37  H   UNL     1      18.059  32.587  18.187  1.00  0.00     0.211 HD
ENDBRANCH  13  36
BRANCH  14  38
ATOM     38  O   UNL     1      18.201  30.938  20.484  1.00  0.00    -0.387 OA
ATOM     39  H   UNL     1      18.192  30.229  21.193  1.00  0.00     0.211 HD
ENDBRANCH  14  38
BRANCH  15  40
ATOM     40  O   UNL     1      18.800  28.598  20.715  1.00  0.00    -0.387 OA
ATOM     41  H   UNL     1      18.403  27.755  21.032  1.00  0.00     0.211 HD
ENDBRANCH  15  40
ENDBRANCH   9  10
ENDBRANCH   8   9
ENDBRANCH   3   8
BRANCH   3  42
ATOM     42  C   UNL     1      14.872  29.454  23.031  1.00  0.00     0.364 C 
ATOM     43  O   UNL     1      13.666  29.266  23.433  1.00  0.00    -0.246 OA
BRANCH  42  44
ATOM     44  O   UNL     1      15.800  29.461  24.056  1.00  0.00    -0.477 OA
ATOM     45  H   UNL     1      16.495  28.757  24.148  1.00  0.00     0.296 HD
ENDBRANCH  42  44
ENDBRANCH   3  42
BRANCH   6  46
ATOM     46  O   UNL     1      14.057  31.056  19.080  1.00  0.00    -0.391 OA
ATOM     47  H   UNL     1      13.621  30.805  18.226  1.00  0.00     0.211 HD
ENDBRANCH   6  46
BRANCH   7  48
ATOM     48  N   UNL     1      12.006  31.624  21.857  1.00  0.00    -0.348 N 
ATOM     49  C   UNL     1      11.265  32.730  22.340  1.00  0.00     0.217 C 
ATOM     50  H   UNL     1      11.572  30.700  22.047  1.00  0.00     0.163 HD
ATOM     51  C   UNL     1       9.976  32.540  23.096  1.00  0.00     0.114 C 
ATOM     52  O   UNL     1      11.660  33.878  22.150  1.00  0.00    -0.275 OA
ENDBRANCH   7  48
ENDBRANCH   1   2
BRANCH   1  53
ATOM     53  O   UNL     1      16.052  33.105  20.602  1.00  0.00    -0.388 OA
ATOM     54  H   UNL     1      16.749  32.422  20.794  1.00  0.00     0.211 HD
ENDBRANCH   1  53
BRANCH   1  55
ATOM     55  C   UNL     1      15.859  33.845  22.825  1.00  0.00     0.165 C 
BRANCH  55  56
ATOM     56  O   UNL     1      16.851  34.741  22.325  1.00  0.00    -0.388 OA
ATOM     57  H   UNL     1      16.418  35.317  21.652  1.00  0.00     0.211 HD
ENDBRANCH  55  56
BRANCH  55  58
ATOM     58  C   UNL     1      16.593  32.960  23.788  1.00  0.00     0.154 C 
BRANCH  58  59
ATOM     59  N   UNL     1      17.635  32.178  23.165  1.00  0.00    -0.319 N 
ATOM     60  C   UNL     1      18.395  31.184  23.850  1.00  0.00     0.407 C 
ATOM     61  H   UNL     1      17.862  32.343  22.172  1.00  0.00     0.167 HD
ATOM     62  O   UNL     1      18.190  30.941  25.039  1.00  0.00    -0.225 OA
BRANCH  60  63
ATOM     63  O   UNL     1      19.361  30.510  23.146  1.00  0.00    -0.443 OA
BRANCH  63  64
ATOM     64  C   UNL     1      20.658  30.291  23.618  1.00  0.00     0.294 C 
BRANCH  64  65
ATOM     65  C   UNL     1      20.823  28.860  23.977  1.00  0.00     0.120 A 
ATOM     66  C   UNL     1      21.743  27.945  23.512  1.00  0.00     0.139 A 
ATOM     67  N   UNL     1      20.041  28.173  24.852  1.00  0.00    -0.132 NA
ATOM     68  N   UNL     1      21.504  26.740  24.107  1.00  0.00    -0.238 N 
ATOM     69  N   UNL     1      20.458  26.925  24.915  1.00  0.00    -0.066 NA
BRANCH  68  70
ATOM     70  C   UNL     1      22.240  25.544  23.919  1.00  0.00     0.219 C 
BRANCH  70  71
ATOM     71  C   UNL     1      22.254  24.517  24.989  1.00  0.00     0.051 C 
BRANCH  71  72
ATOM     72  C   UNL     1      23.197  24.637  26.113  1.00  0.00     0.125 C 
BRANCH  72  73
ATOM     73  C   UNL     1      22.696  24.845  27.455  1.00  0.00     0.303 C 
ATOM     74  O   UNL     1      22.089  25.828  27.915  1.00  0.00    -0.252 OA
BRANCH  73  75
ATOM     75  O   UNL     1      22.896  23.814  28.426  1.00  0.00    -0.481 OA
ATOM     76  H   UNL     1      22.097  23.446  28.918  1.00  0.00     0.296 HD
ENDBRANCH  73  75
ENDBRANCH  72  73
ENDBRANCH  71  72
ENDBRANCH  70  71
BRANCH  70  77
ATOM     77  C   UNL     1      21.772  24.893  22.654  1.00  0.00     0.328 C 
ATOM     78  O   UNL     1      22.571  24.261  21.937  1.00  0.00    -0.250 OA
BRANCH  77  79
ATOM     79  O   UNL     1      20.455  24.967  22.239  1.00  0.00    -0.480 OA
ATOM     80  H   UNL     1      20.209  25.104  21.257  1.00  0.00     0.296 HD
ENDBRANCH  77  79
ENDBRANCH  70  77
ENDBRANCH  68  70
ENDBRANCH  64  65
ENDBRANCH  63  64
ENDBRANCH  60  63
ENDBRANCH  58  59
ENDBRANCH  55  58
ENDBRANCH   1  55
TORSDOF 36
