REMARK VINA RESULT:    -5.017      4.967      9.326
REMARK INTER + INTRA:         -22.706
REMARK INTER:                 -13.324
REMARK INTRA:                  -9.382
REMARK UNBOUND:                -9.623
REMARK SMILES CC(=O)N[C@@H]1[C@@H](O)C[C@](OC[C@H]2O[C@@H](O[C@H]3[C@H](O)[C@@H](O)[C@H](OCCN=[N+]=[N-])O[C@@H]3CO)[C@H](O)[C@@H](O)[C@H]2O)(C(=O)O)O[C@H]1C(O)[C@H](O)CNC(=O)OCc1cn(Cc2ccc(C(=O)O)cc2)nn1
REMARK SMILES IDX 43 1 42 2 9 3 8 4 41 5 6 6 5 7 10 8 11 9 12 10 14 11 13 12
REMARK SMILES IDX 32 13 34 14 36 15 15 16 16 17 29 18 28 19 21 20 17 21 19 22
REMARK SMILES IDX 30 23 31 24 22 26 23 27 24 28 25 29 26 30 27 31 18 32 20 34
REMARK SMILES IDX 33 36 35 38 37 40 38 42 39 43 40 44 7 46 4 48 2 49 1 51 3 52
REMARK SMILES IDX 44 53 45 55 46 56 47 58 48 59 49 60 50 62 51 63 52 64 53 65
REMARK SMILES IDX 54 66 67 67 55 68 66 69 56 70 57 71 58 72 65 73 59 74 64 75
REMARK SMILES IDX 60 76 61 77 62 78 63 79
REMARK H PARENT 31 25 18 33 20 35 33 37 35 39 37 41 40 45 7 47 4 50 44 54
REMARK H PARENT 46 57 48 61 63 80
REMARK Flexibility Score: inf
ROOT
ATOM      1  C   UNL     1      21.790  28.058  23.964  1.00  0.00     0.176 C 
ENDROOT
BRANCH   1   2
ATOM      2  C   UNL     1      22.559  26.718  23.963  1.00  0.00     0.178 C 
ATOM      3  C   UNL     1      23.295  25.347  22.181  1.00  0.00     0.272 C 
ATOM      4  C   UNL     1      22.509  24.239  22.761  1.00  0.00     0.113 C 
ATOM      5  O   UNL     1      23.038  26.582  22.718  1.00  0.00    -0.332 OA
ATOM      6  C   UNL     1      21.239  24.699  23.446  1.00  0.00     0.145 C 
ATOM      7  C   UNL     1      21.650  25.688  24.496  1.00  0.00     0.142 C 
BRANCH   3   8
ATOM      8  O   UNL     1      23.066  25.478  20.837  1.00  0.00    -0.338 OA
BRANCH   8   9
ATOM      9  C   UNL     1      22.815  24.388  20.081  1.00  0.00     0.199 C 
BRANCH   9  10
ATOM     10  C   UNL     1      22.824  24.768  18.581  1.00  0.00     0.179 C 
ATOM     11  C   UNL     1      22.443  26.589  17.178  1.00  0.00     0.282 C 
ATOM     12  O   UNL     1      22.318  26.028  18.447  1.00  0.00    -0.341 OA
ATOM     13  C   UNL     1      22.900  25.636  16.132  1.00  0.00     0.202 C 
ATOM     14  C   UNL     1      24.211  25.028  16.584  1.00  0.00     0.179 C 
ATOM     15  C   UNL     1      24.219  24.633  18.028  1.00  0.00     0.177 C 
BRANCH  11  16
ATOM     16  O   UNL     1      23.309  27.678  17.275  1.00  0.00    -0.341 OA
BRANCH  16  17
ATOM     17  C   UNL     1      22.914  28.562  18.236  1.00  0.00     0.184 C 
ATOM     18  C   UNL     1      22.457  29.859  17.677  1.00  0.00     0.178 C 
ATOM     19  O   UNL     1      21.813  30.630  18.656  1.00  0.00    -0.341 OA
ATOM     20  C   UNL     1      22.499  30.570  19.871  1.00  0.00     0.281 C 
ATOM     21  C   UNL     1      24.141  28.800  19.137  1.00  0.00     0.180 C 
ATOM     22  C   UNL     1      23.940  30.175  19.739  1.00  0.00     0.202 C 
BRANCH  18  23
ATOM     23  C   UNL     1      21.486  29.643  16.551  1.00  0.00     0.191 C 
BRANCH  23  24
ATOM     24  O   UNL     1      20.334  29.076  17.143  1.00  0.00    -0.394 OA
ATOM     25  H   UNL     1      20.349  29.209  18.110  1.00  0.00     0.210 HD
ENDBRANCH  23  24
ENDBRANCH  18  23
BRANCH  20  26
ATOM     26  O   UNL     1      21.809  29.753  20.736  1.00  0.00    -0.350 OA
BRANCH  26  27
ATOM     27  C   UNL     1      20.449  29.959  20.777  1.00  0.00     0.169 C 
BRANCH  27  28
ATOM     28  C   UNL     1      19.607  28.758  20.508  1.00  0.00     0.119 C 
BRANCH  28  29
ATOM     29  N   UNL     1      18.210  29.169  20.724  1.00  0.00    -0.092 NA
ATOM     30  N   UNL     1      17.260  28.444  20.453  1.00  0.00     0.001 N 
ATOM     31  N   UNL     1      16.492  27.607  19.991  1.00  0.00    -0.003 NA
ENDBRANCH  28  29
ENDBRANCH  27  28
ENDBRANCH  26  27
ENDBRANCH  20  26
BRANCH  21  32
ATOM     32  O   UNL     1      24.222  27.824  20.105  1.00  0.00    -0.387 OA
ATOM     33  H   UNL     1      25.034  27.952  20.694  1.00  0.00     0.211 HD
ENDBRANCH  21  32
BRANCH  22  34
ATOM     34  O   UNL     1      24.670  31.102  19.032  1.00  0.00    -0.385 OA
ATOM     35  H   UNL     1      24.238  31.973  18.991  1.00  0.00     0.211 HD
ENDBRANCH  22  34
ENDBRANCH  16  17
ENDBRANCH  11  16
BRANCH  13  36
ATOM     36  O   UNL     1      21.956  24.625  15.896  1.00  0.00    -0.385 OA
ATOM     37  H   UNL     1      21.082  25.089  15.781  1.00  0.00     0.211 HD
ENDBRANCH  13  36
BRANCH  14  38
ATOM     38  O   UNL     1      25.282  25.886  16.334  1.00  0.00    -0.387 OA
ATOM     39  H   UNL     1      25.856  25.907  17.151  1.00  0.00     0.211 HD
ENDBRANCH  14  38
BRANCH  15  40
ATOM     40  O   UNL     1      25.144  25.375  18.775  1.00  0.00    -0.387 OA
ATOM     41  H   UNL     1      25.350  26.192  18.251  1.00  0.00     0.211 HD
ENDBRANCH  15  40
ENDBRANCH   9  10
ENDBRANCH   8   9
ENDBRANCH   3   8
BRANCH   3  42
ATOM     42  C   UNL     1      24.756  25.083  22.452  1.00  0.00     0.364 C 
ATOM     43  O   UNL     1      25.648  25.681  21.799  1.00  0.00    -0.246 OA
BRANCH  42  44
ATOM     44  O   UNL     1      25.165  24.182  23.422  1.00  0.00    -0.477 OA
ATOM     45  H   UNL     1      24.815  24.336  24.381  1.00  0.00     0.296 HD
ENDBRANCH  42  44
ENDBRANCH   3  42
BRANCH   6  46
ATOM     46  O   UNL     1      20.406  25.214  22.477  1.00  0.00    -0.391 OA
ATOM     47  H   UNL     1      19.747  24.526  22.199  1.00  0.00     0.211 HD
ENDBRANCH   6  46
BRANCH   7  48
ATOM     48  N   UNL     1      22.314  24.963  25.571  1.00  0.00    -0.348 N 
ATOM     49  C   UNL     1      22.256  25.426  26.932  1.00  0.00     0.217 C 
ATOM     50  H   UNL     1      22.863  24.087  25.437  1.00  0.00     0.163 HD
ATOM     51  C   UNL     1      22.952  24.652  28.008  1.00  0.00     0.114 C 
ATOM     52  O   UNL     1      21.623  26.465  27.179  1.00  0.00    -0.275 OA
ENDBRANCH   7  48
ENDBRANCH   1   2
BRANCH   1  53
ATOM     53  O   UNL     1      20.442  27.919  24.036  1.00  0.00    -0.388 OA
ATOM     54  H   UNL     1      20.011  28.218  24.867  1.00  0.00     0.211 HD
ENDBRANCH   1  53
BRANCH   1  55
ATOM     55  C   UNL     1      22.358  29.014  24.984  1.00  0.00     0.165 C 
BRANCH  55  56
ATOM     56  O   UNL     1      21.416  29.284  25.925  1.00  0.00    -0.388 OA
ATOM     57  H   UNL     1      20.915  28.520  26.271  1.00  0.00     0.211 HD
ENDBRANCH  55  56
BRANCH  55  58
ATOM     58  C   UNL     1      23.028  30.146  24.306  1.00  0.00     0.154 C 
BRANCH  58  59
ATOM     59  N   UNL     1      23.813  29.723  23.180  1.00  0.00    -0.319 N 
ATOM     60  C   UNL     1      25.193  29.427  23.238  1.00  0.00     0.407 C 
ATOM     61  H   UNL     1      23.354  29.620  22.233  1.00  0.00     0.167 HD
ATOM     62  O   UNL     1      25.843  29.512  24.292  1.00  0.00    -0.225 OA
BRANCH  60  63
ATOM     63  O   UNL     1      25.931  29.014  22.111  1.00  0.00    -0.443 OA
BRANCH  63  64
ATOM     64  C   UNL     1      27.137  29.677  21.777  1.00  0.00     0.294 C 
BRANCH  64  65
ATOM     65  C   UNL     1      28.105  28.795  21.102  1.00  0.00     0.120 A 
ATOM     66  C   UNL     1      27.894  27.644  20.395  1.00  0.00     0.138 A 
ATOM     67  N   UNL     1      29.435  29.003  21.103  1.00  0.00    -0.132 NA
ATOM     68  N   UNL     1      29.099  27.186  19.988  1.00  0.00    -0.248 N 
ATOM     69  N   UNL     1      30.016  28.027  20.430  1.00  0.00    -0.067 NA
BRANCH  68  70
ATOM     70  C   UNL     1      29.306  25.987  19.217  1.00  0.00     0.181 C 
BRANCH  70  71
ATOM     71  C   UNL     1      29.184  24.789  20.070  1.00  0.00    -0.026 A 
ATOM     72  C   UNL     1      28.068  23.986  19.973  1.00  0.00     0.006 A 
ATOM     73  C   UNL     1      30.182  24.475  20.989  1.00  0.00     0.006 A 
ATOM     74  C   UNL     1      28.008  22.890  20.815  1.00  0.00     0.016 A 
ATOM     75  C   UNL     1      30.115  23.383  21.825  1.00  0.00     0.016 A 
ATOM     76  C   UNL     1      29.000  22.584  21.725  1.00  0.00     0.059 A 
BRANCH  76  77
ATOM     77  C   UNL     1      28.873  21.419  22.586  1.00  0.00     0.335 C 
ATOM     78  O   UNL     1      28.169  20.460  22.240  1.00  0.00    -0.246 OA
BRANCH  77  79
ATOM     79  O   UNL     1      29.539  21.384  23.790  1.00  0.00    -0.478 OA
ATOM     80  H   UNL     1      30.117  22.157  24.115  1.00  0.00     0.297 HD
ENDBRANCH  77  79
ENDBRANCH  76  77
ENDBRANCH  70  71
ENDBRANCH  68  70
ENDBRANCH  64  65
ENDBRANCH  63  64
ENDBRANCH  60  63
ENDBRANCH  58  59
ENDBRANCH  55  58
ENDBRANCH   1  55
TORSDOF 33
