REMARK VINA RESULT:    -5.576     14.860     20.338
REMARK INTER + INTRA:         -21.546
REMARK INTER:                 -15.750
REMARK INTRA:                  -5.796
REMARK UNBOUND:                -7.496
REMARK SMILES CC(=O)N[C@@H]1[C@@H](O)C[C@](OC[C@H]2O[C@@H](O[C@H]3[C@H](O)[C@@H](O)[C@H](OCCN=[N+]=[N-])O[C@@H]3CO)[C@H](O)[C@@H](O)[C@H]2O)(C(=O)O)O[C@H]1C(O)[C@H](O)CNC(=O)OCc1cn(-c2ccccc2C(N)=O)nn1
REMARK SMILES IDX 9 1 8 2 6 3 5 4 42 5 41 6 10 7 11 8 12 9 14 10 13 11 32 12
REMARK SMILES IDX 34 13 36 14 15 15 16 16 29 17 28 18 21 19 17 20 19 21 30 22
REMARK SMILES IDX 31 23 22 25 23 26 24 27 25 28 26 29 27 30 18 31 20 33 33 35
REMARK SMILES IDX 35 37 37 39 38 41 39 42 40 43 7 45 43 47 44 48 45 50 46 51
REMARK SMILES IDX 47 53 48 54 49 55 50 57 51 58 52 59 53 60 54 61 66 62 55 63
REMARK SMILES IDX 65 64 56 65 61 66 57 67 60 68 58 69 59 70 62 71 64 72 63 73
REMARK SMILES IDX 4 76 2 77 1 79 3 80
REMARK H PARENT 31 24 18 32 20 34 33 36 35 38 37 40 40 44 7 46 44 49 46 52
REMARK H PARENT 48 56 63 74 63 75 4 78
REMARK Flexibility Score: inf
ROOT
ATOM      1  C   UNL     1       5.117  25.039  33.119  1.00  0.00     0.272 C 
ATOM      2  C   UNL     1       4.033  25.054  34.233  1.00  0.00     0.113 C 
ATOM      3  C   UNL     1       4.369  23.895  35.128  1.00  0.00     0.145 C 
ATOM      4  C   UNL     1       4.062  22.627  34.436  1.00  0.00     0.142 C 
ATOM      5  C   UNL     1       4.339  22.868  32.941  1.00  0.00     0.178 C 
ATOM      6  O   UNL     1       5.409  23.728  32.781  1.00  0.00    -0.332 OA
ENDROOT
BRANCH   1   7
ATOM      7  O   UNL     1       6.210  25.636  33.719  1.00  0.00    -0.338 OA
BRANCH   7   8
ATOM      8  C   UNL     1       6.092  26.979  33.921  1.00  0.00     0.199 C 
BRANCH   8   9
ATOM      9  C   UNL     1       7.240  27.555  34.731  1.00  0.00     0.179 C 
ATOM     10  C   UNL     1       8.609  26.927  36.509  1.00  0.00     0.282 C 
ATOM     11  O   UNL     1       7.628  26.544  35.607  1.00  0.00    -0.341 OA
ATOM     12  C   UNL     1       9.187  28.276  36.295  1.00  0.00     0.202 C 
ATOM     13  C   UNL     1       9.370  28.689  34.865  1.00  0.00     0.179 C 
ATOM     14  C   UNL     1       8.431  27.934  33.913  1.00  0.00     0.177 C 
BRANCH  10  15
ATOM     15  O   UNL     1       9.602  25.967  36.458  1.00  0.00    -0.341 OA
BRANCH  15  16
ATOM     16  C   UNL     1       9.130  24.678  36.641  1.00  0.00     0.184 C 
ATOM     17  C   UNL     1       8.928  24.457  38.124  1.00  0.00     0.178 C 
ATOM     18  O   UNL     1       9.974  23.834  38.713  1.00  0.00    -0.341 OA
ATOM     19  C   UNL     1      10.182  22.571  38.294  1.00  0.00     0.281 C 
ATOM     20  C   UNL     1      10.225  23.744  36.136  1.00  0.00     0.180 C 
ATOM     21  C   UNL     1      10.186  22.427  36.824  1.00  0.00     0.202 C 
BRANCH  17  22
ATOM     22  C   UNL     1       7.650  23.699  38.361  1.00  0.00     0.191 C 
BRANCH  22  23
ATOM     23  O   UNL     1       7.242  23.782  39.696  1.00  0.00    -0.394 OA
ATOM     24  H   UNL     1       6.884  24.713  39.813  1.00  0.00     0.210 HD
ENDBRANCH  22  23
ENDBRANCH  17  22
BRANCH  19  25
ATOM     25  O   UNL     1       9.380  21.617  38.937  1.00  0.00    -0.350 OA
BRANCH  25  26
ATOM     26  C   UNL     1       9.800  21.297  40.203  1.00  0.00     0.169 C 
BRANCH  26  27
ATOM     27  C   UNL     1       8.647  20.844  41.034  1.00  0.00     0.119 C 
BRANCH  27  28
ATOM     28  N   UNL     1       8.375  21.821  42.057  1.00  0.00    -0.092 NA
ATOM     29  N   UNL     1       9.012  22.878  42.156  1.00  0.00     0.001 N 
ATOM     30  N   UNL     1       9.628  23.925  41.939  1.00  0.00    -0.003 NA
ENDBRANCH  27  28
ENDBRANCH  26  27
ENDBRANCH  25  26
ENDBRANCH  19  25
BRANCH  20  31
ATOM     31  O   UNL     1      10.086  23.547  34.765  1.00  0.00    -0.387 OA
ATOM     32  H   UNL     1      10.636  22.756  34.468  1.00  0.00     0.211 HD
ENDBRANCH  20  31
BRANCH  21  33
ATOM     33  O   UNL     1      11.348  21.714  36.440  1.00  0.00    -0.385 OA
ATOM     34  H   UNL     1      11.297  20.801  36.847  1.00  0.00     0.211 HD
ENDBRANCH  21  33
ENDBRANCH  15  16
ENDBRANCH  10  15
BRANCH  12  35
ATOM     35  O   UNL     1       8.513  29.273  37.033  1.00  0.00    -0.385 OA
ATOM     36  H   UNL     1       8.081  28.817  37.788  1.00  0.00     0.211 HD
ENDBRANCH  12  35
BRANCH  13  37
ATOM     37  O   UNL     1      10.672  28.423  34.436  1.00  0.00    -0.387 OA
ATOM     38  H   UNL     1      10.730  27.540  33.960  1.00  0.00     0.211 HD
ENDBRANCH  13  37
BRANCH  14  39
ATOM     39  O   UNL     1       9.071  26.751  33.501  1.00  0.00    -0.387 OA
ATOM     40  H   UNL     1       8.489  26.129  33.036  1.00  0.00     0.211 HD
ENDBRANCH  14  39
ENDBRANCH   8   9
ENDBRANCH   7   8
ENDBRANCH   1   7
BRANCH   1  41
ATOM     41  C   UNL     1       4.615  25.759  31.946  1.00  0.00     0.364 C 
ATOM     42  O   UNL     1       3.485  26.357  31.986  1.00  0.00    -0.246 OA
BRANCH  41  43
ATOM     43  O   UNL     1       5.368  25.801  30.769  1.00  0.00    -0.477 OA
ATOM     44  H   UNL     1       6.153  26.447  30.761  1.00  0.00     0.296 HD
ENDBRANCH  41  43
ENDBRANCH   1  41
BRANCH   3  45
ATOM     45  O   UNL     1       5.777  23.930  35.296  1.00  0.00    -0.391 OA
ATOM     46  H   UNL     1       6.019  23.361  36.072  1.00  0.00     0.211 HD
ENDBRANCH   3  45
BRANCH   5  47
ATOM     47  C   UNL     1       4.461  21.560  32.214  1.00  0.00     0.176 C 
BRANCH  47  48
ATOM     48  O   UNL     1       4.757  20.588  33.190  1.00  0.00    -0.388 OA
ATOM     49  H   UNL     1       5.156  19.786  32.755  1.00  0.00     0.211 HD
ENDBRANCH  47  48
BRANCH  47  50
ATOM     50  C   UNL     1       3.113  21.124  31.630  1.00  0.00     0.165 C 
BRANCH  50  51
ATOM     51  O   UNL     1       2.679  19.979  32.318  1.00  0.00    -0.388 OA
ATOM     52  H   UNL     1       3.381  19.791  32.995  1.00  0.00     0.211 HD
ENDBRANCH  50  51
BRANCH  50  53
ATOM     53  C   UNL     1       3.201  20.813  30.175  1.00  0.00     0.154 C 
BRANCH  53  54
ATOM     54  N   UNL     1       3.229  22.011  29.380  1.00  0.00    -0.319 N 
ATOM     55  C   UNL     1       2.580  22.147  28.128  1.00  0.00     0.407 C 
ATOM     56  H   UNL     1       3.772  22.836  29.766  1.00  0.00     0.167 HD
ATOM     57  O   UNL     1       1.904  21.285  27.566  1.00  0.00    -0.225 OA
BRANCH  55  58
ATOM     58  O   UNL     1       2.697  23.372  27.427  1.00  0.00    -0.443 OA
BRANCH  58  59
ATOM     59  C   UNL     1       2.399  24.598  28.099  1.00  0.00     0.294 C 
BRANCH  59  60
ATOM     60  C   UNL     1       3.430  25.614  27.821  1.00  0.00     0.121 A 
ATOM     61  C   UNL     1       4.289  25.693  26.751  1.00  0.00     0.144 A 
ATOM     62  N   UNL     1       3.726  26.677  28.589  1.00  0.00    -0.131 NA
ATOM     63  N   UNL     1       5.079  26.781  26.885  1.00  0.00    -0.220 N 
ATOM     64  N   UNL     1       4.702  27.361  28.028  1.00  0.00    -0.062 NA
BRANCH  63  65
ATOM     65  C   UNL     1       6.105  27.250  26.030  1.00  0.00     0.079 A 
ATOM     66  C   UNL     1       5.818  28.261  25.149  1.00  0.00     0.065 A 
ATOM     67  C   UNL     1       7.375  26.710  26.069  1.00  0.00     0.029 A 
ATOM     68  C   UNL     1       6.788  28.760  24.284  1.00  0.00     0.016 A 
ATOM     69  C   UNL     1       8.362  27.197  25.209  1.00  0.00     0.002 A 
ATOM     70  C   UNL     1       8.053  28.212  24.331  1.00  0.00     0.001 A 
BRANCH  66  71
ATOM     71  C   UNL     1       4.483  28.822  25.112  1.00  0.00     0.250 C 
ATOM     72  O   UNL     1       3.667  28.389  24.260  1.00  0.00    -0.269 OA
ATOM     73  N   UNL     1       4.032  29.837  25.982  1.00  0.00    -0.366 N 
ATOM     74  H   UNL     1       3.220  29.666  26.593  1.00  0.00     0.159 HD
ATOM     75  H   UNL     1       4.516  30.746  26.002  1.00  0.00     0.159 HD
ENDBRANCH  66  71
ENDBRANCH  63  65
ENDBRANCH  59  60
ENDBRANCH  58  59
ENDBRANCH  55  58
ENDBRANCH  53  54
ENDBRANCH  50  53
ENDBRANCH  47  50
ENDBRANCH   5  47
BRANCH   4  76
ATOM     76  N   UNL     1       2.751  22.122  34.549  1.00  0.00    -0.348 N 
ATOM     77  C   UNL     1       2.359  21.195  35.548  1.00  0.00     0.217 C 
ATOM     78  H   UNL     1       2.024  22.443  33.867  1.00  0.00     0.163 HD
ATOM     79  C   UNL     1       0.995  20.644  35.699  1.00  0.00     0.114 C 
ATOM     80  O   UNL     1       3.292  20.851  36.343  1.00  0.00    -0.275 OA
ENDBRANCH   4  76
TORSDOF 31
