REMARK VINA RESULT:    -5.593      4.645     11.560
REMARK INTER + INTRA:         -21.853
REMARK INTER:                 -14.135
REMARK INTRA:                  -7.718
REMARK UNBOUND:                -7.759
REMARK SMILES CC(=O)N[C@@H]1[C@@H](O)C[C@](OC[C@H]2O[C@@H](O[C@H]3[C@H](O)[C@@H](O)[C@H](OCCN=[N+]=[N-])O[C@@H]3CO)[C@H](O)[C@@H](O)[C@H]2O)(C(=O)O)O[C@H]1C(O)[C@H](O)CNC(=O)OCc1cn(-c2cc(Cl)ccc2C(=O)N(C)C)nn1
REMARK SMILES IDX 9 1 8 2 6 3 5 4 42 5 41 6 10 7 11 8 12 9 14 10 13 11 32 12
REMARK SMILES IDX 34 13 36 14 15 15 16 16 29 17 28 18 21 19 17 20 19 21 30 22
REMARK SMILES IDX 31 23 22 25 23 26 24 27 25 28 26 29 27 30 18 31 20 33 33 35
REMARK SMILES IDX 35 37 37 39 38 41 39 42 40 43 7 45 43 47 44 48 45 50 46 51
REMARK SMILES IDX 47 53 48 54 49 55 50 57 51 58 52 59 53 60 54 61 69 62 55 63
REMARK SMILES IDX 68 64 56 65 57 66 62 67 58 68 61 69 59 70 60 71 63 72 64 73
REMARK SMILES IDX 65 74 66 75 67 76 4 77 2 78 1 80 3 81
REMARK H PARENT 31 24 18 32 20 34 33 36 35 38 37 40 40 44 7 46 44 49 46 52
REMARK H PARENT 48 56 4 79
REMARK Flexibility Score: inf
ROOT
ATOM      1  C   UNL     1      23.244  25.918  22.543  1.00  0.00     0.272 C 
ATOM      2  C   UNL     1      22.708  24.625  23.029  1.00  0.00     0.113 C 
ATOM      3  C   UNL     1      21.327  24.816  23.603  1.00  0.00     0.145 C 
ATOM      4  C   UNL     1      21.464  25.803  24.738  1.00  0.00     0.142 C 
ATOM      5  C   UNL     1      22.093  27.056  24.295  1.00  0.00     0.178 C 
ATOM      6  O   UNL     1      22.903  27.055  23.205  1.00  0.00    -0.332 OA
ENDROOT
BRANCH   1   7
ATOM      7  O   UNL     1      22.946  26.127  21.206  1.00  0.00    -0.338 OA
BRANCH   7   8
ATOM      8  C   UNL     1      23.522  27.167  20.566  1.00  0.00     0.199 C 
BRANCH   8   9
ATOM      9  C   UNL     1      23.395  26.971  19.048  1.00  0.00     0.179 C 
ATOM     10  C   UNL     1      24.842  26.642  17.282  1.00  0.00     0.282 C 
ATOM     11  O   UNL     1      24.539  27.423  18.458  1.00  0.00    -0.341 OA
ATOM     12  C   UNL     1      23.542  26.470  16.529  1.00  0.00     0.202 C 
ATOM     13  C   UNL     1      22.595  25.549  17.269  1.00  0.00     0.179 C 
ATOM     14  C   UNL     1      22.923  25.610  18.750  1.00  0.00     0.177 C 
BRANCH  10  15
ATOM     15  O   UNL     1      25.415  25.528  17.726  1.00  0.00    -0.341 OA
BRANCH  15  16
ATOM     16  C   UNL     1      26.788  25.389  17.824  1.00  0.00     0.184 C 
ATOM     17  C   UNL     1      27.109  24.022  17.315  1.00  0.00     0.178 C 
ATOM     18  O   UNL     1      28.493  23.788  17.398  1.00  0.00    -0.341 OA
ATOM     19  C   UNL     1      28.652  23.542  18.805  1.00  0.00     0.281 C 
ATOM     20  C   UNL     1      27.233  25.537  19.257  1.00  0.00     0.180 C 
ATOM     21  C   UNL     1      28.534  24.840  19.513  1.00  0.00     0.202 C 
BRANCH  17  22
ATOM     22  C   UNL     1      26.648  23.844  15.883  1.00  0.00     0.191 C 
BRANCH  22  23
ATOM     23  O   UNL     1      25.350  23.381  15.895  1.00  0.00    -0.394 OA
ATOM     24  H   UNL     1      25.233  22.717  16.619  1.00  0.00     0.210 HD
ENDBRANCH  22  23
ENDBRANCH  17  22
BRANCH  19  25
ATOM     25  O   UNL     1      29.823  22.913  18.984  1.00  0.00    -0.350 OA
BRANCH  25  26
ATOM     26  C   UNL     1      29.740  21.560  19.264  1.00  0.00     0.169 C 
BRANCH  26  27
ATOM     27  C   UNL     1      28.359  21.111  19.695  1.00  0.00     0.119 C 
BRANCH  27  28
ATOM     28  N   UNL     1      28.368  20.666  21.072  1.00  0.00    -0.092 NA
ATOM     29  N   UNL     1      28.848  21.372  21.953  1.00  0.00     0.001 N 
ATOM     30  N   UNL     1      29.292  22.256  22.714  1.00  0.00    -0.003 NA
ENDBRANCH  27  28
ENDBRANCH  26  27
ENDBRANCH  25  26
ENDBRANCH  19  25
BRANCH  20  31
ATOM     31  O   UNL     1      27.416  26.881  19.602  1.00  0.00    -0.387 OA
ATOM     32  H   UNL     1      28.040  27.326  18.958  1.00  0.00     0.211 HD
ENDBRANCH  20  31
BRANCH  21  33
ATOM     33  O   UNL     1      28.676  24.646  20.885  1.00  0.00    -0.385 OA
ATOM     34  H   UNL     1      27.829  24.466  21.346  1.00  0.00     0.211 HD
ENDBRANCH  21  33
ENDBRANCH  15  16
ENDBRANCH  10  15
BRANCH  12  35
ATOM     35  O   UNL     1      22.932  27.740  16.499  1.00  0.00    -0.385 OA
ATOM     36  H   UNL     1      22.970  28.184  17.405  1.00  0.00     0.211 HD
ENDBRANCH  12  35
BRANCH  13  37
ATOM     37  O   UNL     1      22.636  24.241  16.864  1.00  0.00    -0.387 OA
ATOM     38  H   UNL     1      23.308  23.698  17.342  1.00  0.00     0.211 HD
ENDBRANCH  13  37
BRANCH  14  39
ATOM     39  O   UNL     1      23.650  24.553  19.217  1.00  0.00    -0.387 OA
ATOM     40  H   UNL     1      24.117  24.030  18.528  1.00  0.00     0.211 HD
ENDBRANCH  14  39
ENDBRANCH   8   9
ENDBRANCH   7   8
ENDBRANCH   1   7
BRANCH   1  41
ATOM     41  C   UNL     1      24.782  25.823  22.555  1.00  0.00     0.364 C 
ATOM     42  O   UNL     1      25.272  24.838  21.957  1.00  0.00    -0.246 OA
BRANCH  41  43
ATOM     43  O   UNL     1      25.586  26.731  23.167  1.00  0.00    -0.477 OA
ATOM     44  H   UNL     1      25.875  27.605  22.786  1.00  0.00     0.296 HD
ENDBRANCH  41  43
ENDBRANCH   1  41
BRANCH   3  45
ATOM     45  O   UNL     1      20.458  25.185  22.616  1.00  0.00    -0.391 OA
ATOM     46  H   UNL     1      19.679  25.692  22.864  1.00  0.00     0.211 HD
ENDBRANCH   3  45
BRANCH   5  47
ATOM     47  C   UNL     1      21.145  28.235  24.117  1.00  0.00     0.176 C 
BRANCH  47  48
ATOM     48  O   UNL     1      20.697  28.792  25.281  1.00  0.00    -0.388 OA
ATOM     49  H   UNL     1      21.326  28.726  26.047  1.00  0.00     0.211 HD
ENDBRANCH  47  48
BRANCH  47  50
ATOM     50  C   UNL     1      21.591  29.287  23.170  1.00  0.00     0.165 C 
BRANCH  50  51
ATOM     51  O   UNL     1      22.729  29.987  23.637  1.00  0.00    -0.388 OA
ATOM     52  H   UNL     1      23.290  29.412  24.210  1.00  0.00     0.211 HD
ENDBRANCH  50  51
BRANCH  50  53
ATOM     53  C   UNL     1      20.495  30.376  23.195  1.00  0.00     0.154 C 
BRANCH  53  54
ATOM     54  N   UNL     1      19.243  29.831  22.751  1.00  0.00    -0.319 N 
ATOM     55  C   UNL     1      18.070  29.958  23.522  1.00  0.00     0.407 C 
ATOM     56  H   UNL     1      19.158  29.314  21.826  1.00  0.00     0.167 HD
ATOM     57  O   UNL     1      18.079  30.572  24.613  1.00  0.00    -0.225 OA
BRANCH  55  58
ATOM     58  O   UNL     1      16.859  29.400  23.095  1.00  0.00    -0.443 OA
BRANCH  58  59
ATOM     59  C   UNL     1      16.130  29.943  22.029  1.00  0.00     0.294 C 
BRANCH  59  60
ATOM     60  C   UNL     1      16.410  29.209  20.757  1.00  0.00     0.121 A 
ATOM     61  C   UNL     1      16.812  29.833  19.558  1.00  0.00     0.144 A 
ATOM     62  N   UNL     1      16.357  27.916  20.480  1.00  0.00    -0.131 NA
ATOM     63  N   UNL     1      16.979  28.901  18.629  1.00  0.00    -0.219 N 
ATOM     64  N   UNL     1      16.691  27.737  19.228  1.00  0.00    -0.062 NA
BRANCH  63  65
ATOM     65  C   UNL     1      17.374  28.966  17.272  1.00  0.00     0.081 A 
ATOM     66  C   UNL     1      16.391  29.010  16.275  1.00  0.00     0.049 A 
ATOM     67  C   UNL     1      18.666  28.957  16.832  1.00  0.00     0.065 A 
ATOM     68  C   UNL     1      16.715  29.039  14.958  1.00  0.00     0.043 A 
ATOM     69  C   UNL     1      19.004  28.986  15.466  1.00  0.00     0.017 A 
ATOM     70  Cl  UNL     1      15.431  29.094  13.759  1.00  0.00    -0.084 Cl
ATOM     71  C   UNL     1      18.010  29.028  14.519  1.00  0.00     0.021 A 
BRANCH  67  72
ATOM     72  C   UNL     1      19.797  28.964  17.766  1.00  0.00     0.255 C 
ATOM     73  O   UNL     1      20.275  27.871  18.133  1.00  0.00    -0.269 OA
ATOM     74  N   UNL     1      20.322  30.173  18.230  1.00  0.00    -0.345 N 
ATOM     75  C   UNL     1      19.751  31.444  17.793  1.00  0.00     0.146 C 
ATOM     76  C   UNL     1      21.454  30.208  19.153  1.00  0.00     0.146 C 
ENDBRANCH  67  72
ENDBRANCH  63  65
ENDBRANCH  59  60
ENDBRANCH  58  59
ENDBRANCH  55  58
ENDBRANCH  53  54
ENDBRANCH  50  53
ENDBRANCH  47  50
ENDBRANCH   5  47
BRANCH   4  77
ATOM     77  N   UNL     1      22.220  25.116  25.789  1.00  0.00    -0.348 N 
ATOM     78  C   UNL     1      22.271  25.587  27.118  1.00  0.00     0.217 C 
ATOM     79  H   UNL     1      22.747  24.251  25.562  1.00  0.00     0.163 HD
ATOM     80  C   UNL     1      23.036  24.899  28.186  1.00  0.00     0.114 C 
ATOM     81  O   UNL     1      21.640  26.637  27.412  1.00  0.00    -0.275 OA
ENDBRANCH   4  77
TORSDOF 31
