REMARK VINA RESULT:    -6.694     13.313     18.717
REMARK INTER + INTRA:         -22.015
REMARK INTER:                 -14.821
REMARK INTRA:                  -7.194
REMARK UNBOUND:                -5.539
REMARK SMILES CC(=O)N[C@@H]1[C@@H](O)C[C@](OC[C@H]2O[C@@H](O[C@H]3[C@H](O)[C@@H](O)[C@H](OCCN=[N+]=[N-])O[C@@H]3CO)[C@H](O)[C@@H](O)[C@H]2O)(C(=O)O)O[C@H]1C(O)[C@H](O)CNC(=O)OCc1cn(-c2c3ccccc3nc3ccccc23)nn1
REMARK SMILES IDX 9 1 8 2 6 3 5 4 42 5 41 6 10 7 11 8 12 9 14 10 13 11 32 12
REMARK SMILES IDX 34 13 36 14 15 15 16 16 29 17 28 18 21 19 17 20 19 21 30 22
REMARK SMILES IDX 31 23 22 25 23 26 24 27 25 28 26 29 27 30 18 31 20 33 33 35
REMARK SMILES IDX 35 37 37 39 38 41 39 42 40 43 7 45 43 47 44 48 45 50 46 51
REMARK SMILES IDX 47 53 48 54 49 55 50 57 51 58 52 59 53 60 54 61 71 62 55 63
REMARK SMILES IDX 70 64 56 65 57 66 69 67 58 68 62 69 64 70 68 71 59 72 61 73
REMARK SMILES IDX 63 74 65 75 67 76 60 77 66 78 4 79 2 80 1 82 3 83
REMARK H PARENT 31 24 18 32 20 34 33 36 35 38 37 40 40 44 7 46 44 49 46 52
REMARK H PARENT 48 56 4 81
REMARK Flexibility Score: inf
ROOT
ATOM      1  C   UNL     1      15.965  30.262  17.573  1.00  0.00     0.272 C 
ATOM      2  C   UNL     1      15.463  29.048  18.498  1.00  0.00     0.113 C 
ATOM      3  C   UNL     1      16.705  28.281  18.768  1.00  0.00     0.145 C 
ATOM      4  C   UNL     1      17.836  29.092  19.364  1.00  0.00     0.142 C 
ATOM      5  C   UNL     1      17.809  30.522  19.019  1.00  0.00     0.178 C 
ATOM      6  O   UNL     1      16.701  30.997  18.403  1.00  0.00    -0.332 OA
ENDROOT
BRANCH   1   7
ATOM      7  O   UNL     1      14.735  30.889  17.361  1.00  0.00    -0.338 OA
BRANCH   7   8
ATOM      8  C   UNL     1      13.682  30.435  18.079  1.00  0.00     0.199 C 
BRANCH   8   9
ATOM      9  C   UNL     1      13.052  31.419  18.988  1.00  0.00     0.179 C 
ATOM     10  C   UNL     1      12.492  31.931  21.195  1.00  0.00     0.282 C 
ATOM     11  O   UNL     1      13.028  30.992  20.287  1.00  0.00    -0.341 OA
ATOM     12  C   UNL     1      11.859  33.097  20.560  1.00  0.00     0.202 C 
ATOM     13  C   UNL     1      12.771  33.765  19.556  1.00  0.00     0.179 C 
ATOM     14  C   UNL     1      13.696  32.804  18.884  1.00  0.00     0.177 C 
BRANCH  10  15
ATOM     15  O   UNL     1      13.452  32.266  22.140  1.00  0.00    -0.341 OA
BRANCH  15  16
ATOM     16  C   UNL     1      13.582  31.286  23.151  1.00  0.00     0.184 C 
ATOM     17  C   UNL     1      13.446  31.916  24.479  1.00  0.00     0.178 C 
ATOM     18  O   UNL     1      14.011  31.150  25.532  1.00  0.00    -0.341 OA
ATOM     19  C   UNL     1      15.378  31.092  25.289  1.00  0.00     0.281 C 
ATOM     20  C   UNL     1      14.995  30.724  22.932  1.00  0.00     0.180 C 
ATOM     21  C   UNL     1      15.530  30.053  24.166  1.00  0.00     0.202 C 
BRANCH  17  22
ATOM     22  C   UNL     1      11.987  32.133  24.851  1.00  0.00     0.191 C 
BRANCH  22  23
ATOM     23  O   UNL     1      11.791  33.195  25.696  1.00  0.00    -0.394 OA
ATOM     24  H   UNL     1      12.397  33.935  25.430  1.00  0.00     0.210 HD
ENDBRANCH  22  23
ENDBRANCH  17  22
BRANCH  19  25
ATOM     25  O   UNL     1      16.000  30.711  26.451  1.00  0.00    -0.350 OA
BRANCH  25  26
ATOM     26  C   UNL     1      16.878  31.658  26.971  1.00  0.00     0.169 C 
BRANCH  26  27
ATOM     27  C   UNL     1      16.764  31.776  28.475  1.00  0.00     0.119 C 
BRANCH  27  28
ATOM     28  N   UNL     1      16.793  30.420  29.013  1.00  0.00    -0.092 NA
ATOM     29  N   UNL     1      15.933  30.043  29.817  1.00  0.00     0.001 N 
ATOM     30  N   UNL     1      15.065  29.594  30.567  1.00  0.00    -0.003 NA
ENDBRANCH  27  28
ENDBRANCH  26  27
ENDBRANCH  25  26
ENDBRANCH  19  25
BRANCH  20  31
ATOM     31  O   UNL     1      15.003  29.894  21.822  1.00  0.00    -0.387 OA
ATOM     32  H   UNL     1      14.897  28.938  22.051  1.00  0.00     0.211 HD
ENDBRANCH  20  31
BRANCH  21  33
ATOM     33  O   UNL     1      16.852  29.721  23.972  1.00  0.00    -0.385 OA
ATOM     34  H   UNL     1      17.404  30.456  24.378  1.00  0.00     0.211 HD
ENDBRANCH  21  33
ENDBRANCH  15  16
ENDBRANCH  10  15
BRANCH  12  35
ATOM     35  O   UNL     1      10.618  32.755  20.003  1.00  0.00    -0.385 OA
ATOM     36  H   UNL     1       9.959  33.389  20.417  1.00  0.00     0.211 HD
ENDBRANCH  12  35
BRANCH  13  37
ATOM     37  O   UNL     1      13.480  34.774  20.235  1.00  0.00    -0.387 OA
ATOM     38  H   UNL     1      14.208  34.288  20.740  1.00  0.00     0.211 HD
ENDBRANCH  13  37
BRANCH  14  39
ATOM     39  O   UNL     1      14.979  32.827  19.391  1.00  0.00    -0.387 OA
ATOM     40  H   UNL     1      15.277  33.733  19.658  1.00  0.00     0.211 HD
ENDBRANCH  14  39
ENDBRANCH   8   9
ENDBRANCH   7   8
ENDBRANCH   1   7
BRANCH   1  41
ATOM     41  C   UNL     1      16.484  29.592  16.427  1.00  0.00     0.364 C 
ATOM     42  O   UNL     1      17.644  29.865  15.978  1.00  0.00    -0.246 OA
BRANCH  41  43
ATOM     43  O   UNL     1      15.832  28.599  15.687  1.00  0.00    -0.477 OA
ATOM     44  H   UNL     1      15.422  28.848  14.796  1.00  0.00     0.296 HD
ENDBRANCH  41  43
ENDBRANCH   1  41
BRANCH   3  45
ATOM     45  O   UNL     1      16.346  27.229  19.645  1.00  0.00    -0.391 OA
ATOM     46  H   UNL     1      15.636  27.552  20.259  1.00  0.00     0.211 HD
ENDBRANCH   3  45
BRANCH   5  47
ATOM     47  C   UNL     1      17.974  31.417  20.279  1.00  0.00     0.176 C 
BRANCH  47  48
ATOM     48  O   UNL     1      18.027  30.653  21.407  1.00  0.00    -0.388 OA
ATOM     49  H   UNL     1      18.382  29.722  21.260  1.00  0.00     0.211 HD
ENDBRANCH  47  48
BRANCH  47  50
ATOM     50  C   UNL     1      18.924  32.512  20.102  1.00  0.00     0.165 C 
BRANCH  50  51
ATOM     51  O   UNL     1      18.665  33.416  19.069  1.00  0.00    -0.388 OA
ATOM     52  H   UNL     1      17.696  33.498  18.887  1.00  0.00     0.211 HD
ENDBRANCH  50  51
BRANCH  50  53
ATOM     53  C   UNL     1      20.364  32.260  20.329  1.00  0.00     0.154 C 
BRANCH  53  54
ATOM     54  N   UNL     1      20.821  31.811  21.591  1.00  0.00    -0.319 N 
ATOM     55  C   UNL     1      21.068  32.631  22.712  1.00  0.00     0.407 C 
ATOM     56  H   UNL     1      20.997  30.744  21.715  1.00  0.00     0.167 HD
ATOM     57  O   UNL     1      20.941  33.864  22.729  1.00  0.00    -0.225 OA
BRANCH  55  58
ATOM     58  O   UNL     1      21.491  32.067  23.932  1.00  0.00    -0.443 OA
BRANCH  58  59
ATOM     59  C   UNL     1      20.587  31.582  24.910  1.00  0.00     0.294 C 
BRANCH  59  60
ATOM     60  C   UNL     1      20.607  30.091  24.907  1.00  0.00     0.121 A 
ATOM     61  C   UNL     1      21.630  29.249  25.290  1.00  0.00     0.144 A 
ATOM     62  N   UNL     1      19.618  29.279  24.510  1.00  0.00    -0.131 NA
ATOM     63  N   UNL     1      21.257  27.960  25.124  1.00  0.00    -0.219 N 
ATOM     64  N   UNL     1      20.024  28.012  24.646  1.00  0.00    -0.062 NA
BRANCH  63  65
ATOM     65  C   UNL     1      22.050  26.793  25.410  1.00  0.00     0.085 A 
ATOM     66  C   UNL     1      22.145  26.319  26.709  1.00  0.00     0.027 A 
ATOM     67  C   UNL     1      22.735  26.116  24.427  1.00  0.00     0.027 A 
ATOM     68  C   UNL     1      21.481  26.952  27.737  1.00  0.00     0.012 A 
ATOM     69  C   UNL     1      22.903  25.197  27.037  1.00  0.00     0.073 A 
ATOM     70  C   UNL     1      23.473  25.013  24.793  1.00  0.00     0.073 A 
ATOM     71  C   UNL     1      22.685  26.527  23.127  1.00  0.00     0.012 A 
ATOM     72  C   UNL     1      21.573  26.481  29.029  1.00  0.00     0.001 A 
ATOM     73  C   UNL     1      22.993  24.730  28.330  1.00  0.00     0.029 A 
ATOM     74  N   UNL     1      23.558  24.562  26.057  1.00  0.00    -0.248 NA
ATOM     75  C   UNL     1      24.173  24.308  23.836  1.00  0.00     0.029 A 
ATOM     76  C   UNL     1      23.400  25.799  22.185  1.00  0.00     0.001 A 
ATOM     77  C   UNL     1      22.331  25.360  29.356  1.00  0.00     0.002 A 
ATOM     78  C   UNL     1      24.150  24.688  22.507  1.00  0.00     0.002 A 
ENDBRANCH  63  65
ENDBRANCH  59  60
ENDBRANCH  58  59
ENDBRANCH  55  58
ENDBRANCH  53  54
ENDBRANCH  50  53
ENDBRANCH  47  50
ENDBRANCH   5  47
BRANCH   4  79
ATOM     79  N   UNL     1      19.090  28.438  19.066  1.00  0.00    -0.348 N 
ATOM     80  C   UNL     1      20.155  28.272  20.001  1.00  0.00     0.217 C 
ATOM     81  H   UNL     1      19.278  28.049  18.113  1.00  0.00     0.163 HD
ATOM     82  C   UNL     1      21.414  27.578  19.567  1.00  0.00     0.114 C 
ATOM     83  O   UNL     1      19.993  28.714  21.150  1.00  0.00    -0.275 OA
ENDBRANCH   4  79
TORSDOF 30
