REMARK VINA RESULT:    -5.977     16.127     21.170
REMARK INTER + INTRA:         -20.146
REMARK INTER:                 -12.254
REMARK INTRA:                  -7.892
REMARK UNBOUND:                -4.909
REMARK SMILES CC(=O)N[C@@H]1[C@@H](O)C[C@](OC[C@H]2O[C@@H](O[C@H]3[C@H](O)[C@@H](O)[C@H](OCCN=[N+]=[N-])O[C@@H]3CO)[C@H](O)[C@@H](O)[C@H]2O)(C(=O)O)O[C@H]1C(O)[C@H](O)CNC(=O)OCc1cn(CCO)nn1
REMARK SMILES IDX 9 1 8 2 6 3 5 4 42 5 41 6 10 7 11 8 12 9 14 10 13 11 32 12
REMARK SMILES IDX 34 13 36 14 15 15 16 16 29 17 28 18 21 19 17 20 19 21 30 22
REMARK SMILES IDX 31 23 22 25 23 26 24 27 25 28 26 29 27 30 18 31 20 33 33 35
REMARK SMILES IDX 35 37 37 39 38 41 39 42 40 43 7 45 43 47 44 48 45 50 46 51
REMARK SMILES IDX 47 53 48 54 49 55 50 57 51 58 52 59 53 60 54 61 60 62 55 63
REMARK SMILES IDX 59 64 56 65 57 66 58 67 4 69 2 70 1 72 3 73
REMARK H PARENT 31 24 18 32 20 34 33 36 35 38 37 40 40 44 7 46 44 49 46 52
REMARK H PARENT 48 56 58 68 4 71
REMARK Flexibility Score: inf
ROOT
ATOM      1  C   UNL     1      22.940  26.067  21.607  1.00  0.00     0.272 C 
ATOM      2  C   UNL     1      24.067  25.395  20.893  1.00  0.00     0.113 C 
ATOM      3  C   UNL     1      23.642  25.011  19.502  1.00  0.00     0.145 C 
ATOM      4  C   UNL     1      23.171  26.304  18.836  1.00  0.00     0.142 C 
ATOM      5  C   UNL     1      21.922  26.735  19.595  1.00  0.00     0.178 C 
ATOM      6  O   UNL     1      22.423  27.089  20.870  1.00  0.00    -0.332 OA
ENDROOT
BRANCH   1   7
ATOM      7  O   UNL     1      23.371  26.607  22.841  1.00  0.00    -0.338 OA
BRANCH   7   8
ATOM      8  C   UNL     1      24.676  26.408  23.150  1.00  0.00     0.199 C 
BRANCH   8   9
ATOM      9  C   UNL     1      24.869  26.248  24.666  1.00  0.00     0.179 C 
ATOM     10  C   UNL     1      24.012  26.916  26.716  1.00  0.00     0.282 C 
ATOM     11  O   UNL     1      24.035  27.117  25.336  1.00  0.00    -0.341 OA
ATOM     12  C   UNL     1      23.478  25.557  27.085  1.00  0.00     0.202 C 
ATOM     13  C   UNL     1      23.565  24.547  25.969  1.00  0.00     0.179 C 
ATOM     14  C   UNL     1      24.773  24.832  25.121  1.00  0.00     0.177 C 
BRANCH  10  15
ATOM     15  O   UNL     1      23.206  27.861  27.225  1.00  0.00    -0.341 OA
BRANCH  15  16
ATOM     16  C   UNL     1      22.866  28.949  26.516  1.00  0.00     0.184 C 
ATOM     17  C   UNL     1      23.415  30.275  26.801  1.00  0.00     0.178 C 
ATOM     18  O   UNL     1      22.467  31.257  26.574  1.00  0.00    -0.341 OA
ATOM     19  C   UNL     1      21.679  31.142  25.474  1.00  0.00     0.281 C 
ATOM     20  C   UNL     1      21.329  29.066  26.684  1.00  0.00     0.180 C 
ATOM     21  C   UNL     1      20.873  29.834  25.462  1.00  0.00     0.202 C 
BRANCH  17  22
ATOM     22  C   UNL     1      24.638  30.623  25.957  1.00  0.00     0.191 C 
BRANCH  22  23
ATOM     23  O   UNL     1      24.723  29.827  24.814  1.00  0.00    -0.394 OA
ATOM     24  H   UNL     1      25.665  29.745  24.569  1.00  0.00     0.210 HD
ENDBRANCH  22  23
ENDBRANCH  17  22
BRANCH  19  25
ATOM     25  O   UNL     1      22.261  31.384  24.262  1.00  0.00    -0.350 OA
BRANCH  25  26
ATOM     26  C   UNL     1      21.766  32.420  23.528  1.00  0.00     0.169 C 
BRANCH  26  27
ATOM     27  C   UNL     1      20.938  31.932  22.388  1.00  0.00     0.119 C 
BRANCH  27  28
ATOM     28  N   UNL     1      19.526  31.884  22.804  1.00  0.00    -0.092 NA
ATOM     29  N   UNL     1      18.903  30.879  22.415  1.00  0.00     0.001 N 
ATOM     30  N   UNL     1      18.377  29.766  22.590  1.00  0.00    -0.003 NA
ENDBRANCH  27  28
ENDBRANCH  26  27
ENDBRANCH  25  26
ENDBRANCH  19  25
BRANCH  20  31
ATOM     31  O   UNL     1      20.752  27.828  26.795  1.00  0.00    -0.387 OA
ATOM     32  H   UNL     1      20.723  27.338  25.934  1.00  0.00     0.211 HD
ENDBRANCH  20  31
BRANCH  21  33
ATOM     33  O   UNL     1      19.518  30.029  25.474  1.00  0.00    -0.385 OA
ATOM     34  H   UNL     1      19.017  29.233  25.782  1.00  0.00     0.211 HD
ENDBRANCH  21  33
ENDBRANCH  15  16
ENDBRANCH  10  15
BRANCH  12  35
ATOM     35  O   UNL     1      24.283  25.050  28.118  1.00  0.00    -0.385 OA
ATOM     36  H   UNL     1      24.445  25.695  28.834  1.00  0.00     0.211 HD
ENDBRANCH  12  35
BRANCH  13  37
ATOM     37  O   UNL     1      22.388  24.533  25.269  1.00  0.00    -0.387 OA
ATOM     38  H   UNL     1      22.394  23.843  24.533  1.00  0.00     0.211 HD
ENDBRANCH  13  37
BRANCH  14  39
ATOM     39  O   UNL     1      24.664  24.026  23.967  1.00  0.00    -0.387 OA
ATOM     40  H   UNL     1      24.605  24.584  23.152  1.00  0.00     0.211 HD
ENDBRANCH  14  39
ENDBRANCH   8   9
ENDBRANCH   7   8
ENDBRANCH   1   7
BRANCH   1  41
ATOM     41  C   UNL     1      21.944  25.044  21.992  1.00  0.00     0.364 C 
ATOM     42  O   UNL     1      22.249  23.866  22.256  1.00  0.00    -0.246 OA
BRANCH  41  43
ATOM     43  O   UNL     1      20.600  25.365  22.077  1.00  0.00    -0.477 OA
ATOM     44  H   UNL     1      20.012  25.103  22.887  1.00  0.00     0.296 HD
ENDBRANCH  41  43
ENDBRANCH   1  41
BRANCH   3  45
ATOM     45  O   UNL     1      24.750  24.564  18.750  1.00  0.00    -0.391 OA
ATOM     46  H   UNL     1      25.583  24.901  19.177  1.00  0.00     0.211 HD
ENDBRANCH   3  45
BRANCH   5  47
ATOM     47  C   UNL     1      21.425  28.022  19.020  1.00  0.00     0.176 C 
BRANCH  47  48
ATOM     48  O   UNL     1      20.744  27.823  17.818  1.00  0.00    -0.388 OA
ATOM     49  H   UNL     1      20.464  26.877  17.700  1.00  0.00     0.211 HD
ENDBRANCH  47  48
BRANCH  47  50
ATOM     50  C   UNL     1      20.671  28.950  19.891  1.00  0.00     0.165 C 
BRANCH  50  51
ATOM     51  O   UNL     1      19.750  28.046  20.579  1.00  0.00    -0.388 OA
ATOM     52  H   UNL     1      20.083  27.126  20.462  1.00  0.00     0.211 HD
ENDBRANCH  50  51
BRANCH  50  53
ATOM     53  C   UNL     1      19.692  29.845  19.153  1.00  0.00     0.154 C 
BRANCH  53  54
ATOM     54  N   UNL     1      18.342  29.381  19.192  1.00  0.00    -0.319 N 
ATOM     55  C   UNL     1      17.307  30.101  18.543  1.00  0.00     0.407 C 
ATOM     56  H   UNL     1      18.072  28.499  19.711  1.00  0.00     0.167 HD
ATOM     57  O   UNL     1      17.658  31.173  17.943  1.00  0.00    -0.225 OA
BRANCH  55  58
ATOM     58  O   UNL     1      15.984  29.753  18.500  1.00  0.00    -0.443 OA
BRANCH  58  59
ATOM     59  C   UNL     1      15.538  28.643  19.256  1.00  0.00     0.294 C 
BRANCH  59  60
ATOM     60  C   UNL     1      14.899  29.027  20.517  1.00  0.00     0.120 A 
ATOM     61  C   UNL     1      15.174  30.164  21.236  1.00  0.00     0.138 A 
ATOM     62  N   UNL     1      13.949  28.383  21.213  1.00  0.00    -0.132 NA
ATOM     63  N   UNL     1      14.399  30.190  22.338  1.00  0.00    -0.250 N 
ATOM     64  N   UNL     1      13.663  29.103  22.306  1.00  0.00    -0.067 NA
BRANCH  63  65
ATOM     65  C   UNL     1      14.400  31.247  23.359  1.00  0.00     0.174 C 
BRANCH  65  66
ATOM     66  C   UNL     1      15.577  31.016  24.274  1.00  0.00     0.179 C 
BRANCH  66  67
ATOM     67  O   UNL     1      15.747  29.627  24.398  1.00  0.00    -0.394 OA
ATOM     68  H   UNL     1      15.063  29.111  23.937  1.00  0.00     0.210 HD
ENDBRANCH  66  67
ENDBRANCH  65  66
ENDBRANCH  63  65
ENDBRANCH  59  60
ENDBRANCH  58  59
ENDBRANCH  55  58
ENDBRANCH  53  54
ENDBRANCH  50  53
ENDBRANCH  47  50
ENDBRANCH   5  47
BRANCH   4  69
ATOM     69  N   UNL     1      23.062  26.208  17.434  1.00  0.00    -0.348 N 
ATOM     70  C   UNL     1      23.846  26.918  16.496  1.00  0.00     0.217 C 
ATOM     71  H   UNL     1      22.357  25.547  17.017  1.00  0.00     0.163 HD
ATOM     72  C   UNL     1      23.618  26.720  15.050  1.00  0.00     0.114 C 
ATOM     73  O   UNL     1      24.726  27.709  16.869  1.00  0.00    -0.275 OA
ENDBRANCH   4  69
TORSDOF 32
