REMARK VINA RESULT:    -5.951      4.041     10.552
REMARK INTER + INTRA:         -21.823
REMARK INTER:                 -12.463
REMARK INTRA:                  -9.359
REMARK UNBOUND:                -6.131
REMARK SMILES COCC(C(N)=O)n1cc(COC(=O)NC[C@@H](O)C(O)[C@@H]2O[C@@](OC[C@H]3O[C@@H](O[C@H]4[C@H](O)[C@@H](O)[C@H](OCCN=[N+]=[N-])O[C@@H]4CO)[C@H](O)[C@@H](O)[C@H]3O)(C(=O)O)C[C@H](O)[C@H]2NC(C)=O)nn1
REMARK SMILES IDX 23 1 55 2 56 3 58 4 21 5 22 6 24 7 25 8 26 9 28 10 27 11
REMARK SMILES IDX 46 12 48 13 50 14 29 15 30 16 43 17 42 18 35 19 31 20 33 21
REMARK SMILES IDX 44 22 45 23 36 25 37 26 38 27 39 28 40 29 41 30 32 31 34 33
REMARK SMILES IDX 47 35 49 37 51 39 52 41 53 42 54 43 57 45 19 47 20 48 17 50
REMARK SMILES IDX 18 51 16 53 15 54 13 55 14 57 12 58 11 59 10 60 9 61 63 62
REMARK SMILES IDX 8 63 64 64 4 65 3 66 2 67 1 68 5 69 7 70 6 71 59 74 60 75
REMARK SMILES IDX 61 77 62 78
REMARK H PARENT 45 24 32 32 34 34 47 36 49 38 51 40 54 44 57 46 20 49 18 52
REMARK H PARENT 15 56 6 72 6 73 59 76
REMARK Flexibility Score: inf
ROOT
ATOM      1  C   UNL     1      14.427  29.904  21.224  1.00  0.00     0.272 C 
ATOM      2  C   UNL     1      13.280  29.424  22.027  1.00  0.00     0.113 C 
ATOM      3  C   UNL     1      12.935  30.197  23.247  1.00  0.00     0.145 C 
ATOM      4  C   UNL     1      14.189  30.673  23.930  1.00  0.00     0.142 C 
ATOM      5  C   UNL     1      15.341  29.851  23.372  1.00  0.00     0.178 C 
ATOM      6  O   UNL     1      15.521  30.160  22.049  1.00  0.00    -0.332 OA
ENDROOT
BRANCH   1   7
ATOM      7  O   UNL     1      14.233  31.014  20.449  1.00  0.00    -0.338 OA
BRANCH   7   8
ATOM      8  C   UNL     1      14.934  32.134  20.749  1.00  0.00     0.199 C 
BRANCH   8   9
ATOM      9  C   UNL     1      15.134  33.045  19.530  1.00  0.00     0.179 C 
ATOM     10  C   UNL     1      16.552  31.943  18.059  1.00  0.00     0.282 C 
ATOM     11  O   UNL     1      16.394  32.936  19.015  1.00  0.00    -0.341 OA
ATOM     12  C   UNL     1      15.568  32.034  16.946  1.00  0.00     0.202 C 
ATOM     13  C   UNL     1      14.157  32.020  17.434  1.00  0.00     0.179 C 
ATOM     14  C   UNL     1      14.008  32.978  18.561  1.00  0.00     0.177 C 
BRANCH  10  15
ATOM     15  O   UNL     1      16.584  30.675  18.611  1.00  0.00    -0.341 OA
BRANCH  15  16
ATOM     16  C   UNL     1      17.876  30.154  18.585  1.00  0.00     0.184 C 
ATOM     17  C   UNL     1      17.991  28.763  18.087  1.00  0.00     0.178 C 
ATOM     18  O   UNL     1      19.300  28.384  17.921  1.00  0.00    -0.341 OA
ATOM     19  C   UNL     1      20.193  28.973  18.817  1.00  0.00     0.281 C 
ATOM     20  C   UNL     1      18.344  30.141  20.051  1.00  0.00     0.180 C 
ATOM     21  C   UNL     1      19.523  29.235  20.157  1.00  0.00     0.202 C 
BRANCH  17  22
ATOM     22  C   UNL     1      17.290  28.502  16.767  1.00  0.00     0.191 C 
BRANCH  22  23
ATOM     23  O   UNL     1      15.912  28.625  16.930  1.00  0.00    -0.394 OA
ATOM     24  H   UNL     1      15.606  28.265  17.796  1.00  0.00     0.210 HD
ENDBRANCH  22  23
ENDBRANCH  17  22
BRANCH  19  25
ATOM     25  O   UNL     1      20.738  30.076  18.262  1.00  0.00    -0.350 OA
BRANCH  25  26
ATOM     26  C   UNL     1      21.957  30.517  18.647  1.00  0.00     0.169 C 
BRANCH  26  27
ATOM     27  C   UNL     1      22.038  31.808  19.382  1.00  0.00     0.119 C 
BRANCH  27  28
ATOM     28  N   UNL     1      22.218  31.648  20.790  1.00  0.00    -0.092 NA
ATOM     29  N   UNL     1      21.507  32.266  21.578  1.00  0.00     0.001 N 
ATOM     30  N   UNL     1      20.578  32.451  22.382  1.00  0.00    -0.003 NA
ENDBRANCH  27  28
ENDBRANCH  26  27
ENDBRANCH  25  26
ENDBRANCH  19  25
BRANCH  20  31
ATOM     31  O   UNL     1      18.654  31.439  20.452  1.00  0.00    -0.387 OA
ATOM     32  H   UNL     1      18.141  31.602  21.277  1.00  0.00     0.211 HD
ENDBRANCH  20  31
BRANCH  21  33
ATOM     33  O   UNL     1      19.144  27.973  20.662  1.00  0.00    -0.385 OA
ATOM     34  H   UNL     1      19.679  27.265  20.199  1.00  0.00     0.211 HD
ENDBRANCH  21  33
ENDBRANCH  15  16
ENDBRANCH  10  15
BRANCH  12  35
ATOM     35  O   UNL     1      15.768  33.281  16.325  1.00  0.00    -0.385 OA
ATOM     36  H   UNL     1      15.005  33.513  15.754  1.00  0.00     0.211 HD
ENDBRANCH  12  35
BRANCH  13  37
ATOM     37  O   UNL     1      13.693  30.734  17.709  1.00  0.00    -0.387 OA
ATOM     38  H   UNL     1      14.158  30.126  17.073  1.00  0.00     0.211 HD
ENDBRANCH  13  37
BRANCH  14  39
ATOM     39  O   UNL     1      12.826  32.741  19.266  1.00  0.00    -0.387 OA
ATOM     40  H   UNL     1      12.953  32.014  19.931  1.00  0.00     0.211 HD
ENDBRANCH  14  39
ENDBRANCH   8   9
ENDBRANCH   7   8
ENDBRANCH   1   7
BRANCH   1  41
ATOM     41  C   UNL     1      14.876  28.748  20.366  1.00  0.00     0.364 C 
ATOM     42  O   UNL     1      14.307  28.473  19.293  1.00  0.00    -0.246 OA
BRANCH  41  43
ATOM     43  O   UNL     1      15.937  27.993  20.793  1.00  0.00    -0.477 OA
ATOM     44  H   UNL     1      16.606  27.579  20.163  1.00  0.00     0.296 HD
ENDBRANCH  41  43
ENDBRANCH   1  41
BRANCH   3  45
ATOM     45  O   UNL     1      12.029  31.229  23.029  1.00  0.00    -0.391 OA
ATOM     46  H   UNL     1      12.102  31.552  22.096  1.00  0.00     0.211 HD
ENDBRANCH   3  45
BRANCH   5  47
ATOM     47  C   UNL     1      16.609  30.165  24.142  1.00  0.00     0.176 C 
BRANCH  47  48
ATOM     48  O   UNL     1      17.694  29.467  23.704  1.00  0.00    -0.388 OA
ATOM     49  H   UNL     1      18.256  29.866  23.027  1.00  0.00     0.211 HD
ENDBRANCH  47  48
BRANCH  47  50
ATOM     50  C   UNL     1      16.885  31.643  24.108  1.00  0.00     0.165 C 
BRANCH  50  51
ATOM     51  O   UNL     1      17.569  31.890  22.892  1.00  0.00    -0.388 OA
ATOM     52  H   UNL     1      16.925  31.810  22.136  1.00  0.00     0.211 HD
ENDBRANCH  50  51
BRANCH  50  53
ATOM     53  C   UNL     1      17.778  32.136  25.195  1.00  0.00     0.154 C 
BRANCH  53  54
ATOM     54  N   UNL     1      19.132  31.692  25.143  1.00  0.00    -0.319 N 
ATOM     55  C   UNL     1      19.734  30.922  26.174  1.00  0.00     0.407 C 
ATOM     56  H   UNL     1      19.745  31.928  24.316  1.00  0.00     0.167 HD
ATOM     57  O   UNL     1      19.064  30.618  27.173  1.00  0.00    -0.225 OA
BRANCH  55  58
ATOM     58  O   UNL     1      21.065  30.497  26.098  1.00  0.00    -0.443 OA
BRANCH  58  59
ATOM     59  C   UNL     1      21.720  30.287  24.883  1.00  0.00     0.294 C 
BRANCH  59  60
ATOM     60  C   UNL     1      21.574  28.938  24.323  1.00  0.00     0.120 A 
ATOM     61  C   UNL     1      22.421  27.893  24.592  1.00  0.00     0.139 A 
ATOM     62  N   UNL     1      20.614  28.527  23.486  1.00  0.00    -0.132 NA
ATOM     63  N   UNL     1      21.951  26.853  23.900  1.00  0.00    -0.237 N 
ATOM     64  N   UNL     1      20.861  27.250  23.239  1.00  0.00    -0.066 NA
BRANCH  63  65
ATOM     65  C   UNL     1      22.535  25.525  23.882  1.00  0.00     0.223 C 
BRANCH  65  66
ATOM     66  C   UNL     1      22.476  24.961  25.263  1.00  0.00     0.197 C 
BRANCH  66  67
ATOM     67  O   UNL     1      23.705  24.533  25.698  1.00  0.00    -0.382 OA
ATOM     68  C   UNL     1      24.095  25.190  26.835  1.00  0.00     0.195 C 
ENDBRANCH  66  67
ENDBRANCH  65  66
BRANCH  65  69
ATOM     69  C   UNL     1      21.701  24.708  22.939  1.00  0.00     0.244 C 
ATOM     70  O   UNL     1      22.162  24.438  21.811  1.00  0.00    -0.273 OA
ATOM     71  N   UNL     1      20.420  24.269  23.358  1.00  0.00    -0.368 N 
ATOM     72  H   UNL     1      19.528  24.664  23.015  1.00  0.00     0.159 HD
ATOM     73  H   UNL     1      20.381  23.499  24.061  1.00  0.00     0.159 HD
ENDBRANCH  65  69
ENDBRANCH  63  65
ENDBRANCH  59  60
ENDBRANCH  58  59
ENDBRANCH  55  58
ENDBRANCH  53  54
ENDBRANCH  50  53
ENDBRANCH  47  50
ENDBRANCH   5  47
BRANCH   4  74
ATOM     74  N   UNL     1      14.083  30.540  25.381  1.00  0.00    -0.348 N 
ATOM     75  C   UNL     1      13.883  31.642  26.256  1.00  0.00     0.217 C 
ATOM     76  H   UNL     1      14.150  29.595  25.834  1.00  0.00     0.163 HD
ATOM     77  C   UNL     1      13.771  31.533  27.720  1.00  0.00     0.114 C 
ATOM     78  O   UNL     1      13.795  32.799  25.720  1.00  0.00    -0.275 OA
ENDBRANCH   4  74
TORSDOF 33
