REMARK VINA RESULT:    -4.967      9.218     13.134
REMARK INTER + INTRA:         -21.417
REMARK INTER:                 -14.638
REMARK INTRA:                  -6.778
REMARK UNBOUND:                -8.028
REMARK SMILES CCN(CC)CCn1cc(COC(=O)NC[C@@H](O)C(O)[C@@H]2O[C@@](OC[C@H]3O[C@@H](O[C@H]4[C@H](O)[C@@H](O)[C@H](OCCN=[N+]=[N-])O[C@@H]4CO)[C@H](O)[C@@H](O)[C@H]3O)(C(=O)O)C[C@H](O)[C@H]2NC(C)=O)nn1
REMARK SMILES IDX 19 1 21 2 23 3 55 4 22 5 56 6 58 7 24 8 25 9 26 10 28 11
REMARK SMILES IDX 27 12 46 13 48 14 50 15 29 16 30 17 43 18 42 19 35 20 31 21
REMARK SMILES IDX 33 22 44 23 45 24 36 26 37 27 38 28 39 29 40 30 41 31 32 32
REMARK SMILES IDX 34 34 47 36 49 38 51 40 52 42 53 43 54 44 57 46 59 48 60 49
REMARK SMILES IDX 61 51 62 52 20 53 17 55 18 56 16 58 15 59 13 60 14 62 12 63
REMARK SMILES IDX 11 64 10 65 9 66 63 67 8 68 64 69 7 70 6 71 3 72 2 73 1 74
REMARK SMILES IDX 4 75 5 76
REMARK H PARENT 45 25 32 33 34 35 47 37 49 39 51 41 54 45 57 47 59 50 20 54
REMARK H PARENT 18 57 15 61
REMARK Flexibility Score: inf
ROOT
ATOM      1  C   UNL     1      24.256  24.479  14.476  1.00  0.00     0.176 C 
ENDROOT
BRANCH   1   2
ATOM      2  C   UNL     1      24.322  23.769  13.150  1.00  0.00     0.178 C 
ATOM      3  C   UNL     1      23.048  22.928  11.427  1.00  0.00     0.272 C 
ATOM      4  C   UNL     1      24.470  22.776  10.864  1.00  0.00     0.113 C 
ATOM      5  O   UNL     1      23.063  23.615  12.621  1.00  0.00    -0.332 OA
ATOM      6  C   UNL     1      25.412  22.092  11.800  1.00  0.00     0.145 C 
ATOM      7  C   UNL     1      24.936  22.388  13.231  1.00  0.00     0.142 C 
BRANCH   3   8
ATOM      8  O   UNL     1      22.520  21.662  11.499  1.00  0.00    -0.338 OA
BRANCH   8   9
ATOM      9  C   UNL     1      21.236  21.566  11.977  1.00  0.00     0.199 C 
BRANCH   9  10
ATOM     10  C   UNL     1      20.344  20.756  11.019  1.00  0.00     0.179 C 
ATOM     11  C   UNL     1      20.788  18.809   9.777  1.00  0.00     0.282 C 
ATOM     12  O   UNL     1      21.181  20.063  10.219  1.00  0.00    -0.341 OA
ATOM     13  C   UNL     1      19.321  18.662   9.719  1.00  0.00     0.202 C 
ATOM     14  C   UNL     1      18.621  18.970  11.014  1.00  0.00     0.179 C 
ATOM     15  C   UNL     1      19.504  19.853  11.869  1.00  0.00     0.177 C 
BRANCH  11  16
ATOM     16  O   UNL     1      21.503  17.916  10.563  1.00  0.00    -0.341 OA
BRANCH  16  17
ATOM     17  C   UNL     1      22.802  18.234  10.745  1.00  0.00     0.184 C 
ATOM     18  C   UNL     1      23.727  17.491   9.816  1.00  0.00     0.178 C 
ATOM     19  O   UNL     1      25.045  17.989  10.025  1.00  0.00    -0.341 OA
ATOM     20  C   UNL     1      25.557  17.379  11.150  1.00  0.00     0.281 C 
ATOM     21  C   UNL     1      23.301  17.962  12.160  1.00  0.00     0.180 C 
ATOM     22  C   UNL     1      24.555  17.149  12.195  1.00  0.00     0.202 C 
BRANCH  18  23
ATOM     23  C   UNL     1      23.360  17.516   8.376  1.00  0.00     0.191 C 
BRANCH  23  24
ATOM     24  O   UNL     1      22.601  16.385   8.106  1.00  0.00    -0.394 OA
ATOM     25  H   UNL     1      21.784  16.311   8.660  1.00  0.00     0.210 HD
ENDBRANCH  23  24
ENDBRANCH  18  23
BRANCH  20  26
ATOM     26  O   UNL     1      26.727  17.993  11.587  1.00  0.00    -0.350 OA
BRANCH  26  27
ATOM     27  C   UNL     1      27.817  17.781  10.797  1.00  0.00     0.169 C 
BRANCH  27  28
ATOM     28  C   UNL     1      28.406  19.066  10.244  1.00  0.00     0.119 C 
BRANCH  28  29
ATOM     29  N   UNL     1      29.297  19.690  11.202  1.00  0.00    -0.092 NA
ATOM     30  N   UNL     1      28.929  20.580  11.979  1.00  0.00     0.001 N 
ATOM     31  N   UNL     1      28.698  21.720  12.385  1.00  0.00    -0.003 NA
ENDBRANCH  28  29
ENDBRANCH  27  28
ENDBRANCH  26  27
ENDBRANCH  20  26
BRANCH  21  32
ATOM     32  O   UNL     1      23.523  19.176  12.783  1.00  0.00    -0.387 OA
ATOM     33  H   UNL     1      24.401  19.568  12.601  1.00  0.00     0.211 HD
ENDBRANCH  21  32
BRANCH  22  34
ATOM     34  O   UNL     1      24.264  15.764  12.271  1.00  0.00    -0.385 OA
ATOM     35  H   UNL     1      24.134  15.568  13.235  1.00  0.00     0.211 HD
ENDBRANCH  22  34
ENDBRANCH  16  17
ENDBRANCH  11  16
BRANCH  13  36
ATOM     36  O   UNL     1      18.819  19.591   8.760  1.00  0.00    -0.385 OA
ATOM     37  H   UNL     1      19.513  20.215   8.482  1.00  0.00     0.211 HD
ENDBRANCH  13  36
BRANCH  14  38
ATOM     38  O   UNL     1      18.191  17.848  11.704  1.00  0.00    -0.387 OA
ATOM     39  H   UNL     1      18.914  17.261  11.979  1.00  0.00     0.211 HD
ENDBRANCH  14  38
BRANCH  15  40
ATOM     40  O   UNL     1      20.342  19.028  12.608  1.00  0.00    -0.387 OA
ATOM     41  H   UNL     1      20.860  18.428  11.998  1.00  0.00     0.211 HD
ENDBRANCH  15  40
ENDBRANCH   9  10
ENDBRANCH   8   9
ENDBRANCH   3   8
BRANCH   3  42
ATOM     42  C   UNL     1      22.338  23.744  10.410  1.00  0.00     0.364 C 
ATOM     43  O   UNL     1      22.417  23.451   9.169  1.00  0.00    -0.246 OA
BRANCH  42  44
ATOM     44  O   UNL     1      21.561  24.849  10.696  1.00  0.00    -0.477 OA
ATOM     45  H   UNL     1      21.311  25.058  11.657  1.00  0.00     0.296 HD
ENDBRANCH  42  44
ENDBRANCH   3  42
BRANCH   6  46
ATOM     46  O   UNL     1      25.603  20.752  11.566  1.00  0.00    -0.391 OA
ATOM     47  H   UNL     1      25.517  20.285  12.436  1.00  0.00     0.211 HD
ENDBRANCH   6  46
BRANCH   7  48
ATOM     48  N   UNL     1      25.994  22.259  14.174  1.00  0.00    -0.348 N 
ATOM     49  C   UNL     1      26.201  20.973  14.794  1.00  0.00     0.217 C 
ATOM     50  H   UNL     1      26.647  23.009  14.462  1.00  0.00     0.163 HD
ATOM     51  C   UNL     1      27.283  20.763  15.787  1.00  0.00     0.114 C 
ATOM     52  O   UNL     1      25.470  19.985  14.515  1.00  0.00    -0.275 OA
ENDBRANCH   7  48
ENDBRANCH   1   2
BRANCH   1  53
ATOM     53  O   UNL     1      25.267  25.431  14.512  1.00  0.00    -0.388 OA
ATOM     54  H   UNL     1      25.074  26.141  13.822  1.00  0.00     0.211 HD
ENDBRANCH   1  53
BRANCH   1  55
ATOM     55  C   UNL     1      22.922  25.176  14.532  1.00  0.00     0.165 C 
BRANCH  55  56
ATOM     56  O   UNL     1      23.051  26.456  13.980  1.00  0.00    -0.388 OA
ATOM     57  H   UNL     1      22.591  26.459  13.106  1.00  0.00     0.211 HD
ENDBRANCH  55  56
BRANCH  55  58
ATOM     58  C   UNL     1      22.305  25.274  15.878  1.00  0.00     0.154 C 
BRANCH  58  59
ATOM     59  N   UNL     1      23.227  25.528  16.931  1.00  0.00    -0.319 N 
ATOM     60  C   UNL     1      23.159  24.740  18.129  1.00  0.00     0.407 C 
ATOM     61  H   UNL     1      23.935  26.260  16.864  1.00  0.00     0.167 HD
ATOM     62  O   UNL     1      22.301  23.845  18.262  1.00  0.00    -0.225 OA
BRANCH  60  63
ATOM     63  O   UNL     1      24.071  25.001  19.139  1.00  0.00    -0.443 OA
BRANCH  63  64
ATOM     64  C   UNL     1      23.929  26.220  19.887  1.00  0.00     0.294 C 
BRANCH  64  65
ATOM     65  C   UNL     1      22.735  26.085  20.731  1.00  0.00     0.120 A 
ATOM     66  C   UNL     1      22.649  25.208  21.818  1.00  0.00     0.138 A 
ATOM     67  N   UNL     1      21.555  26.698  20.683  1.00  0.00    -0.132 NA
ATOM     68  N   UNL     1      21.431  25.331  22.374  1.00  0.00    -0.251 N 
ATOM     69  N   UNL     1      20.793  26.231  21.674  1.00  0.00    -0.067 NA
BRANCH  68  70
ATOM     70  C   UNL     1      20.909  24.614  23.522  1.00  0.00     0.161 C 
BRANCH  70  71
ATOM     71  C   UNL     1      21.988  24.596  24.583  1.00  0.00     0.108 C 
BRANCH  71  72
ATOM     72  N   UNL     1      22.410  25.905  24.990  1.00  0.00    -0.302 NA
BRANCH  72  73
ATOM     73  C   UNL     1      23.743  25.904  25.530  1.00  0.00     0.081 C 
ATOM     74  C   UNL     1      24.375  24.545  25.254  1.00  0.00     0.021 C 
ENDBRANCH  72  73
BRANCH  72  75
ATOM     75  C   UNL     1      21.459  26.571  25.824  1.00  0.00     0.081 C 
ATOM     76  C   UNL     1      21.862  26.489  27.282  1.00  0.00     0.021 C 
ENDBRANCH  72  75
ENDBRANCH  71  72
ENDBRANCH  70  71
ENDBRANCH  68  70
ENDBRANCH  64  65
ENDBRANCH  63  64
ENDBRANCH  60  63
ENDBRANCH  58  59
ENDBRANCH  55  58
ENDBRANCH   1  55
TORSDOF 34
