REMARK VINA RESULT:    -6.198     11.607     19.234
REMARK INTER + INTRA:         -24.181
REMARK INTER:                 -15.080
REMARK INTRA:                  -9.102
REMARK UNBOUND:                -6.934
REMARK SMILES CCOCCc1c(-c2ccccc2)nc(N)nc1-n1cc(COC(=O)NC[C@@H](O)C(O)[C@@H]2O[C@@](OC[C@H]3O[C@@H](O[C@H]4[C@H](O)[C@@H](O)[C@H](OCCN=[N+]=[N-])O[C@@H]4CO)[C@H](O)[C@@H](O)[C@H]3O)(C(=O)O)C[C@H](O)[C@H]2NC(C)=O)nn1
REMARK SMILES IDX 30 1 32 2 34 3 66 4 33 5 67 6 69 7 35 8 36 9 37 10 39 11
REMARK SMILES IDX 38 12 57 13 59 14 61 15 40 16 41 17 54 18 53 19 46 20 42 21
REMARK SMILES IDX 44 22 55 23 56 24 47 26 48 27 49 28 50 29 51 30 52 31 43 32
REMARK SMILES IDX 45 34 58 36 60 38 62 40 63 42 64 43 65 44 68 46 70 48 71 49
REMARK SMILES IDX 72 51 73 52 31 53 28 55 29 56 27 58 26 59 24 60 25 62 23 63
REMARK SMILES IDX 22 64 21 65 20 66 74 67 19 68 75 69 18 70 17 71 6 72 15 73
REMARK SMILES IDX 7 74 14 75 5 76 4 77 3 78 2 79 1 80 16 81 8 84 9 85 13 86
REMARK SMILES IDX 10 87 12 88 11 89
REMARK H PARENT 56 25 43 33 45 35 58 37 60 39 62 41 65 45 68 47 70 50 31 54
REMARK H PARENT 29 57 26 61 16 82 16 83
REMARK Flexibility Score: inf
ROOT
ATOM      1  C   UNL     1      14.902  29.862  16.509  1.00  0.00     0.176 C 
ENDROOT
BRANCH   1   2
ATOM      2  C   UNL     1      15.228  29.123  17.772  1.00  0.00     0.178 C 
ATOM      3  C   UNL     1      14.977  29.516  20.065  1.00  0.00     0.272 C 
ATOM      4  C   UNL     1      15.602  28.121  20.136  1.00  0.00     0.113 C 
ATOM      5  O   UNL     1      14.597  29.861  18.818  1.00  0.00    -0.332 OA
ATOM      6  C   UNL     1      16.796  27.983  19.241  1.00  0.00     0.145 C 
ATOM      7  C   UNL     1      16.668  29.022  18.141  1.00  0.00     0.142 C 
BRANCH   3   8
ATOM      8  O   UNL     1      15.859  30.383  20.672  1.00  0.00    -0.338 OA
BRANCH   8   9
ATOM      9  C   UNL     1      16.190  30.095  21.969  1.00  0.00     0.199 C 
BRANCH   9  10
ATOM     10  C   UNL     1      16.188  31.331  22.855  1.00  0.00     0.179 C 
ATOM     11  C   UNL     1      14.947  31.979  24.722  1.00  0.00     0.282 C 
ATOM     12  O   UNL     1      14.980  31.398  23.487  1.00  0.00    -0.341 OA
ATOM     13  C   UNL     1      15.911  31.174  25.602  1.00  0.00     0.202 C 
ATOM     14  C   UNL     1      17.296  31.601  25.120  1.00  0.00     0.179 C 
ATOM     15  C   UNL     1      17.418  31.551  23.637  1.00  0.00     0.177 C 
BRANCH  11  16
ATOM     16  O   UNL     1      13.662  31.979  25.213  1.00  0.00    -0.341 OA
BRANCH  16  17
ATOM     17  C   UNL     1      12.755  31.432  24.321  1.00  0.00     0.184 C 
ATOM     18  C   UNL     1      11.605  32.350  24.081  1.00  0.00     0.178 C 
ATOM     19  O   UNL     1      10.399  31.963  24.575  1.00  0.00    -0.341 OA
ATOM     20  C   UNL     1      10.009  30.670  24.424  1.00  0.00     0.281 C 
ATOM     21  C   UNL     1      12.352  30.046  24.724  1.00  0.00     0.180 C 
ATOM     22  C   UNL     1      11.060  29.682  24.042  1.00  0.00     0.202 C 
BRANCH  18  23
ATOM     23  C   UNL     1      11.523  32.784  22.617  1.00  0.00     0.191 C 
BRANCH  23  24
ATOM     24  O   UNL     1      12.783  32.941  22.066  1.00  0.00    -0.394 OA
ATOM     25  H   UNL     1      13.060  33.879  22.225  1.00  0.00     0.210 HD
ENDBRANCH  23  24
ENDBRANCH  18  23
BRANCH  20  26
ATOM     26  O   UNL     1       8.993  30.643  23.475  1.00  0.00    -0.350 OA
BRANCH  26  27
ATOM     27  C   UNL     1       7.740  30.890  23.980  1.00  0.00     0.169 C 
BRANCH  27  28
ATOM     28  C   UNL     1       7.311  29.932  25.064  1.00  0.00     0.119 C 
BRANCH  28  29
ATOM     29  N   UNL     1       6.746  28.737  24.439  1.00  0.00    -0.092 NA
ATOM     30  N   UNL     1       7.401  27.692  24.336  1.00  0.00     0.001 N 
ATOM     31  N   UNL     1       8.212  26.778  24.193  1.00  0.00    -0.003 NA
ENDBRANCH  28  29
ENDBRANCH  27  28
ENDBRANCH  26  27
ENDBRANCH  20  26
BRANCH  21  32
ATOM     32  O   UNL     1      13.309  29.089  24.375  1.00  0.00    -0.387 OA
ATOM     33  H   UNL     1      13.750  29.308  23.511  1.00  0.00     0.211 HD
ENDBRANCH  21  32
BRANCH  22  34
ATOM     34  O   UNL     1      10.676  28.426  24.510  1.00  0.00    -0.385 OA
ATOM     35  H   UNL     1       9.715  28.390  24.744  1.00  0.00     0.211 HD
ENDBRANCH  22  34
ENDBRANCH  16  17
ENDBRANCH  11  16
BRANCH  13  36
ATOM     36  O   UNL     1      15.773  31.457  26.939  1.00  0.00    -0.385 OA
ATOM     37  H   UNL     1      15.422  32.378  27.088  1.00  0.00     0.211 HD
ENDBRANCH  13  36
BRANCH  14  38
ATOM     38  O   UNL     1      18.321  30.998  25.813  1.00  0.00    -0.387 OA
ATOM     39  H   UNL     1      17.982  30.478  26.603  1.00  0.00     0.211 HD
ENDBRANCH  14  38
BRANCH  15  40
ATOM     40  O   UNL     1      18.342  30.531  23.324  1.00  0.00    -0.387 OA
ATOM     41  H   UNL     1      17.968  29.966  22.601  1.00  0.00     0.211 HD
ENDBRANCH  15  40
ENDBRANCH   9  10
ENDBRANCH   8   9
ENDBRANCH   3   8
BRANCH   3  42
ATOM     42  C   UNL     1      13.753  29.386  20.918  1.00  0.00     0.364 C 
ATOM     43  O   UNL     1      12.960  30.391  20.873  1.00  0.00    -0.246 OA
BRANCH  42  44
ATOM     44  O   UNL     1      13.441  28.314  21.704  1.00  0.00    -0.477 OA
ATOM     45  H   UNL     1      14.187  27.735  22.079  1.00  0.00     0.296 HD
ENDBRANCH  42  44
ENDBRANCH   3  42
BRANCH   6  46
ATOM     46  O   UNL     1      17.931  28.206  20.034  1.00  0.00    -0.391 OA
ATOM     47  H   UNL     1      17.695  28.397  20.963  1.00  0.00     0.211 HD
ENDBRANCH   6  46
BRANCH   7  48
ATOM     48  N   UNL     1      17.595  28.781  17.079  1.00  0.00    -0.348 N 
ATOM     49  C   UNL     1      18.897  29.345  17.023  1.00  0.00     0.217 C 
ATOM     50  H   UNL     1      17.283  28.137  16.320  1.00  0.00     0.163 HD
ATOM     51  C   UNL     1      19.772  29.025  15.878  1.00  0.00     0.114 C 
ATOM     52  O   UNL     1      19.289  30.100  17.938  1.00  0.00    -0.275 OA
ENDBRANCH   7  48
ENDBRANCH   1   2
BRANCH   1  53
ATOM     53  O   UNL     1      15.182  28.933  15.449  1.00  0.00    -0.388 OA
ATOM     54  H   UNL     1      14.674  28.124  15.670  1.00  0.00     0.211 HD
ENDBRANCH   1  53
BRANCH   1  55
ATOM     55  C   UNL     1      15.645  31.097  16.194  1.00  0.00     0.165 C 
BRANCH  55  56
ATOM     56  O   UNL     1      14.807  32.158  16.647  1.00  0.00    -0.388 OA
ATOM     57  H   UNL     1      14.723  32.082  17.619  1.00  0.00     0.211 HD
ENDBRANCH  55  56
BRANCH  55  58
ATOM     58  C   UNL     1      15.999  31.354  14.789  1.00  0.00     0.154 C 
BRANCH  58  59
ATOM     59  N   UNL     1      14.925  31.604  13.908  1.00  0.00    -0.319 N 
ATOM     60  C   UNL     1      14.540  30.798  12.821  1.00  0.00     0.407 C 
ATOM     61  H   UNL     1      14.298  32.486  14.021  1.00  0.00     0.167 HD
ATOM     62  O   UNL     1      15.140  29.743  12.522  1.00  0.00    -0.225 OA
BRANCH  60  63
ATOM     63  O   UNL     1      13.454  31.120  11.999  1.00  0.00    -0.443 OA
BRANCH  63  64
ATOM     64  C   UNL     1      12.283  30.332  11.961  1.00  0.00     0.294 C 
BRANCH  64  65
ATOM     65  C   UNL     1      11.638  30.248  13.293  1.00  0.00     0.121 A 
ATOM     66  C   UNL     1      11.625  31.210  14.269  1.00  0.00     0.146 A 
ATOM     67  N   UNL     1      10.957  29.204  13.818  1.00  0.00    -0.131 NA
ATOM     68  N   UNL     1      10.937  30.732  15.373  1.00  0.00    -0.202 N 
ATOM     69  N   UNL     1      10.568  29.533  15.035  1.00  0.00    -0.060 NA
BRANCH  68  70
ATOM     70  C   UNL     1      10.819  31.552  16.508  1.00  0.00     0.164 A 
ATOM     71  N   UNL     1      11.900  31.703  17.315  1.00  0.00    -0.193 NA
ATOM     72  C   UNL     1       9.676  32.299  16.831  1.00  0.00     0.026 A 
ATOM     73  C   UNL     1      11.923  32.513  18.374  1.00  0.00     0.222 A 
ATOM     74  C   UNL     1       9.679  33.136  17.905  1.00  0.00     0.081 A 
ATOM     75  N   UNL     1      10.826  33.217  18.659  1.00  0.00    -0.213 NA
BRANCH  72  76
ATOM     76  C   UNL     1       8.486  32.024  16.017  1.00  0.00     0.070 C 
BRANCH  76  77
ATOM     77  C   UNL     1       7.676  30.832  16.482  1.00  0.00     0.165 C 
BRANCH  77  78
ATOM     78  O   UNL     1       7.360  30.776  17.805  1.00  0.00    -0.381 OA
BRANCH  78  79
ATOM     79  C   UNL     1       6.052  30.607  18.147  1.00  0.00     0.156 C 
ATOM     80  C   UNL     1       5.918  29.914  19.514  1.00  0.00     0.035 C 
ENDBRANCH  78  79
ENDBRANCH  77  78
ENDBRANCH  76  77
ENDBRANCH  72  76
BRANCH  73  81
ATOM     81  N   UNL     1      13.088  32.634  19.196  1.00  0.00    -0.368 N 
ATOM     82  H   UNL     1      13.220  32.005  20.014  1.00  0.00     0.159 HD
ATOM     83  H   UNL     1      13.830  33.332  19.017  1.00  0.00     0.159 HD
ENDBRANCH  73  81
BRANCH  74  84
ATOM     84  C   UNL     1       8.552  33.958  18.289  1.00  0.00     0.001 A 
ATOM     85  C   UNL     1       8.227  35.040  17.475  1.00  0.00     0.010 A 
ATOM     86  C   UNL     1       7.783  33.690  19.407  1.00  0.00     0.010 A 
ATOM     87  C   UNL     1       7.143  35.859  17.763  1.00  0.00     0.001 A 
ATOM     88  C   UNL     1       6.715  34.514  19.674  1.00  0.00     0.001 A 
ATOM     89  C   UNL     1       6.386  35.582  18.877  1.00  0.00     0.000 A 
ENDBRANCH  74  84
ENDBRANCH  68  70
ENDBRANCH  64  65
ENDBRANCH  63  64
ENDBRANCH  60  63
ENDBRANCH  58  59
ENDBRANCH  55  58
ENDBRANCH   1  55
TORSDOF 36
