REMARK VINA RESULT:    -5.870     19.866     25.841
REMARK INTER + INTRA:         -21.920
REMARK INTER:                 -14.402
REMARK INTRA:                  -7.518
REMARK UNBOUND:                -6.784
REMARK SMILES COc1ccc(Cn2cc(COC(=O)NC[C@@H](O)C(O)[C@@H]3O[C@@](OC[C@H]4O[C@@H](O[C@H]5[C@H](O)[C@@H](O)[C@H](OCCN=[N+]=[N-])O[C@@H]5CO)[C@H](O)[C@@H](O)[C@H]4O)(C(=O)O)C[C@H](O)[C@H]3NC(C)=O)nn2)cc1
REMARK SMILES IDX 23 1 55 2 56 3 58 4 21 5 22 6 24 7 25 8 26 9 28 10 27 11
REMARK SMILES IDX 46 12 48 13 50 14 29 15 30 16 43 17 42 18 35 19 31 20 33 21
REMARK SMILES IDX 44 22 45 23 36 25 37 26 38 27 39 28 40 29 41 30 32 31 34 33
REMARK SMILES IDX 47 35 49 37 51 39 52 41 53 42 54 43 57 45 19 47 20 48 17 50
REMARK SMILES IDX 18 51 16 53 15 54 13 55 14 57 12 58 11 59 10 60 9 61 63 62
REMARK SMILES IDX 8 63 64 64 7 65 6 66 5 67 65 68 4 69 66 70 3 71 2 72 1 73
REMARK SMILES IDX 59 74 60 75 61 77 62 78
REMARK H PARENT 45 24 32 32 34 34 47 36 49 38 51 40 54 44 57 46 20 49 18 52
REMARK H PARENT 15 56 59 76
REMARK Flexibility Score: inf
ROOT
ATOM      1  C   UNL     1       5.246  23.127  32.906  1.00  0.00     0.272 C 
ATOM      2  C   UNL     1       4.854  23.243  34.364  1.00  0.00     0.113 C 
ATOM      3  C   UNL     1       5.687  24.317  35.036  1.00  0.00     0.145 C 
ATOM      4  C   UNL     1       5.786  25.587  34.243  1.00  0.00     0.142 C 
ATOM      5  C   UNL     1       5.112  25.503  32.884  1.00  0.00     0.178 C 
ATOM      6  O   UNL     1       5.350  24.293  32.262  1.00  0.00    -0.332 OA
ENDROOT
BRANCH   1   7
ATOM      7  O   UNL     1       4.611  22.105  32.287  1.00  0.00    -0.338 OA
BRANCH   7   8
ATOM      8  C   UNL     1       3.328  21.788  32.499  1.00  0.00     0.199 C 
BRANCH   8   9
ATOM      9  C   UNL     1       2.487  21.830  31.242  1.00  0.00     0.179 C 
ATOM     10  C   UNL     1       1.408  23.377  29.967  1.00  0.00     0.282 C 
ATOM     11  O   UNL     1       2.629  23.102  30.620  1.00  0.00    -0.341 OA
ATOM     12  C   UNL     1       0.867  22.179  29.277  1.00  0.00     0.202 C 
ATOM     13  C   UNL     1       1.801  21.032  29.082  1.00  0.00     0.179 C 
ATOM     14  C   UNL     1       2.805  20.827  30.198  1.00  0.00     0.177 C 
BRANCH  10  15
ATOM     15  O   UNL     1       1.454  24.546  29.263  1.00  0.00    -0.341 OA
BRANCH  15  16
ATOM     16  C   UNL     1       1.159  24.477  27.918  1.00  0.00     0.184 C 
ATOM     17  C   UNL     1       2.211  25.056  27.004  1.00  0.00     0.178 C 
ATOM     18  O   UNL     1       1.637  25.540  25.829  1.00  0.00    -0.341 OA
ATOM     19  C   UNL     1       0.502  24.809  25.435  1.00  0.00     0.281 C 
ATOM     20  C   UNL     1      -0.034  25.431  27.720  1.00  0.00     0.180 C 
ATOM     21  C   UNL     1      -0.666  25.050  26.410  1.00  0.00     0.202 C 
BRANCH  17  22
ATOM     22  C   UNL     1       3.293  24.104  26.602  1.00  0.00     0.191 C 
BRANCH  22  23
ATOM     23  O   UNL     1       3.806  23.481  27.737  1.00  0.00    -0.394 OA
ATOM     24  H   UNL     1       3.700  22.496  27.605  1.00  0.00     0.210 HD
ENDBRANCH  22  23
ENDBRANCH  17  22
BRANCH  19  25
ATOM     25  O   UNL     1       0.721  23.482  25.255  1.00  0.00    -0.350 OA
BRANCH  25  26
ATOM     26  C   UNL     1      -0.060  22.787  24.383  1.00  0.00     0.169 C 
BRANCH  26  27
ATOM     27  C   UNL     1      -0.106  21.311  24.514  1.00  0.00     0.119 C 
BRANCH  27  28
ATOM     28  N   UNL     1       0.217  20.817  25.808  1.00  0.00    -0.092 NA
ATOM     29  N   UNL     1      -0.533  20.113  26.499  1.00  0.00     0.001 N 
ATOM     30  N   UNL     1      -0.981  19.095  27.075  1.00  0.00    -0.003 NA
ENDBRANCH  27  28
ENDBRANCH  26  27
ENDBRANCH  25  26
ENDBRANCH  19  25
BRANCH  20  31
ATOM     31  O   UNL     1      -0.885  25.431  28.790  1.00  0.00    -0.387 OA
ATOM     32  H   UNL     1      -0.744  26.232  29.389  1.00  0.00     0.211 HD
ENDBRANCH  20  31
BRANCH  21  33
ATOM     33  O   UNL     1      -1.522  26.047  25.944  1.00  0.00    -0.385 OA
ATOM     34  H   UNL     1      -2.329  26.075  26.523  1.00  0.00     0.211 HD
ENDBRANCH  21  33
ENDBRANCH  15  16
ENDBRANCH  10  15
BRANCH  12  35
ATOM     35  O   UNL     1      -0.340  21.726  29.869  1.00  0.00    -0.385 OA
ATOM     36  H   UNL     1      -0.542  22.292  30.675  1.00  0.00     0.211 HD
ENDBRANCH  12  35
BRANCH  13  37
ATOM     37  O   UNL     1       2.449  21.093  27.825  1.00  0.00    -0.387 OA
ATOM     38  H   UNL     1       2.449  20.180  27.440  1.00  0.00     0.211 HD
ENDBRANCH  13  37
BRANCH  14  39
ATOM     39  O   UNL     1       4.114  20.909  29.734  1.00  0.00    -0.387 OA
ATOM     40  H   UNL     1       4.250  20.393  28.902  1.00  0.00     0.211 HD
ENDBRANCH  14  39
ENDBRANCH   8   9
ENDBRANCH   7   8
ENDBRANCH   1   7
BRANCH   1  41
ATOM     41  C   UNL     1       6.673  22.496  33.018  1.00  0.00     0.364 C 
ATOM     42  O   UNL     1       6.794  21.255  33.098  1.00  0.00    -0.246 OA
BRANCH  41  43
ATOM     43  O   UNL     1       7.805  23.236  33.032  1.00  0.00    -0.477 OA
ATOM     44  H   UNL     1       8.658  23.070  33.506  1.00  0.00     0.296 HD
ENDBRANCH  41  43
ENDBRANCH   1  41
BRANCH   3  45
ATOM     45  O   UNL     1       4.992  24.565  36.256  1.00  0.00    -0.391 OA
ATOM     46  H   UNL     1       4.136  25.030  36.072  1.00  0.00     0.211 HD
ENDBRANCH   3  45
BRANCH   5  47
ATOM     47  C   UNL     1       3.708  25.938  33.053  1.00  0.00     0.176 C 
BRANCH  47  48
ATOM     48  O   UNL     1       2.860  25.570  31.968  1.00  0.00    -0.388 OA
ATOM     49  H   UNL     1       3.068  24.640  31.735  1.00  0.00     0.211 HD
ENDBRANCH  47  48
BRANCH  47  50
ATOM     50  C   UNL     1       3.515  27.479  32.947  1.00  0.00     0.165 C 
BRANCH  50  51
ATOM     51  O   UNL     1       3.476  28.181  34.085  1.00  0.00    -0.388 OA
ATOM     52  H   UNL     1       2.979  27.697  34.791  1.00  0.00     0.211 HD
ENDBRANCH  50  51
BRANCH  50  53
ATOM     53  C   UNL     1       2.235  27.695  32.110  1.00  0.00     0.154 C 
BRANCH  53  54
ATOM     54  N   UNL     1       2.501  28.249  30.823  1.00  0.00    -0.319 N 
ATOM     55  C   UNL     1       2.851  29.633  30.708  1.00  0.00     0.407 C 
ATOM     56  H   UNL     1       2.446  27.680  29.972  1.00  0.00     0.167 HD
ATOM     57  O   UNL     1       2.921  30.338  31.753  1.00  0.00    -0.225 OA
BRANCH  55  58
ATOM     58  O   UNL     1       3.102  30.143  29.447  1.00  0.00    -0.443 OA
BRANCH  58  59
ATOM     59  C   UNL     1       2.573  29.464  28.292  1.00  0.00     0.294 C 
BRANCH  59  60
ATOM     60  C   UNL     1       3.618  28.553  27.778  1.00  0.00     0.120 A 
ATOM     61  C   UNL     1       3.906  28.275  26.438  1.00  0.00     0.138 A 
ATOM     62  N   UNL     1       4.477  27.814  28.489  1.00  0.00    -0.132 NA
ATOM     63  N   UNL     1       4.911  27.392  26.424  1.00  0.00    -0.248 N 
ATOM     64  N   UNL     1       5.248  27.121  27.676  1.00  0.00    -0.067 NA
BRANCH  63  65
ATOM     65  C   UNL     1       5.524  26.826  25.249  1.00  0.00     0.181 C 
BRANCH  65  66
ATOM     66  C   UNL     1       6.903  27.348  25.124  1.00  0.00    -0.026 A 
ATOM     67  C   UNL     1       7.982  26.522  25.428  1.00  0.00     0.009 A 
ATOM     68  C   UNL     1       7.182  28.621  24.702  1.00  0.00     0.009 A 
ATOM     69  C   UNL     1       9.287  26.951  25.314  1.00  0.00     0.047 A 
ATOM     70  C   UNL     1       8.507  29.055  24.587  1.00  0.00     0.047 A 
ATOM     71  C   UNL     1       9.565  28.241  24.886  1.00  0.00     0.118 A 
BRANCH  71  72
ATOM     72  O   UNL     1      10.889  28.623  24.787  1.00  0.00    -0.497 OA
ATOM     73  C   UNL     1      11.341  29.795  24.175  1.00  0.00     0.278 C 
ENDBRANCH  71  72
ENDBRANCH  65  66
ENDBRANCH  63  65
ENDBRANCH  59  60
ENDBRANCH  58  59
ENDBRANCH  55  58
ENDBRANCH  53  54
ENDBRANCH  50  53
ENDBRANCH  47  50
ENDBRANCH   5  47
BRANCH   4  74
ATOM     74  N   UNL     1       7.114  26.155  34.157  1.00  0.00    -0.348 N 
ATOM     75  C   UNL     1       7.397  27.549  34.145  1.00  0.00     0.217 C 
ATOM     76  H   UNL     1       7.922  25.521  34.083  1.00  0.00     0.163 HD
ATOM     77  C   UNL     1       8.828  28.030  34.046  1.00  0.00     0.114 C 
ATOM     78  O   UNL     1       6.459  28.377  34.218  1.00  0.00    -0.275 OA
ENDBRANCH   4  74
TORSDOF 32
