REMARK VINA RESULT:    -6.803      7.382     13.905
REMARK INTER + INTRA:         -22.892
REMARK INTER:                 -16.309
REMARK INTRA:                  -6.583
REMARK UNBOUND:                -5.152
REMARK SMILES CC(=O)N[C@@H]1[C@@H](O)C[C@](OC[C@H]2O[C@@H](O[C@H]3[C@H](O)[C@@H](O)[C@H](OCCN=[N+]=[N-])O[C@@H]3CO)[C@H](O)[C@@H](O)[C@H]2O)(C(=O)O)O[C@H]1C(O)[C@H](O)CNC(=O)OCc1cn(CC(O)c2ccccc2)nn1
REMARK SMILES IDX 9 1 8 2 6 3 5 4 42 5 41 6 10 7 11 8 12 9 14 10 13 11 32 12
REMARK SMILES IDX 34 13 36 14 15 15 16 16 29 17 28 18 21 19 17 20 19 21 30 22
REMARK SMILES IDX 31 23 22 25 23 26 24 27 25 28 26 29 27 30 18 31 20 33 33 35
REMARK SMILES IDX 35 37 37 39 38 41 39 42 40 43 7 45 43 47 44 48 45 50 46 51
REMARK SMILES IDX 47 53 48 54 49 55 50 57 51 58 52 59 53 60 54 61 66 62 55 63
REMARK SMILES IDX 65 64 56 65 57 66 58 67 59 69 60 70 64 71 61 72 63 73 62 74
REMARK SMILES IDX 4 75 2 76 1 78 3 79
REMARK H PARENT 31 24 18 32 20 34 33 36 35 38 37 40 40 44 7 46 44 49 46 52
REMARK H PARENT 48 56 58 68 4 77
REMARK Flexibility Score: inf
ROOT
ATOM      1  C   UNL     1      15.386  29.476  20.471  1.00  0.00     0.272 C 
ATOM      2  C   UNL     1      14.259  28.841  21.195  1.00  0.00     0.113 C 
ATOM      3  C   UNL     1      13.631  29.631  22.288  1.00  0.00     0.145 C 
ATOM      4  C   UNL     1      14.526  30.775  22.644  1.00  0.00     0.142 C 
ATOM      5  C   UNL     1      15.957  30.271  22.591  1.00  0.00     0.178 C 
ATOM      6  O   UNL     1      16.387  29.881  21.361  1.00  0.00    -0.332 OA
ENDROOT
BRANCH   1   7
ATOM      7  O   UNL     1      15.106  30.548  19.678  1.00  0.00    -0.338 OA
BRANCH   7   8
ATOM      8  C   UNL     1      16.140  31.323  19.253  1.00  0.00     0.199 C 
BRANCH   8   9
ATOM      9  C   UNL     1      15.910  31.825  17.846  1.00  0.00     0.179 C 
ATOM     10  C   UNL     1      14.162  32.016  16.363  1.00  0.00     0.282 C 
ATOM     11  O   UNL     1      14.792  31.233  17.293  1.00  0.00    -0.341 OA
ATOM     12  C   UNL     1      13.579  33.304  16.903  1.00  0.00     0.202 C 
ATOM     13  C   UNL     1      14.481  33.793  18.014  1.00  0.00     0.179 C 
ATOM     14  C   UNL     1      15.881  33.309  17.696  1.00  0.00     0.177 C 
BRANCH  10  15
ATOM     15  O   UNL     1      13.097  31.356  15.760  1.00  0.00    -0.341 OA
BRANCH  15  16
ATOM     16  C   UNL     1      13.253  30.006  15.600  1.00  0.00     0.184 C 
ATOM     17  C   UNL     1      14.031  29.807  14.304  1.00  0.00     0.178 C 
ATOM     18  O   UNL     1      13.189  29.475  13.262  1.00  0.00    -0.341 OA
ATOM     19  C   UNL     1      12.139  30.411  13.244  1.00  0.00     0.281 C 
ATOM     20  C   UNL     1      11.855  29.409  15.506  1.00  0.00     0.180 C 
ATOM     21  C   UNL     1      11.126  29.947  14.285  1.00  0.00     0.202 C 
BRANCH  17  22
ATOM     22  C   UNL     1      15.134  28.779  14.489  1.00  0.00     0.191 C 
BRANCH  22  23
ATOM     23  O   UNL     1      15.610  28.776  15.797  1.00  0.00    -0.394 OA
ATOM     24  H   UNL     1      15.334  29.590  16.296  1.00  0.00     0.210 HD
ENDBRANCH  22  23
ENDBRANCH  17  22
BRANCH  19  25
ATOM     25  O   UNL     1      11.632  30.413  11.968  1.00  0.00    -0.350 OA
BRANCH  25  26
ATOM     26  C   UNL     1      12.509  30.033  10.981  1.00  0.00     0.169 C 
BRANCH  26  27
ATOM     27  C   UNL     1      11.973  28.986  10.045  1.00  0.00     0.119 C 
BRANCH  27  28
ATOM     28  N   UNL     1      11.813  27.714  10.759  1.00  0.00    -0.092 NA
ATOM     29  N   UNL     1      10.699  27.553  11.281  1.00  0.00     0.001 N 
ATOM     30  N   UNL     1       9.644  27.106  11.733  1.00  0.00    -0.003 NA
ENDBRANCH  27  28
ENDBRANCH  26  27
ENDBRANCH  25  26
ENDBRANCH  19  25
BRANCH  20  31
ATOM     31  O   UNL     1      11.927  28.024  15.455  1.00  0.00    -0.387 OA
ATOM     32  H   UNL     1      12.063  27.729  14.510  1.00  0.00     0.211 HD
ENDBRANCH  20  31
BRANCH  21  33
ATOM     33  O   UNL     1      10.234  30.943  14.638  1.00  0.00    -0.385 OA
ATOM     34  H   UNL     1      10.284  31.651  13.950  1.00  0.00     0.211 HD
ENDBRANCH  21  33
ENDBRANCH  15  16
ENDBRANCH  10  15
BRANCH  12  35
ATOM     35  O   UNL     1      13.563  34.251  15.873  1.00  0.00    -0.385 OA
ATOM     36  H   UNL     1      13.784  35.132  16.282  1.00  0.00     0.211 HD
ENDBRANCH  12  35
BRANCH  13  37
ATOM     37  O   UNL     1      14.004  33.213  19.186  1.00  0.00    -0.387 OA
ATOM     38  H   UNL     1      13.974  33.817  19.948  1.00  0.00     0.211 HD
ENDBRANCH  13  37
BRANCH  14  39
ATOM     39  O   UNL     1      16.873  33.963  18.387  1.00  0.00    -0.387 OA
ATOM     40  H   UNL     1      16.567  34.791  18.841  1.00  0.00     0.211 HD
ENDBRANCH  14  39
ENDBRANCH   8   9
ENDBRANCH   7   8
ENDBRANCH   1   7
BRANCH   1  41
ATOM     41  C   UNL     1      16.042  28.356  19.679  1.00  0.00     0.364 C 
ATOM     42  O   UNL     1      15.956  28.339  18.462  1.00  0.00    -0.246 OA
BRANCH  41  43
ATOM     43  O   UNL     1      16.714  27.401  20.421  1.00  0.00    -0.477 OA
ATOM     44  H   UNL     1      17.652  27.617  20.687  1.00  0.00     0.296 HD
ENDBRANCH  41  43
ENDBRANCH   1  41
BRANCH   3  45
ATOM     45  O   UNL     1      12.328  30.021  21.971  1.00  0.00    -0.391 OA
ATOM     46  H   UNL     1      12.315  31.015  22.049  1.00  0.00     0.211 HD
ENDBRANCH   3  45
BRANCH   5  47
ATOM     47  C   UNL     1      16.796  31.337  23.249  1.00  0.00     0.176 C 
BRANCH  47  48
ATOM     48  O   UNL     1      16.836  32.456  22.404  1.00  0.00    -0.388 OA
ATOM     49  H   UNL     1      16.869  32.105  21.471  1.00  0.00     0.211 HD
ENDBRANCH  47  48
BRANCH  47  50
ATOM     50  C   UNL     1      18.161  30.851  23.608  1.00  0.00     0.165 C 
BRANCH  50  51
ATOM     51  O   UNL     1      18.304  30.609  24.948  1.00  0.00    -0.388 OA
ATOM     52  H   UNL     1      18.307  29.673  25.202  1.00  0.00     0.211 HD
ENDBRANCH  50  51
BRANCH  50  53
ATOM     53  C   UNL     1      19.289  31.610  22.959  1.00  0.00     0.154 C 
BRANCH  53  54
ATOM     54  N   UNL     1      19.820  31.030  21.761  1.00  0.00    -0.319 N 
ATOM     55  C   UNL     1      19.632  31.560  20.451  1.00  0.00     0.407 C 
ATOM     56  H   UNL     1      20.409  30.139  21.829  1.00  0.00     0.167 HD
ATOM     57  O   UNL     1      18.978  32.602  20.274  1.00  0.00    -0.225 OA
BRANCH  55  58
ATOM     58  O   UNL     1      20.169  30.936  19.346  1.00  0.00    -0.443 OA
BRANCH  58  59
ATOM     59  C   UNL     1      19.686  29.694  18.835  1.00  0.00     0.294 C 
BRANCH  59  60
ATOM     60  C   UNL     1      20.213  28.572  19.676  1.00  0.00     0.120 A 
ATOM     61  C   UNL     1      21.339  27.807  19.514  1.00  0.00     0.138 A 
ATOM     62  N   UNL     1      19.612  28.136  20.804  1.00  0.00    -0.132 NA
ATOM     63  N   UNL     1      21.412  26.915  20.547  1.00  0.00    -0.249 N 
ATOM     64  N   UNL     1      20.351  27.165  21.280  1.00  0.00    -0.067 NA
BRANCH  63  65
ATOM     65  C   UNL     1      22.461  25.927  20.746  1.00  0.00     0.182 C 
BRANCH  65  66
ATOM     66  C   UNL     1      21.929  24.763  21.562  1.00  0.00     0.166 C 
BRANCH  66  67
ATOM     67  O   UNL     1      22.307  23.611  20.831  1.00  0.00    -0.386 OA
ATOM     68  H   UNL     1      23.271  23.413  20.992  1.00  0.00     0.211 HD
ENDBRANCH  66  67
BRANCH  66  69
ATOM     69  C   UNL     1      22.458  24.694  22.927  1.00  0.00    -0.018 A 
ATOM     70  C   UNL     1      21.664  24.688  24.033  1.00  0.00     0.006 A 
ATOM     71  C   UNL     1      23.856  24.650  23.031  1.00  0.00     0.006 A 
ATOM     72  C   UNL     1      22.270  24.637  25.279  1.00  0.00     0.000 A 
ATOM     73  C   UNL     1      24.429  24.601  24.273  1.00  0.00     0.000 A 
ATOM     74  C   UNL     1      23.638  24.595  25.405  1.00  0.00     0.000 A 
ENDBRANCH  66  69
ENDBRANCH  65  66
ENDBRANCH  63  65
ENDBRANCH  59  60
ENDBRANCH  58  59
ENDBRANCH  55  58
ENDBRANCH  53  54
ENDBRANCH  50  53
ENDBRANCH  47  50
ENDBRANCH   5  47
BRANCH   4  75
ATOM     75  N   UNL     1      14.317  31.165  24.047  1.00  0.00    -0.348 N 
ATOM     76  C   UNL     1      13.358  32.137  24.430  1.00  0.00     0.217 C 
ATOM     77  H   UNL     1      14.885  30.725  24.803  1.00  0.00     0.163 HD
ATOM     78  C   UNL     1      13.119  32.556  25.835  1.00  0.00     0.114 C 
ATOM     79  O   UNL     1      12.667  32.673  23.521  1.00  0.00    -0.275 OA
ENDBRANCH   4  75
TORSDOF 33
