REMARK VINA RESULT:    -5.434      8.938     13.077
REMARK INTER + INTRA:         -20.921
REMARK INTER:                 -14.331
REMARK INTRA:                  -6.590
REMARK UNBOUND:                -7.546
REMARK SMILES CC(=O)N[C@@H]1[C@@H](O)C[C@](OC[C@H]2O[C@@H](O[C@H]3[C@H](O)[C@@H](O)[C@H](OCCN=[N+]=[N-])O[C@@H]3CO)[C@H](O)[C@@H](O)[C@H]2O)(C(=O)O)O[C@H]1C(O)[C@H](O)CNC(=O)OCc1cn(-c2ccc3[nH]ncc3c2)nn1
REMARK SMILES IDX 9 1 8 2 6 3 5 4 42 5 41 6 10 7 11 8 12 9 14 10 13 11 32 12
REMARK SMILES IDX 34 13 36 14 15 15 16 16 29 17 28 18 21 19 17 20 19 21 30 22
REMARK SMILES IDX 31 23 22 25 23 26 24 27 25 28 26 29 27 30 18 31 20 33 33 35
REMARK SMILES IDX 35 37 37 39 38 41 39 42 40 43 7 45 43 47 44 48 45 50 46 51
REMARK SMILES IDX 47 53 48 54 49 55 50 57 51 58 52 59 53 60 54 61 66 62 55 63
REMARK SMILES IDX 65 64 56 65 57 66 64 67 58 68 63 69 59 70 62 71 60 72 61 73
REMARK SMILES IDX 4 75 2 76 1 78 3 79
REMARK H PARENT 31 24 18 32 20 34 33 36 35 38 37 40 40 44 7 46 44 49 46 52
REMARK H PARENT 48 56 60 74 4 77
REMARK Flexibility Score: inf
ROOT
ATOM      1  C   UNL     1      22.444  22.522   9.364  1.00  0.00     0.272 C 
ATOM      2  C   UNL     1      22.057  23.414   8.241  1.00  0.00     0.113 C 
ATOM      3  C   UNL     1      21.589  24.791   8.639  1.00  0.00     0.145 C 
ATOM      4  C   UNL     1      22.783  25.396   9.424  1.00  0.00     0.142 C 
ATOM      5  C   UNL     1      23.054  24.431  10.512  1.00  0.00     0.178 C 
ATOM      6  O   UNL     1      23.366  23.156  10.193  1.00  0.00    -0.332 OA
ENDROOT
BRANCH   1   7
ATOM      7  O   UNL     1      23.059  21.373   8.821  1.00  0.00    -0.338 OA
BRANCH   7   8
ATOM      8  C   UNL     1      22.391  20.780   7.801  1.00  0.00     0.199 C 
BRANCH   8   9
ATOM      9  C   UNL     1      22.377  19.241   7.937  1.00  0.00     0.179 C 
ATOM     10  C   UNL     1      21.299  18.010   9.577  1.00  0.00     0.282 C 
ATOM     11  O   UNL     1      22.368  18.861   9.245  1.00  0.00    -0.341 OA
ATOM     12  C   UNL     1      20.049  18.797   9.350  1.00  0.00     0.202 C 
ATOM     13  C   UNL     1      19.897  18.937   7.828  1.00  0.00     0.179 C 
ATOM     14  C   UNL     1      21.212  18.683   7.142  1.00  0.00     0.177 C 
BRANCH  10  15
ATOM     15  O   UNL     1      21.475  17.529  10.862  1.00  0.00    -0.341 OA
BRANCH  15  16
ATOM     16  C   UNL     1      22.496  18.233  11.488  1.00  0.00     0.184 C 
ATOM     17  C   UNL     1      23.705  17.415  11.826  1.00  0.00     0.178 C 
ATOM     18  O   UNL     1      24.683  18.177  12.344  1.00  0.00    -0.341 OA
ATOM     19  C   UNL     1      24.428  19.406  12.865  1.00  0.00     0.281 C 
ATOM     20  C   UNL     1      22.007  18.723  12.864  1.00  0.00     0.180 C 
ATOM     21  C   UNL     1      23.056  19.635  13.399  1.00  0.00     0.202 C 
BRANCH  17  22
ATOM     22  C   UNL     1      24.256  16.609  10.668  1.00  0.00     0.191 C 
BRANCH  22  23
ATOM     23  O   UNL     1      23.570  15.421  10.488  1.00  0.00    -0.394 OA
ATOM     24  H   UNL     1      23.949  14.786  11.168  1.00  0.00     0.210 HD
ENDBRANCH  22  23
ENDBRANCH  17  22
BRANCH  19  25
ATOM     25  O   UNL     1      24.739  20.336  11.904  1.00  0.00    -0.350 OA
BRANCH  25  26
ATOM     26  C   UNL     1      26.016  20.370  11.463  1.00  0.00     0.169 C 
BRANCH  26  27
ATOM     27  C   UNL     1      26.174  20.113   9.998  1.00  0.00     0.119 C 
BRANCH  27  28
ATOM     28  N   UNL     1      27.214  19.196   9.640  1.00  0.00    -0.092 NA
ATOM     29  N   UNL     1      27.445  18.164  10.239  1.00  0.00     0.001 N 
ATOM     30  N   UNL     1      27.916  17.317  11.031  1.00  0.00    -0.003 NA
ENDBRANCH  27  28
ENDBRANCH  26  27
ENDBRANCH  25  26
ENDBRANCH  19  25
BRANCH  20  31
ATOM     31  O   UNL     1      20.776  19.317  12.787  1.00  0.00    -0.387 OA
ATOM     32  H   UNL     1      20.538  19.853  13.587  1.00  0.00     0.211 HD
ENDBRANCH  20  31
BRANCH  21  33
ATOM     33  O   UNL     1      23.029  19.524  14.802  1.00  0.00    -0.385 OA
ATOM     34  H   UNL     1      22.103  19.419  15.139  1.00  0.00     0.211 HD
ENDBRANCH  21  33
ENDBRANCH  15  16
ENDBRANCH  10  15
BRANCH  12  35
ATOM     35  O   UNL     1      18.907  18.289   9.915  1.00  0.00    -0.385 OA
ATOM     36  H   UNL     1      18.773  17.319   9.686  1.00  0.00     0.211 HD
ENDBRANCH  12  35
BRANCH  13  37
ATOM     37  O   UNL     1      19.287  20.123   7.478  1.00  0.00    -0.387 OA
ATOM     38  H   UNL     1      18.322  20.044   7.743  1.00  0.00     0.211 HD
ENDBRANCH  13  37
BRANCH  14  39
ATOM     39  O   UNL     1      21.168  19.400   5.919  1.00  0.00    -0.387 OA
ATOM     40  H   UNL     1      21.857  19.121   5.297  1.00  0.00     0.211 HD
ENDBRANCH  14  39
ENDBRANCH   8   9
ENDBRANCH   7   8
ENDBRANCH   1   7
BRANCH   1  41
ATOM     41  C   UNL     1      21.319  22.125  10.253  1.00  0.00     0.364 C 
ATOM     42  O   UNL     1      21.613  21.866  11.467  1.00  0.00    -0.246 OA
BRANCH  41  43
ATOM     43  O   UNL     1      20.006  22.005   9.920  1.00  0.00    -0.477 OA
ATOM     44  H   UNL     1      19.681  21.633   9.027  1.00  0.00     0.296 HD
ENDBRANCH  41  43
ENDBRANCH   1  41
BRANCH   3  45
ATOM     45  O   UNL     1      21.359  25.521   7.489  1.00  0.00    -0.391 OA
ATOM     46  H   UNL     1      20.926  24.965   6.773  1.00  0.00     0.211 HD
ENDBRANCH   3  45
BRANCH   5  47
ATOM     47  C   UNL     1      23.926  25.027  11.577  1.00  0.00     0.176 C 
BRANCH  47  48
ATOM     48  O   UNL     1      22.984  25.467  12.578  1.00  0.00    -0.388 OA
ATOM     49  H   UNL     1      22.153  25.762  12.156  1.00  0.00     0.211 HD
ENDBRANCH  47  48
BRANCH  47  50
ATOM     50  C   UNL     1      24.823  24.058  12.307  1.00  0.00     0.165 C 
BRANCH  50  51
ATOM     51  O   UNL     1      23.941  23.097  12.877  1.00  0.00    -0.388 OA
ATOM     52  H   UNL     1      24.388  22.526  13.526  1.00  0.00     0.211 HD
ENDBRANCH  50  51
BRANCH  50  53
ATOM     53  C   UNL     1      25.659  24.634  13.385  1.00  0.00     0.154 C 
BRANCH  53  54
ATOM     54  N   UNL     1      25.002  25.193  14.513  1.00  0.00    -0.319 N 
ATOM     55  C   UNL     1      24.565  24.516  15.676  1.00  0.00     0.407 C 
ATOM     56  H   UNL     1      24.798  26.244  14.518  1.00  0.00     0.167 HD
ATOM     57  O   UNL     1      24.746  23.303  15.821  1.00  0.00    -0.225 OA
BRANCH  55  58
ATOM     58  O   UNL     1      23.919  25.219  16.688  1.00  0.00    -0.443 OA
BRANCH  58  59
ATOM     59  C   UNL     1      23.010  24.686  17.602  1.00  0.00     0.294 C 
BRANCH  59  60
ATOM     60  C   UNL     1      23.476  24.654  18.995  1.00  0.00     0.121 A 
ATOM     61  C   UNL     1      22.688  24.667  20.124  1.00  0.00     0.144 A 
ATOM     62  N   UNL     1      24.761  24.616  19.406  1.00  0.00    -0.131 NA
ATOM     63  N   UNL     1      23.533  24.638  21.156  1.00  0.00    -0.220 N 
ATOM     64  N   UNL     1      24.773  24.606  20.704  1.00  0.00    -0.062 NA
BRANCH  63  65
ATOM     65  C   UNL     1      23.141  24.642  22.529  1.00  0.00     0.067 A 
ATOM     66  C   UNL     1      21.812  24.679  22.887  1.00  0.00     0.030 A 
ATOM     67  C   UNL     1      24.092  24.613  23.523  1.00  0.00     0.040 A 
ATOM     68  C   UNL     1      21.436  24.687  24.208  1.00  0.00     0.030 A 
ATOM     69  C   UNL     1      23.693  24.621  24.858  1.00  0.00     0.022 A 
ATOM     70  C   UNL     1      22.362  24.659  25.233  1.00  0.00     0.065 A 
ATOM     71  C   UNL     1      24.443  24.595  26.011  1.00  0.00     0.143 A 
ATOM     72  N   UNL     1      22.316  24.655  26.577  1.00  0.00    -0.278 N 
ATOM     73  N   UNL     1      23.552  24.617  27.017  1.00  0.00    -0.183 NA
ATOM     74  H   UNL     1      21.431  24.680  27.141  1.00  0.00     0.190 HD
ENDBRANCH  63  65
ENDBRANCH  59  60
ENDBRANCH  58  59
ENDBRANCH  55  58
ENDBRANCH  53  54
ENDBRANCH  50  53
ENDBRANCH  47  50
ENDBRANCH   5  47
BRANCH   4  75
ATOM     75  N   UNL     1      22.196  26.613   9.995  1.00  0.00    -0.348 N 
ATOM     76  C   UNL     1      22.505  27.849   9.421  1.00  0.00     0.217 C 
ATOM     77  H   UNL     1      21.562  26.584  10.811  1.00  0.00     0.163 HD
ATOM     78  C   UNL     1      21.951  29.140   9.948  1.00  0.00     0.114 C 
ATOM     79  O   UNL     1      23.280  27.894   8.410  1.00  0.00    -0.275 OA
ENDBRANCH   4  75
TORSDOF 30
