REMARK VINA RESULT:    -7.018     15.048     19.386
REMARK INTER + INTRA:         -22.867
REMARK INTER:                 -16.304
REMARK INTRA:                  -6.563
REMARK UNBOUND:                -5.593
REMARK SMILES CC(=O)N[C@@H]1[C@@H](O)C[C@](OC[C@H]2O[C@@H](O[C@H]3[C@H](O)[C@@H](O)[C@H](OCCN=[N+]=[N-])O[C@@H]3CO)[C@H](O)[C@@H](O)[C@H]2O)(C(=O)O)O[C@H]1C(O)[C@H](O)CNC(=O)OCc1cn(C2c3ccccc3-c3ccccc32)nn1
REMARK SMILES IDX 9 1 8 2 6 3 5 4 42 5 41 6 10 7 11 8 12 9 14 10 13 11 32 12
REMARK SMILES IDX 34 13 36 14 15 15 16 16 29 17 28 18 21 19 17 20 19 21 30 22
REMARK SMILES IDX 31 23 22 25 23 26 24 27 25 28 26 29 27 30 18 31 20 33 33 35
REMARK SMILES IDX 35 37 37 39 38 41 39 42 40 43 7 45 43 47 44 48 45 50 46 51
REMARK SMILES IDX 47 53 48 54 49 55 50 57 51 58 52 59 53 60 54 61 70 62 55 63
REMARK SMILES IDX 69 64 56 65 57 66 68 67 58 68 62 69 63 70 67 71 59 72 61 73
REMARK SMILES IDX 64 74 66 75 60 76 65 77 4 78 2 79 1 81 3 82
REMARK H PARENT 31 24 18 32 20 34 33 36 35 38 37 40 40 44 7 46 44 49 46 52
REMARK H PARENT 48 56 4 80
REMARK Flexibility Score: inf
ROOT
ATOM      1  C   UNL     1       5.766  23.036  33.336  1.00  0.00     0.272 C 
ATOM      2  C   UNL     1       5.609  24.304  32.600  1.00  0.00     0.113 C 
ATOM      3  C   UNL     1       4.196  24.631  32.299  1.00  0.00     0.145 C 
ATOM      4  C   UNL     1       3.272  23.445  32.330  1.00  0.00     0.142 C 
ATOM      5  C   UNL     1       4.044  22.223  31.973  1.00  0.00     0.178 C 
ATOM      6  O   UNL     1       5.143  21.941  32.719  1.00  0.00    -0.332 OA
ENDROOT
BRANCH   1   7
ATOM      7  O   UNL     1       5.328  23.099  34.633  1.00  0.00    -0.338 OA
BRANCH   7   8
ATOM      8  C   UNL     1       5.731  24.178  35.371  1.00  0.00     0.199 C 
BRANCH   8   9
ATOM      9  C   UNL     1       5.359  23.979  36.823  1.00  0.00     0.179 C 
ATOM     10  C   UNL     1       7.198  25.206  37.605  1.00  0.00     0.282 C 
ATOM     11  O   UNL     1       6.514  24.023  37.570  1.00  0.00    -0.341 OA
ATOM     12  C   UNL     1       6.286  26.352  37.821  1.00  0.00     0.202 C 
ATOM     13  C   UNL     1       5.023  25.760  38.475  1.00  0.00     0.179 C 
ATOM     14  C   UNL     1       4.360  24.993  37.310  1.00  0.00     0.177 C 
BRANCH  10  15
ATOM     15  O   UNL     1       8.118  25.299  36.595  1.00  0.00    -0.341 OA
BRANCH  15  16
ATOM     16  C   UNL     1       9.427  25.082  36.929  1.00  0.00     0.184 C 
ATOM     17  C   UNL     1       9.580  23.825  37.701  1.00  0.00     0.178 C 
ATOM     18  O   UNL     1      10.505  23.919  38.735  1.00  0.00    -0.341 OA
ATOM     19  C   UNL     1      11.549  24.743  38.470  1.00  0.00     0.281 C 
ATOM     20  C   UNL     1       9.829  26.317  37.730  1.00  0.00     0.180 C 
ATOM     21  C   UNL     1      11.043  26.179  38.552  1.00  0.00     0.202 C 
BRANCH  17  22
ATOM     22  C   UNL     1      10.009  22.668  36.826  1.00  0.00     0.191 C 
BRANCH  22  23
ATOM     23  O   UNL     1      10.163  23.093  35.484  1.00  0.00    -0.394 OA
ATOM     24  H   UNL     1       9.622  23.927  35.335  1.00  0.00     0.210 HD
ENDBRANCH  22  23
ENDBRANCH  17  22
BRANCH  19  25
ATOM     25  O   UNL     1      12.150  24.608  37.233  1.00  0.00    -0.350 OA
BRANCH  25  26
ATOM     26  C   UNL     1      13.132  25.522  36.977  1.00  0.00     0.169 C 
BRANCH  26  27
ATOM     27  C   UNL     1      13.379  25.859  35.547  1.00  0.00     0.119 C 
BRANCH  27  28
ATOM     28  N   UNL     1      12.302  26.615  34.942  1.00  0.00    -0.092 NA
ATOM     29  N   UNL     1      11.485  25.969  34.275  1.00  0.00     0.001 N 
ATOM     30  N   UNL     1      10.689  25.411  33.510  1.00  0.00    -0.003 NA
ENDBRANCH  27  28
ENDBRANCH  26  27
ENDBRANCH  25  26
ENDBRANCH  19  25
BRANCH  20  31
ATOM     31  O   UNL     1      10.031  27.399  36.832  1.00  0.00    -0.387 OA
ATOM     32  H   UNL     1      10.544  27.096  36.042  1.00  0.00     0.211 HD
ENDBRANCH  20  31
BRANCH  21  33
ATOM     33  O   UNL     1      10.751  26.425  39.900  1.00  0.00    -0.385 OA
ATOM     34  H   UNL     1       9.969  27.024  40.018  1.00  0.00     0.211 HD
ENDBRANCH  21  33
ENDBRANCH  15  16
ENDBRANCH  10  15
BRANCH  12  35
ATOM     35  O   UNL     1       6.765  27.280  38.744  1.00  0.00    -0.385 OA
ATOM     36  H   UNL     1       6.050  27.470  39.395  1.00  0.00     0.211 HD
ENDBRANCH  12  35
BRANCH  13  37
ATOM     37  O   UNL     1       4.142  26.743  38.860  1.00  0.00    -0.387 OA
ATOM     38  H   UNL     1       3.436  26.332  39.415  1.00  0.00     0.211 HD
ENDBRANCH  13  37
BRANCH  14  39
ATOM     39  O   UNL     1       4.144  25.935  36.322  1.00  0.00    -0.387 OA
ATOM     40  H   UNL     1       4.950  26.115  35.778  1.00  0.00     0.211 HD
ENDBRANCH  14  39
ENDBRANCH   8   9
ENDBRANCH   7   8
ENDBRANCH   1   7
BRANCH   1  41
ATOM     41  C   UNL     1       7.232  22.604  33.325  1.00  0.00     0.364 C 
ATOM     42  O   UNL     1       7.474  21.401  33.190  1.00  0.00    -0.246 OA
BRANCH  41  43
ATOM     43  O   UNL     1       8.252  23.514  33.459  1.00  0.00    -0.477 OA
ATOM     44  H   UNL     1       9.230  23.213  33.547  1.00  0.00     0.296 HD
ENDBRANCH  41  43
ENDBRANCH   1  41
BRANCH   3  45
ATOM     45  O   UNL     1       3.648  25.650  33.079  1.00  0.00    -0.391 OA
ATOM     46  H   UNL     1       2.682  25.617  33.133  1.00  0.00     0.211 HD
ENDBRANCH   3  45
BRANCH   5  47
ATOM     47  C   UNL     1       3.101  21.022  32.022  1.00  0.00     0.176 C 
BRANCH  47  48
ATOM     48  O   UNL     1       3.252  20.372  33.219  1.00  0.00    -0.388 OA
ATOM     49  H   UNL     1       3.984  19.686  33.173  1.00  0.00     0.211 HD
ENDBRANCH  47  48
BRANCH  47  50
ATOM     50  C   UNL     1       3.410  20.136  30.853  1.00  0.00     0.165 C 
BRANCH  50  51
ATOM     51  O   UNL     1       4.586  20.580  30.224  1.00  0.00    -0.388 OA
ATOM     52  H   UNL     1       4.583  21.559  30.133  1.00  0.00     0.211 HD
ENDBRANCH  50  51
BRANCH  50  53
ATOM     53  C   UNL     1       2.299  20.363  29.820  1.00  0.00     0.154 C 
BRANCH  53  54
ATOM     54  N   UNL     1       2.816  21.220  28.798  1.00  0.00    -0.319 N 
ATOM     55  C   UNL     1       1.947  21.918  27.934  1.00  0.00     0.407 C 
ATOM     56  H   UNL     1       3.852  21.334  28.689  1.00  0.00     0.167 HD
ATOM     57  O   UNL     1       0.698  21.799  28.028  1.00  0.00    -0.225 OA
BRANCH  55  58
ATOM     58  O   UNL     1       2.418  22.762  26.948  1.00  0.00    -0.443 OA
BRANCH  58  59
ATOM     59  C   UNL     1       1.669  23.858  26.446  1.00  0.00     0.294 C 
BRANCH  59  60
ATOM     60  C   UNL     1       2.565  25.042  26.441  1.00  0.00     0.120 A 
ATOM     61  C   UNL     1       3.745  25.228  27.149  1.00  0.00     0.139 A 
ATOM     62  N   UNL     1       2.396  26.169  25.733  1.00  0.00    -0.132 NA
ATOM     63  N   UNL     1       4.247  26.438  26.856  1.00  0.00    -0.240 N 
ATOM     64  N   UNL     1       3.404  26.984  25.993  1.00  0.00    -0.066 NA
BRANCH  63  65
ATOM     65  C   UNL     1       5.477  27.029  27.384  1.00  0.00     0.170 C 
ATOM     66  C   UNL     1       5.123  28.253  28.107  1.00  0.00    -0.011 A 
ATOM     67  C   UNL     1       6.336  27.500  26.283  1.00  0.00    -0.011 A 
ATOM     68  C   UNL     1       4.342  28.473  29.235  1.00  0.00     0.007 A 
ATOM     69  C   UNL     1       5.693  29.350  27.519  1.00  0.00    -0.012 A 
ATOM     70  C   UNL     1       6.456  28.867  26.370  1.00  0.00    -0.012 A 
ATOM     71  C   UNL     1       6.993  26.844  25.258  1.00  0.00     0.007 A 
ATOM     72  C   UNL     1       4.160  29.745  29.729  1.00  0.00     0.000 A 
ATOM     73  C   UNL     1       5.508  30.631  28.018  1.00  0.00     0.009 A 
ATOM     74  C   UNL     1       7.211  29.574  25.461  1.00  0.00     0.009 A 
ATOM     75  C   UNL     1       7.752  27.532  24.339  1.00  0.00     0.000 A 
ATOM     76  C   UNL     1       4.737  30.856  29.134  1.00  0.00     0.001 A 
ATOM     77  C   UNL     1       7.861  28.903  24.442  1.00  0.00     0.001 A 
ENDBRANCH  63  65
ENDBRANCH  59  60
ENDBRANCH  58  59
ENDBRANCH  55  58
ENDBRANCH  53  54
ENDBRANCH  50  53
ENDBRANCH  47  50
ENDBRANCH   5  47
BRANCH   4  78
ATOM     78  N   UNL     1       2.303  23.651  31.236  1.00  0.00    -0.348 N 
ATOM     79  C   UNL     1       1.030  24.232  31.470  1.00  0.00     0.217 C 
ATOM     80  H   UNL     1       2.580  23.355  30.291  1.00  0.00     0.163 HD
ATOM     81  C   UNL     1       0.057  24.434  30.349  1.00  0.00     0.114 C 
ATOM     82  O   UNL     1       0.742  24.575  32.650  1.00  0.00    -0.275 OA
ENDBRANCH   4  78
TORSDOF 30
