REMARK VINA RESULT:    -5.281      3.105      9.761
REMARK INTER + INTRA:         -20.314
REMARK INTER:                 -12.878
REMARK INTRA:                  -7.436
REMARK UNBOUND:                -6.390
REMARK SMILES CCOC(=O)Cn1cc(COC(=O)NC[C@@H](O)C(O)[C@@H]2O[C@@](OC[C@H]3O[C@@H](O[C@H]4[C@H](O)[C@@H](O)[C@H](OCCN=[N+]=[N-])O[C@@H]4CO)[C@H](O)[C@@H](O)[C@H]3O)(C(=O)O)C[C@H](O)[C@H]2NC(C)=O)nn1
REMARK SMILES IDX 18 1 20 2 22 3 54 4 21 5 55 6 57 7 23 8 24 9 25 10 27 11
REMARK SMILES IDX 26 12 45 13 47 14 49 15 28 16 29 17 42 18 41 19 34 20 30 21
REMARK SMILES IDX 32 22 43 23 44 24 35 26 36 27 37 28 38 29 39 30 40 31 31 32
REMARK SMILES IDX 33 34 46 36 48 38 50 40 51 42 52 43 53 44 56 46 58 48 59 49
REMARK SMILES IDX 60 51 61 52 19 53 16 55 17 56 15 58 14 59 12 60 13 62 11 63
REMARK SMILES IDX 10 64 9 65 8 66 62 67 7 68 63 69 6 70 4 71 5 72 3 73 2 74
REMARK SMILES IDX 1 75
REMARK H PARENT 44 25 31 33 33 35 46 37 48 39 50 41 53 45 56 47 58 50 19 54
REMARK H PARENT 17 57 14 61
REMARK Flexibility Score: inf
ROOT
ATOM      1  C   UNL     1      19.758  29.825  21.779  1.00  0.00     0.176 C 
ENDROOT
BRANCH   1   2
ATOM      2  C   UNL     1      18.409  30.124  21.185  1.00  0.00     0.178 C 
ATOM      3  C   UNL     1      16.980  29.435  19.467  1.00  0.00     0.272 C 
ATOM      4  C   UNL     1      16.279  30.703  19.814  1.00  0.00     0.113 C 
ATOM      5  O   UNL     1      17.936  29.075  20.442  1.00  0.00    -0.332 OA
ATOM      6  C   UNL     1      17.190  31.872  20.011  1.00  0.00     0.145 C 
ATOM      7  C   UNL     1      18.586  31.341  20.294  1.00  0.00     0.142 C 
BRANCH   3   8
ATOM      8  O   UNL     1      17.582  29.408  18.228  1.00  0.00    -0.338 OA
BRANCH   8   9
ATOM      9  C   UNL     1      18.331  28.331  17.898  1.00  0.00     0.199 C 
BRANCH   9  10
ATOM     10  C   UNL     1      19.715  28.829  17.439  1.00  0.00     0.179 C 
ATOM     11  C   UNL     1      21.664  28.158  16.375  1.00  0.00     0.282 C 
ATOM     12  O   UNL     1      20.510  27.803  17.037  1.00  0.00    -0.341 OA
ATOM     13  C   UNL     1      21.443  29.107  15.236  1.00  0.00     0.202 C 
ATOM     14  C   UNL     1      20.851  30.365  15.821  1.00  0.00     0.179 C 
ATOM     15  C   UNL     1      19.574  29.980  16.489  1.00  0.00     0.177 C 
BRANCH  11  16
ATOM     16  O   UNL     1      22.374  27.068  15.901  1.00  0.00    -0.341 OA
BRANCH  16  17
ATOM     17  C   UNL     1      23.343  26.586  16.743  1.00  0.00     0.184 C 
ATOM     18  C   UNL     1      22.784  25.900  17.972  1.00  0.00     0.178 C 
ATOM     19  O   UNL     1      23.019  26.639  19.122  1.00  0.00    -0.341 OA
ATOM     20  C   UNL     1      24.398  26.727  19.423  1.00  0.00     0.281 C 
ATOM     21  C   UNL     1      24.237  27.737  17.201  1.00  0.00     0.180 C 
ATOM     22  C   UNL     1      25.193  27.150  18.229  1.00  0.00     0.202 C 
BRANCH  18  23
ATOM     23  C   UNL     1      23.289  24.482  18.048  1.00  0.00     0.191 C 
BRANCH  23  24
ATOM     24  O   UNL     1      22.264  23.606  18.451  1.00  0.00    -0.394 OA
ATOM     25  H   UNL     1      22.305  22.761  17.960  1.00  0.00     0.210 HD
ENDBRANCH  23  24
ENDBRANCH  18  23
BRANCH  20  26
ATOM     26  O   UNL     1      24.849  25.554  19.970  1.00  0.00    -0.350 OA
BRANCH  26  27
ATOM     27  C   UNL     1      25.083  25.470  21.301  1.00  0.00     0.169 C 
BRANCH  27  28
ATOM     28  C   UNL     1      24.392  24.431  22.101  1.00  0.00     0.119 C 
BRANCH  28  29
ATOM     29  N   UNL     1      23.246  23.811  21.529  1.00  0.00    -0.092 NA
ATOM     30  N   UNL     1      22.117  24.341  21.604  1.00  0.00     0.001 N 
ATOM     31  N   UNL     1      21.149  25.121  21.616  1.00  0.00    -0.003 NA
ENDBRANCH  28  29
ENDBRANCH  27  28
ENDBRANCH  26  27
ENDBRANCH  20  26
BRANCH  21  32
ATOM     32  O   UNL     1      24.958  28.221  16.106  1.00  0.00    -0.387 OA
ATOM     33  H   UNL     1      25.918  27.957  16.258  1.00  0.00     0.211 HD
ENDBRANCH  21  32
BRANCH  22  34
ATOM     34  O   UNL     1      26.177  28.095  18.534  1.00  0.00    -0.385 OA
ATOM     35  H   UNL     1      26.244  28.823  17.869  1.00  0.00     0.211 HD
ENDBRANCH  22  34
ENDBRANCH  16  17
ENDBRANCH  11  16
BRANCH  13  36
ATOM     36  O   UNL     1      22.669  29.383  14.642  1.00  0.00    -0.385 OA
ATOM     37  H   UNL     1      22.881  30.323  14.538  1.00  0.00     0.211 HD
ENDBRANCH  13  36
BRANCH  14  38
ATOM     38  O   UNL     1      20.568  31.243  14.751  1.00  0.00    -0.387 OA
ATOM     39  H   UNL     1      20.216  32.101  15.096  1.00  0.00     0.211 HD
ENDBRANCH  14  38
BRANCH  15  40
ATOM     40  O   UNL     1      18.636  29.693  15.470  1.00  0.00    -0.387 OA
ATOM     41  H   UNL     1      18.760  28.721  15.289  1.00  0.00     0.211 HD
ENDBRANCH  15  40
ENDBRANCH   9  10
ENDBRANCH   8   9
ENDBRANCH   3   8
BRANCH   3  42
ATOM     42  C   UNL     1      15.982  28.340  19.543  1.00  0.00     0.364 C 
ATOM     43  O   UNL     1      16.276  27.278  20.137  1.00  0.00    -0.246 OA
BRANCH  42  44
ATOM     44  O   UNL     1      14.749  28.474  18.970  1.00  0.00    -0.477 OA
ATOM     45  H   UNL     1      14.620  28.863  18.040  1.00  0.00     0.296 HD
ENDBRANCH  42  44
ENDBRANCH   3  42
BRANCH   6  46
ATOM     46  O   UNL     1      17.181  32.795  18.993  1.00  0.00    -0.391 OA
ATOM     47  H   UNL     1      17.722  33.586  19.276  1.00  0.00     0.211 HD
ENDBRANCH   6  46
BRANCH   7  48
ATOM     48  N   UNL     1      19.401  32.358  20.944  1.00  0.00    -0.348 N 
ATOM     49  C   UNL     1      20.564  32.891  20.340  1.00  0.00     0.217 C 
ATOM     50  H   UNL     1      19.115  32.704  21.876  1.00  0.00     0.163 HD
ATOM     51  C   UNL     1      21.409  33.933  20.996  1.00  0.00     0.114 C 
ATOM     52  O   UNL     1      20.891  32.460  19.201  1.00  0.00    -0.275 OA
ENDBRANCH   7  48
ENDBRANCH   1   2
BRANCH   1  53
ATOM     53  O   UNL     1      19.624  29.237  23.021  1.00  0.00    -0.388 OA
ATOM     54  H   UNL     1      18.850  28.607  23.080  1.00  0.00     0.211 HD
ENDBRANCH   1  53
BRANCH   1  55
ATOM     55  C   UNL     1      20.607  28.923  20.901  1.00  0.00     0.165 C 
BRANCH  55  56
ATOM     56  O   UNL     1      20.150  27.627  20.859  1.00  0.00    -0.388 OA
ATOM     57  H   UNL     1      19.495  27.454  20.144  1.00  0.00     0.211 HD
ENDBRANCH  55  56
BRANCH  55  58
ATOM     58  C   UNL     1      22.020  28.993  21.378  1.00  0.00     0.154 C 
BRANCH  58  59
ATOM     59  N   UNL     1      22.428  27.907  22.197  1.00  0.00    -0.319 N 
ATOM     60  C   UNL     1      22.577  27.950  23.609  1.00  0.00     0.407 C 
ATOM     61  H   UNL     1      22.653  26.951  21.750  1.00  0.00     0.167 HD
ATOM     62  O   UNL     1      22.348  28.980  24.265  1.00  0.00    -0.225 OA
BRANCH  60  63
ATOM     63  O   UNL     1      22.993  26.792  24.288  1.00  0.00    -0.443 OA
BRANCH  63  64
ATOM     64  C   UNL     1      22.065  25.903  24.818  1.00  0.00     0.294 C 
BRANCH  64  65
ATOM     65  C   UNL     1      22.362  25.470  26.196  1.00  0.00     0.120 A 
ATOM     66  C   UNL     1      22.428  26.279  27.315  1.00  0.00     0.139 A 
ATOM     67  N   UNL     1      22.634  24.234  26.635  1.00  0.00    -0.132 NA
ATOM     68  N   UNL     1      22.737  25.523  28.396  1.00  0.00    -0.241 N 
ATOM     69  N   UNL     1      22.852  24.293  27.946  1.00  0.00    -0.066 NA
BRANCH  68  70
ATOM     70  C   UNL     1      22.896  26.040  29.749  1.00  0.00     0.268 C 
BRANCH  70  71
ATOM     71  C   UNL     1      24.325  25.788  30.157  1.00  0.00     0.327 C 
ATOM     72  O   UNL     1      24.631  24.925  31.002  1.00  0.00    -0.250 OA
BRANCH  71  73
ATOM     73  O   UNL     1      25.364  26.514  29.602  1.00  0.00    -0.465 OA
BRANCH  73  74
ATOM     74  C   UNL     1      26.308  25.999  28.707  1.00  0.00     0.229 C 
ATOM     75  C   UNL     1      26.107  26.487  27.294  1.00  0.00     0.049 C 
ENDBRANCH  73  74
ENDBRANCH  71  73
ENDBRANCH  70  71
ENDBRANCH  68  70
ENDBRANCH  64  65
ENDBRANCH  63  64
ENDBRANCH  60  63
ENDBRANCH  58  59
ENDBRANCH  55  58
ENDBRANCH   1  55
TORSDOF 33
