REMARK VINA RESULT:    -4.655      5.680     10.041
REMARK INTER + INTRA:         -21.054
REMARK INTER:                 -13.777
REMARK INTRA:                  -7.277
REMARK UNBOUND:                -8.780
REMARK SMILES COc1ccc(Cn2cc(COC(=O)NC[C@@H](O)C(O)[C@@H]3O[C@@](OC[C@H]4O[C@@H](O[C@H]5[C@H](O)[C@@H](O)[C@H](OCCN=[N+]=[N-])O[C@@H]5CO)[C@H](O)[C@@H](O)[C@H]4O)(C(=O)O)C[C@H](O)[C@H]3NC(C)=O)nn2)cc1OC
REMARK SMILES IDX 23 1 55 2 56 3 58 4 21 5 22 6 24 7 25 8 26 9 28 10 27 11
REMARK SMILES IDX 46 12 48 13 50 14 29 15 30 16 43 17 42 18 35 19 31 20 33 21
REMARK SMILES IDX 44 22 45 23 36 25 37 26 38 27 39 28 40 29 41 30 32 31 34 33
REMARK SMILES IDX 47 35 49 37 51 39 52 41 53 42 54 43 57 45 19 47 20 48 17 50
REMARK SMILES IDX 18 51 16 53 15 54 13 55 14 57 12 58 11 59 10 60 9 61 63 62
REMARK SMILES IDX 8 63 64 64 7 65 6 66 65 67 5 68 66 69 4 70 3 71 67 72 68 73
REMARK SMILES IDX 2 74 1 75 59 76 60 77 61 79 62 80
REMARK H PARENT 45 24 32 32 34 34 47 36 49 38 51 40 54 44 57 46 20 49 18 52
REMARK H PARENT 15 56 59 78
REMARK Flexibility Score: inf
ROOT
ATOM      1  C   UNL     1      14.812  30.478  21.292  1.00  0.00     0.272 C 
ATOM      2  C   UNL     1      13.493  31.026  21.807  1.00  0.00     0.113 C 
ATOM      3  C   UNL     1      13.486  32.354  22.471  1.00  0.00     0.145 C 
ATOM      4  C   UNL     1      14.888  32.683  22.976  1.00  0.00     0.142 C 
ATOM      5  C   UNL     1      15.496  31.381  23.317  1.00  0.00     0.178 C 
ATOM      6  O   UNL     1      15.892  30.742  22.158  1.00  0.00    -0.332 OA
ENDROOT
BRANCH   1   7
ATOM      7  O   UNL     1      15.034  31.170  20.109  1.00  0.00    -0.338 OA
BRANCH   7   8
ATOM      8  C   UNL     1      14.328  30.783  19.011  1.00  0.00     0.199 C 
BRANCH   8   9
ATOM      9  C   UNL     1      15.238  30.544  17.838  1.00  0.00     0.179 C 
ATOM     10  C   UNL     1      17.015  29.385  17.023  1.00  0.00     0.282 C 
ATOM     11  O   UNL     1      15.913  29.316  17.960  1.00  0.00    -0.341 OA
ATOM     12  C   UNL     1      16.507  29.263  15.661  1.00  0.00     0.202 C 
ATOM     13  C   UNL     1      15.282  30.127  15.413  1.00  0.00     0.179 C 
ATOM     14  C   UNL     1      14.391  30.338  16.573  1.00  0.00     0.177 C 
BRANCH  10  15
ATOM     15  O   UNL     1      17.907  28.407  17.413  1.00  0.00    -0.341 OA
BRANCH  15  16
ATOM     16  C   UNL     1      18.992  28.980  18.078  1.00  0.00     0.184 C 
ATOM     17  C   UNL     1      20.291  28.372  17.724  1.00  0.00     0.178 C 
ATOM     18  O   UNL     1      21.300  29.192  18.221  1.00  0.00    -0.341 OA
ATOM     19  C   UNL     1      21.013  29.730  19.424  1.00  0.00     0.281 C 
ATOM     20  C   UNL     1      18.732  28.811  19.579  1.00  0.00     0.180 C 
ATOM     21  C   UNL     1      20.081  28.927  20.302  1.00  0.00     0.202 C 
BRANCH  17  22
ATOM     22  C   UNL     1      20.451  28.131  16.241  1.00  0.00     0.191 C 
BRANCH  22  23
ATOM     23  O   UNL     1      20.197  29.350  15.614  1.00  0.00    -0.394 OA
ATOM     24  H   UNL     1      20.849  30.032  15.956  1.00  0.00     0.210 HD
ENDBRANCH  22  23
ENDBRANCH  17  22
BRANCH  19  25
ATOM     25  O   UNL     1      20.340  30.986  19.201  1.00  0.00    -0.350 OA
BRANCH  25  26
ATOM     26  C   UNL     1      21.230  31.997  19.615  1.00  0.00     0.169 C 
BRANCH  26  27
ATOM     27  C   UNL     1      20.706  33.393  19.330  1.00  0.00     0.119 C 
BRANCH  27  28
ATOM     28  N   UNL     1      20.079  33.906  20.516  1.00  0.00    -0.092 NA
ATOM     29  N   UNL     1      18.993  33.482  20.923  1.00  0.00     0.001 N 
ATOM     30  N   UNL     1      17.847  32.993  20.974  1.00  0.00    -0.003 NA
ENDBRANCH  27  28
ENDBRANCH  26  27
ENDBRANCH  25  26
ENDBRANCH  19  25
BRANCH  20  31
ATOM     31  O   UNL     1      17.958  29.886  19.987  1.00  0.00    -0.387 OA
ATOM     32  H   UNL     1      18.041  29.966  20.984  1.00  0.00     0.211 HD
ENDBRANCH  20  31
BRANCH  21  33
ATOM     33  O   UNL     1      20.584  27.659  20.477  1.00  0.00    -0.385 OA
ATOM     34  H   UNL     1      20.552  27.119  19.641  1.00  0.00     0.211 HD
ENDBRANCH  21  33
ENDBRANCH  15  16
ENDBRANCH  10  15
BRANCH  12  35
ATOM     35  O   UNL     1      17.448  29.658  14.724  1.00  0.00    -0.385 OA
ATOM     36  H   UNL     1      18.042  30.384  15.071  1.00  0.00     0.211 HD
ENDBRANCH  12  35
BRANCH  13  37
ATOM     37  O   UNL     1      14.576  29.553  14.323  1.00  0.00    -0.387 OA
ATOM     38  H   UNL     1      15.083  29.790  13.503  1.00  0.00     0.211 HD
ENDBRANCH  13  37
BRANCH  14  39
ATOM     39  O   UNL     1      13.605  29.195  16.838  1.00  0.00    -0.387 OA
ATOM     40  H   UNL     1      13.859  28.432  16.213  1.00  0.00     0.211 HD
ENDBRANCH  14  39
ENDBRANCH   8   9
ENDBRANCH   7   8
ENDBRANCH   1   7
BRANCH   1  41
ATOM     41  C   UNL     1      14.677  29.005  21.152  1.00  0.00     0.364 C 
ATOM     42  O   UNL     1      13.601  28.433  21.342  1.00  0.00    -0.246 OA
BRANCH  41  43
ATOM     43  O   UNL     1      15.755  28.150  20.800  1.00  0.00    -0.477 OA
ATOM     44  H   UNL     1      16.234  27.685  21.605  1.00  0.00     0.296 HD
ENDBRANCH  41  43
ENDBRANCH   1  41
BRANCH   3  45
ATOM     45  O   UNL     1      13.090  33.353  21.613  1.00  0.00    -0.391 OA
ATOM     46  H   UNL     1      12.186  33.695  21.874  1.00  0.00     0.211 HD
ENDBRANCH   3  45
BRANCH   5  47
ATOM     47  C   UNL     1      16.453  31.426  24.417  1.00  0.00     0.176 C 
BRANCH  47  48
ATOM     48  O   UNL     1      16.233  30.543  25.467  1.00  0.00    -0.388 OA
ATOM     49  H   UNL     1      16.347  29.609  25.259  1.00  0.00     0.211 HD
ENDBRANCH  47  48
BRANCH  47  50
ATOM     50  C   UNL     1      17.838  30.772  23.879  1.00  0.00     0.165 C 
BRANCH  50  51
ATOM     51  O   UNL     1      17.636  29.451  23.776  1.00  0.00    -0.388 OA
ATOM     52  H   UNL     1      17.122  29.066  24.545  1.00  0.00     0.211 HD
ENDBRANCH  50  51
BRANCH  50  53
ATOM     53  C   UNL     1      18.965  31.356  24.565  1.00  0.00     0.154 C 
BRANCH  53  54
ATOM     54  N   UNL     1      19.972  30.620  25.252  1.00  0.00    -0.319 N 
ATOM     55  C   UNL     1      19.767  30.415  26.639  1.00  0.00     0.407 C 
ATOM     56  H   UNL     1      20.829  30.242  24.855  1.00  0.00     0.167 HD
ATOM     57  O   UNL     1      18.732  30.884  27.217  1.00  0.00    -0.225 OA
BRANCH  55  58
ATOM     58  O   UNL     1      20.622  29.716  27.485  1.00  0.00    -0.443 OA
BRANCH  58  59
ATOM     59  C   UNL     1      22.055  29.993  27.326  1.00  0.00     0.294 C 
BRANCH  59  60
ATOM     60  C   UNL     1      22.578  28.698  26.803  1.00  0.00     0.120 A 
ATOM     61  C   UNL     1      21.957  27.441  26.994  1.00  0.00     0.138 A 
ATOM     62  N   UNL     1      23.636  28.500  26.027  1.00  0.00    -0.132 NA
ATOM     63  N   UNL     1      22.707  26.558  26.294  1.00  0.00    -0.248 N 
ATOM     64  N   UNL     1      23.684  27.182  25.734  1.00  0.00    -0.067 NA
BRANCH  63  65
ATOM     65  C   UNL     1      22.381  25.113  26.160  1.00  0.00     0.181 C 
BRANCH  65  66
ATOM     66  C   UNL     1      22.459  24.888  24.649  1.00  0.00    -0.023 A 
ATOM     67  C   UNL     1      23.630  24.524  24.021  1.00  0.00     0.056 A 
ATOM     68  C   UNL     1      21.294  24.940  23.954  1.00  0.00     0.010 A 
ATOM     69  C   UNL     1      23.507  24.214  22.637  1.00  0.00     0.161 A 
ATOM     70  C   UNL     1      21.193  24.625  22.564  1.00  0.00     0.051 A 
ATOM     71  C   UNL     1      22.361  24.258  21.952  1.00  0.00     0.160 A 
BRANCH  69  72
ATOM     72  O   UNL     1      24.659  23.843  21.939  1.00  0.00    -0.493 OA
ATOM     73  C   UNL     1      25.745  24.755  21.737  1.00  0.00     0.278 C 
ENDBRANCH  69  72
BRANCH  71  74
ATOM     74  O   UNL     1      22.358  23.897  20.575  1.00  0.00    -0.493 OA
ATOM     75  C   UNL     1      22.659  24.922  19.605  1.00  0.00     0.278 C 
ENDBRANCH  71  74
ENDBRANCH  65  66
ENDBRANCH  63  65
ENDBRANCH  59  60
ENDBRANCH  58  59
ENDBRANCH  55  58
ENDBRANCH  53  54
ENDBRANCH  50  53
ENDBRANCH  47  50
ENDBRANCH   5  47
BRANCH   4  76
ATOM     76  N   UNL     1      14.772  33.610  24.070  1.00  0.00    -0.348 N 
ATOM     77  C   UNL     1      15.285  34.904  23.933  1.00  0.00     0.217 C 
ATOM     78  H   UNL     1      14.296  33.377  24.985  1.00  0.00     0.163 HD
ATOM     79  C   UNL     1      15.269  35.973  24.978  1.00  0.00     0.114 C 
ATOM     80  O   UNL     1      15.850  35.317  22.841  1.00  0.00    -0.275 OA
ENDBRANCH   4  76
TORSDOF 33
