REMARK VINA RESULT:    -5.779     22.894     28.346
REMARK INTER + INTRA:         -20.190
REMARK INTER:                 -13.227
REMARK INTRA:                  -6.962
REMARK UNBOUND:                -5.964
REMARK SMILES CC(=O)N[C@@H]1[C@@H](O)C[C@](OC[C@H]2O[C@@H](O[C@H]3[C@H](O)[C@@H](O)[C@H](OCCN=[N+]=[N-])O[C@@H]3CO)[C@H](O)[C@@H](O)[C@H]2O)(C(=O)O)O[C@H]1C(O)[C@H](O)CNC(=O)OCc1cn(C2CCN(C)CC2)nn1
REMARK SMILES IDX 9 1 8 2 6 3 5 4 42 5 41 6 10 7 11 8 12 9 14 10 13 11 32 12
REMARK SMILES IDX 34 13 36 14 15 15 16 16 29 17 28 18 21 19 17 20 19 21 30 22
REMARK SMILES IDX 31 23 22 25 23 26 24 27 25 28 26 29 27 30 18 31 20 33 33 35
REMARK SMILES IDX 35 37 37 39 38 41 39 42 40 43 7 45 43 47 44 48 45 50 46 51
REMARK SMILES IDX 47 53 48 54 49 55 50 57 51 58 52 59 53 60 54 61 64 62 55 63
REMARK SMILES IDX 63 64 56 65 57 66 62 67 58 68 61 69 59 70 60 71 4 72 2 73
REMARK SMILES IDX 1 75 3 76
REMARK H PARENT 31 24 18 32 20 34 33 36 35 38 37 40 40 44 7 46 44 49 46 52
REMARK H PARENT 48 56 4 74
REMARK Flexibility Score: inf
ROOT
ATOM      1  C   UNL     1       7.468  24.428  39.371  1.00  0.00     0.272 C 
ATOM      2  C   UNL     1       8.566  23.387  39.252  1.00  0.00     0.113 C 
ATOM      3  C   UNL     1       8.628  22.377  40.320  1.00  0.00     0.145 C 
ATOM      4  C   UNL     1       7.283  21.888  40.811  1.00  0.00     0.142 C 
ATOM      5  C   UNL     1       6.174  22.825  40.526  1.00  0.00     0.178 C 
ATOM      6  O   UNL     1       6.251  23.687  39.519  1.00  0.00    -0.332 OA
ENDROOT
BRANCH   1   7
ATOM      7  O   UNL     1       7.305  25.010  38.173  1.00  0.00    -0.338 OA
BRANCH   7   8
ATOM      8  C   UNL     1       7.800  24.788  37.003  1.00  0.00     0.199 C 
BRANCH   8   9
ATOM      9  C   UNL     1       7.152  25.203  35.719  1.00  0.00     0.179 C 
ATOM     10  C   UNL     1       8.422  24.275  33.922  1.00  0.00     0.282 C 
ATOM     11  O   UNL     1       8.149  25.281  34.786  1.00  0.00    -0.341 OA
ATOM     12  C   UNL     1       7.611  23.068  34.107  1.00  0.00     0.202 C 
ATOM     13  C   UNL     1       6.148  23.544  34.099  1.00  0.00     0.179 C 
ATOM     14  C   UNL     1       5.982  24.365  35.325  1.00  0.00     0.177 C 
BRANCH  10  15
ATOM     15  O   UNL     1       9.804  24.150  33.970  1.00  0.00    -0.341 OA
BRANCH  15  16
ATOM     16  C   UNL     1      10.435  24.620  35.047  1.00  0.00     0.184 C 
ATOM     17  C   UNL     1      11.463  25.633  34.678  1.00  0.00     0.178 C 
ATOM     18  O   UNL     1      11.779  26.382  35.818  1.00  0.00    -0.341 OA
ATOM     19  C   UNL     1      12.432  25.588  36.732  1.00  0.00     0.281 C 
ATOM     20  C   UNL     1      11.229  23.556  35.820  1.00  0.00     0.180 C 
ATOM     21  C   UNL     1      11.743  24.290  37.055  1.00  0.00     0.202 C 
BRANCH  17  22
ATOM     22  C   UNL     1      11.123  26.491  33.509  1.00  0.00     0.191 C 
BRANCH  22  23
ATOM     23  O   UNL     1      12.228  27.267  33.187  1.00  0.00    -0.394 OA
ATOM     24  H   UNL     1      12.526  27.121  32.253  1.00  0.00     0.210 HD
ENDBRANCH  22  23
ENDBRANCH  17  22
BRANCH  19  25
ATOM     25  O   UNL     1      12.468  26.312  37.931  1.00  0.00    -0.350 OA
BRANCH  25  26
ATOM     26  C   UNL     1      11.284  26.314  38.622  1.00  0.00     0.169 C 
BRANCH  26  27
ATOM     27  C   UNL     1      11.427  26.726  40.073  1.00  0.00     0.119 C 
BRANCH  27  28
ATOM     28  N   UNL     1      11.295  25.582  40.954  1.00  0.00    -0.092 NA
ATOM     29  N   UNL     1      12.023  24.598  40.829  1.00  0.00     0.001 N 
ATOM     30  N   UNL     1      12.325  23.437  40.549  1.00  0.00    -0.003 NA
ENDBRANCH  27  28
ENDBRANCH  26  27
ENDBRANCH  25  26
ENDBRANCH  19  25
BRANCH  20  31
ATOM     31  O   UNL     1      10.451  22.524  36.272  1.00  0.00    -0.387 OA
ATOM     32  H   UNL     1      10.660  22.353  37.216  1.00  0.00     0.211 HD
ENDBRANCH  20  31
BRANCH  21  33
ATOM     33  O   UNL     1      12.585  23.463  37.757  1.00  0.00    -0.385 OA
ATOM     34  H   UNL     1      12.116  22.783  38.267  1.00  0.00     0.211 HD
ENDBRANCH  21  33
ENDBRANCH  15  16
ENDBRANCH  10  15
BRANCH  12  35
ATOM     35  O   UNL     1       7.654  22.159  33.052  1.00  0.00    -0.385 OA
ATOM     36  H   UNL     1       7.287  21.286  33.337  1.00  0.00     0.211 HD
ENDBRANCH  12  35
BRANCH  13  37
ATOM     37  O   UNL     1       5.255  22.504  34.025  1.00  0.00    -0.387 OA
ATOM     38  H   UNL     1       4.610  22.710  33.302  1.00  0.00     0.211 HD
ENDBRANCH  13  37
BRANCH  14  39
ATOM     39  O   UNL     1       5.658  23.518  36.382  1.00  0.00    -0.387 OA
ATOM     40  H   UNL     1       5.292  23.994  37.163  1.00  0.00     0.211 HD
ENDBRANCH  14  39
ENDBRANCH   8   9
ENDBRANCH   7   8
ENDBRANCH   1   7
BRANCH   1  41
ATOM     41  C   UNL     1       7.681  25.207  40.582  1.00  0.00     0.364 C 
ATOM     42  O   UNL     1       6.879  26.207  40.784  1.00  0.00    -0.246 OA
BRANCH  41  43
ATOM     43  O   UNL     1       8.609  25.076  41.580  1.00  0.00    -0.477 OA
ATOM     44  H   UNL     1       9.581  24.805  41.430  1.00  0.00     0.296 HD
ENDBRANCH  41  43
ENDBRANCH   1  41
BRANCH   3  45
ATOM     45  O   UNL     1       9.369  21.254  39.844  1.00  0.00    -0.391 OA
ATOM     46  H   UNL     1       9.694  20.707  40.590  1.00  0.00     0.211 HD
ENDBRANCH   3  45
BRANCH   5  47
ATOM     47  C   UNL     1       4.833  22.057  40.362  1.00  0.00     0.176 C 
BRANCH  47  48
ATOM     48  O   UNL     1       5.097  20.695  40.300  1.00  0.00    -0.388 OA
ATOM     49  H   UNL     1       5.934  20.444  40.742  1.00  0.00     0.211 HD
ENDBRANCH  47  48
BRANCH  47  50
ATOM     50  C   UNL     1       4.107  22.528  39.188  1.00  0.00     0.165 C 
BRANCH  50  51
ATOM     51  O   UNL     1       3.341  23.677  39.628  1.00  0.00    -0.388 OA
ATOM     52  H   UNL     1       3.783  24.072  40.417  1.00  0.00     0.211 HD
ENDBRANCH  50  51
BRANCH  50  53
ATOM     53  C   UNL     1       3.180  21.647  38.467  1.00  0.00     0.154 C 
BRANCH  53  54
ATOM     54  N   UNL     1       3.602  20.634  37.595  1.00  0.00    -0.319 N 
ATOM     55  C   UNL     1       3.601  19.237  37.833  1.00  0.00     0.407 C 
ATOM     56  H   UNL     1       3.973  20.940  36.631  1.00  0.00     0.167 HD
ATOM     57  O   UNL     1       3.161  18.759  38.896  1.00  0.00    -0.225 OA
BRANCH  55  58
ATOM     58  O   UNL     1       4.117  18.385  36.831  1.00  0.00    -0.443 OA
BRANCH  58  59
ATOM     59  C   UNL     1       3.237  17.858  35.871  1.00  0.00     0.294 C 
BRANCH  59  60
ATOM     60  C   UNL     1       3.207  18.770  34.703  1.00  0.00     0.120 A 
ATOM     61  C   UNL     1       2.305  18.699  33.627  1.00  0.00     0.138 A 
ATOM     62  N   UNL     1       3.976  19.827  34.404  1.00  0.00    -0.132 NA
ATOM     63  N   UNL     1       2.562  19.687  32.753  1.00  0.00    -0.249 N 
ATOM     64  N   UNL     1       3.574  20.352  33.247  1.00  0.00    -0.067 NA
BRANCH  63  65
ATOM     65  C   UNL     1       1.854  19.950  31.522  1.00  0.00     0.111 C 
ATOM     66  C   UNL     1       1.133  21.258  31.682  1.00  0.00     0.043 C 
ATOM     67  C   UNL     1       2.778  20.032  30.339  1.00  0.00     0.043 C 
ATOM     68  C   UNL     1       1.886  22.336  30.938  1.00  0.00     0.086 C 
ATOM     69  C   UNL     1       2.171  20.750  29.163  1.00  0.00     0.086 C 
ATOM     70  N   UNL     1       1.722  22.083  29.507  1.00  0.00    -0.306 NA
ATOM     71  C   UNL     1       0.308  22.202  29.199  1.00  0.00     0.105 C 
ENDBRANCH  63  65
ENDBRANCH  59  60
ENDBRANCH  58  59
ENDBRANCH  55  58
ENDBRANCH  53  54
ENDBRANCH  50  53
ENDBRANCH  47  50
ENDBRANCH   5  47
BRANCH   4  72
ATOM     72  N   UNL     1       7.326  21.529  42.215  1.00  0.00    -0.348 N 
ATOM     73  C   UNL     1       7.417  20.166  42.578  1.00  0.00     0.217 C 
ATOM     74  H   UNL     1       7.293  22.249  42.978  1.00  0.00     0.163 HD
ATOM     75  C   UNL     1       7.462  19.742  44.015  1.00  0.00     0.114 C 
ATOM     76  O   UNL     1       7.462  19.271  41.675  1.00  0.00    -0.275 OA
ENDBRANCH   4  72
TORSDOF 30
