REMARK VINA RESULT:    -6.587      9.678     13.667
REMARK INTER + INTRA:         -22.320
REMARK INTER:                 -12.881
REMARK INTRA:                  -9.440
REMARK UNBOUND:                -5.144
REMARK SMILES CC(=O)N[C@@H]1[C@@H](O)C[C@](OC[C@H]2O[C@@H](O[C@H]3[C@H](O)[C@@H](O)[C@H](OCCN=[N+]=[N-])O[C@@H]3CO)[C@H](O)[C@@H](O)[C@H]2O)(C(=O)O)O[C@H]1C(O)[C@H](O)CNC(=O)OCc1cn(-c2cccc(C=CC(=O)O)c2)nn1
REMARK SMILES IDX 43 1 42 2 9 3 8 4 41 5 6 6 5 7 10 8 11 9 12 10 14 11 13 12
REMARK SMILES IDX 32 13 34 14 36 15 15 16 16 17 29 18 28 19 21 20 17 21 19 22
REMARK SMILES IDX 30 23 31 24 22 26 23 27 24 28 25 29 26 30 27 31 18 32 20 34
REMARK SMILES IDX 33 36 35 38 37 40 38 42 39 43 40 44 7 46 4 48 2 49 1 51 3 52
REMARK SMILES IDX 44 53 45 55 46 56 47 58 48 59 49 60 50 62 51 63 52 64 53 65
REMARK SMILES IDX 54 66 68 67 55 68 67 69 56 70 66 71 57 72 60 73 58 74 59 75
REMARK SMILES IDX 61 76 62 77 63 78 64 79 65 80
REMARK H PARENT 31 25 18 33 20 35 33 37 35 39 37 41 40 45 7 47 4 50 44 54
REMARK H PARENT 46 57 48 61 65 81
REMARK Flexibility Score: inf
ROOT
ATOM      1  C   UNL     1      23.560  19.845  12.728  1.00  0.00     0.176 C 
ENDROOT
BRANCH   1   2
ATOM      2  C   UNL     1      22.133  20.342  12.619  1.00  0.00     0.178 C 
ATOM      3  C   UNL     1      20.375  20.256  11.051  1.00  0.00     0.272 C 
ATOM      4  C   UNL     1      19.792  21.121  12.268  1.00  0.00     0.113 C 
ATOM      5  O   UNL     1      21.694  20.008  11.368  1.00  0.00    -0.332 OA
ATOM      6  C   UNL     1      20.697  22.295  12.380  1.00  0.00     0.145 C 
ATOM      7  C   UNL     1      22.078  21.833  12.803  1.00  0.00     0.142 C 
BRANCH   3   8
ATOM      8  O   UNL     1      20.315  21.123  10.033  1.00  0.00    -0.338 OA
BRANCH   8   9
ATOM      9  C   UNL     1      20.041  20.844   8.772  1.00  0.00     0.199 C 
BRANCH   9  10
ATOM     10  C   UNL     1      20.876  21.470   7.674  1.00  0.00     0.179 C 
ATOM     11  C   UNL     1      22.792  22.843   7.859  1.00  0.00     0.282 C 
ATOM     12  O   UNL     1      21.479  22.559   8.179  1.00  0.00    -0.341 OA
ATOM     13  C   UNL     1      23.091  22.371   6.492  1.00  0.00     0.202 C 
ATOM     14  C   UNL     1      22.825  20.919   6.237  1.00  0.00     0.179 C 
ATOM     15  C   UNL     1      21.895  20.402   7.303  1.00  0.00     0.177 C 
BRANCH  11  16
ATOM     16  O   UNL     1      23.558  22.355   8.896  1.00  0.00    -0.341 OA
BRANCH  16  17
ATOM     17  C   UNL     1      24.551  23.160   9.336  1.00  0.00     0.184 C 
ATOM     18  C   UNL     1      25.858  22.431   9.406  1.00  0.00     0.178 C 
ATOM     19  O   UNL     1      26.839  23.448   9.496  1.00  0.00    -0.341 OA
ATOM     20  C   UNL     1      26.801  24.022  10.770  1.00  0.00     0.281 C 
ATOM     21  C   UNL     1      24.310  23.672  10.759  1.00  0.00     0.180 C 
ATOM     22  C   UNL     1      25.463  24.583  11.122  1.00  0.00     0.202 C 
BRANCH  18  23
ATOM     23  C   UNL     1      26.162  21.562   8.239  1.00  0.00     0.191 C 
BRANCH  23  24
ATOM     24  O   UNL     1      27.239  22.098   7.537  1.00  0.00    -0.394 OA
ATOM     25  H   UNL     1      28.093  21.957   8.053  1.00  0.00     0.210 HD
ENDBRANCH  23  24
ENDBRANCH  18  23
BRANCH  20  26
ATOM     26  O   UNL     1      27.739  25.050  10.789  1.00  0.00    -0.350 OA
BRANCH  26  27
ATOM     27  C   UNL     1      28.080  25.468   9.505  1.00  0.00     0.169 C 
BRANCH  27  28
ATOM     28  C   UNL     1      27.418  26.805   9.258  1.00  0.00     0.119 C 
BRANCH  28  29
ATOM     29  N   UNL     1      26.435  26.666   8.211  1.00  0.00    -0.092 NA
ATOM     30  N   UNL     1      25.234  26.898   8.440  1.00  0.00     0.001 N 
ATOM     31  N   UNL     1      24.040  26.726   8.729  1.00  0.00    -0.003 NA
ENDBRANCH  28  29
ENDBRANCH  27  28
ENDBRANCH  26  27
ENDBRANCH  20  26
BRANCH  21  32
ATOM     32  O   UNL     1      23.150  24.429  10.858  1.00  0.00    -0.387 OA
ATOM     33  H   UNL     1      23.038  24.856   9.972  1.00  0.00     0.211 HD
ENDBRANCH  21  32
BRANCH  22  34
ATOM     34  O   UNL     1      25.425  24.706  12.531  1.00  0.00    -0.385 OA
ATOM     35  H   UNL     1      25.126  23.877  12.966  1.00  0.00     0.211 HD
ENDBRANCH  22  34
ENDBRANCH  16  17
ENDBRANCH  11  16
BRANCH  13  36
ATOM     36  O   UNL     1      22.295  23.103   5.563  1.00  0.00    -0.385 OA
ATOM     37  H   UNL     1      21.390  23.252   5.956  1.00  0.00     0.211 HD
ENDBRANCH  13  36
BRANCH  14  38
ATOM     38  O   UNL     1      23.982  20.141   6.140  1.00  0.00    -0.387 OA
ATOM     39  H   UNL     1      24.286  20.047   5.202  1.00  0.00     0.211 HD
ENDBRANCH  14  38
BRANCH  15  40
ATOM     40  O   UNL     1      22.635  20.023   8.406  1.00  0.00    -0.387 OA
ATOM     41  H   UNL     1      22.655  20.739   9.114  1.00  0.00     0.211 HD
ENDBRANCH  15  40
ENDBRANCH   9  10
ENDBRANCH   8   9
ENDBRANCH   3   8
BRANCH   3  42
ATOM     42  C   UNL     1      19.595  19.029  11.054  1.00  0.00     0.364 C 
ATOM     43  O   UNL     1      19.885  17.917  10.578  1.00  0.00    -0.246 OA
BRANCH  42  44
ATOM     44  O   UNL     1      18.323  19.073  11.676  1.00  0.00    -0.477 OA
ATOM     45  H   UNL     1      18.076  18.293  12.303  1.00  0.00     0.296 HD
ENDBRANCH  42  44
ENDBRANCH   3  42
BRANCH   6  46
ATOM     46  O   UNL     1      20.794  22.842  11.057  1.00  0.00    -0.391 OA
ATOM     47  H   UNL     1      21.451  22.310  10.529  1.00  0.00     0.211 HD
ENDBRANCH   6  46
BRANCH   7  48
ATOM     48  N   UNL     1      22.527  22.324  14.055  1.00  0.00    -0.348 N 
ATOM     49  C   UNL     1      22.784  23.646  14.430  1.00  0.00     0.217 C 
ATOM     50  H   UNL     1      22.733  21.599  14.836  1.00  0.00     0.163 HD
ATOM     51  C   UNL     1      23.281  23.928  15.835  1.00  0.00     0.114 C 
ATOM     52  O   UNL     1      22.628  24.642  13.673  1.00  0.00    -0.275 OA
ENDBRANCH   7  48
ENDBRANCH   1   2
BRANCH   1  53
ATOM     53  O   UNL     1      23.929  19.792  14.060  1.00  0.00    -0.388 OA
ATOM     54  H   UNL     1      23.263  19.407  14.658  1.00  0.00     0.211 HD
ENDBRANCH   1  53
BRANCH   1  55
ATOM     55  C   UNL     1      23.709  18.421  12.190  1.00  0.00     0.165 C 
BRANCH  55  56
ATOM     56  O   UNL     1      22.682  17.589  12.542  1.00  0.00    -0.388 OA
ATOM     57  H   UNL     1      21.905  18.040  12.946  1.00  0.00     0.211 HD
ENDBRANCH  55  56
BRANCH  55  58
ATOM     58  C   UNL     1      25.042  17.845  12.545  1.00  0.00     0.154 C 
BRANCH  58  59
ATOM     59  N   UNL     1      26.114  18.650  12.081  1.00  0.00    -0.319 N 
ATOM     60  C   UNL     1      27.351  18.743  12.759  1.00  0.00     0.407 C 
ATOM     61  H   UNL     1      26.020  19.218  11.196  1.00  0.00     0.167 HD
ATOM     62  O   UNL     1      27.557  18.104  13.828  1.00  0.00    -0.225 OA
BRANCH  60  63
ATOM     63  O   UNL     1      28.401  19.531  12.294  1.00  0.00    -0.443 OA
BRANCH  63  64
ATOM     64  C   UNL     1      28.119  20.923  12.108  1.00  0.00     0.294 C 
BRANCH  64  65
ATOM     65  C   UNL     1      27.433  21.393  13.325  1.00  0.00     0.121 A 
ATOM     66  C   UNL     1      27.956  21.503  14.611  1.00  0.00     0.144 A 
ATOM     67  N   UNL     1      26.159  21.812  13.405  1.00  0.00    -0.131 NA
ATOM     68  N   UNL     1      26.981  21.986  15.415  1.00  0.00    -0.220 N 
ATOM     69  N   UNL     1      25.914  22.160  14.661  1.00  0.00    -0.062 NA
BRANCH  68  70
ATOM     70  C   UNL     1      27.159  22.240  16.799  1.00  0.00     0.067 A 
ATOM     71  C   UNL     1      27.730  21.263  17.614  1.00  0.00     0.036 A 
ATOM     72  C   UNL     1      26.787  23.418  17.356  1.00  0.00     0.028 A 
ATOM     73  C   UNL     1      27.922  21.459  18.946  1.00  0.00    -0.023 A 
ATOM     74  C   UNL     1      26.964  23.665  18.714  1.00  0.00     0.003 A 
ATOM     75  C   UNL     1      27.532  22.672  19.480  1.00  0.00     0.008 A 
BRANCH  73  76
ATOM     76  C   UNL     1      28.510  20.446  19.795  1.00  0.00     0.015 C 
ATOM     77  C   UNL     1      28.459  20.539  21.099  1.00  0.00     0.094 C 
BRANCH  77  78
ATOM     78  C   UNL     1      29.069  19.490  21.919  1.00  0.00     0.328 C 
ATOM     79  O   UNL     1      29.818  19.762  22.864  1.00  0.00    -0.247 OA
BRANCH  78  80
ATOM     80  O   UNL     1      28.812  18.148  21.646  1.00  0.00    -0.478 OA
ATOM     81  H   UNL     1      27.912  17.773  21.953  1.00  0.00     0.297 HD
ENDBRANCH  78  80
ENDBRANCH  77  78
ENDBRANCH  73  76
ENDBRANCH  68  70
ENDBRANCH  64  65
ENDBRANCH  63  64
ENDBRANCH  60  63
ENDBRANCH  58  59
ENDBRANCH  55  58
ENDBRANCH   1  55
TORSDOF 33
