REMARK VINA RESULT:    -6.675      9.133     13.939
REMARK INTER + INTRA:         -22.171
REMARK INTER:                 -15.040
REMARK INTRA:                  -7.132
REMARK UNBOUND:                -5.351
REMARK SMILES CC(=O)N[C@@H]1[C@@H](O)C[C@](OC[C@H]2O[C@@H](O[C@H]3[C@H](O)[C@@H](O)[C@H](OCCN=[N+]=[N-])O[C@@H]3CO)[C@H](O)[C@@H](O)[C@H]2O)(C(=O)O)O[C@H]1C(O)[C@H](O)CNC(=O)OCc1cn(-c2ccc([N+](=O)[O-])cc2)nn1
REMARK SMILES IDX 9 1 8 2 6 3 5 4 42 5 41 6 10 7 11 8 12 9 14 10 13 11 32 12
REMARK SMILES IDX 34 13 36 14 15 15 16 16 29 17 28 18 21 19 17 20 19 21 30 22
REMARK SMILES IDX 31 23 22 25 23 26 24 27 25 28 26 29 27 30 18 31 20 33 33 35
REMARK SMILES IDX 35 37 37 39 38 41 39 42 40 43 7 45 43 47 44 48 45 50 46 51
REMARK SMILES IDX 47 53 48 54 49 55 50 57 51 58 52 59 53 60 54 61 66 62 55 63
REMARK SMILES IDX 65 64 56 65 57 66 64 67 58 68 63 69 59 70 60 71 61 72 62 73
REMARK SMILES IDX 4 74 2 75 1 77 3 78
REMARK H PARENT 31 24 18 32 20 34 33 36 35 38 37 40 40 44 7 46 44 49 46 52
REMARK H PARENT 48 56 4 76
REMARK Flexibility Score: inf
ROOT
ATOM      1  C   UNL     1      22.756  25.639  21.954  1.00  0.00     0.272 C 
ATOM      2  C   UNL     1      22.940  24.157  21.935  1.00  0.00     0.113 C 
ATOM      3  C   UNL     1      24.337  23.821  21.631  1.00  0.00     0.145 C 
ATOM      4  C   UNL     1      25.202  24.976  21.095  1.00  0.00     0.142 C 
ATOM      5  C   UNL     1      24.379  25.834  20.254  1.00  0.00     0.178 C 
ATOM      6  O   UNL     1      23.098  26.133  20.706  1.00  0.00    -0.332 OA
ENDROOT
BRANCH   1   7
ATOM      7  O   UNL     1      23.342  26.295  22.991  1.00  0.00    -0.338 OA
BRANCH   7   8
ATOM      8  C   UNL     1      23.035  25.870  24.242  1.00  0.00     0.199 C 
BRANCH   8   9
ATOM      9  C   UNL     1      24.038  26.372  25.273  1.00  0.00     0.179 C 
ATOM     10  C   UNL     1      22.872  27.476  26.974  1.00  0.00     0.282 C 
ATOM     11  O   UNL     1      23.661  27.546  25.869  1.00  0.00    -0.341 OA
ATOM     12  C   UNL     1      22.511  26.148  27.504  1.00  0.00     0.202 C 
ATOM     13  C   UNL     1      23.667  25.187  27.423  1.00  0.00     0.179 C 
ATOM     14  C   UNL     1      24.530  25.337  26.221  1.00  0.00     0.177 C 
BRANCH  10  15
ATOM     15  O   UNL     1      21.787  28.322  26.765  1.00  0.00    -0.341 OA
BRANCH  15  16
ATOM     16  C   UNL     1      21.806  29.095  25.653  1.00  0.00     0.184 C 
ATOM     17  C   UNL     1      21.833  30.582  25.930  1.00  0.00     0.178 C 
ATOM     18  O   UNL     1      21.790  31.260  24.694  1.00  0.00    -0.341 OA
ATOM     19  C   UNL     1      20.504  31.154  24.164  1.00  0.00     0.281 C 
ATOM     20  C   UNL     1      20.454  28.869  24.948  1.00  0.00     0.180 C 
ATOM     21  C   UNL     1      20.406  29.700  23.681  1.00  0.00     0.202 C 
BRANCH  17  22
ATOM     22  C   UNL     1      23.082  31.061  26.622  1.00  0.00     0.191 C 
BRANCH  22  23
ATOM     23  O   UNL     1      23.738  31.884  25.672  1.00  0.00    -0.394 OA
ATOM     24  H   UNL     1      23.269  32.756  25.586  1.00  0.00     0.210 HD
ENDBRANCH  22  23
ENDBRANCH  17  22
BRANCH  19  25
ATOM     25  O   UNL     1      20.362  31.980  23.080  1.00  0.00    -0.350 OA
BRANCH  25  26
ATOM     26  C   UNL     1      21.421  32.809  22.812  1.00  0.00     0.169 C 
BRANCH  26  27
ATOM     27  C   UNL     1      21.829  32.875  21.367  1.00  0.00     0.119 C 
BRANCH  27  28
ATOM     28  N   UNL     1      23.282  33.044  21.307  1.00  0.00    -0.092 NA
ATOM     29  N   UNL     1      23.877  32.782  20.272  1.00  0.00     0.001 N 
ATOM     30  N   UNL     1      24.404  32.741  19.172  1.00  0.00    -0.003 NA
ENDBRANCH  27  28
ENDBRANCH  26  27
ENDBRANCH  25  26
ENDBRANCH  19  25
BRANCH  20  31
ATOM     31  O   UNL     1      20.199  27.543  24.736  1.00  0.00    -0.387 OA
ATOM     32  H   UNL     1      19.301  27.241  24.974  1.00  0.00     0.211 HD
ENDBRANCH  20  31
BRANCH  21  33
ATOM     33  O   UNL     1      19.244  29.454  23.004  1.00  0.00    -0.385 OA
ATOM     34  H   UNL     1      18.823  30.313  22.761  1.00  0.00     0.211 HD
ENDBRANCH  21  33
ENDBRANCH  15  16
ENDBRANCH  10  15
BRANCH  12  35
ATOM     35  O   UNL     1      22.249  26.267  28.883  1.00  0.00    -0.385 OA
ATOM     36  H   UNL     1      22.862  25.729  29.418  1.00  0.00     0.211 HD
ENDBRANCH  12  35
BRANCH  13  37
ATOM     37  O   UNL     1      23.169  23.867  27.544  1.00  0.00    -0.387 OA
ATOM     38  H   UNL     1      22.292  23.849  27.126  1.00  0.00     0.211 HD
ENDBRANCH  13  37
BRANCH  14  39
ATOM     39  O   UNL     1      24.792  24.157  25.539  1.00  0.00    -0.387 OA
ATOM     40  H   UNL     1      23.929  23.847  25.151  1.00  0.00     0.211 HD
ENDBRANCH  14  39
ENDBRANCH   8   9
ENDBRANCH   7   8
ENDBRANCH   1   7
BRANCH   1  41
ATOM     41  C   UNL     1      21.267  25.912  22.005  1.00  0.00     0.364 C 
ATOM     42  O   UNL     1      20.826  27.039  21.709  1.00  0.00    -0.246 OA
BRANCH  41  43
ATOM     43  O   UNL     1      20.411  24.916  22.384  1.00  0.00    -0.477 OA
ATOM     44  H   UNL     1      20.084  24.166  21.781  1.00  0.00     0.296 HD
ENDBRANCH  41  43
ENDBRANCH   1  41
BRANCH   3  45
ATOM     45  O   UNL     1      24.997  23.340  22.759  1.00  0.00    -0.391 OA
ATOM     46  H   UNL     1      25.793  23.872  22.955  1.00  0.00     0.211 HD
ENDBRANCH   3  45
BRANCH   5  47
ATOM     47  C   UNL     1      24.864  27.099  19.696  1.00  0.00     0.176 C 
BRANCH  47  48
ATOM     48  O   UNL     1      24.697  27.276  18.319  1.00  0.00    -0.388 OA
ATOM     49  H   UNL     1      24.109  26.631  17.891  1.00  0.00     0.211 HD
ENDBRANCH  47  48
BRANCH  47  50
ATOM     50  C   UNL     1      24.491  28.405  20.319  1.00  0.00     0.165 C 
BRANCH  50  51
ATOM     51  O   UNL     1      24.265  28.402  21.661  1.00  0.00    -0.388 OA
ATOM     52  H   UNL     1      25.102  28.366  22.194  1.00  0.00     0.211 HD
ENDBRANCH  50  51
BRANCH  50  53
ATOM     53  C   UNL     1      23.563  29.227  19.466  1.00  0.00     0.154 C 
BRANCH  53  54
ATOM     54  N   UNL     1      22.172  28.872  19.565  1.00  0.00    -0.319 N 
ATOM     55  C   UNL     1      21.417  28.288  18.521  1.00  0.00     0.407 C 
ATOM     56  H   UNL     1      21.642  29.044  20.461  1.00  0.00     0.167 HD
ATOM     57  O   UNL     1      21.951  28.058  17.432  1.00  0.00    -0.225 OA
BRANCH  55  58
ATOM     58  O   UNL     1      20.069  27.959  18.682  1.00  0.00    -0.443 OA
BRANCH  58  59
ATOM     59  C   UNL     1      19.004  28.733  18.196  1.00  0.00     0.294 C 
BRANCH  59  60
ATOM     60  C   UNL     1      17.771  28.461  18.964  1.00  0.00     0.121 A 
ATOM     61  C   UNL     1      17.238  29.185  20.028  1.00  0.00     0.144 A 
ATOM     62  N   UNL     1      16.881  27.442  18.777  1.00  0.00    -0.131 NA
ATOM     63  N   UNL     1      16.091  28.609  20.434  1.00  0.00    -0.220 N 
ATOM     64  N   UNL     1      15.907  27.563  19.660  1.00  0.00    -0.062 NA
BRANCH  63  65
ATOM     65  C   UNL     1      15.227  29.047  21.489  1.00  0.00     0.067 A 
ATOM     66  C   UNL     1      15.676  29.490  22.710  1.00  0.00     0.035 A 
ATOM     67  C   UNL     1      13.853  29.023  21.293  1.00  0.00     0.035 A 
ATOM     68  C   UNL     1      14.791  29.896  23.706  1.00  0.00     0.088 A 
ATOM     69  C   UNL     1      12.974  29.423  22.277  1.00  0.00     0.088 A 
ATOM     70  C   UNL     1      13.423  29.868  23.502  1.00  0.00     0.269 A 
BRANCH  70  71
ATOM     71  N   UNL     1      12.528  30.282  24.529  1.00  0.00     0.062 N 
ATOM     72  O   UNL     1      12.866  30.496  25.703  1.00  0.00    -0.258 OA
ATOM     73  O   UNL     1      11.208  30.451  24.195  1.00  0.00    -0.258 OA
ENDBRANCH  70  71
ENDBRANCH  63  65
ENDBRANCH  59  60
ENDBRANCH  58  59
ENDBRANCH  55  58
ENDBRANCH  53  54
ENDBRANCH  50  53
ENDBRANCH  47  50
ENDBRANCH   5  47
BRANCH   4  74
ATOM     74  N   UNL     1      26.156  24.230  20.258  1.00  0.00    -0.348 N 
ATOM     75  C   UNL     1      27.408  23.804  20.732  1.00  0.00     0.217 C 
ATOM     76  H   UNL     1      25.868  24.014  19.287  1.00  0.00     0.163 HD
ATOM     77  C   UNL     1      28.303  23.056  19.798  1.00  0.00     0.114 C 
ATOM     78  O   UNL     1      27.795  24.023  21.890  1.00  0.00    -0.275 OA
ENDBRANCH   4  74
TORSDOF 31
