REMARK VINA RESULT:    -4.834     11.027     16.114
REMARK INTER + INTRA:         -23.020
REMARK INTER:                 -16.006
REMARK INTRA:                  -7.015
REMARK UNBOUND:               -10.839
REMARK SMILES CC(=O)N[C@@H]1[C@@H](O)C[C@](OC[C@H]2O[C@@H](O[C@H]3[C@H](O)[C@@H](O)[C@H](OCCN=[N+]=[N-])O[C@@H]3CO)[C@H](O)[C@@H](O)[C@H]2O)(C(=O)O)O[C@H]1C(O)[C@H](O)CNC(=O)OCc1cn(-c2ccccc2C(C)C)nn1
REMARK SMILES IDX 9 1 8 2 6 3 5 4 42 5 41 6 10 7 11 8 12 9 14 10 13 11 32 12
REMARK SMILES IDX 34 13 36 14 15 15 16 16 29 17 28 18 21 19 17 20 19 21 30 22
REMARK SMILES IDX 31 23 22 25 23 26 24 27 25 28 26 29 27 30 18 31 20 33 33 35
REMARK SMILES IDX 35 37 37 39 38 41 39 42 40 43 7 45 43 47 44 48 45 50 46 51
REMARK SMILES IDX 47 53 48 54 49 55 50 57 51 58 52 59 53 60 54 61 66 62 55 63
REMARK SMILES IDX 65 64 56 65 61 66 57 67 60 68 58 69 59 70 62 71 63 72 64 73
REMARK SMILES IDX 4 74 2 75 1 77 3 78
REMARK H PARENT 31 24 18 32 20 34 33 36 35 38 37 40 40 44 7 46 44 49 46 52
REMARK H PARENT 48 56 4 76
REMARK Flexibility Score: inf
ROOT
ATOM      1  C   UNL     1      15.228  29.614  22.020  1.00  0.00     0.272 C 
ATOM      2  C   UNL     1      13.885  29.162  21.494  1.00  0.00     0.113 C 
ATOM      3  C   UNL     1      13.351  30.267  20.595  1.00  0.00     0.145 C 
ATOM      4  C   UNL     1      13.016  31.459  21.510  1.00  0.00     0.142 C 
ATOM      5  C   UNL     1      14.202  31.712  22.361  1.00  0.00     0.178 C 
ATOM      6  O   UNL     1      15.297  31.029  21.852  1.00  0.00    -0.332 OA
ENDROOT
BRANCH   1   7
ATOM      7  O   UNL     1      16.253  29.160  21.274  1.00  0.00    -0.338 OA
BRANCH   7   8
ATOM      8  C   UNL     1      16.305  28.307  20.310  1.00  0.00     0.199 C 
BRANCH   8   9
ATOM      9  C   UNL     1      17.107  28.481  19.061  1.00  0.00     0.179 C 
ATOM     10  C   UNL     1      17.006  28.968  16.843  1.00  0.00     0.282 C 
ATOM     11  O   UNL     1      16.347  28.516  17.918  1.00  0.00    -0.341 OA
ATOM     12  C   UNL     1      18.525  28.994  16.937  1.00  0.00     0.202 C 
ATOM     13  C   UNL     1      18.994  29.748  18.152  1.00  0.00     0.179 C 
ATOM     14  C   UNL     1      17.866  29.826  19.138  1.00  0.00     0.177 C 
BRANCH  10  15
ATOM     15  O   UNL     1      16.605  30.147  16.291  1.00  0.00    -0.341 OA
BRANCH  15  16
ATOM     16  C   UNL     1      15.490  30.175  15.492  1.00  0.00     0.184 C 
ATOM     17  C   UNL     1      14.302  30.804  16.141  1.00  0.00     0.178 C 
ATOM     18  O   UNL     1      13.225  29.992  16.216  1.00  0.00    -0.341 OA
ATOM     19  C   UNL     1      12.734  29.399  15.095  1.00  0.00     0.281 C 
ATOM     20  C   UNL     1      15.143  28.899  14.840  1.00  0.00     0.180 C 
ATOM     21  C   UNL     1      13.840  29.098  14.083  1.00  0.00     0.202 C 
BRANCH  17  22
ATOM     22  C   UNL     1      13.864  32.115  15.469  1.00  0.00     0.191 C 
BRANCH  22  23
ATOM     23  O   UNL     1      14.957  32.571  14.698  1.00  0.00    -0.394 OA
ATOM     24  H   UNL     1      15.755  32.045  15.020  1.00  0.00     0.210 HD
ENDBRANCH  22  23
ENDBRANCH  17  22
BRANCH  19  25
ATOM     25  O   UNL     1      11.817  30.209  14.479  1.00  0.00    -0.350 OA
BRANCH  25  26
ATOM     26  C   UNL     1      10.589  29.697  14.199  1.00  0.00     0.169 C 
BRANCH  26  27
ATOM     27  C   UNL     1      10.201  29.538  12.776  1.00  0.00     0.119 C 
BRANCH  27  28
ATOM     28  N   UNL     1      10.416  28.212  12.304  1.00  0.00    -0.092 NA
ATOM     29  N   UNL     1      11.167  27.860  11.417  1.00  0.00     0.001 N 
ATOM     30  N   UNL     1      12.072  27.655  10.616  1.00  0.00    -0.003 NA
ENDBRANCH  27  28
ENDBRANCH  26  27
ENDBRANCH  25  26
ENDBRANCH  19  25
BRANCH  20  31
ATOM     31  O   UNL     1      16.072  28.458  13.899  1.00  0.00    -0.387 OA
ATOM     32  H   UNL     1      16.129  29.132  13.186  1.00  0.00     0.211 HD
ENDBRANCH  20  31
BRANCH  21  33
ATOM     33  O   UNL     1      13.486  27.934  13.397  1.00  0.00    -0.385 OA
ATOM     34  H   UNL     1      13.325  28.194  12.455  1.00  0.00     0.211 HD
ENDBRANCH  21  33
ENDBRANCH  15  16
ENDBRANCH  10  15
BRANCH  12  35
ATOM     35  O   UNL     1      18.972  27.684  16.961  1.00  0.00    -0.385 OA
ATOM     36  H   UNL     1      19.461  27.474  16.104  1.00  0.00     0.211 HD
ENDBRANCH  12  35
BRANCH  13  37
ATOM     37  O   UNL     1      19.424  31.024  17.763  1.00  0.00    -0.387 OA
ATOM     38  H   UNL     1      20.250  30.891  17.235  1.00  0.00     0.211 HD
ENDBRANCH  13  37
BRANCH  14  39
ATOM     39  O   UNL     1      16.980  30.813  18.759  1.00  0.00    -0.387 OA
ATOM     40  H   UNL     1      16.746  30.664  17.809  1.00  0.00     0.211 HD
ENDBRANCH  14  39
ENDBRANCH   8   9
ENDBRANCH   7   8
ENDBRANCH   1   7
BRANCH   1  41
ATOM     41  C   UNL     1      15.378  29.324  23.451  1.00  0.00     0.364 C 
ATOM     42  O   UNL     1      16.572  29.377  23.919  1.00  0.00    -0.246 OA
BRANCH  41  43
ATOM     43  O   UNL     1      14.415  28.999  24.368  1.00  0.00    -0.477 OA
ATOM     44  H   UNL     1      13.959  28.111  24.473  1.00  0.00     0.296 HD
ENDBRANCH  41  43
ENDBRANCH   1  41
BRANCH   3  45
ATOM     45  O   UNL     1      14.374  30.733  19.763  1.00  0.00    -0.391 OA
ATOM     46  H   UNL     1      13.942  31.165  18.984  1.00  0.00     0.211 HD
ENDBRANCH   3  45
BRANCH   5  47
ATOM     47  C   UNL     1      14.658  33.133  22.503  1.00  0.00     0.176 C 
BRANCH  47  48
ATOM     48  O   UNL     1      13.678  33.869  21.748  1.00  0.00    -0.388 OA
ATOM     49  H   UNL     1      12.856  33.749  22.321  1.00  0.00     0.211 HD
ENDBRANCH  47  48
BRANCH  47  50
ATOM     50  C   UNL     1      15.974  33.486  21.889  1.00  0.00     0.165 C 
BRANCH  50  51
ATOM     51  O   UNL     1      16.151  32.999  20.622  1.00  0.00    -0.388 OA
ATOM     52  H   UNL     1      15.481  33.449  20.046  1.00  0.00     0.211 HD
ENDBRANCH  50  51
BRANCH  50  53
ATOM     53  C   UNL     1      17.117  33.413  22.830  1.00  0.00     0.154 C 
BRANCH  53  54
ATOM     54  N   UNL     1      17.773  32.122  22.914  1.00  0.00    -0.319 N 
ATOM     55  C   UNL     1      18.831  31.768  22.042  1.00  0.00     0.407 C 
ATOM     56  H   UNL     1      17.498  31.402  23.617  1.00  0.00     0.167 HD
ATOM     57  O   UNL     1      19.272  32.520  21.144  1.00  0.00    -0.225 OA
BRANCH  55  58
ATOM     58  O   UNL     1      19.491  30.518  22.109  1.00  0.00    -0.443 OA
BRANCH  58  59
ATOM     59  C   UNL     1      20.707  30.336  21.452  1.00  0.00     0.294 C 
BRANCH  59  60
ATOM     60  C   UNL     1      21.018  28.879  21.424  1.00  0.00     0.121 A 
ATOM     61  C   UNL     1      22.199  28.210  21.658  1.00  0.00     0.144 A 
ATOM     62  N   UNL     1      20.124  27.878  21.143  1.00  0.00    -0.131 NA
ATOM     63  N   UNL     1      22.037  26.883  21.530  1.00  0.00    -0.220 N 
ATOM     64  N   UNL     1      20.746  26.719  21.212  1.00  0.00    -0.062 NA
BRANCH  63  65
ATOM     65  C   UNL     1      22.985  25.833  21.691  1.00  0.00     0.070 A 
ATOM     66  C   UNL     1      23.009  25.120  22.869  1.00  0.00    -0.020 A 
ATOM     67  C   UNL     1      23.906  25.489  20.727  1.00  0.00     0.029 A 
ATOM     68  C   UNL     1      23.921  24.103  23.070  1.00  0.00     0.006 A 
ATOM     69  C   UNL     1      24.826  24.474  20.911  1.00  0.00     0.002 A 
ATOM     70  C   UNL     1      24.835  23.770  22.099  1.00  0.00     0.000 A 
BRANCH  66  71
ATOM     71  C   UNL     1      22.031  25.450  23.926  1.00  0.00     0.015 C 
ATOM     72  C   UNL     1      22.701  25.227  25.274  1.00  0.00     0.012 C 
ATOM     73  C   UNL     1      20.837  24.486  23.834  1.00  0.00     0.012 C 
ENDBRANCH  66  71
ENDBRANCH  63  65
ENDBRANCH  59  60
ENDBRANCH  58  59
ENDBRANCH  55  58
ENDBRANCH  53  54
ENDBRANCH  50  53
ENDBRANCH  47  50
ENDBRANCH   5  47
BRANCH   4  74
ATOM     74  N   UNL     1      11.843  31.088  22.270  1.00  0.00    -0.348 N 
ATOM     75  C   UNL     1      10.903  31.987  22.795  1.00  0.00     0.217 C 
ATOM     76  H   UNL     1      11.681  30.052  22.450  1.00  0.00     0.163 HD
ATOM     77  C   UNL     1       9.737  31.441  23.568  1.00  0.00     0.114 C 
ATOM     78  O   UNL     1      11.027  33.208  22.629  1.00  0.00    -0.275 OA
ENDBRANCH   4  74
TORSDOF 31
