REMARK VINA RESULT:    -5.648      2.962      3.710
REMARK INTER + INTRA:         -22.003
REMARK INTER:                 -16.296
REMARK INTRA:                  -5.707
REMARK UNBOUND:                -7.606
REMARK SMILES CC(=O)N[C@@H]1[C@@H](O)C[C@](OC[C@H]2O[C@@H](O[C@H]3[C@H](O)[C@@H](O)[C@H](OCCN=[N+]=[N-])O[C@@H]3CO)[C@H](O)[C@@H](O)[C@H]2O)(C(=O)O)O[C@H]1C(O)[C@H](O)CNC(=O)OCc1cn(-c2ccc(CO)cn2)nn1
REMARK SMILES IDX 9 1 8 2 6 3 5 4 42 5 41 6 10 7 11 8 12 9 14 10 13 11 32 12
REMARK SMILES IDX 34 13 36 14 15 15 16 16 29 17 28 18 21 19 17 20 19 21 30 22
REMARK SMILES IDX 31 23 22 25 23 26 24 27 25 28 26 29 27 30 18 31 20 33 33 35
REMARK SMILES IDX 35 37 37 39 38 41 39 42 40 43 7 45 43 47 44 48 45 50 46 51
REMARK SMILES IDX 47 53 48 54 49 55 50 57 51 58 52 59 53 60 54 61 65 62 55 63
REMARK SMILES IDX 64 64 56 65 57 66 63 67 58 68 62 69 59 70 60 71 61 72 4 74
REMARK SMILES IDX 2 75 1 77 3 78
REMARK H PARENT 31 24 18 32 20 34 33 36 35 38 37 40 40 44 7 46 44 49 46 52
REMARK H PARENT 48 56 61 73 4 76
REMARK Flexibility Score: inf
ROOT
ATOM      1  C   UNL     1      25.761  25.209  19.728  1.00  0.00     0.272 C 
ATOM      2  C   UNL     1      26.802  24.403  20.411  1.00  0.00     0.113 C 
ATOM      3  C   UNL     1      26.537  24.250  21.883  1.00  0.00     0.145 C 
ATOM      4  C   UNL     1      25.096  23.839  22.111  1.00  0.00     0.142 C 
ATOM      5  C   UNL     1      24.180  24.732  21.381  1.00  0.00     0.178 C 
ATOM      6  O   UNL     1      24.476  24.872  20.070  1.00  0.00    -0.332 OA
ENDROOT
BRANCH   1   7
ATOM      7  O   UNL     1      25.836  25.167  18.346  1.00  0.00    -0.338 OA
BRANCH   7   8
ATOM      8  C   UNL     1      24.973  24.250  17.782  1.00  0.00     0.199 C 
BRANCH   8   9
ATOM      9  C   UNL     1      24.318  24.850  16.575  1.00  0.00     0.179 C 
ATOM     10  C   UNL     1      23.308  24.307  14.627  1.00  0.00     0.282 C 
ATOM     11  O   UNL     1      23.372  23.977  16.005  1.00  0.00    -0.341 OA
ATOM     12  C   UNL     1      23.104  25.757  14.463  1.00  0.00     0.202 C 
ATOM     13  C   UNL     1      22.700  26.516  15.716  1.00  0.00     0.179 C 
ATOM     14  C   UNL     1      23.588  26.115  16.890  1.00  0.00     0.177 C 
BRANCH  10  15
ATOM     15  O   UNL     1      22.352  23.498  14.004  1.00  0.00    -0.341 OA
BRANCH  15  16
ATOM     16  C   UNL     1      22.596  23.326  12.659  1.00  0.00     0.184 C 
ATOM     17  C   UNL     1      21.464  22.759  11.861  1.00  0.00     0.178 C 
ATOM     18  O   UNL     1      21.707  21.472  11.386  1.00  0.00    -0.341 OA
ATOM     19  C   UNL     1      22.006  20.573  12.378  1.00  0.00     0.281 C 
ATOM     20  C   UNL     1      23.757  22.318  12.563  1.00  0.00     0.180 C 
ATOM     21  C   UNL     1      23.201  21.046  13.219  1.00  0.00     0.202 C 
BRANCH  17  22
ATOM     22  C   UNL     1      21.335  23.624  10.594  1.00  0.00     0.191 C 
BRANCH  22  23
ATOM     23  O   UNL     1      20.294  23.132   9.791  1.00  0.00    -0.394 OA
ATOM     24  H   UNL     1      19.755  22.451  10.295  1.00  0.00     0.210 HD
ENDBRANCH  22  23
ENDBRANCH  17  22
BRANCH  19  25
ATOM     25  O   UNL     1      22.330  19.357  11.784  1.00  0.00    -0.350 OA
BRANCH  25  26
ATOM     26  C   UNL     1      21.978  19.285  10.461  1.00  0.00     0.169 C 
BRANCH  26  27
ATOM     27  C   UNL     1      21.169  18.011  10.257  1.00  0.00     0.119 C 
BRANCH  27  28
ATOM     28  N   UNL     1      19.748  18.323  10.174  1.00  0.00    -0.092 NA
ATOM     29  N   UNL     1      19.103  18.792  11.097  1.00  0.00     0.001 N 
ATOM     30  N   UNL     1      18.490  19.597  11.798  1.00  0.00    -0.003 NA
ENDBRANCH  27  28
ENDBRANCH  26  27
ENDBRANCH  25  26
ENDBRANCH  19  25
BRANCH  20  31
ATOM     31  O   UNL     1      24.188  22.120  11.280  1.00  0.00    -0.387 OA
ATOM     32  H   UNL     1      24.714  21.309  11.233  1.00  0.00     0.211 HD
ENDBRANCH  20  31
BRANCH  21  33
ATOM     33  O   UNL     1      22.769  21.424  14.488  1.00  0.00    -0.385 OA
ATOM     34  H   UNL     1      21.828  21.722  14.404  1.00  0.00     0.211 HD
ENDBRANCH  21  33
ENDBRANCH  15  16
ENDBRANCH  10  15
BRANCH  12  35
ATOM     35  O   UNL     1      24.301  26.336  13.977  1.00  0.00    -0.385 OA
ATOM     36  H   UNL     1      24.499  27.194  14.433  1.00  0.00     0.211 HD
ENDBRANCH  12  35
BRANCH  13  37
ATOM     37  O   UNL     1      21.351  26.385  15.994  1.00  0.00    -0.387 OA
ATOM     38  H   UNL     1      21.056  26.870  16.779  1.00  0.00     0.211 HD
ENDBRANCH  13  37
BRANCH  14  39
ATOM     39  O   UNL     1      22.775  25.980  17.995  1.00  0.00    -0.387 OA
ATOM     40  H   UNL     1      22.224  26.780  18.095  1.00  0.00     0.211 HD
ENDBRANCH  14  39
ENDBRANCH   8   9
ENDBRANCH   7   8
ENDBRANCH   1   7
BRANCH   1  41
ATOM     41  C   UNL     1      25.882  26.678  20.077  1.00  0.00     0.364 C 
ATOM     42  O   UNL     1      24.990  27.519  19.814  1.00  0.00    -0.246 OA
BRANCH  41  43
ATOM     43  O   UNL     1      27.012  27.153  20.713  1.00  0.00    -0.477 OA
ATOM     44  H   UNL     1      27.886  26.616  20.664  1.00  0.00     0.296 HD
ENDBRANCH  41  43
ENDBRANCH   1  41
BRANCH   3  45
ATOM     45  O   UNL     1      27.320  23.161  22.313  1.00  0.00    -0.391 OA
ATOM     46  H   UNL     1      27.036  22.307  21.939  1.00  0.00     0.211 HD
ENDBRANCH   3  45
BRANCH   5  47
ATOM     47  C   UNL     1      22.715  24.375  21.558  1.00  0.00     0.176 C 
BRANCH  47  48
ATOM     48  O   UNL     1      22.149  24.097  20.315  1.00  0.00    -0.388 OA
ATOM     49  H   UNL     1      22.719  23.475  19.805  1.00  0.00     0.211 HD
ENDBRANCH  47  48
BRANCH  47  50
ATOM     50  C   UNL     1      21.884  25.401  22.231  1.00  0.00     0.165 C 
BRANCH  50  51
ATOM     51  O   UNL     1      20.509  25.151  22.121  1.00  0.00    -0.388 OA
ATOM     52  H   UNL     1      20.194  24.445  22.705  1.00  0.00     0.211 HD
ENDBRANCH  50  51
BRANCH  50  53
ATOM     53  C   UNL     1      22.196  26.831  21.896  1.00  0.00     0.154 C 
BRANCH  53  54
ATOM     54  N   UNL     1      22.034  27.078  20.488  1.00  0.00    -0.319 N 
ATOM     55  C   UNL     1      20.831  27.641  20.000  1.00  0.00     0.407 C 
ATOM     56  H   UNL     1      22.827  26.834  19.809  1.00  0.00     0.167 HD
ATOM     57  O   UNL     1      19.873  27.947  20.744  1.00  0.00    -0.225 OA
BRANCH  55  58
ATOM     58  O   UNL     1      20.652  27.887  18.635  1.00  0.00    -0.443 OA
BRANCH  58  59
ATOM     59  C   UNL     1      20.121  29.115  18.224  1.00  0.00     0.294 C 
BRANCH  59  60
ATOM     60  C   UNL     1      19.213  29.070  17.085  1.00  0.00     0.121 A 
ATOM     61  C   UNL     1      17.847  29.206  17.113  1.00  0.00     0.146 A 
ATOM     62  N   UNL     1      19.540  28.883  15.796  1.00  0.00    -0.131 NA
ATOM     63  N   UNL     1      17.382  29.098  15.852  1.00  0.00    -0.202 N 
ATOM     64  N   UNL     1      18.439  28.904  15.086  1.00  0.00    -0.061 NA
BRANCH  63  65
ATOM     65  C   UNL     1      16.014  29.182  15.484  1.00  0.00     0.155 A 
ATOM     66  C   UNL     1      15.116  29.982  16.184  1.00  0.00     0.049 A 
ATOM     67  N   UNL     1      15.530  28.481  14.445  1.00  0.00    -0.237 NA
ATOM     68  C   UNL     1      13.779  30.044  15.814  1.00  0.00     0.011 A 
ATOM     69  C   UNL     1      14.230  28.527  14.068  1.00  0.00     0.119 A 
ATOM     70  C   UNL     1      13.312  29.313  14.744  1.00  0.00    -0.004 A 
BRANCH  70  71
ATOM     71  C   UNL     1      11.878  29.383  14.355  1.00  0.00     0.193 C 
BRANCH  71  72
ATOM     72  O   UNL     1      11.523  28.289  13.566  1.00  0.00    -0.392 OA
ATOM     73  H   UNL     1      10.577  28.053  13.657  1.00  0.00     0.211 HD
ENDBRANCH  71  72
ENDBRANCH  70  71
ENDBRANCH  63  65
ENDBRANCH  59  60
ENDBRANCH  58  59
ENDBRANCH  55  58
ENDBRANCH  53  54
ENDBRANCH  50  53
ENDBRANCH  47  50
ENDBRANCH   5  47
BRANCH   4  74
ATOM     74  N   UNL     1      24.824  23.814  23.549  1.00  0.00    -0.348 N 
ATOM     75  C   UNL     1      24.882  24.956  24.344  1.00  0.00     0.217 C 
ATOM     76  H   UNL     1      24.570  22.901  23.978  1.00  0.00     0.163 HD
ATOM     77  C   UNL     1      24.585  24.787  25.816  1.00  0.00     0.114 C 
ATOM     78  O   UNL     1      25.161  26.086  23.919  1.00  0.00    -0.275 OA
ENDBRANCH   4  74
TORSDOF 32
