REMARK VINA RESULT:    -6.018      9.062     14.651
REMARK INTER + INTRA:         -21.753
REMARK INTER:                 -13.204
REMARK INTRA:                  -8.549
REMARK UNBOUND:                -6.939
REMARK SMILES CC(=O)N[C@@H]1[C@@H](O)C[C@](OC[C@H]2O[C@@H](O[C@H]3[C@H](O)[C@@H](O)[C@H](OCCN=[N+]=[N-])O[C@@H]3CO)[C@H](O)[C@@H](O)[C@H]2O)(C(=O)O)O[C@H]1C(O)[C@H](O)CNC(=O)OCc1cn([C@H]2C[C@H]3CC[C@@H](C2)N3C)nn1
REMARK SMILES IDX 9 1 8 2 6 3 5 4 42 5 41 6 10 7 11 8 12 9 14 10 13 11 32 12
REMARK SMILES IDX 34 13 36 14 15 15 16 16 29 17 28 18 21 19 17 20 19 21 30 22
REMARK SMILES IDX 31 23 22 25 23 26 24 27 25 28 26 29 27 30 18 31 20 33 33 35
REMARK SMILES IDX 35 37 37 39 38 41 39 42 40 43 7 45 43 47 44 48 45 50 46 51
REMARK SMILES IDX 47 53 48 54 49 55 50 57 51 58 52 59 53 60 54 61 66 62 55 63
REMARK SMILES IDX 65 64 56 65 62 66 57 67 61 68 58 69 63 70 60 71 59 72 64 73
REMARK SMILES IDX 4 74 2 75 1 77 3 78
REMARK H PARENT 31 24 18 32 20 34 33 36 35 38 37 40 40 44 7 46 44 49 46 52
REMARK H PARENT 48 56 4 76
REMARK Flexibility Score: inf
ROOT
ATOM      1  C   UNL     1      24.463  25.146  23.780  1.00  0.00     0.272 C 
ATOM      2  C   UNL     1      25.568  26.155  23.524  1.00  0.00     0.113 C 
ATOM      3  C   UNL     1      25.400  27.463  24.235  1.00  0.00     0.145 C 
ATOM      4  C   UNL     1      23.951  27.745  24.369  1.00  0.00     0.142 C 
ATOM      5  C   UNL     1      23.240  27.053  23.202  1.00  0.00     0.178 C 
ATOM      6  O   UNL     1      23.208  25.676  23.672  1.00  0.00    -0.332 OA
ENDROOT
BRANCH   1   7
ATOM      7  O   UNL     1      24.719  24.534  24.970  1.00  0.00    -0.338 OA
BRANCH   7   8
ATOM      8  C   UNL     1      23.704  24.139  25.764  1.00  0.00     0.199 C 
BRANCH   8   9
ATOM      9  C   UNL     1      23.649  24.624  27.164  1.00  0.00     0.179 C 
ATOM     10  C   UNL     1      24.958  25.760  28.611  1.00  0.00     0.282 C 
ATOM     11  O   UNL     1      24.514  25.759  27.284  1.00  0.00    -0.341 OA
ATOM     12  C   UNL     1      23.875  25.738  29.605  1.00  0.00     0.202 C 
ATOM     13  C   UNL     1      22.505  25.402  29.154  1.00  0.00     0.179 C 
ATOM     14  C   UNL     1      22.343  25.141  27.673  1.00  0.00     0.177 C 
BRANCH  10  15
ATOM     15  O   UNL     1      25.800  26.839  28.732  1.00  0.00    -0.341 OA
BRANCH  15  16
ATOM     16  C   UNL     1      27.019  26.504  29.328  1.00  0.00     0.184 C 
ATOM     17  C   UNL     1      27.281  27.175  30.636  1.00  0.00     0.178 C 
ATOM     18  O   UNL     1      27.675  28.474  30.602  1.00  0.00    -0.341 OA
ATOM     19  C   UNL     1      28.603  28.776  29.666  1.00  0.00     0.281 C 
ATOM     20  C   UNL     1      28.071  26.867  28.303  1.00  0.00     0.180 C 
ATOM     21  C   UNL     1      28.093  28.394  28.278  1.00  0.00     0.202 C 
BRANCH  17  22
ATOM     22  C   UNL     1      28.122  26.284  31.558  1.00  0.00     0.191 C 
BRANCH  22  23
ATOM     23  O   UNL     1      28.322  25.014  31.069  1.00  0.00    -0.394 OA
ATOM     24  H   UNL     1      28.002  24.902  30.149  1.00  0.00     0.210 HD
ENDBRANCH  22  23
ENDBRANCH  17  22
BRANCH  19  25
ATOM     25  O   UNL     1      29.886  28.370  29.880  1.00  0.00    -0.350 OA
BRANCH  25  26
ATOM     26  C   UNL     1      30.619  29.016  30.828  1.00  0.00     0.169 C 
BRANCH  26  27
ATOM     27  C   UNL     1      31.344  28.076  31.729  1.00  0.00     0.119 C 
BRANCH  27  28
ATOM     28  N   UNL     1      32.236  27.183  30.977  1.00  0.00    -0.092 NA
ATOM     29  N   UNL     1      31.946  25.981  30.846  1.00  0.00     0.001 N 
ATOM     30  N   UNL     1      31.310  25.016  30.379  1.00  0.00    -0.003 NA
ENDBRANCH  27  28
ENDBRANCH  26  27
ENDBRANCH  25  26
ENDBRANCH  19  25
BRANCH  20  31
ATOM     31  O   UNL     1      29.327  26.402  28.608  1.00  0.00    -0.387 OA
ATOM     32  H   UNL     1      29.581  25.612  28.105  1.00  0.00     0.211 HD
ENDBRANCH  20  31
BRANCH  21  33
ATOM     33  O   UNL     1      26.814  28.910  28.085  1.00  0.00    -0.385 OA
ATOM     34  H   UNL     1      26.673  29.597  28.791  1.00  0.00     0.211 HD
ENDBRANCH  21  33
ENDBRANCH  15  16
ENDBRANCH  10  15
BRANCH  12  35
ATOM     35  O   UNL     1      24.240  24.795  30.601  1.00  0.00    -0.385 OA
ATOM     36  H   UNL     1      24.289  23.881  30.249  1.00  0.00     0.211 HD
ENDBRANCH  12  35
BRANCH  13  37
ATOM     37  O   UNL     1      21.591  26.438  29.473  1.00  0.00    -0.387 OA
ATOM     38  H   UNL     1      20.667  26.030  29.440  1.00  0.00     0.211 HD
ENDBRANCH  13  37
BRANCH  14  39
ATOM     39  O   UNL     1      22.079  26.403  27.090  1.00  0.00    -0.387 OA
ATOM     40  H   UNL     1      22.074  27.026  27.882  1.00  0.00     0.211 HD
ENDBRANCH  14  39
ENDBRANCH   8   9
ENDBRANCH   7   8
ENDBRANCH   1   7
BRANCH   1  41
ATOM     41  C   UNL     1      24.611  24.164  22.659  1.00  0.00     0.364 C 
ATOM     42  O   UNL     1      23.684  23.902  21.898  1.00  0.00    -0.246 OA
BRANCH  41  43
ATOM     43  O   UNL     1      25.831  23.509  22.445  1.00  0.00    -0.477 OA
ATOM     44  H   UNL     1      26.398  23.308  23.280  1.00  0.00     0.296 HD
ENDBRANCH  41  43
ENDBRANCH   1  41
BRANCH   3  45
ATOM     45  O   UNL     1      26.040  27.318  25.489  1.00  0.00    -0.391 OA
ATOM     46  H   UNL     1      26.455  26.422  25.558  1.00  0.00     0.211 HD
ENDBRANCH   3  45
BRANCH   5  47
ATOM     47  C   UNL     1      21.834  27.460  23.005  1.00  0.00     0.176 C 
BRANCH  47  48
ATOM     48  O   UNL     1      21.067  26.763  24.036  1.00  0.00    -0.388 OA
ATOM     49  H   UNL     1      20.166  27.173  24.056  1.00  0.00     0.211 HD
ENDBRANCH  47  48
BRANCH  47  50
ATOM     50  C   UNL     1      21.141  26.878  21.782  1.00  0.00     0.165 C 
BRANCH  50  51
ATOM     51  O   UNL     1      21.027  25.489  22.036  1.00  0.00    -0.388 OA
ATOM     52  H   UNL     1      20.200  25.284  22.537  1.00  0.00     0.211 HD
ENDBRANCH  50  51
BRANCH  50  53
ATOM     53  C   UNL     1      21.766  27.106  20.465  1.00  0.00     0.154 C 
BRANCH  53  54
ATOM     54  N   UNL     1      22.385  25.827  20.063  1.00  0.00    -0.319 N 
ATOM     55  C   UNL     1      23.448  25.783  19.127  1.00  0.00     0.407 C 
ATOM     56  H   UNL     1      22.022  24.951  20.481  1.00  0.00     0.167 HD
ATOM     57  O   UNL     1      23.880  26.876  18.641  1.00  0.00    -0.225 OA
BRANCH  55  58
ATOM     58  O   UNL     1      24.008  24.572  18.751  1.00  0.00    -0.443 OA
BRANCH  58  59
ATOM     59  C   UNL     1      25.268  24.586  18.120  1.00  0.00     0.294 C 
BRANCH  59  60
ATOM     60  C   UNL     1      26.396  24.365  19.047  1.00  0.00     0.120 A 
ATOM     61  C   UNL     1      27.146  23.209  19.111  1.00  0.00     0.138 A 
ATOM     62  N   UNL     1      26.901  25.171  19.987  1.00  0.00    -0.132 NA
ATOM     63  N   UNL     1      28.072  23.331  20.070  1.00  0.00    -0.249 N 
ATOM     64  N   UNL     1      27.910  24.544  20.600  1.00  0.00    -0.067 NA
BRANCH  63  65
ATOM     65  C   UNL     1      29.033  22.296  20.421  1.00  0.00     0.112 C 
ATOM     66  C   UNL     1      30.112  22.330  19.393  1.00  0.00     0.046 C 
ATOM     67  C   UNL     1      28.299  21.001  20.556  1.00  0.00     0.046 C 
ATOM     68  C   UNL     1      30.556  20.990  18.901  1.00  0.00     0.058 C 
ATOM     69  C   UNL     1      29.001  19.804  19.995  1.00  0.00     0.058 C 
ATOM     70  N   UNL     1      30.435  19.976  19.901  1.00  0.00    -0.300 NA
ATOM     71  C   UNL     1      29.578  20.519  17.826  1.00  0.00     0.021 C 
ATOM     72  C   UNL     1      28.584  19.640  18.548  1.00  0.00     0.021 C 
ATOM     73  C   UNL     1      31.046  20.294  21.169  1.00  0.00     0.105 C 
ENDBRANCH  63  65
ENDBRANCH  59  60
ENDBRANCH  58  59
ENDBRANCH  55  58
ENDBRANCH  53  54
ENDBRANCH  50  53
ENDBRANCH  47  50
ENDBRANCH   5  47
BRANCH   4  74
ATOM     74  N   UNL     1      23.577  29.050  24.713  1.00  0.00    -0.348 N 
ATOM     75  C   UNL     1      23.547  29.518  26.071  1.00  0.00     0.217 C 
ATOM     76  H   UNL     1      23.336  29.759  23.984  1.00  0.00     0.163 HD
ATOM     77  C   UNL     1      23.147  30.940  26.338  1.00  0.00     0.114 C 
ATOM     78  O   UNL     1      23.843  28.777  27.016  1.00  0.00    -0.275 OA
ENDBRANCH   4  74
TORSDOF 30
