REMARK VINA RESULT:    -4.747      3.712      8.907
REMARK INTER + INTRA:         -20.822
REMARK INTER:                 -12.813
REMARK INTRA:                  -8.009
REMARK UNBOUND:                -8.028
REMARK SMILES CCN(CC)CCn1cc(COC(=O)NC[C@@H](O)C(O)[C@@H]2O[C@@](OC[C@H]3O[C@@H](O[C@H]4[C@H](O)[C@@H](O)[C@H](OCCN=[N+]=[N-])O[C@@H]4CO)[C@H](O)[C@@H](O)[C@H]3O)(C(=O)O)C[C@H](O)[C@H]2NC(C)=O)nn1
REMARK SMILES IDX 19 1 21 2 23 3 55 4 22 5 56 6 58 7 24 8 25 9 26 10 28 11
REMARK SMILES IDX 27 12 46 13 48 14 50 15 29 16 30 17 43 18 42 19 35 20 31 21
REMARK SMILES IDX 33 22 44 23 45 24 36 26 37 27 38 28 39 29 40 30 41 31 32 32
REMARK SMILES IDX 34 34 47 36 49 38 51 40 52 42 53 43 54 44 57 46 59 48 60 49
REMARK SMILES IDX 61 51 62 52 20 53 17 55 18 56 16 58 15 59 13 60 14 62 12 63
REMARK SMILES IDX 11 64 10 65 9 66 63 67 8 68 64 69 7 70 6 71 3 72 2 73 1 74
REMARK SMILES IDX 4 75 5 76
REMARK H PARENT 45 25 32 33 34 35 47 37 49 39 51 41 54 45 57 47 59 50 20 54
REMARK H PARENT 18 57 15 61
REMARK Flexibility Score: inf
ROOT
ATOM      1  C   UNL     1      21.750  24.617  23.585  1.00  0.00     0.176 C 
ENDROOT
BRANCH   1   2
ATOM      2  C   UNL     1      22.417  25.163  24.820  1.00  0.00     0.178 C 
ATOM      3  C   UNL     1      22.601  27.020  26.167  1.00  0.00     0.272 C 
ATOM      4  C   UNL     1      23.377  25.971  26.978  1.00  0.00     0.113 C 
ATOM      5  O   UNL     1      21.991  26.444  25.075  1.00  0.00    -0.332 OA
ATOM      6  C   UNL     1      24.409  25.243  26.180  1.00  0.00     0.145 C 
ATOM      7  C   UNL     1      23.927  25.213  24.722  1.00  0.00     0.142 C 
BRANCH   3   8
ATOM      8  O   UNL     1      23.495  28.019  25.865  1.00  0.00    -0.338 OA
BRANCH   8   9
ATOM      9  C   UNL     1      23.020  29.042  25.082  1.00  0.00     0.199 C 
BRANCH   9  10
ATOM     10  C   UNL     1      23.565  28.944  23.646  1.00  0.00     0.179 C 
ATOM     11  C   UNL     1      22.557  29.435  21.578  1.00  0.00     0.282 C 
ATOM     12  O   UNL     1      22.488  28.859  22.838  1.00  0.00    -0.341 OA
ATOM     13  C   UNL     1      23.939  29.510  21.065  1.00  0.00     0.202 C 
ATOM     14  C   UNL     1      24.897  30.217  21.984  1.00  0.00     0.179 C 
ATOM     15  C   UNL     1      24.357  30.191  23.397  1.00  0.00     0.177 C 
BRANCH  11  16
ATOM     16  O   UNL     1      21.836  30.615  21.688  1.00  0.00    -0.341 OA
BRANCH  16  17
ATOM     17  C   UNL     1      20.619  30.594  21.105  1.00  0.00     0.184 C 
ATOM     18  C   UNL     1      19.594  29.833  21.906  1.00  0.00     0.178 C 
ATOM     19  O   UNL     1      18.337  29.976  21.251  1.00  0.00    -0.341 OA
ATOM     20  C   UNL     1      18.299  29.080  20.204  1.00  0.00     0.281 C 
ATOM     21  C   UNL     1      20.624  29.975  19.711  1.00  0.00     0.180 C 
ATOM     22  C   UNL     1      19.594  28.905  19.539  1.00  0.00     0.202 C 
BRANCH  18  23
ATOM     23  C   UNL     1      19.499  30.191  23.345  1.00  0.00     0.191 C 
BRANCH  23  24
ATOM     24  O   UNL     1      19.674  29.030  24.089  1.00  0.00    -0.394 OA
ATOM     25  H   UNL     1      20.614  28.858  24.344  1.00  0.00     0.210 HD
ENDBRANCH  23  24
ENDBRANCH  18  23
BRANCH  20  26
ATOM     26  O   UNL     1      17.231  29.327  19.347  1.00  0.00    -0.350 OA
BRANCH  26  27
ATOM     27  C   UNL     1      16.338  28.305  19.232  1.00  0.00     0.169 C 
BRANCH  27  28
ATOM     28  C   UNL     1      14.899  28.752  19.418  1.00  0.00     0.119 C 
BRANCH  28  29
ATOM     29  N   UNL     1      14.398  28.380  20.726  1.00  0.00    -0.092 NA
ATOM     30  N   UNL     1      13.459  28.969  21.277  1.00  0.00     0.001 N 
ATOM     31  N   UNL     1      12.887  29.804  21.979  1.00  0.00    -0.003 NA
ENDBRANCH  28  29
ENDBRANCH  27  28
ENDBRANCH  26  27
ENDBRANCH  20  26
BRANCH  21  32
ATOM     32  O   UNL     1      20.402  30.980  18.788  1.00  0.00    -0.387 OA
ATOM     33  H   UNL     1      19.816  31.697  19.106  1.00  0.00     0.211 HD
ENDBRANCH  21  32
BRANCH  22  34
ATOM     34  O   UNL     1      20.121  27.631  19.865  1.00  0.00    -0.385 OA
ATOM     35  H   UNL     1      19.370  27.123  20.267  1.00  0.00     0.211 HD
ENDBRANCH  22  34
ENDBRANCH  16  17
ENDBRANCH  11  16
BRANCH  13  36
ATOM     36  O   UNL     1      24.431  28.180  20.916  1.00  0.00    -0.385 OA
ATOM     37  H   UNL     1      24.887  27.884  21.724  1.00  0.00     0.211 HD
ENDBRANCH  13  36
BRANCH  14  38
ATOM     38  O   UNL     1      25.225  31.501  21.581  1.00  0.00    -0.387 OA
ATOM     39  H   UNL     1      24.649  32.185  21.962  1.00  0.00     0.211 HD
ENDBRANCH  14  38
BRANCH  15  40
ATOM     40  O   UNL     1      23.521  31.289  23.552  1.00  0.00    -0.387 OA
ATOM     41  H   UNL     1      23.782  31.809  24.366  1.00  0.00     0.211 HD
ENDBRANCH  15  40
ENDBRANCH   9  10
ENDBRANCH   8   9
ENDBRANCH   3   8
BRANCH   3  42
ATOM     42  C   UNL     1      21.556  27.505  27.103  1.00  0.00     0.364 C 
ATOM     43  O   UNL     1      20.460  27.991  26.659  1.00  0.00    -0.246 OA
BRANCH  42  44
ATOM     44  O   UNL     1      21.664  27.481  28.479  1.00  0.00    -0.477 OA
ATOM     45  H   UNL     1      20.991  27.982  29.049  1.00  0.00     0.296 HD
ENDBRANCH  42  44
ENDBRANCH   3  42
BRANCH   6  46
ATOM     46  O   UNL     1      25.693  25.714  26.310  1.00  0.00    -0.391 OA
ATOM     47  H   UNL     1      25.651  26.703  26.257  1.00  0.00     0.211 HD
ENDBRANCH   6  46
BRANCH   7  48
ATOM     48  N   UNL     1      24.515  24.140  23.995  1.00  0.00    -0.348 N 
ATOM     49  C   UNL     1      25.152  24.439  22.735  1.00  0.00     0.217 C 
ATOM     50  H   UNL     1      24.536  23.147  24.288  1.00  0.00     0.163 HD
ATOM     51  C   UNL     1      25.785  23.370  21.922  1.00  0.00     0.114 C 
ATOM     52  O   UNL     1      25.191  25.613  22.282  1.00  0.00    -0.275 OA
ENDBRANCH   7  48
ENDBRANCH   1   2
BRANCH   1  53
ATOM     53  O   UNL     1      20.410  24.398  23.874  1.00  0.00    -0.388 OA
ATOM     54  H   UNL     1      20.256  23.408  23.991  1.00  0.00     0.211 HD
ENDBRANCH   1  53
BRANCH   1  55
ATOM     55  C   UNL     1      21.856  25.684  22.526  1.00  0.00     0.165 C 
BRANCH  55  56
ATOM     56  O   UNL     1      20.758  26.546  22.632  1.00  0.00    -0.388 OA
ATOM     57  H   UNL     1      20.364  26.650  21.733  1.00  0.00     0.211 HD
ENDBRANCH  55  56
BRANCH  55  58
ATOM     58  C   UNL     1      21.970  25.193  21.130  1.00  0.00     0.154 C 
BRANCH  58  59
ATOM     59  N   UNL     1      22.635  26.087  20.245  1.00  0.00    -0.319 N 
ATOM     60  C   UNL     1      23.170  25.584  19.010  1.00  0.00     0.407 C 
ATOM     61  H   UNL     1      22.751  27.076  20.464  1.00  0.00     0.167 HD
ATOM     62  O   UNL     1      23.065  24.379  18.708  1.00  0.00    -0.225 OA
BRANCH  60  63
ATOM     63  O   UNL     1      23.808  26.474  18.162  1.00  0.00    -0.443 OA
BRANCH  63  64
ATOM     64  C   UNL     1      24.968  26.018  17.445  1.00  0.00     0.294 C 
BRANCH  64  65
ATOM     65  C   UNL     1      26.073  25.919  18.407  1.00  0.00     0.120 A 
ATOM     66  C   UNL     1      26.847  24.767  18.584  1.00  0.00     0.138 A 
ATOM     67  N   UNL     1      26.568  26.807  19.266  1.00  0.00    -0.132 NA
ATOM     68  N   UNL     1      27.769  25.008  19.533  1.00  0.00    -0.251 N 
ATOM     69  N   UNL     1      27.580  26.239  19.927  1.00  0.00    -0.067 NA
BRANCH  68  70
ATOM     70  C   UNL     1      28.778  24.096  20.034  1.00  0.00     0.161 C 
BRANCH  70  71
ATOM     71  C   UNL     1      29.139  23.147  18.912  1.00  0.00     0.108 C 
BRANCH  71  72
ATOM     72  N   UNL     1      29.195  21.774  19.321  1.00  0.00    -0.302 NA
BRANCH  72  73
ATOM     73  C   UNL     1      28.967  20.869  18.227  1.00  0.00     0.081 C 
ATOM     74  C   UNL     1      27.724  21.327  17.473  1.00  0.00     0.021 C 
ENDBRANCH  72  73
BRANCH  72  75
ATOM     75  C   UNL     1      28.389  21.494  20.468  1.00  0.00     0.081 C 
ATOM     76  C   UNL     1      28.711  20.126  21.037  1.00  0.00     0.021 C 
ENDBRANCH  72  75
ENDBRANCH  71  72
ENDBRANCH  70  71
ENDBRANCH  68  70
ENDBRANCH  64  65
ENDBRANCH  63  64
ENDBRANCH  60  63
ENDBRANCH  58  59
ENDBRANCH  55  58
ENDBRANCH   1  55
TORSDOF 34
