REMARK VINA RESULT:    -4.238      3.315      5.998
REMARK INTER + INTRA:         -22.593
REMARK INTER:                 -15.264
REMARK INTRA:                  -7.329
REMARK UNBOUND:               -11.418
REMARK SMILES CC(=O)N[C@@H]1[C@@H](O)C[C@](OC[C@H]2O[C@@H](O[C@H]3[C@H](O)[C@@H](O)[C@H](OCCN=[N+]=[N-])O[C@@H]3CO)[C@H](O)[C@@H](O)[C@H]2O)(C(=O)O)O[C@H]1C(O)[C@H](O)CNC(=O)OCc1cn(CC(=O)NCc2cccs2)nn1
REMARK SMILES IDX 43 1 42 2 9 3 8 4 41 5 6 6 5 7 10 8 11 9 12 10 14 11 13 12
REMARK SMILES IDX 32 13 34 14 36 15 15 16 16 17 29 18 28 19 21 20 17 21 19 22
REMARK SMILES IDX 30 23 31 24 22 26 23 27 24 28 25 29 26 30 27 31 18 32 20 34
REMARK SMILES IDX 33 36 35 38 37 40 38 42 39 43 40 44 7 46 4 48 2 49 1 51 3 52
REMARK SMILES IDX 44 53 45 55 46 56 47 58 48 59 49 60 50 62 51 63 52 64 53 65
REMARK SMILES IDX 54 66 67 67 55 68 66 69 56 70 57 71 58 72 59 73 60 75 61 76
REMARK SMILES IDX 62 77 65 78 63 79 64 80
REMARK H PARENT 31 25 18 33 20 35 33 37 35 39 37 41 40 45 7 47 4 50 44 54
REMARK H PARENT 46 57 48 61 59 74
REMARK Flexibility Score: inf
ROOT
ATOM      1  C   UNL     1       4.119  21.277  32.915  1.00  0.00     0.176 C 
ENDROOT
BRANCH   1   2
ATOM      2  C   UNL     1       3.616  22.492  33.650  1.00  0.00     0.178 C 
ATOM      3  C   UNL     1       2.760  24.193  32.247  1.00  0.00     0.272 C 
ATOM      4  C   UNL     1       4.205  24.700  32.107  1.00  0.00     0.113 C 
ATOM      5  O   UNL     1       2.622  23.047  32.922  1.00  0.00    -0.332 OA
ATOM      6  C   UNL     1       4.843  24.676  33.436  1.00  0.00     0.145 C 
ATOM      7  C   UNL     1       4.651  23.393  34.200  1.00  0.00     0.142 C 
BRANCH   3   8
ATOM      8  O   UNL     1       2.326  24.066  30.949  1.00  0.00    -0.338 OA
BRANCH   8   9
ATOM      9  C   UNL     1       1.291  23.285  30.633  1.00  0.00     0.199 C 
BRANCH   9  10
ATOM     10  C   UNL     1       0.951  23.046  29.190  1.00  0.00     0.179 C 
ATOM     11  C   UNL     1       0.848  24.313  27.278  1.00  0.00     0.282 C 
ATOM     12  O   UNL     1       1.520  24.143  28.497  1.00  0.00    -0.341 OA
ATOM     13  C   UNL     1       0.638  23.013  26.575  1.00  0.00     0.202 C 
ATOM     14  C   UNL     1       1.427  21.863  27.106  1.00  0.00     0.179 C 
ATOM     15  C   UNL     1       1.634  21.838  28.586  1.00  0.00     0.177 C 
BRANCH  11  16
ATOM     16  O   UNL     1       1.463  25.217  26.457  1.00  0.00    -0.341 OA
BRANCH  16  17
ATOM     17  C   UNL     1       2.628  25.757  26.999  1.00  0.00     0.184 C 
ATOM     18  C   UNL     1       2.621  27.218  27.100  1.00  0.00     0.178 C 
ATOM     19  O   UNL     1       3.449  27.936  26.280  1.00  0.00    -0.341 OA
ATOM     20  C   UNL     1       4.071  27.283  25.265  1.00  0.00     0.281 C 
ATOM     21  C   UNL     1       3.788  25.123  26.287  1.00  0.00     0.180 C 
ATOM     22  C   UNL     1       4.852  26.116  25.895  1.00  0.00     0.202 C 
BRANCH  18  23
ATOM     23  C   UNL     1       3.009  27.652  28.528  1.00  0.00     0.191 C 
BRANCH  23  24
ATOM     24  O   UNL     1       2.581  26.756  29.483  1.00  0.00    -0.394 OA
ATOM     25  H   UNL     1       1.604  26.617  29.356  1.00  0.00     0.210 HD
ENDBRANCH  23  24
ENDBRANCH  18  23
BRANCH  20  26
ATOM     26  O   UNL     1       5.072  28.119  24.743  1.00  0.00    -0.350 OA
BRANCH  26  27
ATOM     27  C   UNL     1       5.760  28.782  25.739  1.00  0.00     0.169 C 
BRANCH  27  28
ATOM     28  C   UNL     1       7.194  28.984  25.240  1.00  0.00     0.119 C 
BRANCH  28  29
ATOM     29  N   UNL     1       7.901  27.713  25.290  1.00  0.00    -0.092 NA
ATOM     30  N   UNL     1       9.099  27.674  25.015  1.00  0.00     0.001 N 
ATOM     31  N   UNL     1      10.340  27.602  24.944  1.00  0.00    -0.003 NA
ENDBRANCH  28  29
ENDBRANCH  27  28
ENDBRANCH  26  27
ENDBRANCH  20  26
BRANCH  21  32
ATOM     32  O   UNL     1       4.340  24.047  26.990  1.00  0.00    -0.387 OA
ATOM     33  H   UNL     1       3.623  23.517  27.455  1.00  0.00     0.211 HD
ENDBRANCH  21  32
BRANCH  22  34
ATOM     34  O   UNL     1       5.682  25.521  24.965  1.00  0.00    -0.385 OA
ATOM     35  H   UNL     1       5.830  26.122  24.191  1.00  0.00     0.211 HD
ENDBRANCH  22  34
ENDBRANCH  16  17
ENDBRANCH  11  16
BRANCH  13  36
ATOM     36  O   UNL     1      -0.732  22.669  26.515  1.00  0.00    -0.385 OA
ATOM     37  H   UNL     1      -1.327  23.427  26.624  1.00  0.00     0.211 HD
ENDBRANCH  13  36
BRANCH  14  38
ATOM     38  O   UNL     1       2.651  21.736  26.407  1.00  0.00    -0.387 OA
ATOM     39  H   UNL     1       3.003  20.819  26.519  1.00  0.00     0.211 HD
ENDBRANCH  14  38
BRANCH  15  40
ATOM     40  O   UNL     1       3.029  21.959  28.795  1.00  0.00    -0.387 OA
ATOM     41  H   UNL     1       3.392  21.213  29.324  1.00  0.00     0.211 HD
ENDBRANCH  15  40
ENDBRANCH   9  10
ENDBRANCH   8   9
ENDBRANCH   3   8
BRANCH   3  42
ATOM     42  C   UNL     1       2.051  25.303  32.956  1.00  0.00     0.364 C 
ATOM     43  O   UNL     1       1.491  25.192  34.070  1.00  0.00    -0.246 OA
BRANCH  42  44
ATOM     44  O   UNL     1       1.996  26.558  32.361  1.00  0.00    -0.477 OA
ATOM     45  H   UNL     1       2.847  27.061  32.145  1.00  0.00     0.296 HD
ENDBRANCH  42  44
ENDBRANCH   3  42
BRANCH   6  46
ATOM     46  O   UNL     1       6.228  24.981  33.295  1.00  0.00    -0.391 OA
ATOM     47  H   UNL     1       6.367  25.724  32.669  1.00  0.00     0.211 HD
ENDBRANCH   6  46
BRANCH   7  48
ATOM     48  N   UNL     1       4.445  23.658  35.610  1.00  0.00    -0.348 N 
ATOM     49  C   UNL     1       5.550  23.865  36.463  1.00  0.00     0.217 C 
ATOM     50  H   UNL     1       3.481  23.700  36.036  1.00  0.00     0.163 HD
ATOM     51  C   UNL     1       5.318  24.136  37.912  1.00  0.00     0.114 C 
ATOM     52  O   UNL     1       6.743  23.834  36.079  1.00  0.00    -0.275 OA
ENDBRANCH   7  48
ENDBRANCH   1   2
BRANCH   1  53
ATOM     53  O   UNL     1       5.399  20.899  33.201  1.00  0.00    -0.388 OA
ATOM     54  H   UNL     1       5.548  20.481  34.075  1.00  0.00     0.211 HD
ENDBRANCH   1  53
BRANCH   1  55
ATOM     55  C   UNL     1       3.150  20.116  32.856  1.00  0.00     0.165 C 
BRANCH  55  56
ATOM     56  O   UNL     1       2.143  20.292  31.956  1.00  0.00    -0.388 OA
ATOM     57  H   UNL     1       1.722  19.467  31.631  1.00  0.00     0.211 HD
ENDBRANCH  55  56
BRANCH  55  58
ATOM     58  C   UNL     1       2.603  19.824  34.243  1.00  0.00     0.154 C 
BRANCH  58  59
ATOM     59  N   UNL     1       3.564  19.199  35.103  1.00  0.00    -0.319 N 
ATOM     60  C   UNL     1       3.297  18.412  36.250  1.00  0.00     0.407 C 
ATOM     61  H   UNL     1       4.624  19.303  34.907  1.00  0.00     0.167 HD
ATOM     62  O   UNL     1       2.150  18.174  36.628  1.00  0.00    -0.225 OA
BRANCH  60  63
ATOM     63  O   UNL     1       4.342  17.861  37.019  1.00  0.00    -0.443 OA
BRANCH  63  64
ATOM     64  C   UNL     1       4.236  17.474  38.350  1.00  0.00     0.294 C 
BRANCH  64  65
ATOM     65  C   UNL     1       4.704  18.471  39.322  1.00  0.00     0.120 A 
ATOM     66  C   UNL     1       5.509  18.249  40.418  1.00  0.00     0.138 A 
ATOM     67  N   UNL     1       4.436  19.804  39.321  1.00  0.00    -0.132 NA
ATOM     68  N   UNL     1       5.708  19.416  41.044  1.00  0.00    -0.243 N 
ATOM     69  N   UNL     1       5.053  20.324  40.361  1.00  0.00    -0.067 NA
BRANCH  68  70
ATOM     70  C   UNL     1       6.474  19.727  42.231  1.00  0.00     0.245 C 
BRANCH  70  71
ATOM     71  C   UNL     1       7.843  20.091  41.822  1.00  0.00     0.242 C 
ATOM     72  O   UNL     1       8.810  19.832  42.561  1.00  0.00    -0.273 OA
ATOM     73  N   UNL     1       8.074  20.739  40.585  1.00  0.00    -0.350 N 
ATOM     74  H   UNL     1       7.280  20.979  39.927  1.00  0.00     0.163 HD
BRANCH  73  75
ATOM     75  C   UNL     1       9.386  21.107  40.150  1.00  0.00     0.162 C 
BRANCH  75  76
ATOM     76  C   UNL     1       9.331  22.428  39.508  1.00  0.00     0.024 A 
ATOM     77  C   UNL     1       8.855  23.622  39.941  1.00  0.00     0.017 A 
ATOM     78  S   UNL     1       9.930  22.789  37.895  1.00  0.00    -0.147 S 
ATOM     79  C   UNL     1       8.935  24.694  39.138  1.00  0.00     0.012 A 
ATOM     80  C   UNL     1       9.483  24.583  37.915  1.00  0.00     0.065 A 
ENDBRANCH  75  76
ENDBRANCH  73  75
ENDBRANCH  70  71
ENDBRANCH  68  70
ENDBRANCH  64  65
ENDBRANCH  63  64
ENDBRANCH  60  63
ENDBRANCH  58  59
ENDBRANCH  55  58
ENDBRANCH   1  55
TORSDOF 33
