REMARK VINA RESULT:    -4.942      3.866      7.855
REMARK INTER + INTRA:         -21.556
REMARK INTER:                 -13.137
REMARK INTRA:                  -8.419
REMARK UNBOUND:                -9.390
REMARK SMILES CC(=O)N[C@@H]1[C@@H](O)C[C@](OC[C@H]2O[C@@H](O[C@H]3[C@H](O)[C@@H](O)[C@H](OCCN=[N+]=[N-])O[C@@H]3CO)[C@H](O)[C@@H](O)[C@H]2O)(C(=O)O)O[C@H]1C(O)[C@H](O)CNC(=O)OCc1cn(-c2ccncc2)nn1
REMARK SMILES IDX 9 1 8 2 6 3 5 4 42 5 41 6 10 7 11 8 12 9 14 10 13 11 32 12
REMARK SMILES IDX 34 13 36 14 15 15 16 16 29 17 28 18 21 19 17 20 19 21 30 22
REMARK SMILES IDX 31 23 22 25 23 26 24 27 25 28 26 29 27 30 18 31 20 33 33 35
REMARK SMILES IDX 35 37 37 39 38 41 39 42 40 43 7 45 43 47 44 48 45 50 46 51
REMARK SMILES IDX 47 53 48 54 49 55 50 57 51 58 52 59 53 60 54 61 63 62 55 63
REMARK SMILES IDX 62 64 56 65 57 66 61 67 58 68 60 69 59 70 4 71 2 72 1 74
REMARK SMILES IDX 3 75
REMARK H PARENT 31 24 18 32 20 34 33 36 35 38 37 40 40 44 7 46 44 49 46 52
REMARK H PARENT 48 56 4 73
REMARK Flexibility Score: inf
ROOT
ATOM      1  C   UNL     1      15.790  30.127  20.138  1.00  0.00     0.272 C 
ATOM      2  C   UNL     1      14.691  31.060  20.686  1.00  0.00     0.113 C 
ATOM      3  C   UNL     1      15.311  32.135  21.585  1.00  0.00     0.145 C 
ATOM      4  C   UNL     1      15.821  31.379  22.859  1.00  0.00     0.142 C 
ATOM      5  C   UNL     1      16.674  30.255  22.348  1.00  0.00     0.178 C 
ATOM      6  O   UNL     1      16.874  30.429  20.985  1.00  0.00    -0.332 OA
ENDROOT
BRANCH   1   7
ATOM      7  O   UNL     1      16.172  30.513  18.936  1.00  0.00    -0.338 OA
BRANCH   7   8
ATOM      8  C   UNL     1      15.769  31.026  17.860  1.00  0.00     0.199 C 
BRANCH   8   9
ATOM      9  C   UNL     1      16.519  30.850  16.575  1.00  0.00     0.179 C 
ATOM     10  C   UNL     1      18.671  30.139  15.953  1.00  0.00     0.282 C 
ATOM     11  O   UNL     1      17.801  30.369  16.993  1.00  0.00    -0.341 OA
ATOM     12  C   UNL     1      18.164  29.052  15.058  1.00  0.00     0.202 C 
ATOM     13  C   UNL     1      16.748  29.394  14.590  1.00  0.00     0.179 C 
ATOM     14  C   UNL     1      15.913  29.672  15.804  1.00  0.00     0.177 C 
BRANCH  10  15
ATOM     15  O   UNL     1      19.858  29.709  16.602  1.00  0.00    -0.341 OA
BRANCH  15  16
ATOM     16  C   UNL     1      19.840  29.903  17.942  1.00  0.00     0.184 C 
ATOM     17  C   UNL     1      20.999  30.649  18.469  1.00  0.00     0.178 C 
ATOM     18  O   UNL     1      20.835  30.899  19.847  1.00  0.00    -0.341 OA
ATOM     19  C   UNL     1      21.194  29.621  20.424  1.00  0.00     0.281 C 
ATOM     20  C   UNL     1      19.821  28.498  18.621  1.00  0.00     0.180 C 
ATOM     21  C   UNL     1      20.084  28.692  20.103  1.00  0.00     0.202 C 
BRANCH  17  22
ATOM     22  C   UNL     1      21.260  31.925  17.763  1.00  0.00     0.191 C 
BRANCH  22  23
ATOM     23  O   UNL     1      20.086  32.654  17.519  1.00  0.00    -0.394 OA
ATOM     24  H   UNL     1      19.646  32.223  16.728  1.00  0.00     0.210 HD
ENDBRANCH  22  23
ENDBRANCH  17  22
BRANCH  19  25
ATOM     25  O   UNL     1      21.285  29.863  21.767  1.00  0.00    -0.350 OA
BRANCH  25  26
ATOM     26  C   UNL     1      22.554  29.754  22.247  1.00  0.00     0.169 C 
BRANCH  26  27
ATOM     27  C   UNL     1      23.214  31.020  22.687  1.00  0.00     0.119 C 
BRANCH  27  28
ATOM     28  N   UNL     1      22.354  32.179  22.561  1.00  0.00    -0.092 NA
ATOM     29  N   UNL     1      22.470  33.198  23.227  1.00  0.00     0.001 N 
ATOM     30  N   UNL     1      22.499  34.057  24.113  1.00  0.00    -0.003 NA
ENDBRANCH  27  28
ENDBRANCH  26  27
ENDBRANCH  25  26
ENDBRANCH  19  25
BRANCH  20  31
ATOM     31  O   UNL     1      18.546  28.012  18.463  1.00  0.00    -0.387 OA
ATOM     32  H   UNL     1      18.450  27.506  17.595  1.00  0.00     0.211 HD
ENDBRANCH  20  31
BRANCH  21  33
ATOM     33  O   UNL     1      20.295  27.466  20.715  1.00  0.00    -0.385 OA
ATOM     34  H   UNL     1      19.629  26.816  20.370  1.00  0.00     0.211 HD
ENDBRANCH  21  33
ENDBRANCH  15  16
ENDBRANCH  10  15
BRANCH  12  35
ATOM     35  O   UNL     1      18.957  28.948  13.890  1.00  0.00    -0.385 OA
ATOM     36  H   UNL     1      19.765  28.454  14.167  1.00  0.00     0.211 HD
ENDBRANCH  12  35
BRANCH  13  37
ATOM     37  O   UNL     1      16.175  28.390  13.845  1.00  0.00    -0.387 OA
ATOM     38  H   UNL     1      16.345  28.535  12.862  1.00  0.00     0.211 HD
ENDBRANCH  13  37
BRANCH  14  39
ATOM     39  O   UNL     1      15.938  28.587  16.694  1.00  0.00    -0.387 OA
ATOM     40  H   UNL     1      15.597  28.888  17.591  1.00  0.00     0.211 HD
ENDBRANCH  14  39
ENDBRANCH   8   9
ENDBRANCH   7   8
ENDBRANCH   1   7
BRANCH   1  41
ATOM     41  C   UNL     1      15.383  28.723  20.239  1.00  0.00     0.364 C 
ATOM     42  O   UNL     1      14.163  28.384  20.389  1.00  0.00    -0.246 OA
BRANCH  41  43
ATOM     43  O   UNL     1      16.270  27.674  20.182  1.00  0.00    -0.477 OA
ATOM     44  H   UNL     1      17.204  27.663  20.531  1.00  0.00     0.296 HD
ENDBRANCH  41  43
ENDBRANCH   1  41
BRANCH   3  45
ATOM     45  O   UNL     1      16.407  32.675  20.970  1.00  0.00    -0.391 OA
ATOM     46  H   UNL     1      17.073  32.998  21.609  1.00  0.00     0.211 HD
ENDBRANCH   3  45
BRANCH   5  47
ATOM     47  C   UNL     1      18.110  30.285  22.890  1.00  0.00     0.176 C 
BRANCH  47  48
ATOM     48  O   UNL     1      17.901  29.707  24.219  1.00  0.00    -0.388 OA
ATOM     49  H   UNL     1      17.034  29.204  24.172  1.00  0.00     0.211 HD
ENDBRANCH  47  48
BRANCH  47  50
ATOM     50  C   UNL     1      18.726  31.600  23.090  1.00  0.00     0.165 C 
BRANCH  50  51
ATOM     51  O   UNL     1      19.331  32.208  22.016  1.00  0.00    -0.388 OA
ATOM     52  H   UNL     1      18.667  32.668  21.438  1.00  0.00     0.211 HD
ENDBRANCH  50  51
BRANCH  50  53
ATOM     53  C   UNL     1      19.315  31.849  24.424  1.00  0.00     0.154 C 
BRANCH  53  54
ATOM     54  N   UNL     1      20.388  30.973  24.815  1.00  0.00    -0.319 N 
ATOM     55  C   UNL     1      20.398  30.354  26.088  1.00  0.00     0.407 C 
ATOM     56  H   UNL     1      21.156  30.827  24.136  1.00  0.00     0.167 HD
ATOM     57  O   UNL     1      19.436  30.599  26.850  1.00  0.00    -0.225 OA
BRANCH  55  58
ATOM     58  O   UNL     1      21.383  29.515  26.527  1.00  0.00    -0.443 OA
BRANCH  58  59
ATOM     59  C   UNL     1      21.202  28.353  27.308  1.00  0.00     0.294 C 
BRANCH  59  60
ATOM     60  C   UNL     1      21.737  27.132  26.620  1.00  0.00     0.121 A 
ATOM     61  C   UNL     1      21.885  26.877  25.274  1.00  0.00     0.144 A 
ATOM     62  N   UNL     1      22.184  26.016  27.245  1.00  0.00    -0.131 NA
ATOM     63  N   UNL     1      22.404  25.646  25.120  1.00  0.00    -0.220 N 
ATOM     64  N   UNL     1      22.579  25.139  26.341  1.00  0.00    -0.062 NA
BRANCH  63  65
ATOM     65  C   UNL     1      22.699  25.028  23.874  1.00  0.00     0.069 A 
ATOM     66  C   UNL     1      23.942  24.551  23.522  1.00  0.00     0.048 A 
ATOM     67  C   UNL     1      21.676  24.893  22.963  1.00  0.00     0.048 A 
ATOM     68  C   UNL     1      24.184  23.950  22.298  1.00  0.00     0.113 A 
ATOM     69  C   UNL     1      21.926  24.291  21.741  1.00  0.00     0.113 A 
ATOM     70  N   UNL     1      23.148  23.838  21.434  1.00  0.00    -0.265 NA
ENDBRANCH  63  65
ENDBRANCH  59  60
ENDBRANCH  58  59
ENDBRANCH  55  58
ENDBRANCH  53  54
ENDBRANCH  50  53
ENDBRANCH  47  50
ENDBRANCH   5  47
BRANCH   4  71
ATOM     71  N   UNL     1      14.593  30.947  23.481  1.00  0.00    -0.348 N 
ATOM     72  C   UNL     1      14.471  30.541  24.828  1.00  0.00     0.217 C 
ATOM     73  H   UNL     1      13.727  30.925  22.912  1.00  0.00     0.163 HD
ATOM     74  C   UNL     1      13.164  30.119  25.353  1.00  0.00     0.114 C 
ATOM     75  O   UNL     1      15.469  30.541  25.575  1.00  0.00    -0.275 OA
ENDBRANCH   4  71
TORSDOF 30
