REMARK VINA RESULT:    -6.314      4.786      9.821
REMARK INTER + INTRA:         -21.368
REMARK INTER:                 -16.281
REMARK INTRA:                  -5.087
REMARK UNBOUND:                -5.087
REMARK SMILES CC(=O)N[C@@H]1[C@@H](O)C[C@](OC[C@H]2O[C@@H](O[C@H]3[C@H](O)[C@@H](O)[C@H](OCCN=[N+]=[N-])O[C@@H]3CO)[C@H](O)[C@@H](O)[C@H]2O)(C(=O)O)O[C@H]1C(O)[C@H](O)CNC(=O)OCc1cn(CS(=O)(=O)c2ccccc2)nn1
REMARK SMILES IDX 9 1 8 2 6 3 5 4 42 5 41 6 10 7 11 8 12 9 14 10 13 11 32 12
REMARK SMILES IDX 34 13 36 14 15 15 16 16 29 17 28 18 21 19 17 20 19 21 30 22
REMARK SMILES IDX 31 23 22 25 23 26 24 27 25 28 26 29 27 30 18 31 20 33 33 35
REMARK SMILES IDX 35 37 37 39 38 41 39 42 40 43 7 45 43 47 44 48 45 50 46 51
REMARK SMILES IDX 47 53 48 54 49 55 50 57 51 58 52 59 53 60 54 61 67 62 55 63
REMARK SMILES IDX 66 64 56 65 57 66 58 67 59 68 60 69 61 70 65 71 62 72 64 73
REMARK SMILES IDX 63 74 4 75 2 76 1 78 3 79
REMARK H PARENT 31 24 18 32 20 34 33 36 35 38 37 40 40 44 7 46 44 49 46 52
REMARK H PARENT 48 56 4 77
REMARK Flexibility Score: inf
ROOT
ATOM      1  C   UNL     1      16.943  29.058  20.181  1.00  0.00     0.272 C 
ATOM      2  C   UNL     1      16.896  30.397  19.565  1.00  0.00     0.113 C 
ATOM      3  C   UNL     1      16.887  31.554  20.544  1.00  0.00     0.145 C 
ATOM      4  C   UNL     1      15.819  31.263  21.540  1.00  0.00     0.142 C 
ATOM      5  C   UNL     1      15.908  29.881  22.125  1.00  0.00     0.178 C 
ATOM      6  O   UNL     1      16.116  28.858  21.274  1.00  0.00    -0.332 OA
ENDROOT
BRANCH   1   7
ATOM      7  O   UNL     1      18.223  28.590  20.391  1.00  0.00    -0.338 OA
BRANCH   7   8
ATOM      8  C   UNL     1      19.140  28.822  19.419  1.00  0.00     0.199 C 
BRANCH   8   9
ATOM      9  C   UNL     1      20.481  29.283  20.029  1.00  0.00     0.179 C 
ATOM     10  C   UNL     1      21.407  27.859  21.677  1.00  0.00     0.282 C 
ATOM     11  O   UNL     1      20.527  28.829  21.288  1.00  0.00    -0.341 OA
ATOM     12  C   UNL     1      21.718  26.916  20.577  1.00  0.00     0.202 C 
ATOM     13  C   UNL     1      22.156  27.626  19.332  1.00  0.00     0.179 C 
ATOM     14  C   UNL     1      21.659  29.007  19.189  1.00  0.00     0.177 C 
BRANCH  10  15
ATOM     15  O   UNL     1      20.790  27.230  22.771  1.00  0.00    -0.341 OA
BRANCH  15  16
ATOM     16  C   UNL     1      21.537  27.096  23.892  1.00  0.00     0.184 C 
ATOM     17  C   UNL     1      21.313  25.787  24.588  1.00  0.00     0.178 C 
ATOM     18  O   UNL     1      22.402  25.576  25.428  1.00  0.00    -0.341 OA
ATOM     19  C   UNL     1      22.756  26.645  26.203  1.00  0.00     0.281 C 
ATOM     20  C   UNL     1      21.132  28.139  24.963  1.00  0.00     0.180 C 
ATOM     21  C   UNL     1      21.802  27.776  26.230  1.00  0.00     0.202 C 
BRANCH  17  22
ATOM     22  C   UNL     1      21.149  24.598  23.708  1.00  0.00     0.191 C 
BRANCH  22  23
ATOM     23  O   UNL     1      22.311  24.408  22.970  1.00  0.00    -0.394 OA
ATOM     24  H   UNL     1      22.099  24.390  22.008  1.00  0.00     0.210 HD
ENDBRANCH  22  23
ENDBRANCH  17  22
BRANCH  19  25
ATOM     25  O   UNL     1      23.982  27.098  25.723  1.00  0.00    -0.350 OA
BRANCH  25  26
ATOM     26  C   UNL     1      24.881  27.370  26.781  1.00  0.00     0.169 C 
BRANCH  26  27
ATOM     27  C   UNL     1      25.581  26.088  27.176  1.00  0.00     0.119 C 
BRANCH  27  28
ATOM     28  N   UNL     1      25.591  26.023  28.635  1.00  0.00    -0.092 NA
ATOM     29  N   UNL     1      24.533  25.690  29.206  1.00  0.00     0.001 N 
ATOM     30  N   UNL     1      23.399  25.612  29.713  1.00  0.00    -0.003 NA
ENDBRANCH  27  28
ENDBRANCH  26  27
ENDBRANCH  25  26
ENDBRANCH  19  25
BRANCH  20  31
ATOM     31  O   UNL     1      21.504  29.410  24.560  1.00  0.00    -0.387 OA
ATOM     32  H   UNL     1      21.049  30.064  25.150  1.00  0.00     0.211 HD
ENDBRANCH  20  31
BRANCH  21  33
ATOM     33  O   UNL     1      20.794  27.441  27.168  1.00  0.00    -0.385 OA
ATOM     34  H   UNL     1      19.971  27.957  27.033  1.00  0.00     0.211 HD
ENDBRANCH  21  33
ENDBRANCH  15  16
ENDBRANCH  10  15
BRANCH  12  35
ATOM     35  O   UNL     1      22.836  26.088  20.914  1.00  0.00    -0.385 OA
ATOM     36  H   UNL     1      23.612  26.530  20.495  1.00  0.00     0.211 HD
ENDBRANCH  12  35
BRANCH  13  37
ATOM     37  O   UNL     1      21.850  26.854  18.184  1.00  0.00    -0.387 OA
ATOM     38  H   UNL     1      22.041  27.394  17.364  1.00  0.00     0.211 HD
ENDBRANCH  13  37
BRANCH  14  39
ATOM     39  O   UNL     1      21.428  29.278  17.827  1.00  0.00    -0.387 OA
ATOM     40  H   UNL     1      22.129  28.809  17.306  1.00  0.00     0.211 HD
ENDBRANCH  14  39
ENDBRANCH   8   9
ENDBRANCH   7   8
ENDBRANCH   1   7
BRANCH   1  41
ATOM     41  C   UNL     1      16.317  28.128  19.154  1.00  0.00     0.364 C 
ATOM     42  O   UNL     1      16.285  26.914  19.412  1.00  0.00    -0.246 OA
BRANCH  41  43
ATOM     43  O   UNL     1      15.799  28.635  17.974  1.00  0.00    -0.477 OA
ATOM     44  H   UNL     1      16.232  29.460  17.531  1.00  0.00     0.296 HD
ENDBRANCH  41  43
ENDBRANCH   1  41
BRANCH   3  45
ATOM     45  O   UNL     1      18.142  31.709  21.064  1.00  0.00    -0.391 OA
ATOM     46  H   UNL     1      18.415  30.837  21.462  1.00  0.00     0.211 HD
ENDBRANCH   3  45
BRANCH   5  47
ATOM     47  C   UNL     1      16.762  29.828  23.370  1.00  0.00     0.176 C 
BRANCH  47  48
ATOM     48  O   UNL     1      18.116  29.629  23.111  1.00  0.00    -0.388 OA
ATOM     49  H   UNL     1      18.611  30.433  22.896  1.00  0.00     0.211 HD
ENDBRANCH  47  48
BRANCH  47  50
ATOM     50  C   UNL     1      16.595  31.056  24.252  1.00  0.00     0.165 C 
BRANCH  50  51
ATOM     51  O   UNL     1      17.795  31.604  24.642  1.00  0.00    -0.388 OA
ATOM     52  H   UNL     1      18.579  31.053  24.489  1.00  0.00     0.211 HD
ENDBRANCH  50  51
BRANCH  50  53
ATOM     53  C   UNL     1      15.668  30.871  25.393  1.00  0.00     0.154 C 
BRANCH  53  54
ATOM     54  N   UNL     1      14.293  30.614  25.091  1.00  0.00    -0.319 N 
ATOM     55  C   UNL     1      13.173  31.256  25.666  1.00  0.00     0.407 C 
ATOM     56  H   UNL     1      14.087  29.863  24.363  1.00  0.00     0.167 HD
ATOM     57  O   UNL     1      13.311  32.154  26.518  1.00  0.00    -0.225 OA
BRANCH  55  58
ATOM     58  O   UNL     1      11.905  30.867  25.263  1.00  0.00    -0.443 OA
BRANCH  58  59
ATOM     59  C   UNL     1      11.638  30.042  24.168  1.00  0.00     0.294 C 
BRANCH  59  60
ATOM     60  C   UNL     1      10.664  29.004  24.554  1.00  0.00     0.120 A 
ATOM     61  C   UNL     1       9.328  29.023  24.189  1.00  0.00     0.139 A 
ATOM     62  N   UNL     1      10.817  27.886  25.280  1.00  0.00    -0.132 NA
ATOM     63  N   UNL     1       8.718  27.935  24.695  1.00  0.00    -0.237 N 
ATOM     64  N   UNL     1       9.658  27.266  25.355  1.00  0.00    -0.066 NA
BRANCH  63  65
ATOM     65  C   UNL     1       7.337  27.571  24.544  1.00  0.00     0.287 C 
BRANCH  65  66
ATOM     66  S   UNL     1       6.392  29.091  24.644  1.00  0.00     0.198 S 
ATOM     67  O   UNL     1       7.070  30.076  25.517  1.00  0.00    -0.222 OA
ATOM     68  O   UNL     1       5.020  28.717  25.181  1.00  0.00    -0.222 OA
BRANCH  66  69
ATOM     69  C   UNL     1       6.228  29.707  23.020  1.00  0.00     0.069 A 
ATOM     70  C   UNL     1       5.784  28.919  21.980  1.00  0.00     0.020 A 
ATOM     71  C   UNL     1       6.540  31.015  22.723  1.00  0.00     0.020 A 
ATOM     72  C   UNL     1       5.655  29.400  20.703  1.00  0.00     0.001 A 
ATOM     73  C   UNL     1       6.417  31.512  21.451  1.00  0.00     0.001 A 
ATOM     74  C   UNL     1       5.972  30.699  20.439  1.00  0.00     0.000 A 
ENDBRANCH  66  69
ENDBRANCH  65  66
ENDBRANCH  63  65
ENDBRANCH  59  60
ENDBRANCH  58  59
ENDBRANCH  55  58
ENDBRANCH  53  54
ENDBRANCH  50  53
ENDBRANCH  47  50
ENDBRANCH   5  47
BRANCH   4  75
ATOM     75  N   UNL     1      14.526  31.362  20.874  1.00  0.00    -0.348 N 
ATOM     76  C   UNL     1      13.420  32.020  21.481  1.00  0.00     0.217 C 
ATOM     77  H   UNL     1      14.351  30.945  19.909  1.00  0.00     0.163 HD
ATOM     78  C   UNL     1      12.105  32.093  20.749  1.00  0.00     0.114 C 
ATOM     79  O   UNL     1      13.528  32.545  22.626  1.00  0.00    -0.275 OA
ENDBRANCH   4  75
TORSDOF 32
