REMARK VINA RESULT:    -6.371     14.960     20.280
REMARK INTER + INTRA:         -21.151
REMARK INTER:                 -14.546
REMARK INTRA:                  -6.606
REMARK UNBOUND:                -4.909
REMARK SMILES CC(=O)N[C@@H]1[C@@H](O)C[C@](OC[C@H]2O[C@@H](O[C@H]3[C@H](O)[C@@H](O)[C@H](OCCN=[N+]=[N-])O[C@@H]3CO)[C@H](O)[C@@H](O)[C@H]2O)(C(=O)O)O[C@H]1C(O)[C@H](O)CNC(=O)OCc1cn(CCO)nn1
REMARK SMILES IDX 9 1 8 2 6 3 5 4 42 5 41 6 10 7 11 8 12 9 14 10 13 11 32 12
REMARK SMILES IDX 34 13 36 14 15 15 16 16 29 17 28 18 21 19 17 20 19 21 30 22
REMARK SMILES IDX 31 23 22 25 23 26 24 27 25 28 26 29 27 30 18 31 20 33 33 35
REMARK SMILES IDX 35 37 37 39 38 41 39 42 40 43 7 45 43 47 44 48 45 50 46 51
REMARK SMILES IDX 47 53 48 54 49 55 50 57 51 58 52 59 53 60 54 61 60 62 55 63
REMARK SMILES IDX 59 64 56 65 57 66 58 67 4 69 2 70 1 72 3 73
REMARK H PARENT 31 24 18 32 20 34 33 36 35 38 37 40 40 44 7 46 44 49 46 52
REMARK H PARENT 48 56 58 68 4 71
REMARK Flexibility Score: inf
ROOT
ATOM      1  C   UNL     1      20.560  29.704  25.182  1.00  0.00     0.272 C 
ATOM      2  C   UNL     1      21.240  30.927  25.707  1.00  0.00     0.113 C 
ATOM      3  C   UNL     1      21.232  32.011  24.664  1.00  0.00     0.145 C 
ATOM      4  C   UNL     1      19.764  32.230  24.298  1.00  0.00     0.142 C 
ATOM      5  C   UNL     1      19.304  30.942  23.625  1.00  0.00     0.178 C 
ATOM      6  O   UNL     1      19.328  29.998  24.678  1.00  0.00    -0.332 OA
ENDROOT
BRANCH   1   7
ATOM      7  O   UNL     1      20.385  28.743  26.204  1.00  0.00    -0.338 OA
BRANCH   7   8
ATOM      8  C   UNL     1      21.499  28.413  26.902  1.00  0.00     0.199 C 
BRANCH   8   9
ATOM      9  C   UNL     1      21.569  26.898  27.149  1.00  0.00     0.179 C 
ATOM     10  C   UNL     1      22.561  24.946  26.381  1.00  0.00     0.282 C 
ATOM     11  O   UNL     1      22.294  26.294  26.144  1.00  0.00    -0.341 OA
ATOM     12  C   UNL     1      23.414  24.740  27.605  1.00  0.00     0.202 C 
ATOM     13  C   UNL     1      23.375  25.896  28.573  1.00  0.00     0.179 C 
ATOM     14  C   UNL     1      22.023  26.551  28.526  1.00  0.00     0.177 C 
BRANCH  10  15
ATOM     15  O   UNL     1      23.219  24.494  25.302  1.00  0.00    -0.341 OA
BRANCH  15  16
ATOM     16  C   UNL     1      23.123  25.109  24.113  1.00  0.00     0.184 C 
ATOM     17  C   UNL     1      22.637  24.427  22.913  1.00  0.00     0.178 C 
ATOM     18  O   UNL     1      23.305  24.879  21.788  1.00  0.00    -0.341 OA
ATOM     19  C   UNL     1      23.548  26.211  21.682  1.00  0.00     0.281 C 
ATOM     20  C   UNL     1      24.566  25.581  23.795  1.00  0.00     0.180 C 
ATOM     21  C   UNL     1      24.381  26.752  22.854  1.00  0.00     0.202 C 
BRANCH  17  22
ATOM     22  C   UNL     1      21.144  24.623  22.663  1.00  0.00     0.191 C 
BRANCH  22  23
ATOM     23  O   UNL     1      20.486  25.100  23.797  1.00  0.00    -0.394 OA
ATOM     24  H   UNL     1      21.095  25.027  24.556  1.00  0.00     0.210 HD
ENDBRANCH  22  23
ENDBRANCH  17  22
BRANCH  19  25
ATOM     25  O   UNL     1      22.482  27.020  21.408  1.00  0.00    -0.350 OA
BRANCH  25  26
ATOM     26  C   UNL     1      22.653  27.976  20.454  1.00  0.00     0.169 C 
BRANCH  26  27
ATOM     27  C   UNL     1      23.283  27.411  19.225  1.00  0.00     0.119 C 
BRANCH  27  28
ATOM     28  N   UNL     1      22.282  26.616  18.493  1.00  0.00    -0.092 NA
ATOM     29  N   UNL     1      22.625  25.444  18.251  1.00  0.00     0.001 N 
ATOM     30  N   UNL     1      22.589  24.217  18.446  1.00  0.00    -0.003 NA
ENDBRANCH  27  28
ENDBRANCH  26  27
ENDBRANCH  25  26
ENDBRANCH  19  25
BRANCH  20  31
ATOM     31  O   UNL     1      25.239  25.905  24.943  1.00  0.00    -0.387 OA
ATOM     32  H   UNL     1      25.852  25.188  25.246  1.00  0.00     0.211 HD
ENDBRANCH  20  31
BRANCH  21  33
ATOM     33  O   UNL     1      25.586  27.276  22.470  1.00  0.00    -0.385 OA
ATOM     34  H   UNL     1      25.799  28.128  22.925  1.00  0.00     0.211 HD
ENDBRANCH  21  33
ENDBRANCH  15  16
ENDBRANCH  10  15
BRANCH  12  35
ATOM     35  O   UNL     1      22.893  23.642  28.307  1.00  0.00    -0.385 OA
ATOM     36  H   UNL     1      23.431  22.831  28.211  1.00  0.00     0.211 HD
ENDBRANCH  12  35
BRANCH  13  37
ATOM     37  O   UNL     1      24.414  26.750  28.310  1.00  0.00    -0.387 OA
ATOM     38  H   UNL     1      25.212  26.267  27.927  1.00  0.00     0.211 HD
ENDBRANCH  13  37
BRANCH  14  39
ATOM     39  O   UNL     1      22.126  27.758  29.251  1.00  0.00    -0.387 OA
ATOM     40  H   UNL     1      21.231  28.085  29.520  1.00  0.00     0.211 HD
ENDBRANCH  14  39
ENDBRANCH   8   9
ENDBRANCH   7   8
ENDBRANCH   1   7
BRANCH   1  41
ATOM     41  C   UNL     1      21.458  29.039  24.213  1.00  0.00     0.364 C 
ATOM     42  O   UNL     1      22.583  29.483  23.917  1.00  0.00    -0.246 OA
BRANCH  41  43
ATOM     43  O   UNL     1      21.074  27.868  23.584  1.00  0.00    -0.477 OA
ATOM     44  H   UNL     1      21.618  26.991  23.655  1.00  0.00     0.296 HD
ENDBRANCH  41  43
ENDBRANCH   1  41
BRANCH   3  45
ATOM     45  O   UNL     1      21.684  33.231  25.213  1.00  0.00    -0.391 OA
ATOM     46  H   UNL     1      21.355  33.978  24.644  1.00  0.00     0.211 HD
ENDBRANCH   3  45
BRANCH   5  47
ATOM     47  C   UNL     1      17.857  31.069  23.272  1.00  0.00     0.176 C 
BRANCH  47  48
ATOM     48  O   UNL     1      17.546  30.372  22.103  1.00  0.00    -0.388 OA
ATOM     49  H   UNL     1      17.266  29.437  22.290  1.00  0.00     0.211 HD
ENDBRANCH  47  48
BRANCH  47  50
ATOM     50  C   UNL     1      16.842  30.804  24.314  1.00  0.00     0.165 C 
BRANCH  50  51
ATOM     51  O   UNL     1      16.535  29.391  24.093  1.00  0.00    -0.388 OA
ATOM     52  H   UNL     1      16.375  29.261  23.130  1.00  0.00     0.211 HD
ENDBRANCH  50  51
BRANCH  50  53
ATOM     53  C   UNL     1      15.487  31.434  24.044  1.00  0.00     0.154 C 
BRANCH  53  54
ATOM     54  N   UNL     1      14.823  30.906  22.896  1.00  0.00    -0.319 N 
ATOM     55  C   UNL     1      13.790  29.944  23.032  1.00  0.00     0.407 C 
ATOM     56  H   UNL     1      15.085  31.204  21.914  1.00  0.00     0.167 HD
ATOM     57  O   UNL     1      13.509  29.585  24.226  1.00  0.00    -0.225 OA
BRANCH  55  58
ATOM     58  O   UNL     1      13.075  29.374  22.013  1.00  0.00    -0.443 OA
BRANCH  58  59
ATOM     59  C   UNL     1      13.460  29.629  20.675  1.00  0.00     0.294 C 
BRANCH  59  60
ATOM     60  C   UNL     1      14.725  28.987  20.311  1.00  0.00     0.120 A 
ATOM     61  C   UNL     1      15.257  28.936  19.046  1.00  0.00     0.138 A 
ATOM     62  N   UNL     1      15.600  28.339  21.095  1.00  0.00    -0.132 NA
ATOM     63  N   UNL     1      16.426  28.268  19.084  1.00  0.00    -0.250 N 
ATOM     64  N   UNL     1      16.618  27.915  20.335  1.00  0.00    -0.067 NA
BRANCH  63  65
ATOM     65  C   UNL     1      17.298  28.003  17.931  1.00  0.00     0.174 C 
BRANCH  65  66
ATOM     66  C   UNL     1      18.583  28.770  18.126  1.00  0.00     0.179 C 
BRANCH  66  67
ATOM     67  O   UNL     1      19.431  27.973  18.912  1.00  0.00    -0.394 OA
ATOM     68  H   UNL     1      19.046  27.728  19.771  1.00  0.00     0.210 HD
ENDBRANCH  66  67
ENDBRANCH  65  66
ENDBRANCH  63  65
ENDBRANCH  59  60
ENDBRANCH  58  59
ENDBRANCH  55  58
ENDBRANCH  53  54
ENDBRANCH  50  53
ENDBRANCH  47  50
ENDBRANCH   5  47
BRANCH   4  69
ATOM     69  N   UNL     1      19.530  33.431  23.599  1.00  0.00    -0.348 N 
ATOM     70  C   UNL     1      18.621  34.444  23.984  1.00  0.00     0.217 C 
ATOM     71  H   UNL     1      20.073  33.630  22.721  1.00  0.00     0.163 HD
ATOM     72  C   UNL     1      18.476  35.653  23.149  1.00  0.00     0.114 C 
ATOM     73  O   UNL     1      17.941  34.332  25.015  1.00  0.00    -0.275 OA
ENDBRANCH   4  69
TORSDOF 32
