REMARK VINA RESULT:    -5.271      5.281     12.653
REMARK INTER + INTRA:         -22.870
REMARK INTER:                 -15.437
REMARK INTRA:                  -7.434
REMARK UNBOUND:                -8.356
REMARK SMILES CC(=O)N[C@@H]1[C@@H](O)C[C@](OC[C@H]2O[C@@H](O[C@H]3[C@H](O)[C@@H](O)[C@H](OCCN=[N+]=[N-])O[C@@H]3CO)[C@H](O)[C@@H](O)[C@H]2O)(C(=O)O)O[C@H]1C(O)[C@H](O)CNC(=O)OCc1cn([C@@H](CCC(=O)O)C(=O)O)nn1
REMARK SMILES IDX 43 1 42 2 9 3 8 4 41 5 6 6 5 7 10 8 11 9 12 10 14 11 13 12
REMARK SMILES IDX 32 13 34 14 36 15 15 16 16 17 29 18 28 19 21 20 17 21 19 22
REMARK SMILES IDX 30 23 31 24 22 26 23 27 24 28 25 29 26 30 27 31 18 32 20 34
REMARK SMILES IDX 33 36 35 38 37 40 38 42 39 43 40 44 7 46 4 48 2 49 1 51 3 52
REMARK SMILES IDX 44 53 45 55 46 56 47 58 48 59 49 60 50 62 51 63 52 64 53 65
REMARK SMILES IDX 54 66 66 67 55 68 65 69 56 70 57 71 58 72 59 73 60 74 61 75
REMARK SMILES IDX 62 77 63 78 64 79
REMARK H PARENT 31 25 18 33 20 35 33 37 35 39 37 41 40 45 7 47 4 50 44 54
REMARK H PARENT 46 57 48 61 61 76 64 80
REMARK Flexibility Score: inf
ROOT
ATOM      1  C   UNL     1      22.857  27.833  23.572  1.00  0.00     0.176 C 
ENDROOT
BRANCH   1   2
ATOM      2  C   UNL     1      23.118  26.332  23.448  1.00  0.00     0.178 C 
ATOM      3  C   UNL     1      23.439  24.857  21.641  1.00  0.00     0.272 C 
ATOM      4  C   UNL     1      22.281  24.003  21.969  1.00  0.00     0.113 C 
ATOM      5  O   UNL     1      23.069  26.151  22.066  1.00  0.00    -0.332 OA
ATOM      6  C   UNL     1      21.370  24.641  22.983  1.00  0.00     0.145 C 
ATOM      7  C   UNL     1      22.006  25.498  24.018  1.00  0.00     0.142 C 
BRANCH   3   8
ATOM      8  O   UNL     1      23.635  24.951  20.278  1.00  0.00    -0.338 OA
BRANCH   8   9
ATOM      9  C   UNL     1      23.674  26.062  19.589  1.00  0.00     0.199 C 
BRANCH   9  10
ATOM     10  C   UNL     1      24.529  26.266  18.369  1.00  0.00     0.179 C 
ATOM     11  C   UNL     1      25.921  24.820  17.180  1.00  0.00     0.282 C 
ATOM     12  O   UNL     1      25.632  25.462  18.356  1.00  0.00    -0.341 OA
ATOM     13  C   UNL     1      24.743  23.946  16.808  1.00  0.00     0.202 C 
ATOM     14  C   UNL     1      23.568  24.824  16.523  1.00  0.00     0.179 C 
ATOM     15  C   UNL     1      23.687  26.189  17.102  1.00  0.00     0.177 C 
BRANCH  11  16
ATOM     16  O   UNL     1      27.033  23.999  17.386  1.00  0.00    -0.341 OA
BRANCH  16  17
ATOM     17  C   UNL     1      27.566  24.044  18.649  1.00  0.00     0.184 C 
ATOM     18  C   UNL     1      29.089  24.139  18.614  1.00  0.00     0.178 C 
ATOM     19  O   UNL     1      29.628  23.022  19.249  1.00  0.00    -0.341 OA
ATOM     20  C   UNL     1      29.396  21.862  18.458  1.00  0.00     0.281 C 
ATOM     21  C   UNL     1      27.219  22.736  19.330  1.00  0.00     0.180 C 
ATOM     22  C   UNL     1      27.918  21.622  18.522  1.00  0.00     0.202 C 
BRANCH  18  23
ATOM     23  C   UNL     1      29.535  25.362  19.396  1.00  0.00     0.191 C 
BRANCH  23  24
ATOM     24  O   UNL     1      29.731  25.078  20.735  1.00  0.00    -0.394 OA
ATOM     25  H   UNL     1      29.625  25.884  21.305  1.00  0.00     0.210 HD
ENDBRANCH  23  24
ENDBRANCH  18  23
BRANCH  20  26
ATOM     26  O   UNL     1      30.191  20.872  18.959  1.00  0.00    -0.350 OA
BRANCH  26  27
ATOM     27  C   UNL     1      29.808  19.594  18.661  1.00  0.00     0.169 C 
BRANCH  27  28
ATOM     28  C   UNL     1      30.010  18.606  19.792  1.00  0.00     0.119 C 
BRANCH  28  29
ATOM     29  N   UNL     1      28.822  18.455  20.609  1.00  0.00    -0.092 NA
ATOM     30  N   UNL     1      28.485  19.250  21.479  1.00  0.00     0.001 N 
ATOM     31  N   UNL     1      28.141  20.176  22.182  1.00  0.00    -0.003 NA
ENDBRANCH  28  29
ENDBRANCH  27  28
ENDBRANCH  26  27
ENDBRANCH  20  26
BRANCH  21  32
ATOM     32  O   UNL     1      27.623  22.697  20.659  1.00  0.00    -0.387 OA
ATOM     33  H   UNL     1      28.056  23.558  20.955  1.00  0.00     0.211 HD
ENDBRANCH  21  32
BRANCH  22  34
ATOM     34  O   UNL     1      27.419  21.798  17.207  1.00  0.00    -0.385 OA
ATOM     35  H   UNL     1      26.986  20.947  16.941  1.00  0.00     0.211 HD
ENDBRANCH  22  34
ENDBRANCH  16  17
ENDBRANCH  11  16
BRANCH  13  36
ATOM     36  O   UNL     1      25.050  23.156  15.699  1.00  0.00    -0.385 OA
ATOM     37  H   UNL     1      25.777  22.527  16.005  1.00  0.00     0.211 HD
ENDBRANCH  13  36
BRANCH  14  38
ATOM     38  O   UNL     1      22.360  24.235  16.911  1.00  0.00    -0.387 OA
ATOM     39  H   UNL     1      22.559  23.432  17.476  1.00  0.00     0.211 HD
ENDBRANCH  14  38
BRANCH  15  40
ATOM     40  O   UNL     1      22.391  26.609  17.410  1.00  0.00    -0.387 OA
ATOM     41  H   UNL     1      21.762  26.370  16.693  1.00  0.00     0.211 HD
ENDBRANCH  15  40
ENDBRANCH   9  10
ENDBRANCH   8   9
ENDBRANCH   3   8
BRANCH   3  42
ATOM     42  C   UNL     1      24.727  24.538  22.242  1.00  0.00     0.364 C 
ATOM     43  O   UNL     1      25.786  24.981  21.664  1.00  0.00    -0.246 OA
BRANCH  42  44
ATOM     44  O   UNL     1      24.989  23.799  23.380  1.00  0.00    -0.477 OA
ATOM     45  H   UNL     1      24.610  22.893  23.525  1.00  0.00     0.296 HD
ENDBRANCH  42  44
ENDBRANCH   3  42
BRANCH   6  46
ATOM     46  O   UNL     1      20.492  25.494  22.257  1.00  0.00    -0.391 OA
ATOM     47  H   UNL     1      20.820  26.429  22.267  1.00  0.00     0.211 HD
ENDBRANCH   6  46
BRANCH   7  48
ATOM     48  N   UNL     1      22.298  24.674  25.138  1.00  0.00    -0.348 N 
ATOM     49  C   UNL     1      22.346  25.138  26.476  1.00  0.00     0.217 C 
ATOM     50  H   UNL     1      22.475  23.656  25.031  1.00  0.00     0.163 HD
ATOM     51  C   UNL     1      22.667  24.209  27.617  1.00  0.00     0.114 C 
ATOM     52  O   UNL     1      22.125  26.319  26.736  1.00  0.00    -0.275 OA
ENDBRANCH   7  48
ENDBRANCH   1   2
BRANCH   1  53
ATOM     53  O   UNL     1      22.003  28.064  24.644  1.00  0.00    -0.388 OA
ATOM     54  H   UNL     1      21.939  27.248  25.209  1.00  0.00     0.211 HD
ENDBRANCH   1  53
BRANCH   1  55
ATOM     55  C   UNL     1      22.409  28.532  22.375  1.00  0.00     0.165 C 
BRANCH  55  56
ATOM     56  O   UNL     1      23.559  29.045  21.703  1.00  0.00    -0.388 OA
ATOM     57  H   UNL     1      23.625  30.005  21.920  1.00  0.00     0.211 HD
ENDBRANCH  55  56
BRANCH  55  58
ATOM     58  C   UNL     1      21.503  29.715  22.540  1.00  0.00     0.154 C 
BRANCH  58  59
ATOM     59  N   UNL     1      20.135  29.354  22.822  1.00  0.00    -0.319 N 
ATOM     60  C   UNL     1      19.233  30.180  23.555  1.00  0.00     0.407 C 
ATOM     61  H   UNL     1      19.777  28.444  22.491  1.00  0.00     0.167 HD
ATOM     62  O   UNL     1      19.592  31.272  23.993  1.00  0.00    -0.225 OA
BRANCH  60  63
ATOM     63  O   UNL     1      17.955  29.721  23.759  1.00  0.00    -0.443 OA
BRANCH  63  64
ATOM     64  C   UNL     1      16.820  30.296  23.182  1.00  0.00     0.294 C 
BRANCH  64  65
ATOM     65  C   UNL     1      16.743  29.918  21.749  1.00  0.00     0.120 A 
ATOM     66  C   UNL     1      16.863  30.713  20.629  1.00  0.00     0.139 A 
ATOM     67  N   UNL     1      16.508  28.664  21.277  1.00  0.00    -0.132 NA
ATOM     68  N   UNL     1      16.702  29.937  19.519  1.00  0.00    -0.238 N 
ATOM     69  N   UNL     1      16.487  28.696  19.961  1.00  0.00    -0.066 NA
BRANCH  68  70
ATOM     70  C   UNL     1      16.775  30.365  18.170  1.00  0.00     0.219 C 
BRANCH  70  71
ATOM     71  C   UNL     1      18.101  30.531  17.526  1.00  0.00     0.051 C 
BRANCH  71  72
ATOM     72  C   UNL     1      19.310  30.008  18.184  1.00  0.00     0.125 C 
BRANCH  72  73
ATOM     73  C   UNL     1      19.685  28.621  18.002  1.00  0.00     0.303 C 
ATOM     74  O   UNL     1      19.683  27.944  16.960  1.00  0.00    -0.252 OA
BRANCH  73  75
ATOM     75  O   UNL     1      20.125  27.878  19.143  1.00  0.00    -0.481 OA
ATOM     76  H   UNL     1      20.149  26.872  19.090  1.00  0.00     0.296 HD
ENDBRANCH  73  75
ENDBRANCH  72  73
ENDBRANCH  71  72
ENDBRANCH  70  71
BRANCH  70  77
ATOM     77  C   UNL     1      15.963  29.430  17.330  1.00  0.00     0.328 C 
ATOM     78  O   UNL     1      16.475  28.852  16.352  1.00  0.00    -0.250 OA
BRANCH  77  79
ATOM     79  O   UNL     1      14.631  29.174  17.602  1.00  0.00    -0.480 OA
ATOM     80  H   UNL     1      13.886  29.782  17.259  1.00  0.00     0.296 HD
ENDBRANCH  77  79
ENDBRANCH  70  77
ENDBRANCH  68  70
ENDBRANCH  64  65
ENDBRANCH  63  64
ENDBRANCH  60  63
ENDBRANCH  58  59
ENDBRANCH  55  58
ENDBRANCH   1  55
TORSDOF 36
