REMARK VINA RESULT:    -5.678      9.686     16.901
REMARK INTER + INTRA:         -22.066
REMARK INTER:                 -14.674
REMARK INTRA:                  -7.392
REMARK UNBOUND:                -7.759
REMARK SMILES CC(=O)N[C@@H]1[C@@H](O)C[C@](OC[C@H]2O[C@@H](O[C@H]3[C@H](O)[C@@H](O)[C@H](OCCN=[N+]=[N-])O[C@@H]3CO)[C@H](O)[C@@H](O)[C@H]2O)(C(=O)O)O[C@H]1C(O)[C@H](O)CNC(=O)OCc1cn(-c2cc(Cl)ccc2C(=O)N(C)C)nn1
REMARK SMILES IDX 9 1 8 2 6 3 5 4 42 5 41 6 10 7 11 8 12 9 14 10 13 11 32 12
REMARK SMILES IDX 34 13 36 14 15 15 16 16 29 17 28 18 21 19 17 20 19 21 30 22
REMARK SMILES IDX 31 23 22 25 23 26 24 27 25 28 26 29 27 30 18 31 20 33 33 35
REMARK SMILES IDX 35 37 37 39 38 41 39 42 40 43 7 45 43 47 44 48 45 50 46 51
REMARK SMILES IDX 47 53 48 54 49 55 50 57 51 58 52 59 53 60 54 61 69 62 55 63
REMARK SMILES IDX 68 64 56 65 57 66 62 67 58 68 61 69 59 70 60 71 63 72 64 73
REMARK SMILES IDX 65 74 66 75 67 76 4 77 2 78 1 80 3 81
REMARK H PARENT 31 24 18 32 20 34 33 36 35 38 37 40 40 44 7 46 44 49 46 52
REMARK H PARENT 48 56 4 79
REMARK Flexibility Score: inf
ROOT
ATOM      1  C   UNL     1      33.052  20.663  23.412  1.00  0.00     0.272 C 
ATOM      2  C   UNL     1      32.402  21.815  24.080  1.00  0.00     0.113 C 
ATOM      3  C   UNL     1      30.905  21.634  24.090  1.00  0.00     0.145 C 
ATOM      4  C   UNL     1      30.472  21.536  22.647  1.00  0.00     0.142 C 
ATOM      5  C   UNL     1      31.186  20.463  21.938  1.00  0.00     0.178 C 
ATOM      6  O   UNL     1      32.404  20.056  22.382  1.00  0.00    -0.332 OA
ENDROOT
BRANCH   1   7
ATOM      7  O   UNL     1      33.389  19.668  24.315  1.00  0.00    -0.338 OA
BRANCH   7   8
ATOM      8  C   UNL     1      33.515  18.400  23.870  1.00  0.00     0.199 C 
BRANCH   8   9
ATOM      9  C   UNL     1      33.599  17.441  25.067  1.00  0.00     0.179 C 
ATOM     10  C   UNL     1      34.448  17.518  27.210  1.00  0.00     0.282 C 
ATOM     11  O   UNL     1      34.693  17.775  25.810  1.00  0.00    -0.341 OA
ATOM     12  C   UNL     1      33.782  16.163  27.292  1.00  0.00     0.202 C 
ATOM     13  C   UNL     1      32.372  16.209  26.742  1.00  0.00     0.179 C 
ATOM     14  C   UNL     1      32.289  17.334  25.725  1.00  0.00     0.177 C 
BRANCH  10  15
ATOM     15  O   UNL     1      33.735  18.551  27.647  1.00  0.00    -0.341 OA
BRANCH  15  16
ATOM     16  C   UNL     1      34.324  19.700  28.144  1.00  0.00     0.184 C 
ATOM     17  C   UNL     1      33.360  20.271  29.133  1.00  0.00     0.178 C 
ATOM     18  O   UNL     1      33.874  21.462  29.677  1.00  0.00    -0.341 OA
ATOM     19  C   UNL     1      33.652  22.383  28.596  1.00  0.00     0.281 C 
ATOM     20  C   UNL     1      34.583  20.684  27.032  1.00  0.00     0.180 C 
ATOM     21  C   UNL     1      34.649  22.093  27.536  1.00  0.00     0.202 C 
BRANCH  17  22
ATOM     22  C   UNL     1      33.066  19.288  30.247  1.00  0.00     0.191 C 
BRANCH  22  23
ATOM     23  O   UNL     1      31.943  18.564  29.909  1.00  0.00    -0.394 OA
ATOM     24  H   UNL     1      31.152  19.159  29.882  1.00  0.00     0.210 HD
ENDBRANCH  22  23
ENDBRANCH  17  22
BRANCH  19  25
ATOM     25  O   UNL     1      33.712  23.626  29.095  1.00  0.00    -0.350 OA
BRANCH  25  26
ATOM     26  C   UNL     1      32.785  23.923  30.079  1.00  0.00     0.169 C 
BRANCH  26  27
ATOM     27  C   UNL     1      32.099  25.259  29.884  1.00  0.00     0.119 C 
BRANCH  27  28
ATOM     28  N   UNL     1      30.977  25.136  28.979  1.00  0.00    -0.092 NA
ATOM     29  N   UNL     1      29.833  25.046  29.411  1.00  0.00     0.001 N 
ATOM     30  N   UNL     1      28.747  25.058  30.027  1.00  0.00    -0.003 NA
ENDBRANCH  27  28
ENDBRANCH  26  27
ENDBRANCH  25  26
ENDBRANCH  19  25
BRANCH  20  31
ATOM     31  O   UNL     1      35.800  20.425  26.390  1.00  0.00    -0.387 OA
ATOM     32  H   UNL     1      36.284  21.281  26.199  1.00  0.00     0.211 HD
ENDBRANCH  20  31
BRANCH  21  33
ATOM     33  O   UNL     1      34.463  22.962  26.464  1.00  0.00    -0.385 OA
ATOM     34  H   UNL     1      34.041  23.811  26.713  1.00  0.00     0.211 HD
ENDBRANCH  21  33
ENDBRANCH  15  16
ENDBRANCH  10  15
BRANCH  12  35
ATOM     35  O   UNL     1      34.519  15.308  26.449  1.00  0.00    -0.385 OA
ATOM     36  H   UNL     1      34.339  14.339  26.667  1.00  0.00     0.211 HD
ENDBRANCH  12  35
BRANCH  13  37
ATOM     37  O   UNL     1      31.396  16.396  27.684  1.00  0.00    -0.387 OA
ATOM     38  H   UNL     1      31.301  17.334  27.979  1.00  0.00     0.211 HD
ENDBRANCH  13  37
BRANCH  14  39
ATOM     39  O   UNL     1      31.698  18.476  26.187  1.00  0.00    -0.387 OA
ATOM     40  H   UNL     1      31.455  19.130  25.495  1.00  0.00     0.211 HD
ENDBRANCH  14  39
ENDBRANCH   8   9
ENDBRANCH   7   8
ENDBRANCH   1   7
BRANCH   1  41
ATOM     41  C   UNL     1      34.417  21.138  22.879  1.00  0.00     0.364 C 
ATOM     42  O   UNL     1      34.625  20.940  21.660  1.00  0.00    -0.246 OA
BRANCH  41  43
ATOM     43  O   UNL     1      35.360  21.736  23.654  1.00  0.00    -0.477 OA
ATOM     44  H   UNL     1      35.575  22.708  23.665  1.00  0.00     0.296 HD
ENDBRANCH  41  43
ENDBRANCH   1  41
BRANCH   3  45
ATOM     45  O   UNL     1      30.569  20.565  24.871  1.00  0.00    -0.391 OA
ATOM     46  H   UNL     1      29.741  20.111  24.685  1.00  0.00     0.211 HD
ENDBRANCH   3  45
BRANCH   5  47
ATOM     47  C   UNL     1      30.381  19.194  21.691  1.00  0.00     0.176 C 
BRANCH  47  48
ATOM     48  O   UNL     1      30.365  18.313  22.735  1.00  0.00    -0.388 OA
ATOM     49  H   UNL     1      30.193  17.367  22.483  1.00  0.00     0.211 HD
ENDBRANCH  47  48
BRANCH  47  50
ATOM     50  C   UNL     1      29.013  19.391  21.149  1.00  0.00     0.165 C 
BRANCH  50  51
ATOM     51  O   UNL     1      28.233  18.212  21.212  1.00  0.00    -0.388 OA
ATOM     52  H   UNL     1      28.103  17.823  20.315  1.00  0.00     0.211 HD
ENDBRANCH  50  51
BRANCH  50  53
ATOM     53  C   UNL     1      29.184  19.598  19.627  1.00  0.00     0.154 C 
BRANCH  53  54
ATOM     54  N   UNL     1      28.846  20.947  19.268  1.00  0.00    -0.319 N 
ATOM     55  C   UNL     1      29.628  21.682  18.355  1.00  0.00     0.407 C 
ATOM     56  H   UNL     1      27.996  21.435  19.679  1.00  0.00     0.167 HD
ATOM     57  O   UNL     1      30.632  21.173  17.808  1.00  0.00    -0.225 OA
BRANCH  55  58
ATOM     58  O   UNL     1      29.308  23.006  18.031  1.00  0.00    -0.443 OA
BRANCH  58  59
ATOM     59  C   UNL     1      28.074  23.352  17.464  1.00  0.00     0.294 C 
BRANCH  59  60
ATOM     60  C   UNL     1      27.259  24.173  18.410  1.00  0.00     0.121 A 
ATOM     61  C   UNL     1      26.187  23.666  19.174  1.00  0.00     0.144 A 
ATOM     62  N   UNL     1      27.343  25.455  18.730  1.00  0.00    -0.131 NA
ATOM     63  N   UNL     1      25.684  24.650  19.906  1.00  0.00    -0.219 N 
ATOM     64  N   UNL     1      26.416  25.733  19.610  1.00  0.00    -0.062 NA
BRANCH  63  65
ATOM     65  C   UNL     1      24.621  24.699  20.839  1.00  0.00     0.081 A 
ATOM     66  C   UNL     1      24.899  24.535  22.202  1.00  0.00     0.049 A 
ATOM     67  C   UNL     1      23.305  24.867  20.516  1.00  0.00     0.065 A 
ATOM     68  C   UNL     1      23.913  24.541  23.134  1.00  0.00     0.043 A 
ATOM     69  C   UNL     1      22.281  24.872  21.482  1.00  0.00     0.017 A 
ATOM     70  Cl  UNL     1      24.331  24.329  24.828  1.00  0.00    -0.084 Cl
ATOM     71  C   UNL     1      22.594  24.707  22.809  1.00  0.00     0.021 A 
BRANCH  67  72
ATOM     72  C   UNL     1      22.876  25.101  19.134  1.00  0.00     0.255 C 
ATOM     73  O   UNL     1      22.510  24.124  18.449  1.00  0.00    -0.269 OA
ATOM     74  N   UNL     1      22.878  26.394  18.603  1.00  0.00    -0.345 N 
ATOM     75  C   UNL     1      23.310  27.527  19.416  1.00  0.00     0.146 C 
ATOM     76  C   UNL     1      22.445  26.656  17.232  1.00  0.00     0.146 C 
ENDBRANCH  67  72
ENDBRANCH  63  65
ENDBRANCH  59  60
ENDBRANCH  58  59
ENDBRANCH  55  58
ENDBRANCH  53  54
ENDBRANCH  50  53
ENDBRANCH  47  50
ENDBRANCH   5  47
BRANCH   4  77
ATOM     77  N   UNL     1      30.691  22.861  22.061  1.00  0.00    -0.348 N 
ATOM     78  C   UNL     1      29.639  23.644  21.541  1.00  0.00     0.217 C 
ATOM     79  H   UNL     1      31.652  23.251  22.018  1.00  0.00     0.163 HD
ATOM     80  C   UNL     1      29.853  24.985  20.945  1.00  0.00     0.114 C 
ATOM     81  O   UNL     1      28.466  23.186  21.584  1.00  0.00    -0.275 OA
ENDBRANCH   4  77
TORSDOF 31
