REMARK VINA RESULT:    -7.057      0.000      0.000
REMARK INTER + INTRA:         -23.546
REMARK INTER:                 -13.753
REMARK INTRA:                  -9.793
REMARK UNBOUND:                -5.144
REMARK SMILES CC(=O)N[C@@H]1[C@@H](O)C[C@](OC[C@H]2O[C@@H](O[C@H]3[C@H](O)[C@@H](O)[C@H](OCCN=[N+]=[N-])O[C@@H]3CO)[C@H](O)[C@@H](O)[C@H]2O)(C(=O)O)O[C@H]1C(O)[C@H](O)CNC(=O)OCc1cn(-c2cccc(C=CC(=O)O)c2)nn1
REMARK SMILES IDX 43 1 42 2 9 3 8 4 41 5 6 6 5 7 10 8 11 9 12 10 14 11 13 12
REMARK SMILES IDX 32 13 34 14 36 15 15 16 16 17 29 18 28 19 21 20 17 21 19 22
REMARK SMILES IDX 30 23 31 24 22 26 23 27 24 28 25 29 26 30 27 31 18 32 20 34
REMARK SMILES IDX 33 36 35 38 37 40 38 42 39 43 40 44 7 46 4 48 2 49 1 51 3 52
REMARK SMILES IDX 44 53 45 55 46 56 47 58 48 59 49 60 50 62 51 63 52 64 53 65
REMARK SMILES IDX 54 66 68 67 55 68 67 69 56 70 66 71 57 72 60 73 58 74 59 75
REMARK SMILES IDX 61 76 62 77 63 78 64 79 65 80
REMARK H PARENT 31 25 18 33 20 35 33 37 35 39 37 41 40 45 7 47 4 50 44 54
REMARK H PARENT 46 57 48 61 65 81
REMARK Flexibility Score: inf
ROOT
ATOM      1  C   UNL     1      20.639  31.842  17.916  1.00  0.00     0.176 C 
ENDROOT
BRANCH   1   2
ATOM      2  C   UNL     1      20.662  30.567  17.098  1.00  0.00     0.178 C 
ATOM      3  C   UNL     1      19.563  29.694  15.204  1.00  0.00     0.272 C 
ATOM      4  C   UNL     1      20.550  28.522  15.677  1.00  0.00     0.113 C 
ATOM      5  O   UNL     1      19.680  30.686  16.155  1.00  0.00    -0.332 OA
ATOM      6  C   UNL     1      20.125  28.191  17.063  1.00  0.00     0.145 C 
ATOM      7  C   UNL     1      20.394  29.374  17.973  1.00  0.00     0.142 C 
BRANCH   3   8
ATOM      8  O   UNL     1      18.363  29.112  15.310  1.00  0.00    -0.338 OA
BRANCH   8   9
ATOM      9  C   UNL     1      17.376  29.168  14.434  1.00  0.00     0.199 C 
BRANCH   9  10
ATOM     10  C   UNL     1      15.953  29.331  14.926  1.00  0.00     0.179 C 
ATOM     11  C   UNL     1      15.159  29.538  17.144  1.00  0.00     0.282 C 
ATOM     12  O   UNL     1      15.893  28.867  16.186  1.00  0.00    -0.341 OA
ATOM     13  C   UNL     1      13.994  30.196  16.518  1.00  0.00     0.202 C 
ATOM     14  C   UNL     1      14.310  31.134  15.393  1.00  0.00     0.179 C 
ATOM     15  C   UNL     1      15.695  30.830  14.883  1.00  0.00     0.177 C 
BRANCH  11  16
ATOM     16  O   UNL     1      16.053  30.324  17.837  1.00  0.00    -0.341 OA
BRANCH  16  17
ATOM     17  C   UNL     1      15.959  30.290  19.186  1.00  0.00     0.184 C 
ATOM     18  C   UNL     1      15.877  31.668  19.766  1.00  0.00     0.178 C 
ATOM     19  O   UNL     1      15.405  31.481  21.087  1.00  0.00    -0.341 OA
ATOM     20  C   UNL     1      16.423  30.937  21.874  1.00  0.00     0.281 C 
ATOM     21  C   UNL     1      17.188  29.658  19.848  1.00  0.00     0.180 C 
ATOM     22  C   UNL     1      16.949  29.644  21.343  1.00  0.00     0.202 C 
BRANCH  18  23
ATOM     23  C   UNL     1      14.970  32.604  19.051  1.00  0.00     0.191 C 
BRANCH  23  24
ATOM     24  O   UNL     1      15.656  33.179  17.983  1.00  0.00    -0.394 OA
ATOM     25  H   UNL     1      16.002  32.461  17.367  1.00  0.00     0.210 HD
ENDBRANCH  23  24
ENDBRANCH  18  23
BRANCH  20  26
ATOM     26  O   UNL     1      15.894  30.718  23.143  1.00  0.00    -0.350 OA
BRANCH  26  27
ATOM     27  C   UNL     1      14.727  31.448  23.353  1.00  0.00     0.169 C 
BRANCH  27  28
ATOM     28  C   UNL     1      13.679  30.505  23.900  1.00  0.00     0.119 C 
BRANCH  28  29
ATOM     29  N   UNL     1      12.831  30.054  22.822  1.00  0.00    -0.092 NA
ATOM     30  N   UNL     1      13.179  29.098  22.106  1.00  0.00     0.001 N 
ATOM     31  N   UNL     1      13.664  28.453  21.163  1.00  0.00    -0.003 NA
ENDBRANCH  28  29
ENDBRANCH  27  28
ENDBRANCH  26  27
ENDBRANCH  20  26
BRANCH  21  32
ATOM     32  O   UNL     1      17.377  28.338  19.457  1.00  0.00    -0.387 OA
ATOM     33  H   UNL     1      16.674  28.159  18.783  1.00  0.00     0.211 HD
ENDBRANCH  21  32
BRANCH  22  34
ATOM     34  O   UNL     1      18.220  29.443  21.931  1.00  0.00    -0.385 OA
ATOM     35  H   UNL     1      18.376  28.500  22.160  1.00  0.00     0.211 HD
ENDBRANCH  22  34
ENDBRANCH  16  17
ENDBRANCH  11  16
BRANCH  13  36
ATOM     36  O   UNL     1      13.126  29.197  15.987  1.00  0.00    -0.385 OA
ATOM     37  H   UNL     1      13.641  28.352  15.858  1.00  0.00     0.211 HD
ENDBRANCH  13  36
BRANCH  14  38
ATOM     38  O   UNL     1      14.168  32.484  15.726  1.00  0.00    -0.387 OA
ATOM     39  H   UNL     1      13.451  32.625  16.395  1.00  0.00     0.211 HD
ENDBRANCH  14  38
BRANCH  15  40
ATOM     40  O   UNL     1      16.620  31.513  15.647  1.00  0.00    -0.387 OA
ATOM     41  H   UNL     1      17.101  30.906  16.292  1.00  0.00     0.211 HD
ENDBRANCH  15  40
ENDBRANCH   9  10
ENDBRANCH   8   9
ENDBRANCH   3   8
BRANCH   3  42
ATOM     42  C   UNL     1      20.087  30.131  13.921  1.00  0.00     0.364 C 
ATOM     43  O   UNL     1      20.609  29.453  13.018  1.00  0.00    -0.246 OA
BRANCH  42  44
ATOM     44  O   UNL     1      20.006  31.514  13.626  1.00  0.00    -0.477 OA
ATOM     45  H   UNL     1      19.249  32.050  14.078  1.00  0.00     0.296 HD
ENDBRANCH  42  44
ENDBRANCH   3  42
BRANCH   6  46
ATOM     46  O   UNL     1      18.706  27.988  17.000  1.00  0.00    -0.391 OA
ATOM     47  H   UNL     1      18.307  28.175  17.894  1.00  0.00     0.211 HD
ENDBRANCH   6  46
BRANCH   7  48
ATOM     48  N   UNL     1      21.328  29.142  19.015  1.00  0.00    -0.348 N 
ATOM     49  C   UNL     1      21.152  28.411  20.193  1.00  0.00     0.217 C 
ATOM     50  H   UNL     1      22.307  29.601  18.924  1.00  0.00     0.163 HD
ATOM     51  C   UNL     1      22.302  28.317  21.177  1.00  0.00     0.114 C 
ATOM     52  O   UNL     1      20.088  27.812  20.506  1.00  0.00    -0.275 OA
ENDBRANCH   7  48
ENDBRANCH   1   2
BRANCH   1  53
ATOM     53  O   UNL     1      20.941  32.918  17.100  1.00  0.00    -0.388 OA
ATOM     54  H   UNL     1      20.337  33.047  16.347  1.00  0.00     0.211 HD
ENDBRANCH   1  53
BRANCH   1  55
ATOM     55  C   UNL     1      19.250  32.124  18.491  1.00  0.00     0.165 C 
BRANCH  55  56
ATOM     56  O   UNL     1      18.453  32.870  17.667  1.00  0.00    -0.388 OA
ATOM     57  H   UNL     1      18.938  33.410  17.002  1.00  0.00     0.211 HD
ENDBRANCH  55  56
BRANCH  55  58
ATOM     58  C   UNL     1      19.342  32.710  19.864  1.00  0.00     0.154 C 
BRANCH  58  59
ATOM     59  N   UNL     1      19.946  31.819  20.787  1.00  0.00    -0.319 N 
ATOM     60  C   UNL     1      20.936  32.228  21.709  1.00  0.00     0.407 C 
ATOM     61  H   UNL     1      19.671  30.800  20.816  1.00  0.00     0.167 HD
ATOM     62  O   UNL     1      21.333  33.425  21.749  1.00  0.00    -0.225 OA
BRANCH  60  63
ATOM     63  O   UNL     1      21.521  31.349  22.617  1.00  0.00    -0.443 OA
BRANCH  63  64
ATOM     64  C   UNL     1      20.885  31.235  23.896  1.00  0.00     0.294 C 
BRANCH  64  65
ATOM     65  C   UNL     1      20.846  29.800  24.233  1.00  0.00     0.121 A 
ATOM     66  C   UNL     1      21.921  28.957  24.503  1.00  0.00     0.144 A 
ATOM     67  N   UNL     1      19.743  29.043  24.350  1.00  0.00    -0.131 NA
ATOM     68  N   UNL     1      21.427  27.728  24.774  1.00  0.00    -0.220 N 
ATOM     69  N   UNL     1      20.116  27.812  24.673  1.00  0.00    -0.062 NA
BRANCH  68  70
ATOM     70  C   UNL     1      22.236  26.611  25.106  1.00  0.00     0.067 A 
ATOM     71  C   UNL     1      23.257  26.215  24.242  1.00  0.00     0.036 A 
ATOM     72  C   UNL     1      22.044  25.914  26.251  1.00  0.00     0.028 A 
ATOM     73  C   UNL     1      24.060  25.152  24.517  1.00  0.00    -0.023 A 
ATOM     74  C   UNL     1      22.841  24.820  26.576  1.00  0.00     0.003 A 
ATOM     75  C   UNL     1      23.836  24.464  25.694  1.00  0.00     0.008 A 
BRANCH  73  76
ATOM     76  C   UNL     1      25.117  24.737  23.620  1.00  0.00     0.015 C 
ATOM     77  C   UNL     1      24.865  23.992  22.573  1.00  0.00     0.094 C 
BRANCH  77  78
ATOM     78  C   UNL     1      25.966  23.595  21.693  1.00  0.00     0.328 C 
ATOM     79  O   UNL     1      26.019  23.970  20.516  1.00  0.00    -0.247 OA
BRANCH  78  80
ATOM     80  O   UNL     1      26.987  22.777  22.171  1.00  0.00    -0.478 OA
ATOM     81  H   UNL     1      26.845  21.767  22.109  1.00  0.00     0.297 HD
ENDBRANCH  78  80
ENDBRANCH  77  78
ENDBRANCH  73  76
ENDBRANCH  68  70
ENDBRANCH  64  65
ENDBRANCH  63  64
ENDBRANCH  60  63
ENDBRANCH  58  59
ENDBRANCH  55  58
ENDBRANCH   1  55
TORSDOF 33
