REMARK VINA RESULT:    -6.116      4.734      7.269
REMARK INTER + INTRA:         -22.706
REMARK INTER:                 -16.138
REMARK INTRA:                  -6.568
REMARK UNBOUND:                -7.652
REMARK SMILES CC(=O)N[C@@H]1[C@@H](O)C[C@](OC[C@H]2O[C@@H](O[C@H]3[C@H](O)[C@@H](O)[C@H](OCCN=[N+]=[N-])O[C@@H]3CO)[C@H](O)[C@@H](O)[C@H]2O)(C(=O)O)O[C@H]1C(O)[C@H](O)CNC(=O)OCc1cn(-c2ccc(Br)cc2)nn1
REMARK SMILES IDX 9 1 8 2 6 3 5 4 42 5 41 6 10 7 11 8 12 9 14 10 13 11 32 12
REMARK SMILES IDX 34 13 36 14 15 15 16 16 29 17 28 18 21 19 17 20 19 21 30 22
REMARK SMILES IDX 31 23 22 25 23 26 24 27 25 28 26 29 27 30 18 31 20 33 33 35
REMARK SMILES IDX 35 37 37 39 38 41 39 42 40 43 7 45 43 47 44 48 45 50 46 51
REMARK SMILES IDX 47 53 48 54 49 55 50 57 51 58 52 59 53 60 54 61 64 62 55 63
REMARK SMILES IDX 63 64 56 65 57 66 62 67 58 68 61 69 59 70 60 71 4 72 2 73
REMARK SMILES IDX 1 75 3 76
REMARK H PARENT 31 24 18 32 20 34 33 36 35 38 37 40 40 44 7 46 44 49 46 52
REMARK H PARENT 48 56 4 74
REMARK Flexibility Score: inf
ROOT
ATOM      1  C   UNL     1      22.530  23.025  11.257  1.00  0.00     0.272 C 
ATOM      2  C   UNL     1      23.538  22.043  10.600  1.00  0.00     0.113 C 
ATOM      3  C   UNL     1      24.870  22.281  11.209  1.00  0.00     0.145 C 
ATOM      4  C   UNL     1      24.710  22.065  12.728  1.00  0.00     0.142 C 
ATOM      5  C   UNL     1      23.836  23.209  13.185  1.00  0.00     0.178 C 
ATOM      6  O   UNL     1      22.601  22.986  12.619  1.00  0.00    -0.332 OA
ENDROOT
BRANCH   1   7
ATOM      7  O   UNL     1      21.298  22.495  10.861  1.00  0.00    -0.338 OA
BRANCH   7   8
ATOM      8  C   UNL     1      20.672  21.700  11.772  1.00  0.00     0.199 C 
BRANCH   8   9
ATOM      9  C   UNL     1      19.966  20.586  10.973  1.00  0.00     0.179 C 
ATOM     10  C   UNL     1      20.496  18.474  10.156  1.00  0.00     0.282 C 
ATOM     11  O   UNL     1      20.868  19.783  10.336  1.00  0.00    -0.341 OA
ATOM     12  C   UNL     1      19.039  18.244  10.160  1.00  0.00     0.202 C 
ATOM     13  C   UNL     1      18.276  18.857  11.291  1.00  0.00     0.179 C 
ATOM     14  C   UNL     1      19.148  19.834  12.011  1.00  0.00     0.177 C 
BRANCH  10  15
ATOM     15  O   UNL     1      21.249  17.721  11.056  1.00  0.00    -0.341 OA
BRANCH  15  16
ATOM     16  C   UNL     1      22.609  17.873  10.851  1.00  0.00     0.184 C 
ATOM     17  C   UNL     1      23.252  16.603  10.394  1.00  0.00     0.178 C 
ATOM     18  O   UNL     1      24.553  16.835  10.052  1.00  0.00    -0.341 OA
ATOM     19  C   UNL     1      25.158  17.968  10.502  1.00  0.00     0.281 C 
ATOM     20  C   UNL     1      23.314  18.219  12.172  1.00  0.00     0.180 C 
ATOM     21  C   UNL     1      24.794  18.395  11.906  1.00  0.00     0.202 C 
BRANCH  17  22
ATOM     22  C   UNL     1      22.529  16.085   9.165  1.00  0.00     0.191 C 
BRANCH  22  23
ATOM     23  O   UNL     1      21.571  15.163   9.514  1.00  0.00    -0.394 OA
ATOM     24  H   UNL     1      20.717  15.591   9.702  1.00  0.00     0.210 HD
ENDBRANCH  22  23
ENDBRANCH  17  22
BRANCH  19  25
ATOM     25  O   UNL     1      25.083  19.026   9.602  1.00  0.00    -0.350 OA
BRANCH  25  26
ATOM     26  C   UNL     1      25.653  18.764   8.371  1.00  0.00     0.169 C 
BRANCH  26  27
ATOM     27  C   UNL     1      24.698  18.806   7.225  1.00  0.00     0.119 C 
BRANCH  27  28
ATOM     28  N   UNL     1      24.961  19.977   6.406  1.00  0.00    -0.092 NA
ATOM     29  N   UNL     1      24.723  21.079   6.907  1.00  0.00     0.001 N 
ATOM     30  N   UNL     1      24.630  22.234   7.373  1.00  0.00    -0.003 NA
ENDBRANCH  27  28
ENDBRANCH  26  27
ENDBRANCH  25  26
ENDBRANCH  19  25
BRANCH  20  31
ATOM     31  O   UNL     1      22.720  19.321  12.761  1.00  0.00    -0.387 OA
ATOM     32  H   UNL     1      23.364  20.071  12.868  1.00  0.00     0.211 HD
ENDBRANCH  20  31
BRANCH  21  33
ATOM     33  O   UNL     1      25.603  17.766  12.826  1.00  0.00    -0.385 OA
ATOM     34  H   UNL     1      25.471  16.792  12.743  1.00  0.00     0.211 HD
ENDBRANCH  21  33
ENDBRANCH  15  16
ENDBRANCH  10  15
BRANCH  12  35
ATOM     35  O   UNL     1      18.549  18.714   8.910  1.00  0.00    -0.385 OA
ATOM     36  H   UNL     1      18.773  19.685   8.814  1.00  0.00     0.211 HD
ENDBRANCH  12  35
BRANCH  13  37
ATOM     37  O   UNL     1      17.862  17.861  12.208  1.00  0.00    -0.387 OA
ATOM     38  H   UNL     1      18.637  17.251  12.297  1.00  0.00     0.211 HD
ENDBRANCH  13  37
BRANCH  14  39
ATOM     39  O   UNL     1      19.958  19.223  12.965  1.00  0.00    -0.387 OA
ATOM     40  H   UNL     1      20.457  19.899  13.488  1.00  0.00     0.211 HD
ENDBRANCH  14  39
ENDBRANCH   8   9
ENDBRANCH   7   8
ENDBRANCH   1   7
BRANCH   1  41
ATOM     41  C   UNL     1      22.727  24.318  10.605  1.00  0.00     0.364 C 
ATOM     42  O   UNL     1      22.496  25.419  11.160  1.00  0.00    -0.246 OA
BRANCH  41  43
ATOM     43  O   UNL     1      23.194  24.381   9.306  1.00  0.00    -0.477 OA
ATOM     44  H   UNL     1      23.521  25.237   8.860  1.00  0.00     0.296 HD
ENDBRANCH  41  43
ENDBRANCH   1  41
BRANCH   3  45
ATOM     45  O   UNL     1      25.805  21.339  10.805  1.00  0.00    -0.391 OA
ATOM     46  H   UNL     1      26.181  21.603   9.940  1.00  0.00     0.211 HD
ENDBRANCH   3  45
BRANCH   5  47
ATOM     47  C   UNL     1      23.642  23.307  14.660  1.00  0.00     0.176 C 
BRANCH  47  48
ATOM     48  O   UNL     1      23.058  22.065  15.041  1.00  0.00    -0.388 OA
ATOM     49  H   UNL     1      23.675  21.339  14.773  1.00  0.00     0.211 HD
ENDBRANCH  47  48
BRANCH  47  50
ATOM     50  C   UNL     1      22.606  24.332  15.096  1.00  0.00     0.165 C 
BRANCH  50  51
ATOM     51  O   UNL     1      22.656  25.304  14.059  1.00  0.00    -0.388 OA
ATOM     52  H   UNL     1      23.589  25.683  14.012  1.00  0.00     0.211 HD
ENDBRANCH  50  51
BRANCH  50  53
ATOM     53  C   UNL     1      23.008  25.031  16.348  1.00  0.00     0.154 C 
BRANCH  53  54
ATOM     54  N   UNL     1      22.652  24.288  17.515  1.00  0.00    -0.319 N 
ATOM     55  C   UNL     1      23.014  24.639  18.853  1.00  0.00     0.407 C 
ATOM     56  H   UNL     1      22.073  23.392  17.429  1.00  0.00     0.167 HD
ATOM     57  O   UNL     1      23.700  25.671  19.039  1.00  0.00    -0.225 OA
BRANCH  55  58
ATOM     58  O   UNL     1      22.629  23.883  19.936  1.00  0.00    -0.443 OA
BRANCH  58  59
ATOM     59  C   UNL     1      22.066  24.500  21.065  1.00  0.00     0.294 C 
BRANCH  59  60
ATOM     60  C   UNL     1      23.036  24.428  22.181  1.00  0.00     0.121 A 
ATOM     61  C   UNL     1      22.741  24.779  23.504  1.00  0.00     0.144 A 
ATOM     62  N   UNL     1      24.323  24.051  22.202  1.00  0.00    -0.131 NA
ATOM     63  N   UNL     1      23.845  24.601  24.250  1.00  0.00    -0.220 N 
ATOM     64  N   UNL     1      24.782  24.160  23.435  1.00  0.00    -0.062 NA
BRANCH  63  65
ATOM     65  C   UNL     1      23.901  24.867  25.646  1.00  0.00     0.066 A 
ATOM     66  C   UNL     1      24.970  25.395  26.297  1.00  0.00     0.029 A 
ATOM     67  C   UNL     1      22.755  24.562  26.373  1.00  0.00     0.029 A 
ATOM     68  C   UNL     1      24.891  25.614  27.656  1.00  0.00     0.018 A 
ATOM     69  C   UNL     1      22.691  24.786  27.730  1.00  0.00     0.018 A 
ATOM     70  C   UNL     1      23.773  25.323  28.398  1.00  0.00     0.018 A 
ATOM     71  Br  UNL     1      23.704  25.645  30.277  1.00  0.00    -0.051 Br
ENDBRANCH  63  65
ENDBRANCH  59  60
ENDBRANCH  58  59
ENDBRANCH  55  58
ENDBRANCH  53  54
ENDBRANCH  50  53
ENDBRANCH  47  50
ENDBRANCH   5  47
BRANCH   4  72
ATOM     72  N   UNL     1      26.033  22.052  13.274  1.00  0.00    -0.348 N 
ATOM     73  C   UNL     1      26.436  21.119  14.267  1.00  0.00     0.217 C 
ATOM     74  H   UNL     1      26.728  22.744  12.941  1.00  0.00     0.163 HD
ATOM     75  C   UNL     1      27.797  21.084  14.853  1.00  0.00     0.114 C 
ATOM     76  O   UNL     1      25.600  20.258  14.695  1.00  0.00    -0.275 OA
ENDBRANCH   4  72
TORSDOF 30
