REMARK VINA RESULT:    -6.694      9.260     14.352
REMARK INTER + INTRA:         -21.690
REMARK INTER:                 -15.248
REMARK INTRA:                  -6.442
REMARK UNBOUND:                -4.822
REMARK SMILES CC(=O)N[C@@H]1[C@@H](O)C[C@](OC[C@H]2O[C@@H](O[C@H]3[C@H](O)[C@@H](O)[C@H](OCCN=[N+]=[N-])O[C@@H]3CO)[C@H](O)[C@@H](O)[C@H]2O)(C(=O)O)O[C@H]1C(O)[C@H](O)CNC(=O)OCc1cn(Cc2ccccc2Br)nn1
REMARK SMILES IDX 9 1 8 2 6 3 5 4 42 5 41 6 10 7 11 8 12 9 14 10 13 11 32 12
REMARK SMILES IDX 34 13 36 14 15 15 16 16 29 17 28 18 21 19 17 20 19 21 30 22
REMARK SMILES IDX 31 23 22 25 23 26 24 27 25 28 26 29 27 30 18 31 20 33 33 35
REMARK SMILES IDX 35 37 37 39 38 41 39 42 40 43 7 45 43 47 44 48 45 50 46 51
REMARK SMILES IDX 47 53 48 54 49 55 50 57 51 58 52 59 53 60 54 61 65 62 55 63
REMARK SMILES IDX 64 64 56 65 57 66 58 67 62 68 59 69 61 70 63 71 60 72 4 73
REMARK SMILES IDX 2 74 1 76 3 77
REMARK H PARENT 31 24 18 32 20 34 33 36 35 38 37 40 40 44 7 46 44 49 46 52
REMARK H PARENT 48 56 4 75
REMARK Flexibility Score: inf
ROOT
ATOM      1  C   UNL     1      14.054  29.539  21.784  1.00  0.00     0.272 C 
ATOM      2  C   UNL     1      12.682  30.022  22.043  1.00  0.00     0.113 C 
ATOM      3  C   UNL     1      12.663  31.092  23.075  1.00  0.00     0.145 C 
ATOM      4  C   UNL     1      13.558  32.218  22.641  1.00  0.00     0.142 C 
ATOM      5  C   UNL     1      14.762  31.786  21.896  1.00  0.00     0.178 C 
ATOM      6  O   UNL     1      14.682  30.690  21.111  1.00  0.00    -0.332 OA
ENDROOT
BRANCH   1   7
ATOM      7  O   UNL     1      14.168  28.547  20.881  1.00  0.00    -0.338 OA
BRANCH   7   8
ATOM      8  C   UNL     1      14.285  28.585  19.593  1.00  0.00     0.199 C 
BRANCH   8   9
ATOM      9  C   UNL     1      15.471  28.491  18.741  1.00  0.00     0.179 C 
ATOM     10  C   UNL     1      16.670  29.157  16.901  1.00  0.00     0.282 C 
ATOM     11  O   UNL     1      15.736  29.565  17.885  1.00  0.00    -0.341 OA
ATOM     12  C   UNL     1      18.015  29.165  17.572  1.00  0.00     0.202 C 
ATOM     13  C   UNL     1      17.993  28.411  18.856  1.00  0.00     0.179 C 
ATOM     14  C   UNL     1      16.680  27.797  19.254  1.00  0.00     0.177 C 
BRANCH  10  15
ATOM     15  O   UNL     1      16.568  30.048  15.876  1.00  0.00    -0.341 OA
BRANCH  15  16
ATOM     16  C   UNL     1      16.063  29.608  14.689  1.00  0.00     0.184 C 
ATOM     17  C   UNL     1      15.937  30.624  13.609  1.00  0.00     0.178 C 
ATOM     18  O   UNL     1      14.654  30.538  13.075  1.00  0.00    -0.341 OA
ATOM     19  C   UNL     1      13.775  30.921  14.120  1.00  0.00     0.281 C 
ATOM     20  C   UNL     1      14.764  28.832  14.844  1.00  0.00     0.180 C 
ATOM     21  C   UNL     1      13.594  29.769  15.072  1.00  0.00     0.202 C 
BRANCH  17  22
ATOM     22  C   UNL     1      16.900  30.361  12.452  1.00  0.00     0.191 C 
BRANCH  22  23
ATOM     23  O   UNL     1      16.805  29.035  12.029  1.00  0.00    -0.394 OA
ATOM     24  H   UNL     1      16.916  28.941  11.056  1.00  0.00     0.210 HD
ENDBRANCH  22  23
ENDBRANCH  17  22
BRANCH  19  25
ATOM     25  O   UNL     1      12.593  31.310  13.496  1.00  0.00    -0.350 OA
BRANCH  25  26
ATOM     26  C   UNL     1      11.469  30.849  14.182  1.00  0.00     0.169 C 
BRANCH  26  27
ATOM     27  C   UNL     1      10.829  32.041  14.874  1.00  0.00     0.119 C 
BRANCH  27  28
ATOM     28  N   UNL     1      10.577  31.677  16.245  1.00  0.00    -0.092 NA
ATOM     29  N   UNL     1      11.168  32.223  17.181  1.00  0.00     0.001 N 
ATOM     30  N   UNL     1      12.099  32.512  17.961  1.00  0.00    -0.003 NA
ENDBRANCH  27  28
ENDBRANCH  26  27
ENDBRANCH  25  26
ENDBRANCH  19  25
BRANCH  20  31
ATOM     31  O   UNL     1      14.470  28.121  13.679  1.00  0.00    -0.387 OA
ATOM     32  H   UNL     1      15.004  27.280  13.722  1.00  0.00     0.211 HD
ENDBRANCH  20  31
BRANCH  21  33
ATOM     33  O   UNL     1      13.446  30.139  16.384  1.00  0.00    -0.385 OA
ATOM     34  H   UNL     1      12.510  30.401  16.550  1.00  0.00     0.211 HD
ENDBRANCH  21  33
ENDBRANCH  15  16
ENDBRANCH  10  15
BRANCH  12  35
ATOM     35  O   UNL     1      18.988  28.548  16.769  1.00  0.00    -0.385 OA
ATOM     36  H   UNL     1      18.899  27.579  16.915  1.00  0.00     0.211 HD
ENDBRANCH  12  35
BRANCH  13  37
ATOM     37  O   UNL     1      18.403  29.263  19.891  1.00  0.00    -0.387 OA
ATOM     38  H   UNL     1      17.831  30.052  19.972  1.00  0.00     0.211 HD
ENDBRANCH  13  37
BRANCH  14  39
ATOM     39  O   UNL     1      16.697  27.684  20.636  1.00  0.00    -0.387 OA
ATOM     40  H   UNL     1      15.836  27.599  21.070  1.00  0.00     0.211 HD
ENDBRANCH  14  39
ENDBRANCH   8   9
ENDBRANCH   7   8
ENDBRANCH   1   7
BRANCH   1  41
ATOM     41  C   UNL     1      14.963  29.388  22.940  1.00  0.00     0.364 C 
ATOM     42  O   UNL     1      16.211  29.477  22.921  1.00  0.00    -0.246 OA
BRANCH  41  43
ATOM     43  O   UNL     1      14.414  29.112  24.181  1.00  0.00    -0.477 OA
ATOM     44  H   UNL     1      14.896  29.353  25.049  1.00  0.00     0.296 HD
ENDBRANCH  41  43
ENDBRANCH   1  41
BRANCH   3  45
ATOM     45  O   UNL     1      11.316  31.579  23.084  1.00  0.00    -0.391 OA
ATOM     46  H   UNL     1      11.172  32.180  23.841  1.00  0.00     0.211 HD
ENDBRANCH   3  45
BRANCH   5  47
ATOM     47  C   UNL     1      15.242  32.930  20.998  1.00  0.00     0.176 C 
BRANCH  47  48
ATOM     48  O   UNL     1      14.452  32.916  19.858  1.00  0.00    -0.388 OA
ATOM     49  H   UNL     1      13.541  33.221  20.009  1.00  0.00     0.211 HD
ENDBRANCH  47  48
BRANCH  47  50
ATOM     50  C   UNL     1      16.673  32.798  20.613  1.00  0.00     0.165 C 
BRANCH  50  51
ATOM     51  O   UNL     1      16.944  31.560  20.005  1.00  0.00    -0.388 OA
ATOM     52  H   UNL     1      16.228  31.332  19.359  1.00  0.00     0.211 HD
ENDBRANCH  50  51
BRANCH  50  53
ATOM     53  C   UNL     1      17.558  32.852  21.831  1.00  0.00     0.154 C 
BRANCH  53  54
ATOM     54  N   UNL     1      18.109  31.574  22.111  1.00  0.00    -0.319 N 
ATOM     55  C   UNL     1      19.284  31.363  22.862  1.00  0.00     0.407 C 
ATOM     56  H   UNL     1      17.600  30.725  21.725  1.00  0.00     0.167 HD
ATOM     57  O   UNL     1      19.933  32.323  23.348  1.00  0.00    -0.225 OA
BRANCH  55  58
ATOM     58  O   UNL     1      19.776  30.073  23.100  1.00  0.00    -0.443 OA
BRANCH  58  59
ATOM     59  C   UNL     1      20.971  29.620  22.522  1.00  0.00     0.294 C 
BRANCH  59  60
ATOM     60  C   UNL     1      20.995  28.169  22.231  1.00  0.00     0.120 A 
ATOM     61  C   UNL     1      21.335  27.188  23.176  1.00  0.00     0.138 A 
ATOM     62  N   UNL     1      20.727  27.502  21.105  1.00  0.00    -0.132 NA
ATOM     63  N   UNL     1      21.256  26.001  22.585  1.00  0.00    -0.248 N 
ATOM     64  N   UNL     1      20.883  26.214  21.319  1.00  0.00    -0.067 NA
BRANCH  63  65
ATOM     65  C   UNL     1      21.497  24.671  23.143  1.00  0.00     0.182 C 
BRANCH  65  66
ATOM     66  C   UNL     1      22.515  24.656  24.215  1.00  0.00    -0.012 A 
ATOM     67  C   UNL     1      22.050  24.702  25.540  1.00  0.00     0.007 A 
ATOM     68  C   UNL     1      23.865  24.627  23.998  1.00  0.00     0.023 A 
ATOM     69  C   UNL     1      22.954  24.719  26.557  1.00  0.00     0.000 A 
ATOM     70  C   UNL     1      24.774  24.647  25.045  1.00  0.00     0.016 A 
ATOM     71  Br  UNL     1      24.558  24.503  22.234  1.00  0.00    -0.050 Br
ATOM     72  C   UNL     1      24.304  24.693  26.331  1.00  0.00     0.001 A 
ENDBRANCH  65  66
ENDBRANCH  63  65
ENDBRANCH  59  60
ENDBRANCH  58  59
ENDBRANCH  55  58
ENDBRANCH  53  54
ENDBRANCH  50  53
ENDBRANCH  47  50
ENDBRANCH   5  47
BRANCH   4  73
ATOM     73  N   UNL     1      13.935  32.988  23.797  1.00  0.00    -0.348 N 
ATOM     74  C   UNL     1      13.481  34.320  24.036  1.00  0.00     0.217 C 
ATOM     75  H   UNL     1      14.571  32.607  24.530  1.00  0.00     0.163 HD
ATOM     76  C   UNL     1      13.915  35.064  25.260  1.00  0.00     0.114 C 
ATOM     77  O   UNL     1      12.722  34.837  23.205  1.00  0.00    -0.275 OA
ENDBRANCH   4  73
TORSDOF 31
