REMARK VINA RESULT:    -6.516      6.154     13.942
REMARK INTER + INTRA:         -21.241
REMARK INTER:                 -14.980
REMARK INTRA:                  -6.261
REMARK UNBOUND:                -4.822
REMARK SMILES CC(=O)N[C@@H]1[C@@H](O)C[C@](OC[C@H]2O[C@@H](O[C@H]3[C@H](O)[C@@H](O)[C@H](OCCN=[N+]=[N-])O[C@@H]3CO)[C@H](O)[C@@H](O)[C@H]2O)(C(=O)O)O[C@H]1C(O)[C@H](O)CNC(=O)OCc1cn(Cc2ccccc2Br)nn1
REMARK SMILES IDX 9 1 8 2 6 3 5 4 42 5 41 6 10 7 11 8 12 9 14 10 13 11 32 12
REMARK SMILES IDX 34 13 36 14 15 15 16 16 29 17 28 18 21 19 17 20 19 21 30 22
REMARK SMILES IDX 31 23 22 25 23 26 24 27 25 28 26 29 27 30 18 31 20 33 33 35
REMARK SMILES IDX 35 37 37 39 38 41 39 42 40 43 7 45 43 47 44 48 45 50 46 51
REMARK SMILES IDX 47 53 48 54 49 55 50 57 51 58 52 59 53 60 54 61 65 62 55 63
REMARK SMILES IDX 64 64 56 65 57 66 58 67 62 68 59 69 61 70 63 71 60 72 4 73
REMARK SMILES IDX 2 74 1 76 3 77
REMARK H PARENT 31 24 18 32 20 34 33 36 35 38 37 40 40 44 7 46 44 49 46 52
REMARK H PARENT 48 56 4 75
REMARK Flexibility Score: inf
ROOT
ATOM      1  C   UNL     1      24.055  25.611  25.398  1.00  0.00     0.272 C 
ATOM      2  C   UNL     1      23.581  24.517  26.271  1.00  0.00     0.113 C 
ATOM      3  C   UNL     1      23.383  24.979  27.670  1.00  0.00     0.145 C 
ATOM      4  C   UNL     1      22.420  26.133  27.681  1.00  0.00     0.142 C 
ATOM      5  C   UNL     1      22.527  27.025  26.505  1.00  0.00     0.178 C 
ATOM      6  O   UNL     1      22.877  26.492  25.315  1.00  0.00    -0.332 OA
ENDROOT
BRANCH   1   7
ATOM      7  O   UNL     1      24.290  25.279  24.115  1.00  0.00    -0.338 OA
BRANCH   7   8
ATOM      8  C   UNL     1      23.476  24.953  23.163  1.00  0.00     0.199 C 
BRANCH   8   9
ATOM      9  C   UNL     1      23.256  25.558  21.848  1.00  0.00     0.179 C 
ATOM     10  C   UNL     1      23.001  25.368  19.577  1.00  0.00     0.282 C 
ATOM     11  O   UNL     1      22.805  24.722  20.822  1.00  0.00    -0.341 OA
ATOM     12  C   UNL     1      21.891  26.374  19.447  1.00  0.00     0.202 C 
ATOM     13  C   UNL     1      21.785  27.232  20.660  1.00  0.00     0.179 C 
ATOM     14  C   UNL     1      22.763  26.957  21.768  1.00  0.00     0.177 C 
BRANCH  10  15
ATOM     15  O   UNL     1      22.966  24.394  18.624  1.00  0.00    -0.341 OA
BRANCH  15  16
ATOM     16  C   UNL     1      24.053  24.243  17.818  1.00  0.00     0.184 C 
ATOM     17  C   UNL     1      25.051  25.348  17.840  1.00  0.00     0.178 C 
ATOM     18  O   UNL     1      25.338  25.705  16.526  1.00  0.00    -0.341 OA
ATOM     19  C   UNL     1      24.132  26.234  15.998  1.00  0.00     0.281 C 
ATOM     20  C   UNL     1      23.689  23.885  16.385  1.00  0.00     0.180 C 
ATOM     21  C   UNL     1      23.209  25.106  15.625  1.00  0.00     0.202 C 
BRANCH  17  22
ATOM     22  C   UNL     1      26.376  24.918  18.466  1.00  0.00     0.191 C 
BRANCH  22  23
ATOM     23  O   UNL     1      26.180  23.847  19.340  1.00  0.00    -0.394 OA
ATOM     24  H   UNL     1      25.302  23.420  19.221  1.00  0.00     0.210 HD
ENDBRANCH  22  23
ENDBRANCH  17  22
BRANCH  19  25
ATOM     25  O   UNL     1      24.509  27.021  14.913  1.00  0.00    -0.350 OA
BRANCH  25  26
ATOM     26  C   UNL     1      25.071  28.231  15.321  1.00  0.00     0.169 C 
BRANCH  26  27
ATOM     27  C   UNL     1      23.997  29.016  16.053  1.00  0.00     0.119 C 
BRANCH  27  28
ATOM     28  N   UNL     1      22.912  29.252  15.134  1.00  0.00    -0.092 NA
ATOM     29  N   UNL     1      21.754  28.913  15.394  1.00  0.00     0.001 N 
ATOM     30  N   UNL     1      20.771  28.163  15.567  1.00  0.00    -0.003 NA
ENDBRANCH  27  28
ENDBRANCH  26  27
ENDBRANCH  25  26
ENDBRANCH  19  25
BRANCH  20  31
ATOM     31  O   UNL     1      24.805  23.411  15.693  1.00  0.00    -0.387 OA
ATOM     32  H   UNL     1      24.803  23.872  14.808  1.00  0.00     0.211 HD
ENDBRANCH  20  31
BRANCH  21  33
ATOM     33  O   UNL     1      21.879  25.377  15.820  1.00  0.00    -0.385 OA
ATOM     34  H   UNL     1      21.474  25.673  14.971  1.00  0.00     0.211 HD
ENDBRANCH  21  33
ENDBRANCH  15  16
ENDBRANCH  10  15
BRANCH  12  35
ATOM     35  O   UNL     1      22.115  27.242  18.367  1.00  0.00    -0.385 OA
ATOM     36  H   UNL     1      22.189  26.678  17.564  1.00  0.00     0.211 HD
ENDBRANCH  12  35
BRANCH  13  37
ATOM     37  O   UNL     1      20.491  27.118  21.186  1.00  0.00    -0.387 OA
ATOM     38  H   UNL     1      19.800  27.261  20.508  1.00  0.00     0.211 HD
ENDBRANCH  13  37
BRANCH  14  39
ATOM     39  O   UNL     1      22.165  27.392  22.942  1.00  0.00    -0.387 OA
ATOM     40  H   UNL     1      22.741  27.846  23.574  1.00  0.00     0.211 HD
ENDBRANCH  14  39
ENDBRANCH   8   9
ENDBRANCH   7   8
ENDBRANCH   1   7
BRANCH   1  41
ATOM     41  C   UNL     1      25.047  26.556  25.951  1.00  0.00     0.364 C 
ATOM     42  O   UNL     1      25.854  26.327  26.881  1.00  0.00    -0.246 OA
BRANCH  41  43
ATOM     43  O   UNL     1      25.115  27.832  25.418  1.00  0.00    -0.477 OA
ATOM     44  H   UNL     1      25.947  28.415  25.520  1.00  0.00     0.296 HD
ENDBRANCH  41  43
ENDBRANCH   1  41
BRANCH   3  45
ATOM     45  O   UNL     1      22.758  23.878  28.342  1.00  0.00    -0.391 OA
ATOM     46  H   UNL     1      21.917  23.641  27.905  1.00  0.00     0.211 HD
ENDBRANCH   3  45
BRANCH   5  47
ATOM     47  C   UNL     1      21.189  27.738  26.285  1.00  0.00     0.176 C 
BRANCH  47  48
ATOM     48  O   UNL     1      20.470  26.989  25.366  1.00  0.00    -0.388 OA
ATOM     49  H   UNL     1      19.572  27.327  25.202  1.00  0.00     0.211 HD
ENDBRANCH  47  48
BRANCH  47  50
ATOM     50  C   UNL     1      21.353  29.127  25.775  1.00  0.00     0.165 C 
BRANCH  50  51
ATOM     51  O   UNL     1      21.494  30.058  26.819  1.00  0.00    -0.388 OA
ATOM     52  H   UNL     1      22.108  30.786  26.547  1.00  0.00     0.211 HD
ENDBRANCH  50  51
BRANCH  50  53
ATOM     53  C   UNL     1      20.129  29.559  25.011  1.00  0.00     0.154 C 
BRANCH  53  54
ATOM     54  N   UNL     1      20.321  29.390  23.614  1.00  0.00    -0.319 N 
ATOM     55  C   UNL     1      19.846  30.284  22.633  1.00  0.00     0.407 C 
ATOM     56  H   UNL     1      20.857  28.530  23.293  1.00  0.00     0.167 HD
ATOM     57  O   UNL     1      19.206  31.320  22.945  1.00  0.00    -0.225 OA
BRANCH  55  58
ATOM     58  O   UNL     1      20.067  30.056  21.269  1.00  0.00    -0.443 OA
BRANCH  58  59
ATOM     59  C   UNL     1      19.120  30.409  20.297  1.00  0.00     0.294 C 
BRANCH  59  60
ATOM     60  C   UNL     1      17.972  29.479  20.200  1.00  0.00     0.120 A 
ATOM     61  C   UNL     1      16.649  29.892  19.973  1.00  0.00     0.138 A 
ATOM     62  N   UNL     1      17.920  28.148  20.296  1.00  0.00    -0.132 NA
ATOM     63  N   UNL     1      15.879  28.810  19.945  1.00  0.00    -0.248 N 
ATOM     64  N   UNL     1      16.674  27.754  20.144  1.00  0.00    -0.067 NA
BRANCH  63  65
ATOM     65  C   UNL     1      14.437  28.704  19.727  1.00  0.00     0.182 C 
BRANCH  65  66
ATOM     66  C   UNL     1      13.639  29.542  20.647  1.00  0.00    -0.012 A 
ATOM     67  C   UNL     1      13.365  29.014  21.920  1.00  0.00     0.007 A 
ATOM     68  C   UNL     1      13.134  30.774  20.330  1.00  0.00     0.023 A 
ATOM     69  C   UNL     1      12.609  29.740  22.788  1.00  0.00     0.000 A 
ATOM     70  C   UNL     1      12.364  31.500  21.224  1.00  0.00     0.016 A 
ATOM     71  Br  UNL     1      13.517  31.571  18.649  1.00  0.00    -0.050 Br
ATOM     72  C   UNL     1      12.106  30.970  22.461  1.00  0.00     0.001 A 
ENDBRANCH  65  66
ENDBRANCH  63  65
ENDBRANCH  59  60
ENDBRANCH  58  59
ENDBRANCH  55  58
ENDBRANCH  53  54
ENDBRANCH  50  53
ENDBRANCH  47  50
ENDBRANCH   5  47
BRANCH   4  73
ATOM     73  N   UNL     1      22.603  26.882  28.896  1.00  0.00    -0.348 N 
ATOM     74  C   UNL     1      21.592  27.018  29.895  1.00  0.00     0.217 C 
ATOM     75  H   UNL     1      23.496  27.374  29.111  1.00  0.00     0.163 HD
ATOM     76  C   UNL     1      21.850  27.815  31.135  1.00  0.00     0.114 C 
ATOM     77  O   UNL     1      20.503  26.460  29.704  1.00  0.00    -0.275 OA
ENDBRANCH   4  73
TORSDOF 31
