REMARK VINA RESULT:    -5.801      2.575      4.310
REMARK INTER + INTRA:         -22.377
REMARK INTER:                 -15.180
REMARK INTRA:                  -7.197
REMARK UNBOUND:                -7.759
REMARK SMILES CC(=O)N[C@@H]1[C@@H](O)C[C@](OC[C@H]2O[C@@H](O[C@H]3[C@H](O)[C@@H](O)[C@H](OCCN=[N+]=[N-])O[C@@H]3CO)[C@H](O)[C@@H](O)[C@H]2O)(C(=O)O)O[C@H]1C(O)[C@H](O)CNC(=O)OCc1cn(-c2cc(Cl)ccc2C(=O)N(C)C)nn1
REMARK SMILES IDX 9 1 8 2 6 3 5 4 42 5 41 6 10 7 11 8 12 9 14 10 13 11 32 12
REMARK SMILES IDX 34 13 36 14 15 15 16 16 29 17 28 18 21 19 17 20 19 21 30 22
REMARK SMILES IDX 31 23 22 25 23 26 24 27 25 28 26 29 27 30 18 31 20 33 33 35
REMARK SMILES IDX 35 37 37 39 38 41 39 42 40 43 7 45 43 47 44 48 45 50 46 51
REMARK SMILES IDX 47 53 48 54 49 55 50 57 51 58 52 59 53 60 54 61 69 62 55 63
REMARK SMILES IDX 68 64 56 65 57 66 62 67 58 68 61 69 59 70 60 71 63 72 64 73
REMARK SMILES IDX 65 74 66 75 67 76 4 77 2 78 1 80 3 81
REMARK H PARENT 31 24 18 32 20 34 33 36 35 38 37 40 40 44 7 46 44 49 46 52
REMARK H PARENT 48 56 4 79
REMARK Flexibility Score: inf
ROOT
ATOM      1  C   UNL     1      19.330  31.155  16.271  1.00  0.00     0.272 C 
ATOM      2  C   UNL     1      19.282  30.327  15.043  1.00  0.00     0.113 C 
ATOM      3  C   UNL     1      18.968  28.895  15.392  1.00  0.00     0.145 C 
ATOM      4  C   UNL     1      20.066  28.423  16.315  1.00  0.00     0.142 C 
ATOM      5  C   UNL     1      20.198  29.297  17.491  1.00  0.00     0.178 C 
ATOM      6  O   UNL     1      19.783  30.588  17.421  1.00  0.00    -0.332 OA
ENDROOT
BRANCH   1   7
ATOM      7  O   UNL     1      18.096  31.716  16.560  1.00  0.00    -0.338 OA
BRANCH   7   8
ATOM      8  C   UNL     1      17.670  31.727  17.841  1.00  0.00     0.199 C 
BRANCH   8   9
ATOM      9  C   UNL     1      16.315  31.009  17.938  1.00  0.00     0.179 C 
ATOM     10  C   UNL     1      15.314  29.524  19.392  1.00  0.00     0.282 C 
ATOM     11  O   UNL     1      16.494  29.842  18.622  1.00  0.00    -0.341 OA
ATOM     12  C   UNL     1      14.127  29.774  18.490  1.00  0.00     0.202 C 
ATOM     13  C   UNL     1      13.932  31.254  18.233  1.00  0.00     0.179 C 
ATOM     14  C   UNL     1      15.274  31.949  18.380  1.00  0.00     0.177 C 
BRANCH  10  15
ATOM     15  O   UNL     1      15.386  30.272  20.488  1.00  0.00    -0.341 OA
BRANCH  15  16
ATOM     16  C   UNL     1      15.636  29.733  21.737  1.00  0.00     0.184 C 
ATOM     17  C   UNL     1      14.463  30.093  22.591  1.00  0.00     0.178 C 
ATOM     18  O   UNL     1      14.644  29.597  23.895  1.00  0.00    -0.341 OA
ATOM     19  C   UNL     1      15.597  30.536  24.422  1.00  0.00     0.281 C 
ATOM     20  C   UNL     1      16.905  30.305  22.316  1.00  0.00     0.180 C 
ATOM     21  C   UNL     1      16.917  30.238  23.812  1.00  0.00     0.202 C 
BRANCH  17  22
ATOM     22  C   UNL     1      13.173  29.549  22.014  1.00  0.00     0.191 C 
BRANCH  22  23
ATOM     23  O   UNL     1      13.338  28.204  21.761  1.00  0.00    -0.394 OA
ATOM     24  H   UNL     1      12.524  27.707  22.027  1.00  0.00     0.210 HD
ENDBRANCH  22  23
ENDBRANCH  17  22
BRANCH  19  25
ATOM     25  O   UNL     1      15.567  30.446  25.759  1.00  0.00    -0.350 OA
BRANCH  25  26
ATOM     26  C   UNL     1      14.620  31.232  26.392  1.00  0.00     0.169 C 
BRANCH  26  27
ATOM     27  C   UNL     1      14.041  32.318  25.508  1.00  0.00     0.119 C 
BRANCH  27  28
ATOM     28  N   UNL     1      12.611  32.156  25.361  1.00  0.00    -0.092 NA
ATOM     29  N   UNL     1      12.053  32.453  24.311  1.00  0.00     0.001 N 
ATOM     30  N   UNL     1      11.682  32.719  23.149  1.00  0.00    -0.003 NA
ENDBRANCH  27  28
ENDBRANCH  26  27
ENDBRANCH  25  26
ENDBRANCH  19  25
BRANCH  20  31
ATOM     31  O   UNL     1      18.033  29.607  21.869  1.00  0.00    -0.387 OA
ATOM     32  H   UNL     1      18.169  28.777  22.413  1.00  0.00     0.211 HD
ENDBRANCH  20  31
BRANCH  21  33
ATOM     33  O   UNL     1      17.871  31.132  24.293  1.00  0.00    -0.385 OA
ATOM     34  H   UNL     1      18.416  30.770  25.023  1.00  0.00     0.211 HD
ENDBRANCH  21  33
ENDBRANCH  15  16
ENDBRANCH  10  15
BRANCH  12  35
ATOM     35  O   UNL     1      14.443  29.187  17.248  1.00  0.00    -0.385 OA
ATOM     36  H   UNL     1      13.642  28.714  16.855  1.00  0.00     0.211 HD
ENDBRANCH  12  35
BRANCH  13  37
ATOM     37  O   UNL     1      13.029  31.864  19.063  1.00  0.00    -0.387 OA
ATOM     38  H   UNL     1      13.371  32.021  19.976  1.00  0.00     0.211 HD
ENDBRANCH  13  37
BRANCH  14  39
ATOM     39  O   UNL     1      15.450  32.603  19.566  1.00  0.00    -0.387 OA
ATOM     40  H   UNL     1      16.142  32.227  20.153  1.00  0.00     0.211 HD
ENDBRANCH  14  39
ENDBRANCH   8   9
ENDBRANCH   7   8
ENDBRANCH   1   7
BRANCH   1  41
ATOM     41  C   UNL     1      20.219  32.378  15.979  1.00  0.00     0.364 C 
ATOM     42  O   UNL     1      19.962  32.999  14.922  1.00  0.00    -0.246 OA
BRANCH  41  43
ATOM     43  O   UNL     1      21.228  32.786  16.793  1.00  0.00    -0.477 OA
ATOM     44  H   UNL     1      22.043  32.260  17.020  1.00  0.00     0.296 HD
ENDBRANCH  41  43
ENDBRANCH   1  41
BRANCH   3  45
ATOM     45  O   UNL     1      17.704  28.804  15.901  1.00  0.00    -0.391 OA
ATOM     46  H   UNL     1      17.447  29.424  16.590  1.00  0.00     0.211 HD
ENDBRANCH   3  45
BRANCH   5  47
ATOM     47  C   UNL     1      19.625  28.739  18.787  1.00  0.00     0.176 C 
BRANCH  47  48
ATOM     48  O   UNL     1      18.510  27.964  18.634  1.00  0.00    -0.388 OA
ATOM     49  H   UNL     1      17.798  28.115  19.311  1.00  0.00     0.211 HD
ENDBRANCH  47  48
BRANCH  47  50
ATOM     50  C   UNL     1      20.598  28.084  19.696  1.00  0.00     0.165 C 
BRANCH  50  51
ATOM     51  O   UNL     1      19.983  27.557  20.857  1.00  0.00    -0.388 OA
ATOM     52  H   UNL     1      20.372  26.683  21.099  1.00  0.00     0.211 HD
ENDBRANCH  50  51
BRANCH  50  53
ATOM     53  C   UNL     1      21.476  29.220  20.270  1.00  0.00     0.154 C 
BRANCH  53  54
ATOM     54  N   UNL     1      20.896  29.732  21.480  1.00  0.00    -0.319 N 
ATOM     55  C   UNL     1      21.215  31.018  21.961  1.00  0.00     0.407 C 
ATOM     56  H   UNL     1      20.208  29.160  22.053  1.00  0.00     0.167 HD
ATOM     57  O   UNL     1      22.000  31.765  21.334  1.00  0.00    -0.225 OA
BRANCH  55  58
ATOM     58  O   UNL     1      20.667  31.500  23.156  1.00  0.00    -0.443 OA
BRANCH  58  59
ATOM     59  C   UNL     1      21.221  31.184  24.403  1.00  0.00     0.294 C 
BRANCH  59  60
ATOM     60  C   UNL     1      21.007  29.743  24.737  1.00  0.00     0.121 A 
ATOM     61  C   UNL     1      21.909  28.964  25.490  1.00  0.00     0.144 A 
ATOM     62  N   UNL     1      20.007  28.929  24.436  1.00  0.00    -0.131 NA
ATOM     63  N   UNL     1      21.419  27.738  25.606  1.00  0.00    -0.219 N 
ATOM     64  N   UNL     1      20.252  27.750  24.947  1.00  0.00    -0.062 NA
BRANCH  63  65
ATOM     65  C   UNL     1      21.900  26.574  26.251  1.00  0.00     0.081 A 
ATOM     66  C   UNL     1      22.134  26.605  27.632  1.00  0.00     0.049 A 
ATOM     67  C   UNL     1      22.195  25.398  25.624  1.00  0.00     0.065 A 
ATOM     68  C   UNL     1      22.626  25.528  28.294  1.00  0.00     0.043 A 
ATOM     69  C   UNL     1      22.706  24.280  26.309  1.00  0.00     0.017 A 
ATOM     70  Cl  UNL     1      22.897  25.634  30.027  1.00  0.00    -0.084 Cl
ATOM     71  C   UNL     1      22.923  24.350  27.663  1.00  0.00     0.021 A 
BRANCH  67  72
ATOM     72  C   UNL     1      21.950  25.208  24.191  1.00  0.00     0.255 C 
ATOM     73  O   UNL     1      20.878  24.681  23.833  1.00  0.00    -0.269 OA
ATOM     74  N   UNL     1      22.904  25.612  23.253  1.00  0.00    -0.345 N 
ATOM     75  C   UNL     1      24.155  26.226  23.687  1.00  0.00     0.146 C 
ATOM     76  C   UNL     1      22.681  25.443  21.819  1.00  0.00     0.146 C 
ENDBRANCH  67  72
ENDBRANCH  63  65
ENDBRANCH  59  60
ENDBRANCH  58  59
ENDBRANCH  55  58
ENDBRANCH  53  54
ENDBRANCH  50  53
ENDBRANCH  47  50
ENDBRANCH   5  47
BRANCH   4  77
ATOM     77  N   UNL     1      21.285  28.359  15.504  1.00  0.00    -0.348 N 
ATOM     78  C   UNL     1      22.140  27.237  15.508  1.00  0.00     0.217 C 
ATOM     79  H   UNL     1      21.544  29.163  14.900  1.00  0.00     0.163 HD
ATOM     80  C   UNL     1      23.376  27.165  14.691  1.00  0.00     0.114 C 
ATOM     81  O   UNL     1      21.843  26.252  16.235  1.00  0.00    -0.275 OA
ENDBRANCH   4  77
TORSDOF 31
