REMARK VINA RESULT:    -4.949      3.125     10.943
REMARK INTER + INTRA:         -21.962
REMARK INTER:                 -13.867
REMARK INTRA:                  -8.096
REMARK UNBOUND:                -8.334
REMARK SMILES CC[N+](C)(CC)CCCn1cc(COC(=O)NC[C@@H](O)C(O)[C@@H]2O[C@@](OC[C@H]3O[C@@H](O[C@H]4[C@H](O)[C@@H](O)[C@H](OCCN=[N+]=[N-])O[C@@H]4CO)[C@H](O)[C@@H](O)[C@H]3O)(C(=O)O)C[C@H](O)[C@H]2NC(C)=O)nn1
REMARK SMILES IDX 21 1 23 2 25 3 57 4 24 5 58 6 60 7 26 8 27 9 28 10 30 11
REMARK SMILES IDX 29 12 48 13 50 14 52 15 31 16 32 17 45 18 44 19 37 20 33 21
REMARK SMILES IDX 35 22 46 23 47 24 38 26 39 27 40 28 41 29 42 30 43 31 34 32
REMARK SMILES IDX 36 34 49 36 51 38 53 40 54 42 55 43 56 44 59 46 61 48 62 49
REMARK SMILES IDX 63 51 64 52 22 53 19 55 20 56 18 58 17 59 15 60 16 62 14 63
REMARK SMILES IDX 13 64 12 65 11 66 65 67 10 68 66 69 9 70 8 71 7 72 3 73 4 74
REMARK SMILES IDX 2 75 1 76 5 77 6 78
REMARK H PARENT 47 25 34 33 36 35 49 37 51 39 53 41 56 45 59 47 61 50 22 54
REMARK H PARENT 20 57 17 61
REMARK Flexibility Score: inf
ROOT
ATOM      1  C   UNL     1      22.410  27.931  23.890  1.00  0.00     0.176 C 
ENDROOT
BRANCH   1   2
ATOM      2  C   UNL     1      22.754  26.493  23.511  1.00  0.00     0.178 C 
ATOM      3  C   UNL     1      23.382  25.236  21.616  1.00  0.00     0.272 C 
ATOM      4  C   UNL     1      22.626  24.143  22.295  1.00  0.00     0.113 C 
ATOM      5  O   UNL     1      22.851  26.448  22.138  1.00  0.00    -0.332 OA
ATOM      6  C   UNL     1      21.342  24.626  22.917  1.00  0.00     0.145 C 
ATOM      7  C   UNL     1      21.702  25.580  24.053  1.00  0.00     0.142 C 
BRANCH   3   8
ATOM      8  O   UNL     1      23.124  25.344  20.266  1.00  0.00    -0.338 OA
BRANCH   8   9
ATOM      9  C   UNL     1      23.949  24.780  19.368  1.00  0.00     0.199 C 
BRANCH   9  10
ATOM     10  C   UNL     1      23.183  24.384  18.079  1.00  0.00     0.179 C 
ATOM     11  C   UNL     1      22.811  26.483  17.070  1.00  0.00     0.282 C 
ATOM     12  O   UNL     1      22.324  25.324  17.661  1.00  0.00    -0.341 OA
ATOM     13  C   UNL     1      24.062  26.290  16.302  1.00  0.00     0.202 C 
ATOM     14  C   UNL     1      23.990  24.838  15.781  1.00  0.00     0.179 C 
ATOM     15  C   UNL     1      24.206  23.989  17.014  1.00  0.00     0.177 C 
BRANCH  11  16
ATOM     16  O   UNL     1      22.807  27.540  17.992  1.00  0.00    -0.341 OA
BRANCH  16  17
ATOM     17  C   UNL     1      21.643  28.251  17.976  1.00  0.00     0.184 C 
ATOM     18  C   UNL     1      21.644  29.663  17.582  1.00  0.00     0.178 C 
ATOM     19  O   UNL     1      20.345  30.085  17.369  1.00  0.00    -0.341 OA
ATOM     20  C   UNL     1      19.323  29.395  17.915  1.00  0.00     0.281 C 
ATOM     21  C   UNL     1      20.975  28.216  19.371  1.00  0.00     0.180 C 
ATOM     22  C   UNL     1      19.565  28.729  19.246  1.00  0.00     0.202 C 
BRANCH  18  23
ATOM     23  C   UNL     1      22.447  30.017  16.345  1.00  0.00     0.191 C 
BRANCH  23  24
ATOM     24  O   UNL     1      22.178  29.196  15.258  1.00  0.00    -0.394 OA
ATOM     25  H   UNL     1      23.076  28.965  14.855  1.00  0.00     0.210 HD
ENDBRANCH  23  24
ENDBRANCH  18  23
BRANCH  20  26
ATOM     26  O   UNL     1      18.742  28.542  16.994  1.00  0.00    -0.350 OA
BRANCH  26  27
ATOM     27  C   UNL     1      17.504  28.884  16.562  1.00  0.00     0.169 C 
BRANCH  27  28
ATOM     28  C   UNL     1      16.745  29.779  17.520  1.00  0.00     0.119 C 
BRANCH  28  29
ATOM     29  N   UNL     1      15.775  28.985  18.256  1.00  0.00    -0.092 NA
ATOM     30  N   UNL     1      16.085  28.231  19.175  1.00  0.00     0.001 N 
ATOM     31  N   UNL     1      16.372  27.487  20.115  1.00  0.00    -0.003 NA
ENDBRANCH  28  29
ENDBRANCH  27  28
ENDBRANCH  26  27
ENDBRANCH  20  26
BRANCH  21  32
ATOM     32  O   UNL     1      21.094  26.926  19.835  1.00  0.00    -0.387 OA
ATOM     33  H   UNL     1      21.536  26.302  19.239  1.00  0.00     0.211 HD
ENDBRANCH  21  32
BRANCH  22  34
ATOM     34  O   UNL     1      19.295  29.558  20.324  1.00  0.00    -0.385 OA
ATOM     35  H   UNL     1      20.008  29.565  21.015  1.00  0.00     0.211 HD
ENDBRANCH  22  34
ENDBRANCH  16  17
ENDBRANCH  11  16
BRANCH  13  36
ATOM     36  O   UNL     1      24.154  27.097  15.157  1.00  0.00    -0.385 OA
ATOM     37  H   UNL     1      23.237  27.278  14.859  1.00  0.00     0.211 HD
ENDBRANCH  13  36
BRANCH  14  38
ATOM     38  O   UNL     1      25.011  24.625  14.856  1.00  0.00    -0.387 OA
ATOM     39  H   UNL     1      24.690  23.944  14.231  1.00  0.00     0.211 HD
ENDBRANCH  14  38
BRANCH  15  40
ATOM     40  O   UNL     1      25.460  24.344  17.508  1.00  0.00    -0.387 OA
ATOM     41  H   UNL     1      25.829  25.166  17.155  1.00  0.00     0.211 HD
ENDBRANCH  15  40
ENDBRANCH   9  10
ENDBRANCH   8   9
ENDBRANCH   3   8
BRANCH   3  42
ATOM     42  C   UNL     1      24.837  25.211  21.842  1.00  0.00     0.364 C 
ATOM     43  O   UNL     1      25.422  24.190  22.267  1.00  0.00    -0.246 OA
BRANCH  42  44
ATOM     44  O   UNL     1      25.609  26.320  21.595  1.00  0.00    -0.477 OA
ATOM     45  H   UNL     1      26.179  26.776  22.305  1.00  0.00     0.296 HD
ENDBRANCH  42  44
ENDBRANCH   3  42
BRANCH   6  46
ATOM     46  O   UNL     1      20.508  25.264  22.031  1.00  0.00    -0.391 OA
ATOM     47  H   UNL     1      20.638  24.936  21.089  1.00  0.00     0.211 HD
ENDBRANCH   6  46
BRANCH   7  48
ATOM     48  N   UNL     1      22.310  24.718  25.081  1.00  0.00    -0.348 N 
ATOM     49  C   UNL     1      22.341  25.106  26.450  1.00  0.00     0.217 C 
ATOM     50  H   UNL     1      22.748  23.799  24.869  1.00  0.00     0.163 HD
ATOM     51  C   UNL     1      22.940  24.269  27.519  1.00  0.00     0.114 C 
ATOM     52  O   UNL     1      21.838  26.199  26.763  1.00  0.00    -0.275 OA
ENDBRANCH   7  48
ENDBRANCH   1   2
BRANCH   1  53
ATOM     53  O   UNL     1      21.070  28.203  23.449  1.00  0.00    -0.388 OA
ATOM     54  H   UNL     1      20.962  27.724  22.586  1.00  0.00     0.211 HD
ENDBRANCH   1  53
BRANCH   1  55
ATOM     55  C   UNL     1      23.291  28.900  23.172  1.00  0.00     0.165 C 
BRANCH  55  56
ATOM     56  O   UNL     1      24.623  28.359  23.405  1.00  0.00    -0.388 OA
ATOM     57  H   UNL     1      25.054  28.258  22.501  1.00  0.00     0.211 HD
ENDBRANCH  55  56
BRANCH  55  58
ATOM     58  C   UNL     1      23.299  30.308  23.641  1.00  0.00     0.154 C 
BRANCH  58  59
ATOM     59  N   UNL     1      22.230  31.177  23.443  1.00  0.00    -0.319 N 
ATOM     60  C   UNL     1      21.582  31.516  22.231  1.00  0.00     0.407 C 
ATOM     61  H   UNL     1      21.822  31.678  24.336  1.00  0.00     0.167 HD
ATOM     62  O   UNL     1      21.903  31.054  21.126  1.00  0.00    -0.225 OA
BRANCH  60  63
ATOM     63  O   UNL     1      20.510  32.441  22.242  1.00  0.00    -0.443 OA
BRANCH  63  64
ATOM     64  C   UNL     1      19.614  32.380  23.368  1.00  0.00     0.294 C 
BRANCH  64  65
ATOM     65  C   UNL     1      18.427  31.631  22.813  1.00  0.00     0.120 A 
ATOM     66  C   UNL     1      17.632  30.732  23.484  1.00  0.00     0.138 A 
ATOM     67  N   UNL     1      17.882  31.723  21.594  1.00  0.00    -0.132 NA
ATOM     68  N   UNL     1      16.630  30.314  22.645  1.00  0.00    -0.252 N 
ATOM     69  N   UNL     1      16.824  30.944  21.501  1.00  0.00    -0.067 NA
BRANCH  68  70
ATOM     70  C   UNL     1      15.558  29.399  22.996  1.00  0.00     0.152 C 
BRANCH  70  71
ATOM     71  C   UNL     1      14.687  29.920  24.055  1.00  0.00     0.085 C 
BRANCH  71  72
ATOM     72  C   UNL     1      13.904  31.150  23.847  1.00  0.00     0.265 C 
BRANCH  72  73
ATOM     73  N   UNL     1      12.497  31.119  24.070  1.00  0.00    -0.326 N 
ATOM     74  C   UNL     1      11.799  30.936  22.827  1.00  0.00     0.334 C 
BRANCH  73  75
ATOM     75  C   UNL     1      11.959  32.227  24.807  1.00  0.00     0.260 C 
ATOM     76  C   UNL     1      12.862  32.688  25.927  1.00  0.00     0.071 C 
ENDBRANCH  73  75
BRANCH  73  77
ATOM     77  C   UNL     1      12.238  29.893  24.843  1.00  0.00     0.260 C 
ATOM     78  C   UNL     1      11.001  29.172  24.438  1.00  0.00     0.071 C 
ENDBRANCH  73  77
ENDBRANCH  72  73
ENDBRANCH  71  72
ENDBRANCH  70  71
ENDBRANCH  68  70
ENDBRANCH  64  65
ENDBRANCH  63  64
ENDBRANCH  60  63
ENDBRANCH  58  59
ENDBRANCH  55  58
ENDBRANCH   1  55
TORSDOF 35
