REMARK VINA RESULT:    -6.409      5.629     10.688
REMARK INTER + INTRA:         -24.706
REMARK INTER:                 -15.085
REMARK INTRA:                  -9.621
REMARK UNBOUND:                -7.995
REMARK SMILES CC(=O)N[C@@H]1[C@@H](O)C[C@](OC[C@H]2O[C@@H](O[C@H]3[C@H](O)[C@@H](O)[C@H](OCCN=[N+]=[N-])O[C@@H]3CO)[C@H](O)[C@@H](O)[C@H]2O)(C(=O)O)O[C@H]1C(O)[C@H](O)CNC(=O)OCc1cn(-c2ccc(-c3c4ccc(=O)cc-4oc4cc(O)ccc34)c(C(=O)[O-])c2)nn1
REMARK SMILES IDX 9 1 8 2 6 3 5 4 42 5 41 6 10 7 11 8 12 9 14 10 13 11 32 12
REMARK SMILES IDX 34 13 36 14 15 15 16 16 29 17 28 18 21 19 17 20 19 21 30 22
REMARK SMILES IDX 31 23 22 25 23 26 24 27 25 28 26 29 27 30 18 31 20 33 33 35
REMARK SMILES IDX 35 37 37 39 38 41 39 42 40 43 7 45 43 47 44 48 45 50 46 51
REMARK SMILES IDX 47 53 48 54 49 55 50 57 51 58 52 59 53 60 54 61 82 62 55 63
REMARK SMILES IDX 81 64 56 65 80 66 57 67 76 68 58 69 59 70 77 71 78 72 79 73
REMARK SMILES IDX 60 74 75 75 61 76 74 77 69 78 67 79 62 80 73 81 70 82 68 83
REMARK SMILES IDX 66 84 63 85 71 86 64 87 65 88 72 89 4 91 2 92 1 94 3 95
REMARK H PARENT 31 24 18 32 20 34 33 36 35 38 37 40 40 44 7 46 44 49 46 52
REMARK H PARENT 48 56 72 90 4 93
REMARK Flexibility Score: inf
ROOT
ATOM      1  C   UNL     1      19.662  31.094  25.023  1.00  0.00     0.272 C 
ATOM      2  C   UNL     1      20.202  32.465  24.700  1.00  0.00     0.113 C 
ATOM      3  C   UNL     1      20.689  33.212  25.910  1.00  0.00     0.145 C 
ATOM      4  C   UNL     1      20.131  32.527  27.133  1.00  0.00     0.142 C 
ATOM      5  C   UNL     1      18.686  32.225  26.836  1.00  0.00     0.178 C 
ATOM      6  O   UNL     1      18.605  31.170  25.963  1.00  0.00    -0.332 OA
ENDROOT
BRANCH   1   7
ATOM      7  O   UNL     1      20.579  30.173  25.447  1.00  0.00    -0.338 OA
BRANCH   7   8
ATOM      8  C   UNL     1      21.645  30.018  24.634  1.00  0.00     0.199 C 
BRANCH   8   9
ATOM      9  C   UNL     1      22.103  28.553  24.568  1.00  0.00     0.179 C 
ATOM     10  C   UNL     1      22.685  26.774  25.915  1.00  0.00     0.282 C 
ATOM     11  O   UNL     1      22.663  28.127  25.716  1.00  0.00    -0.341 OA
ATOM     12  C   UNL     1      22.715  25.951  24.687  1.00  0.00     0.202 C 
ATOM     13  C   UNL     1      21.648  26.340  23.690  1.00  0.00     0.179 C 
ATOM     14  C   UNL     1      21.016  27.664  24.091  1.00  0.00     0.177 C 
BRANCH  10  15
ATOM     15  O   UNL     1      21.682  26.488  26.839  1.00  0.00    -0.341 OA
BRANCH  15  16
ATOM     16  C   UNL     1      21.918  26.988  28.078  1.00  0.00     0.184 C 
ATOM     17  C   UNL     1      21.985  25.925  29.130  1.00  0.00     0.178 C 
ATOM     18  O   UNL     1      22.641  26.412  30.269  1.00  0.00    -0.341 OA
ATOM     19  C   UNL     1      22.221  27.699  30.581  1.00  0.00     0.281 C 
ATOM     20  C   UNL     1      20.808  27.938  28.564  1.00  0.00     0.180 C 
ATOM     21  C   UNL     1      20.855  27.996  30.076  1.00  0.00     0.202 C 
BRANCH  17  22
ATOM     22  C   UNL     1      22.740  24.734  28.623  1.00  0.00     0.191 C 
BRANCH  22  23
ATOM     23  O   UNL     1      23.727  24.399  29.552  1.00  0.00    -0.394 OA
ATOM     24  H   UNL     1      24.016  23.483  29.342  1.00  0.00     0.210 HD
ENDBRANCH  22  23
ENDBRANCH  17  22
BRANCH  19  25
ATOM     25  O   UNL     1      23.140  28.640  30.167  1.00  0.00    -0.350 OA
BRANCH  25  26
ATOM     26  C   UNL     1      24.197  28.832  31.048  1.00  0.00     0.169 C 
BRANCH  26  27
ATOM     27  C   UNL     1      25.466  28.757  30.217  1.00  0.00     0.119 C 
BRANCH  27  28
ATOM     28  N   UNL     1      25.233  28.146  28.936  1.00  0.00    -0.092 NA
ATOM     29  N   UNL     1      25.796  27.074  28.679  1.00  0.00     0.001 N 
ATOM     30  N   UNL     1      26.039  25.921  28.321  1.00  0.00    -0.003 NA
ENDBRANCH  27  28
ENDBRANCH  26  27
ENDBRANCH  25  26
ENDBRANCH  19  25
BRANCH  20  31
ATOM     31  O   UNL     1      21.140  29.202  28.085  1.00  0.00    -0.387 OA
ATOM     32  H   UNL     1      21.839  29.196  27.396  1.00  0.00     0.211 HD
ENDBRANCH  20  31
BRANCH  21  33
ATOM     33  O   UNL     1      19.874  27.209  30.682  1.00  0.00    -0.385 OA
ATOM     34  H   UNL     1      19.436  26.708  29.926  1.00  0.00     0.211 HD
ENDBRANCH  21  33
ENDBRANCH  15  16
ENDBRANCH  10  15
BRANCH  12  35
ATOM     35  O   UNL     1      23.988  26.035  24.065  1.00  0.00    -0.385 OA
ATOM     36  H   UNL     1      24.389  26.927  24.290  1.00  0.00     0.211 HD
ENDBRANCH  12  35
BRANCH  13  37
ATOM     37  O   UNL     1      20.715  25.335  23.496  1.00  0.00    -0.387 OA
ATOM     38  H   UNL     1      20.098  25.343  24.264  1.00  0.00     0.211 HD
ENDBRANCH  13  37
BRANCH  14  39
ATOM     39  O   UNL     1      20.030  27.393  25.029  1.00  0.00    -0.387 OA
ATOM     40  H   UNL     1      20.445  26.751  25.677  1.00  0.00     0.211 HD
ENDBRANCH  14  39
ENDBRANCH   8   9
ENDBRANCH   7   8
ENDBRANCH   1   7
BRANCH   1  41
ATOM     41  C   UNL     1      18.945  30.659  23.759  1.00  0.00     0.364 C 
ATOM     42  O   UNL     1      19.045  31.256  22.671  1.00  0.00    -0.246 OA
BRANCH  41  43
ATOM     43  O   UNL     1      18.123  29.537  23.781  1.00  0.00    -0.477 OA
ATOM     44  H   UNL     1      18.458  28.640  23.460  1.00  0.00     0.296 HD
ENDBRANCH  41  43
ENDBRANCH   1  41
BRANCH   3  45
ATOM     45  O   UNL     1      22.068  33.288  25.880  1.00  0.00    -0.391 OA
ATOM     46  H   UNL     1      22.376  33.476  26.801  1.00  0.00     0.211 HD
ENDBRANCH   3  45
BRANCH   5  47
ATOM     47  C   UNL     1      17.958  31.780  28.108  1.00  0.00     0.176 C 
BRANCH  47  48
ATOM     48  O   UNL     1      18.368  30.455  28.393  1.00  0.00    -0.388 OA
ATOM     49  H   UNL     1      19.217  30.418  28.861  1.00  0.00     0.211 HD
ENDBRANCH  47  48
BRANCH  47  50
ATOM     50  C   UNL     1      16.483  31.711  27.884  1.00  0.00     0.165 C 
BRANCH  50  51
ATOM     51  O   UNL     1      16.182  30.666  27.009  1.00  0.00    -0.388 OA
ATOM     52  H   UNL     1      17.025  30.199  26.775  1.00  0.00     0.211 HD
ENDBRANCH  50  51
BRANCH  50  53
ATOM     53  C   UNL     1      15.837  32.979  27.449  1.00  0.00     0.154 C 
BRANCH  53  54
ATOM     54  N   UNL     1      15.011  32.798  26.277  1.00  0.00    -0.319 N 
ATOM     55  C   UNL     1      13.615  33.021  26.240  1.00  0.00     0.407 C 
ATOM     56  H   UNL     1      15.431  32.477  25.351  1.00  0.00     0.167 HD
ATOM     57  O   UNL     1      13.018  33.401  27.265  1.00  0.00    -0.225 OA
BRANCH  55  58
ATOM     58  O   UNL     1      12.853  32.833  25.093  1.00  0.00    -0.443 OA
BRANCH  58  59
ATOM     59  C   UNL     1      12.315  31.555  24.735  1.00  0.00     0.294 C 
BRANCH  59  60
ATOM     60  C   UNL     1      13.433  30.804  24.108  1.00  0.00     0.121 A 
ATOM     61  C   UNL     1      13.836  30.863  22.803  1.00  0.00     0.144 A 
ATOM     62  N   UNL     1      14.270  29.915  24.715  1.00  0.00    -0.131 NA
ATOM     63  N   UNL     1      14.886  30.032  22.627  1.00  0.00    -0.220 N 
ATOM     64  N   UNL     1      15.122  29.473  23.811  1.00  0.00    -0.062 NA
BRANCH  63  65
ATOM     65  C   UNL     1      15.581  29.822  21.408  1.00  0.00     0.067 A 
ATOM     66  C   UNL     1      16.207  30.846  20.737  1.00  0.00     0.039 A 
ATOM     67  C   UNL     1      15.633  28.553  20.888  1.00  0.00     0.029 A 
ATOM     68  C   UNL     1      16.873  30.589  19.562  1.00  0.00     0.007 A 
ATOM     69  C   UNL     1      16.301  28.298  19.709  1.00  0.00     0.012 A 
ATOM     70  C   UNL     1      16.934  29.307  19.021  1.00  0.00    -0.008 A 
BRANCH  68  71
ATOM     71  C   UNL     1      17.551  31.656  18.822  1.00  0.00     0.072 C 
ATOM     72  O   UNL     1      16.982  32.292  17.902  1.00  0.00    -0.545 OA
ATOM     73  O   UNL     1      18.848  31.974  19.140  1.00  0.00    -0.545 OA
ENDBRANCH  68  71
BRANCH  70  74
ATOM     74  C   UNL     1      17.643  29.049  17.780  1.00  0.00     0.004 A 
ATOM     75  C   UNL     1      16.955  29.122  16.595  1.00  0.00     0.026 A 
ATOM     76  C   UNL     1      18.977  28.730  17.754  1.00  0.00     0.026 A 
ATOM     77  C   UNL     1      15.617  29.434  16.526  1.00  0.00     0.016 A 
ATOM     78  C   UNL     1      17.648  28.869  15.416  1.00  0.00     0.139 A 
ATOM     79  C   UNL     1      19.670  28.470  16.473  1.00  0.00     0.139 A 
ATOM     80  C   UNL     1      19.729  28.639  18.897  1.00  0.00     0.016 A 
ATOM     81  C   UNL     1      14.934  29.505  15.326  1.00  0.00     0.047 A 
ATOM     82  C   UNL     1      16.962  28.941  14.228  1.00  0.00     0.093 A 
ATOM     83  O   UNL     1      18.930  28.563  15.399  1.00  0.00    -0.456 OA
ATOM     84  C   UNL     1      21.004  28.152  16.452  1.00  0.00     0.099 A 
ATOM     85  C   UNL     1      21.074  28.317  18.859  1.00  0.00     0.053 A 
ATOM     86  C   UNL     1      15.612  29.255  14.153  1.00  0.00     0.119 A 
ATOM     87  C   UNL     1      21.687  28.080  17.642  1.00  0.00     0.182 A 
ATOM     88  O   UNL     1      22.914  27.792  17.675  1.00  0.00    -0.290 OA
BRANCH  86  89
ATOM     89  O   UNL     1      14.920  29.330  12.954  1.00  0.00    -0.508 OA
ATOM     90  H   UNL     1      15.480  29.327  12.105  1.00  0.00     0.293 HD
ENDBRANCH  86  89
ENDBRANCH  70  74
ENDBRANCH  63  65
ENDBRANCH  59  60
ENDBRANCH  58  59
ENDBRANCH  55  58
ENDBRANCH  53  54
ENDBRANCH  50  53
ENDBRANCH  47  50
ENDBRANCH   5  47
BRANCH   4  91
ATOM     91  N   UNL     1      20.288  33.320  28.333  1.00  0.00    -0.348 N 
ATOM     92  C   UNL     1      21.138  32.843  29.351  1.00  0.00     0.217 C 
ATOM     93  H   UNL     1      19.801  34.230  28.486  1.00  0.00     0.163 HD
ATOM     94  C   UNL     1      21.372  33.571  30.623  1.00  0.00     0.114 C 
ATOM     95  O   UNL     1      21.764  31.734  29.226  1.00  0.00    -0.275 OA
ENDBRANCH   4  91
TORSDOF 33
