REMARK VINA RESULT:    -6.746      4.524     12.492
REMARK INTER + INTRA:         -24.427
REMARK INTER:                 -16.448
REMARK INTRA:                  -7.980
REMARK UNBOUND:                -7.033
REMARK SMILES CC(=O)N[C@@H]1[C@@H](O)C[C@](OC[C@H]2O[C@@H](O[C@H]3[C@H](O)[C@@H](O)[C@H](OCCN=[N+]=[N-])O[C@@H]3CO)[C@H](O)[C@@H](O)[C@H]2O)(C(=O)O)O[C@H]1C(O)[C@H](O)CNC(=O)OCc1cn(C(C)(C)C(=O)c2c[nH]c3ccccc23)nn1
REMARK SMILES IDX 9 1 8 2 6 3 5 4 42 5 41 6 10 7 11 8 12 9 14 10 13 11 32 12
REMARK SMILES IDX 34 13 36 14 15 15 16 16 29 17 28 18 21 19 17 20 19 21 30 22
REMARK SMILES IDX 31 23 22 25 23 26 24 27 25 28 26 29 27 30 18 31 20 33 33 35
REMARK SMILES IDX 35 37 37 39 38 41 39 42 40 43 7 45 43 47 44 48 45 50 46 51
REMARK SMILES IDX 47 53 48 54 49 55 50 57 51 58 52 59 53 60 54 61 71 62 55 63
REMARK SMILES IDX 70 64 56 65 57 66 58 67 59 68 60 69 61 70 62 71 69 72 63 73
REMARK SMILES IDX 64 74 68 75 65 77 67 78 66 79 4 80 2 81 1 83 3 84
REMARK H PARENT 31 24 18 32 20 34 33 36 35 38 37 40 40 44 7 46 44 49 46 52
REMARK H PARENT 48 56 63 76 4 82
REMARK Flexibility Score: inf
ROOT
ATOM      1  C   UNL     1      18.275  30.516  21.951  1.00  0.00     0.272 C 
ATOM      2  C   UNL     1      17.334  31.412  22.739  1.00  0.00     0.113 C 
ATOM      3  C   UNL     1      16.280  30.616  23.466  1.00  0.00     0.145 C 
ATOM      4  C   UNL     1      15.322  29.979  22.400  1.00  0.00     0.142 C 
ATOM      5  C   UNL     1      16.209  29.620  21.252  1.00  0.00     0.178 C 
ATOM      6  O   UNL     1      17.500  29.386  21.678  1.00  0.00    -0.332 OA
ENDROOT
BRANCH   1   7
ATOM      7  O   UNL     1      19.444  30.205  22.517  1.00  0.00    -0.338 OA
BRANCH   7   8
ATOM      8  C   UNL     1      20.038  29.115  22.871  1.00  0.00     0.199 C 
BRANCH   8   9
ATOM      9  C   UNL     1      21.412  28.889  22.236  1.00  0.00     0.179 C 
ATOM     10  C   UNL     1      22.174  27.034  23.502  1.00  0.00     0.282 C 
ATOM     11  O   UNL     1      22.272  28.324  23.114  1.00  0.00    -0.341 OA
ATOM     12  C   UNL     1      21.899  26.072  22.380  1.00  0.00     0.202 C 
ATOM     13  C   UNL     1      22.021  26.790  21.041  1.00  0.00     0.179 C 
ATOM     14  C   UNL     1      21.238  28.047  21.002  1.00  0.00     0.177 C 
BRANCH  10  15
ATOM     15  O   UNL     1      21.193  26.888  24.467  1.00  0.00    -0.341 OA
BRANCH  15  16
ATOM     16  C   UNL     1      21.680  26.614  25.711  1.00  0.00     0.184 C 
ATOM     17  C   UNL     1      22.454  27.679  26.400  1.00  0.00     0.178 C 
ATOM     18  O   UNL     1      22.451  27.352  27.772  1.00  0.00    -0.341 OA
ATOM     19  C   UNL     1      23.071  26.171  28.058  1.00  0.00     0.281 C 
ATOM     20  C   UNL     1      22.515  25.350  25.760  1.00  0.00     0.180 C 
ATOM     21  C   UNL     1      22.618  24.990  27.227  1.00  0.00     0.202 C 
BRANCH  17  22
ATOM     22  C   UNL     1      21.837  29.060  26.316  1.00  0.00     0.191 C 
BRANCH  22  23
ATOM     23  O   UNL     1      20.447  28.896  26.364  1.00  0.00    -0.394 OA
ATOM     24  H   UNL     1      20.094  28.910  27.284  1.00  0.00     0.210 HD
ENDBRANCH  22  23
ENDBRANCH  17  22
BRANCH  19  25
ATOM     25  O   UNL     1      22.767  25.842  29.383  1.00  0.00    -0.350 OA
BRANCH  25  26
ATOM     26  C   UNL     1      23.739  26.384  30.202  1.00  0.00     0.169 C 
BRANCH  26  27
ATOM     27  C   UNL     1      24.643  25.338  30.796  1.00  0.00     0.119 C 
BRANCH  27  28
ATOM     28  N   UNL     1      26.024  25.468  30.384  1.00  0.00    -0.092 NA
ATOM     29  N   UNL     1      26.951  25.402  31.216  1.00  0.00     0.001 N 
ATOM     30  N   UNL     1      27.783  24.862  31.948  1.00  0.00    -0.003 NA
ENDBRANCH  27  28
ENDBRANCH  26  27
ENDBRANCH  25  26
ENDBRANCH  19  25
BRANCH  20  31
ATOM     31  O   UNL     1      21.955  24.305  25.062  1.00  0.00    -0.387 OA
ATOM     32  H   UNL     1      21.397  24.678  24.346  1.00  0.00     0.211 HD
ENDBRANCH  20  31
BRANCH  21  33
ATOM     33  O   UNL     1      23.591  24.000  27.354  1.00  0.00    -0.385 OA
ATOM     34  H   UNL     1      24.476  24.302  27.014  1.00  0.00     0.211 HD
ENDBRANCH  21  33
ENDBRANCH  15  16
ENDBRANCH  10  15
BRANCH  12  35
ATOM     35  O   UNL     1      22.709  24.937  22.399  1.00  0.00    -0.385 OA
ATOM     36  H   UNL     1      22.348  24.291  23.042  1.00  0.00     0.211 HD
ENDBRANCH  12  35
BRANCH  13  37
ATOM     37  O   UNL     1      21.547  25.859  20.087  1.00  0.00    -0.387 OA
ATOM     38  H   UNL     1      21.406  26.295  19.211  1.00  0.00     0.211 HD
ENDBRANCH  13  37
BRANCH  14  39
ATOM     39  O   UNL     1      19.853  27.765  20.888  1.00  0.00    -0.387 OA
ATOM     40  H   UNL     1      19.726  27.002  20.266  1.00  0.00     0.211 HD
ENDBRANCH  14  39
ENDBRANCH   8   9
ENDBRANCH   7   8
ENDBRANCH   1   7
BRANCH   1  41
ATOM     41  C   UNL     1      18.589  31.206  20.681  1.00  0.00     0.364 C 
ATOM     42  O   UNL     1      19.206  30.575  19.786  1.00  0.00    -0.246 OA
BRANCH  41  43
ATOM     43  O   UNL     1      18.253  32.496  20.417  1.00  0.00    -0.477 OA
ATOM     44  H   UNL     1      18.798  33.328  20.634  1.00  0.00     0.296 HD
ENDBRANCH  41  43
ENDBRANCH   1  41
BRANCH   3  45
ATOM     45  O   UNL     1      16.737  29.530  24.174  1.00  0.00    -0.391 OA
ATOM     46  H   UNL     1      16.005  28.966  24.555  1.00  0.00     0.211 HD
ENDBRANCH   3  45
BRANCH   5  47
ATOM     47  C   UNL     1      15.817  28.456  20.420  1.00  0.00     0.176 C 
BRANCH  47  48
ATOM     48  O   UNL     1      14.460  28.222  20.400  1.00  0.00    -0.388 OA
ATOM     49  H   UNL     1      13.919  28.934  19.958  1.00  0.00     0.211 HD
ENDBRANCH  47  48
BRANCH  47  50
ATOM     50  C   UNL     1      16.488  28.324  19.071  1.00  0.00     0.165 C 
BRANCH  50  51
ATOM     51  O   UNL     1      17.771  27.889  19.143  1.00  0.00    -0.388 OA
ATOM     52  H   UNL     1      17.959  27.385  19.948  1.00  0.00     0.211 HD
ENDBRANCH  50  51
BRANCH  50  53
ATOM     53  C   UNL     1      16.230  29.572  18.292  1.00  0.00     0.154 C 
BRANCH  53  54
ATOM     54  N   UNL     1      17.270  30.055  17.465  1.00  0.00    -0.319 N 
ATOM     55  C   UNL     1      17.448  29.666  16.092  1.00  0.00     0.407 C 
ATOM     56  H   UNL     1      17.982  30.749  17.846  1.00  0.00     0.167 HD
ATOM     57  O   UNL     1      16.688  28.843  15.543  1.00  0.00    -0.225 OA
BRANCH  55  58
ATOM     58  O   UNL     1      18.475  30.197  15.334  1.00  0.00    -0.443 OA
BRANCH  58  59
ATOM     59  C   UNL     1      19.391  29.390  14.651  1.00  0.00     0.294 C 
BRANCH  59  60
ATOM     60  C   UNL     1      20.244  28.696  15.665  1.00  0.00     0.120 A 
ATOM     61  C   UNL     1      21.617  28.421  15.516  1.00  0.00     0.139 A 
ATOM     62  N   UNL     1      19.937  28.179  16.861  1.00  0.00    -0.132 NA
ATOM     63  N   UNL     1      22.063  27.767  16.597  1.00  0.00    -0.239 N 
ATOM     64  N   UNL     1      21.038  27.627  17.402  1.00  0.00    -0.066 NA
BRANCH  63  65
ATOM     65  C   UNL     1      23.427  27.322  16.794  1.00  0.00     0.122 C 
ATOM     66  C   UNL     1      23.915  27.995  18.124  1.00  0.00     0.046 C 
ATOM     67  C   UNL     1      24.392  27.854  15.761  1.00  0.00     0.046 C 
BRANCH  65  68
ATOM     68  C   UNL     1      23.517  25.890  17.001  1.00  0.00     0.192 C 
ATOM     69  O   UNL     1      23.761  25.542  18.237  1.00  0.00    -0.291 OA
BRANCH  68  70
ATOM     70  C   UNL     1      23.387  24.798  16.085  1.00  0.00     0.045 A 
ATOM     71  C   UNL     1      22.232  24.553  15.331  1.00  0.00     0.095 A 
ATOM     72  C   UNL     1      24.280  23.794  15.768  1.00  0.00     0.010 A 
ATOM     73  N   UNL     1      22.439  23.465  14.615  1.00  0.00    -0.360 N 
ATOM     74  C   UNL     1      23.654  22.962  14.836  1.00  0.00     0.046 A 
ATOM     75  C   UNL     1      25.552  23.474  16.155  1.00  0.00     0.011 A 
ATOM     76  H   UNL     1      21.712  23.065  13.956  1.00  0.00     0.166 HD
ATOM     77  C   UNL     1      24.298  21.851  14.319  1.00  0.00     0.027 A 
ATOM     78  C   UNL     1      26.196  22.354  15.632  1.00  0.00     0.001 A 
ATOM     79  C   UNL     1      25.567  21.555  14.723  1.00  0.00     0.002 A 
ENDBRANCH  68  70
ENDBRANCH  65  68
ENDBRANCH  63  65
ENDBRANCH  59  60
ENDBRANCH  58  59
ENDBRANCH  55  58
ENDBRANCH  53  54
ENDBRANCH  50  53
ENDBRANCH  47  50
ENDBRANCH   5  47
BRANCH   4  80
ATOM     80  N   UNL     1      14.450  31.097  22.053  1.00  0.00    -0.348 N 
ATOM     81  C   UNL     1      13.055  30.975  21.834  1.00  0.00     0.217 C 
ATOM     82  H   UNL     1      14.874  32.059  21.954  1.00  0.00     0.163 HD
ATOM     83  C   UNL     1      12.170  32.115  21.477  1.00  0.00     0.114 C 
ATOM     84  O   UNL     1      12.564  29.801  21.959  1.00  0.00    -0.275 OA
ENDBRANCH   4  80
TORSDOF 32
