REMARK VINA RESULT:    -5.558      3.530     10.351
REMARK INTER + INTRA:         -21.764
REMARK INTER:                 -13.734
REMARK INTRA:                  -8.030
REMARK UNBOUND:                -7.759
REMARK SMILES CC(=O)N[C@@H]1[C@@H](O)C[C@](OC[C@H]2O[C@@H](O[C@H]3[C@H](O)[C@@H](O)[C@H](OCCN=[N+]=[N-])O[C@@H]3CO)[C@H](O)[C@@H](O)[C@H]2O)(C(=O)O)O[C@H]1C(O)[C@H](O)CNC(=O)OCc1cn(-c2cc(Cl)ccc2C(=O)N(C)C)nn1
REMARK SMILES IDX 9 1 8 2 6 3 5 4 42 5 41 6 10 7 11 8 12 9 14 10 13 11 32 12
REMARK SMILES IDX 34 13 36 14 15 15 16 16 29 17 28 18 21 19 17 20 19 21 30 22
REMARK SMILES IDX 31 23 22 25 23 26 24 27 25 28 26 29 27 30 18 31 20 33 33 35
REMARK SMILES IDX 35 37 37 39 38 41 39 42 40 43 7 45 43 47 44 48 45 50 46 51
REMARK SMILES IDX 47 53 48 54 49 55 50 57 51 58 52 59 53 60 54 61 69 62 55 63
REMARK SMILES IDX 68 64 56 65 57 66 62 67 58 68 61 69 59 70 60 71 63 72 64 73
REMARK SMILES IDX 65 74 66 75 67 76 4 77 2 78 1 80 3 81
REMARK H PARENT 31 24 18 32 20 34 33 36 35 38 37 40 40 44 7 46 44 49 46 52
REMARK H PARENT 48 56 4 79
REMARK Flexibility Score: inf
ROOT
ATOM      1  C   UNL     1      23.285  25.317  22.176  1.00  0.00     0.272 C 
ATOM      2  C   UNL     1      22.639  24.584  23.291  1.00  0.00     0.113 C 
ATOM      3  C   UNL     1      21.216  25.051  23.465  1.00  0.00     0.145 C 
ATOM      4  C   UNL     1      21.279  26.531  23.759  1.00  0.00     0.142 C 
ATOM      5  C   UNL     1      22.011  27.261  22.713  1.00  0.00     0.178 C 
ATOM      6  O   UNL     1      22.930  26.610  21.954  1.00  0.00    -0.332 OA
ENDROOT
BRANCH   1   7
ATOM      7  O   UNL     1      23.140  24.648  20.971  1.00  0.00    -0.338 OA
BRANCH   7   8
ATOM      8  C   UNL     1      22.529  25.280  19.946  1.00  0.00     0.199 C 
BRANCH   8   9
ATOM      9  C   UNL     1      23.118  24.788  18.615  1.00  0.00     0.179 C 
ATOM     10  C   UNL     1      23.399  25.652  16.494  1.00  0.00     0.282 C 
ATOM     11  O   UNL     1      22.490  25.445  17.597  1.00  0.00    -0.341 OA
ATOM     12  C   UNL     1      24.144  24.351  16.297  1.00  0.00     0.202 C 
ATOM     13  C   UNL     1      25.105  24.088  17.437  1.00  0.00     0.179 C 
ATOM     14  C   UNL     1      24.587  24.796  18.676  1.00  0.00     0.177 C 
BRANCH  10  15
ATOM     15  O   UNL     1      24.137  26.706  16.828  1.00  0.00    -0.341 OA
BRANCH  15  16
ATOM     16  C   UNL     1      24.108  27.888  16.110  1.00  0.00     0.184 C 
ATOM     17  C   UNL     1      23.228  28.822  16.875  1.00  0.00     0.178 C 
ATOM     18  O   UNL     1      23.126  30.052  16.200  1.00  0.00    -0.341 OA
ATOM     19  C   UNL     1      22.218  29.715  15.137  1.00  0.00     0.281 C 
ATOM     20  C   UNL     1      23.554  27.653  14.728  1.00  0.00     0.180 C 
ATOM     21  C   UNL     1      22.960  28.899  14.145  1.00  0.00     0.202 C 
BRANCH  17  22
ATOM     22  C   UNL     1      23.754  29.053  18.276  1.00  0.00     0.191 C 
BRANCH  22  23
ATOM     23  O   UNL     1      23.069  28.230  19.143  1.00  0.00    -0.394 OA
ATOM     24  H   UNL     1      23.078  27.299  18.807  1.00  0.00     0.210 HD
ENDBRANCH  22  23
ENDBRANCH  17  22
BRANCH  19  25
ATOM     25  O   UNL     1      21.708  30.856  14.653  1.00  0.00    -0.350 OA
BRANCH  25  26
ATOM     26  C   UNL     1      20.371  31.081  14.931  1.00  0.00     0.169 C 
BRANCH  26  27
ATOM     27  C   UNL     1      19.448  30.763  13.772  1.00  0.00     0.119 C 
BRANCH  27  28
ATOM     28  N   UNL     1      19.130  29.352  13.738  1.00  0.00    -0.092 NA
ATOM     29  N   UNL     1      17.966  28.973  13.804  1.00  0.00     0.001 N 
ATOM     30  N   UNL     1      16.732  28.784  13.791  1.00  0.00    -0.003 NA
ENDBRANCH  27  28
ENDBRANCH  26  27
ENDBRANCH  25  26
ENDBRANCH  19  25
BRANCH  20  31
ATOM     31  O   UNL     1      24.547  27.223  13.842  1.00  0.00    -0.387 OA
ATOM     32  H   UNL     1      25.325  27.854  13.855  1.00  0.00     0.211 HD
ENDBRANCH  20  31
BRANCH  21  33
ATOM     33  O   UNL     1      22.112  28.543  13.098  1.00  0.00    -0.385 OA
ATOM     34  H   UNL     1      22.271  27.639  12.753  1.00  0.00     0.211 HD
ENDBRANCH  21  33
ENDBRANCH  15  16
ENDBRANCH  10  15
BRANCH  12  35
ATOM     35  O   UNL     1      23.174  23.329  16.340  1.00  0.00    -0.385 OA
ATOM     36  H   UNL     1      23.601  22.428  16.497  1.00  0.00     0.211 HD
ENDBRANCH  12  35
BRANCH  13  37
ATOM     37  O   UNL     1      26.392  24.494  17.205  1.00  0.00    -0.387 OA
ATOM     38  H   UNL     1      26.543  24.834  16.290  1.00  0.00     0.211 HD
ENDBRANCH  13  37
BRANCH  14  39
ATOM     39  O   UNL     1      25.220  25.971  18.967  1.00  0.00    -0.387 OA
ATOM     40  H   UNL     1      24.855  26.464  19.735  1.00  0.00     0.211 HD
ENDBRANCH  14  39
ENDBRANCH   8   9
ENDBRANCH   7   8
ENDBRANCH   1   7
BRANCH   1  41
ATOM     41  C   UNL     1      24.806  25.292  22.417  1.00  0.00     0.364 C 
ATOM     42  O   UNL     1      25.463  26.192  21.846  1.00  0.00    -0.246 OA
BRANCH  41  43
ATOM     43  O   UNL     1      25.430  24.365  23.191  1.00  0.00    -0.477 OA
ATOM     44  H   UNL     1      25.237  24.181  24.150  1.00  0.00     0.296 HD
ENDBRANCH  41  43
ENDBRANCH   1  41
BRANCH   3  45
ATOM     45  O   UNL     1      20.475  24.709  22.371  1.00  0.00    -0.391 OA
ATOM     46  H   UNL     1      19.694  25.234  22.169  1.00  0.00     0.211 HD
ENDBRANCH   3  45
BRANCH   5  47
ATOM     47  C   UNL     1      21.145  28.053  21.741  1.00  0.00     0.176 C 
BRANCH  47  48
ATOM     48  O   UNL     1      20.130  27.340  21.167  1.00  0.00    -0.388 OA
ATOM     49  H   UNL     1      19.253  27.806  21.140  1.00  0.00     0.211 HD
ENDBRANCH  47  48
BRANCH  47  50
ATOM     50  C   UNL     1      20.654  29.364  22.232  1.00  0.00     0.165 C 
BRANCH  50  51
ATOM     51  O   UNL     1      19.241  29.438  22.255  1.00  0.00    -0.388 OA
ATOM     52  H   UNL     1      18.836  28.581  21.982  1.00  0.00     0.211 HD
ENDBRANCH  50  51
BRANCH  50  53
ATOM     53  C   UNL     1      21.025  30.394  21.140  1.00  0.00     0.154 C 
BRANCH  53  54
ATOM     54  N   UNL     1      19.846  30.823  20.441  1.00  0.00    -0.319 N 
ATOM     55  C   UNL     1      19.557  30.369  19.139  1.00  0.00     0.407 C 
ATOM     56  H   UNL     1      19.153  31.497  20.882  1.00  0.00     0.167 HD
ATOM     57  O   UNL     1      20.310  29.556  18.557  1.00  0.00    -0.225 OA
BRANCH  55  58
ATOM     58  O   UNL     1      18.420  30.813  18.454  1.00  0.00    -0.443 OA
BRANCH  58  59
ATOM     59  C   UNL     1      17.271  30.020  18.335  1.00  0.00     0.294 C 
BRANCH  59  60
ATOM     60  C   UNL     1      16.793  29.563  19.676  1.00  0.00     0.121 A 
ATOM     61  C   UNL     1      16.004  30.347  20.542  1.00  0.00     0.144 A 
ATOM     62  N   UNL     1      16.976  28.415  20.309  1.00  0.00    -0.131 NA
ATOM     63  N   UNL     1      15.752  29.647  21.639  1.00  0.00    -0.219 N 
ATOM     64  N   UNL     1      16.363  28.467  21.464  1.00  0.00    -0.062 NA
BRANCH  63  65
ATOM     65  C   UNL     1      15.018  29.941  22.813  1.00  0.00     0.081 A 
ATOM     66  C   UNL     1      13.666  29.580  22.882  1.00  0.00     0.049 A 
ATOM     67  C   UNL     1      15.516  30.593  23.904  1.00  0.00     0.065 A 
ATOM     68  C   UNL     1      12.909  29.867  23.970  1.00  0.00     0.043 A 
ATOM     69  C   UNL     1      14.731  30.893  25.033  1.00  0.00     0.017 A 
ATOM     70  Cl  UNL     1      11.218  29.386  23.991  1.00  0.00    -0.084 Cl
ATOM     71  C   UNL     1      13.409  30.523  25.062  1.00  0.00     0.021 A 
BRANCH  67  72
ATOM     72  C   UNL     1      16.926  30.983  23.989  1.00  0.00     0.255 C 
ATOM     73  O   UNL     1      17.742  30.174  24.476  1.00  0.00    -0.269 OA
ATOM     74  N   UNL     1      17.341  32.237  23.532  1.00  0.00    -0.345 N 
ATOM     75  C   UNL     1      16.375  33.175  22.966  1.00  0.00     0.146 C 
ATOM     76  C   UNL     1      18.741  32.648  23.596  1.00  0.00     0.146 C 
ENDBRANCH  67  72
ENDBRANCH  63  65
ENDBRANCH  59  60
ENDBRANCH  58  59
ENDBRANCH  55  58
ENDBRANCH  53  54
ENDBRANCH  50  53
ENDBRANCH  47  50
ENDBRANCH   5  47
BRANCH   4  77
ATOM     77  N   UNL     1      21.887  26.660  25.087  1.00  0.00    -0.348 N 
ATOM     78  C   UNL     1      21.442  27.604  26.036  1.00  0.00     0.217 C 
ATOM     79  H   UNL     1      22.679  26.043  25.351  1.00  0.00     0.163 HD
ATOM     80  C   UNL     1      22.053  27.741  27.380  1.00  0.00     0.114 C 
ATOM     81  O   UNL     1      20.484  28.362  25.732  1.00  0.00    -0.275 OA
ENDBRANCH   4  77
TORSDOF 31
