REMARK VINA RESULT:    -5.437      1.606      2.038
REMARK INTER + INTRA:         -20.882
REMARK INTER:                 -14.583
REMARK INTRA:                  -6.299
REMARK UNBOUND:                -6.864
REMARK SMILES CC(=O)N[C@@H]1[C@@H](O)C[C@](OC[C@H]2O[C@@H](O[C@H]3[C@H](O)[C@@H](O)[C@H](OCCN=[N+]=[N-])O[C@@H]3CO)[C@H](O)[C@@H](O)[C@H]2O)(C(=O)O)O[C@H]1C(O)[C@H](O)CNC(=O)OCc1cn(CCC2OCCO2)nn1
REMARK SMILES IDX 9 1 8 2 6 3 5 4 42 5 41 6 10 7 11 8 12 9 14 10 13 11 32 12
REMARK SMILES IDX 34 13 36 14 15 15 16 16 29 17 28 18 21 19 17 20 19 21 30 22
REMARK SMILES IDX 31 23 22 25 23 26 24 27 25 28 26 29 27 30 18 31 20 33 33 35
REMARK SMILES IDX 35 37 37 39 38 41 39 42 40 43 7 45 43 47 44 48 45 50 46 51
REMARK SMILES IDX 47 53 48 54 49 55 50 57 51 58 52 59 53 60 54 61 64 62 55 63
REMARK SMILES IDX 63 64 56 65 57 66 58 67 59 68 62 69 60 70 61 71 4 72 2 73
REMARK SMILES IDX 1 75 3 76
REMARK H PARENT 31 24 18 32 20 34 33 36 35 38 37 40 40 44 7 46 44 49 46 52
REMARK H PARENT 48 56 4 74
REMARK Flexibility Score: inf
ROOT
ATOM      1  C   UNL     1      12.727  31.080  16.131  1.00  0.00     0.272 C 
ATOM      2  C   UNL     1      11.749  29.946  15.648  1.00  0.00     0.113 C 
ATOM      3  C   UNL     1      11.493  30.044  14.205  1.00  0.00     0.145 C 
ATOM      4  C   UNL     1      12.800  29.944  13.445  1.00  0.00     0.142 C 
ATOM      5  C   UNL     1      13.974  30.314  14.285  1.00  0.00     0.178 C 
ATOM      6  O   UNL     1      13.782  31.223  15.265  1.00  0.00    -0.332 OA
ENDROOT
BRANCH   1   7
ATOM      7  O   UNL     1      13.143  30.617  17.310  1.00  0.00    -0.338 OA
BRANCH   7   8
ATOM      8  C   UNL     1      13.885  31.204  18.221  1.00  0.00     0.199 C 
BRANCH   8   9
ATOM      9  C   UNL     1      15.171  30.611  18.702  1.00  0.00     0.179 C 
ATOM     10  C   UNL     1      16.277  30.047  20.686  1.00  0.00     0.282 C 
ATOM     11  O   UNL     1      15.323  30.818  20.054  1.00  0.00    -0.341 OA
ATOM     12  C   UNL     1      17.215  29.317  19.797  1.00  0.00     0.202 C 
ATOM     13  C   UNL     1      16.543  28.600  18.658  1.00  0.00     0.179 C 
ATOM     14  C   UNL     1      15.132  29.071  18.541  1.00  0.00     0.177 C 
BRANCH  10  15
ATOM     15  O   UNL     1      15.642  29.274  21.658  1.00  0.00    -0.341 OA
BRANCH  15  16
ATOM     16  C   UNL     1      15.002  30.022  22.636  1.00  0.00     0.184 C 
ATOM     17  C   UNL     1      15.669  29.986  23.976  1.00  0.00     0.178 C 
ATOM     18  O   UNL     1      14.966  30.843  24.826  1.00  0.00    -0.341 OA
ATOM     19  C   UNL     1      13.687  30.395  25.124  1.00  0.00     0.281 C 
ATOM     20  C   UNL     1      13.588  29.423  22.881  1.00  0.00     0.180 C 
ATOM     21  C   UNL     1      12.909  30.420  23.811  1.00  0.00     0.202 C 
BRANCH  17  22
ATOM     22  C   UNL     1      17.062  30.580  23.862  1.00  0.00     0.191 C 
BRANCH  22  23
ATOM     23  O   UNL     1      17.935  29.466  23.782  1.00  0.00    -0.394 OA
ATOM     24  H   UNL     1      18.460  29.340  24.600  1.00  0.00     0.210 HD
ENDBRANCH  22  23
ENDBRANCH  17  22
BRANCH  19  25
ATOM     25  O   UNL     1      13.127  31.236  26.044  1.00  0.00    -0.350 OA
BRANCH  25  26
ATOM     26  C   UNL     1      13.674  32.484  26.132  1.00  0.00     0.169 C 
BRANCH  26  27
ATOM     27  C   UNL     1      13.751  33.047  27.534  1.00  0.00     0.119 C 
BRANCH  27  28
ATOM     28  N   UNL     1      15.088  32.870  28.072  1.00  0.00    -0.092 NA
ATOM     29  N   UNL     1      15.708  31.813  27.983  1.00  0.00     0.001 N 
ATOM     30  N   UNL     1      16.456  30.857  27.798  1.00  0.00    -0.003 NA
ENDBRANCH  27  28
ENDBRANCH  26  27
ENDBRANCH  25  26
ENDBRANCH  19  25
BRANCH  20  31
ATOM     31  O   UNL     1      12.925  29.365  21.680  1.00  0.00    -0.387 OA
ATOM     32  H   UNL     1      13.570  29.570  20.949  1.00  0.00     0.211 HD
ENDBRANCH  20  31
BRANCH  21  33
ATOM     33  O   UNL     1      11.602  30.010  23.973  1.00  0.00    -0.385 OA
ATOM     34  H   UNL     1      11.590  29.020  24.009  1.00  0.00     0.211 HD
ENDBRANCH  21  33
ENDBRANCH  15  16
ENDBRANCH  10  15
BRANCH  12  35
ATOM     35  O   UNL     1      18.196  30.220  19.315  1.00  0.00    -0.385 OA
ATOM     36  H   UNL     1      18.904  30.222  20.011  1.00  0.00     0.211 HD
ENDBRANCH  12  35
BRANCH  13  37
ATOM     37  O   UNL     1      16.644  27.214  18.782  1.00  0.00    -0.387 OA
ATOM     38  H   UNL     1      15.886  26.907  19.346  1.00  0.00     0.211 HD
ENDBRANCH  13  37
BRANCH  14  39
ATOM     39  O   UNL     1      14.278  28.549  19.489  1.00  0.00    -0.387 OA
ATOM     40  H   UNL     1      14.196  29.101  20.306  1.00  0.00     0.211 HD
ENDBRANCH  14  39
ENDBRANCH   8   9
ENDBRANCH   7   8
ENDBRANCH   1   7
BRANCH   1  41
ATOM     41  C   UNL     1      11.902  32.284  16.037  1.00  0.00     0.364 C 
ATOM     42  O   UNL     1      10.843  32.385  16.785  1.00  0.00    -0.246 OA
BRANCH  41  43
ATOM     43  O   UNL     1      12.087  33.389  15.238  1.00  0.00    -0.477 OA
ATOM     44  H   UNL     1      12.382  33.274  14.279  1.00  0.00     0.296 HD
ENDBRANCH  41  43
ENDBRANCH   1  41
BRANCH   3  45
ATOM     45  O   UNL     1      10.659  28.937  13.871  1.00  0.00    -0.391 OA
ATOM     46  H   UNL     1       9.835  29.332  13.451  1.00  0.00     0.211 HD
ENDBRANCH   3  45
BRANCH   5  47
ATOM     47  C   UNL     1      14.722  29.083  14.700  1.00  0.00     0.176 C 
BRANCH  47  48
ATOM     48  O   UNL     1      14.288  27.927  14.033  1.00  0.00    -0.388 OA
ATOM     49  H   UNL     1      15.055  27.309  13.858  1.00  0.00     0.211 HD
ENDBRANCH  47  48
BRANCH  47  50
ATOM     50  C   UNL     1      16.209  29.199  14.258  1.00  0.00     0.165 C 
BRANCH  50  51
ATOM     51  O   UNL     1      16.331  28.657  13.001  1.00  0.00    -0.388 OA
ATOM     52  H   UNL     1      16.083  29.262  12.278  1.00  0.00     0.211 HD
ENDBRANCH  50  51
BRANCH  50  53
ATOM     53  C   UNL     1      17.052  28.641  15.331  1.00  0.00     0.154 C 
BRANCH  53  54
ATOM     54  N   UNL     1      18.397  29.118  15.269  1.00  0.00    -0.319 N 
ATOM     55  C   UNL     1      18.861  30.268  15.906  1.00  0.00     0.407 C 
ATOM     56  H   UNL     1      19.073  28.549  14.701  1.00  0.00     0.167 HD
ATOM     57  O   UNL     1      18.103  30.983  16.581  1.00  0.00    -0.225 OA
BRANCH  55  58
ATOM     58  O   UNL     1      20.193  30.702  15.834  1.00  0.00    -0.443 OA
BRANCH  58  59
ATOM     59  C   UNL     1      21.262  29.828  16.149  1.00  0.00     0.294 C 
BRANCH  59  60
ATOM     60  C   UNL     1      21.080  29.147  17.451  1.00  0.00     0.120 A 
ATOM     61  C   UNL     1      21.865  29.370  18.588  1.00  0.00     0.138 A 
ATOM     62  N   UNL     1      20.188  28.218  17.829  1.00  0.00    -0.132 NA
ATOM     63  N   UNL     1      21.419  28.575  19.598  1.00  0.00    -0.252 N 
ATOM     64  N   UNL     1      20.409  27.892  19.110  1.00  0.00    -0.067 NA
BRANCH  63  65
ATOM     65  C   UNL     1      22.023  28.575  20.922  1.00  0.00     0.151 C 
BRANCH  65  66
ATOM     66  C   UNL     1      21.034  28.055  21.958  1.00  0.00     0.086 C 
BRANCH  66  67
ATOM     67  C   UNL     1      21.440  26.705  22.476  1.00  0.00     0.251 C 
ATOM     68  O   UNL     1      21.148  26.627  23.838  1.00  0.00    -0.350 OA
ATOM     69  O   UNL     1      20.756  25.660  21.888  1.00  0.00    -0.350 OA
ATOM     70  C   UNL     1      21.150  25.266  24.121  1.00  0.00     0.192 C 
ATOM     71  C   UNL     1      21.115  24.601  22.756  1.00  0.00     0.192 C 
ENDBRANCH  66  67
ENDBRANCH  65  66
ENDBRANCH  63  65
ENDBRANCH  59  60
ENDBRANCH  58  59
ENDBRANCH  55  58
ENDBRANCH  53  54
ENDBRANCH  50  53
ENDBRANCH  47  50
ENDBRANCH   5  47
BRANCH   4  72
ATOM     72  N   UNL     1      12.729  30.700  12.196  1.00  0.00    -0.348 N 
ATOM     73  C   UNL     1      12.310  30.148  10.982  1.00  0.00     0.217 C 
ATOM     74  H   UNL     1      13.017  31.721  12.249  1.00  0.00     0.163 HD
ATOM     75  C   UNL     1      12.264  30.990   9.743  1.00  0.00     0.114 C 
ATOM     76  O   UNL     1      11.979  28.931  10.976  1.00  0.00    -0.275 OA
ENDBRANCH   4  72
TORSDOF 32
