REMARK VINA RESULT:    -5.966     12.780     18.057
REMARK INTER + INTRA:         -22.529
REMARK INTER:                 -14.622
REMARK INTRA:                  -7.908
REMARK UNBOUND:                -7.496
REMARK SMILES CC(=O)N[C@@H]1[C@@H](O)C[C@](OC[C@H]2O[C@@H](O[C@H]3[C@H](O)[C@@H](O)[C@H](OCCN=[N+]=[N-])O[C@@H]3CO)[C@H](O)[C@@H](O)[C@H]2O)(C(=O)O)O[C@H]1C(O)[C@H](O)CNC(=O)OCc1cn(-c2ccccc2C(N)=O)nn1
REMARK SMILES IDX 9 1 8 2 6 3 5 4 42 5 41 6 10 7 11 8 12 9 14 10 13 11 32 12
REMARK SMILES IDX 34 13 36 14 15 15 16 16 29 17 28 18 21 19 17 20 19 21 30 22
REMARK SMILES IDX 31 23 22 25 23 26 24 27 25 28 26 29 27 30 18 31 20 33 33 35
REMARK SMILES IDX 35 37 37 39 38 41 39 42 40 43 7 45 43 47 44 48 45 50 46 51
REMARK SMILES IDX 47 53 48 54 49 55 50 57 51 58 52 59 53 60 54 61 66 62 55 63
REMARK SMILES IDX 65 64 56 65 61 66 57 67 60 68 58 69 59 70 62 71 64 72 63 73
REMARK SMILES IDX 4 76 2 77 1 79 3 80
REMARK H PARENT 31 24 18 32 20 34 33 36 35 38 37 40 40 44 7 46 44 49 46 52
REMARK H PARENT 48 56 63 74 63 75 4 78
REMARK Flexibility Score: inf
ROOT
ATOM      1  C   UNL     1       9.739  24.828  36.014  1.00  0.00     0.272 C 
ATOM      2  C   UNL     1       9.178  23.405  35.733  1.00  0.00     0.113 C 
ATOM      3  C   UNL     1       8.605  23.474  34.345  1.00  0.00     0.145 C 
ATOM      4  C   UNL     1       7.369  24.281  34.357  1.00  0.00     0.142 C 
ATOM      5  C   UNL     1       7.569  25.369  35.427  1.00  0.00     0.178 C 
ATOM      6  O   UNL     1       8.890  25.773  35.463  1.00  0.00    -0.332 OA
ENDROOT
BRANCH   1   7
ATOM      7  O   UNL     1      10.956  24.834  35.359  1.00  0.00    -0.338 OA
BRANCH   7   8
ATOM      8  C   UNL     1      12.009  24.380  36.097  1.00  0.00     0.199 C 
BRANCH   8   9
ATOM      9  C   UNL     1      13.206  25.313  36.049  1.00  0.00     0.179 C 
ATOM     10  C   UNL     1      13.826  27.305  35.011  1.00  0.00     0.282 C 
ATOM     11  O   UNL     1      12.814  26.389  35.257  1.00  0.00    -0.341 OA
ATOM     12  C   UNL     1      15.093  27.076  35.748  1.00  0.00     0.202 C 
ATOM     13  C   UNL     1      14.948  26.573  37.153  1.00  0.00     0.179 C 
ATOM     14  C   UNL     1      13.613  25.851  37.381  1.00  0.00     0.177 C 
BRANCH  10  15
ATOM     15  O   UNL     1      13.318  28.557  35.307  1.00  0.00    -0.341 OA
BRANCH  15  16
ATOM     16  C   UNL     1      11.955  28.662  35.092  1.00  0.00     0.184 C 
ATOM     17  C   UNL     1      11.739  29.227  33.705  1.00  0.00     0.178 C 
ATOM     18  O   UNL     1      11.537  30.564  33.705  1.00  0.00    -0.341 OA
ATOM     19  C   UNL     1      10.405  30.960  34.320  1.00  0.00     0.281 C 
ATOM     20  C   UNL     1      11.432  29.652  36.128  1.00  0.00     0.180 C 
ATOM     21  C   UNL     1      10.211  30.353  35.652  1.00  0.00     0.202 C 
BRANCH  17  22
ATOM     22  C   UNL     1      10.600  28.513  33.031  1.00  0.00     0.191 C 
BRANCH  22  23
ATOM     23  O   UNL     1      10.381  27.250  33.590  1.00  0.00    -0.394 OA
ATOM     24  H   UNL     1       9.384  27.166  33.689  1.00  0.00     0.210 HD
ENDBRANCH  22  23
ENDBRANCH  17  22
BRANCH  19  25
ATOM     25  O   UNL     1       9.262  30.886  33.511  1.00  0.00    -0.350 OA
BRANCH  25  26
ATOM     26  C   UNL     1       8.538  32.051  33.461  1.00  0.00     0.169 C 
BRANCH  26  27
ATOM     27  C   UNL     1       7.110  31.789  33.804  1.00  0.00     0.119 C 
BRANCH  27  28
ATOM     28  N   UNL     1       6.984  31.587  35.225  1.00  0.00    -0.092 NA
ATOM     29  N   UNL     1       6.085  30.898  35.724  1.00  0.00     0.001 N 
ATOM     30  N   UNL     1       5.249  30.025  35.972  1.00  0.00    -0.003 NA
ENDBRANCH  27  28
ENDBRANCH  26  27
ENDBRANCH  25  26
ENDBRANCH  19  25
BRANCH  20  31
ATOM     31  O   UNL     1      11.143  28.988  37.316  1.00  0.00    -0.387 OA
ATOM     32  H   UNL     1      10.451  29.498  37.843  1.00  0.00     0.211 HD
ENDBRANCH  20  31
BRANCH  21  33
ATOM     33  O   UNL     1       9.923  31.382  36.582  1.00  0.00    -0.385 OA
ATOM     34  H   UNL     1       9.111  31.110  37.099  1.00  0.00     0.211 HD
ENDBRANCH  21  33
ENDBRANCH  15  16
ENDBRANCH  10  15
BRANCH  12  35
ATOM     35  O   UNL     1      16.007  26.291  35.013  1.00  0.00    -0.385 OA
ATOM     36  H   UNL     1      15.936  26.582  34.078  1.00  0.00     0.211 HD
ENDBRANCH  12  35
BRANCH  13  37
ATOM     37  O   UNL     1      14.993  27.629  38.064  1.00  0.00    -0.387 OA
ATOM     38  H   UNL     1      15.830  28.175  37.954  1.00  0.00     0.211 HD
ENDBRANCH  13  37
BRANCH  14  39
ATOM     39  O   UNL     1      12.655  26.800  37.780  1.00  0.00    -0.387 OA
ATOM     40  H   UNL     1      12.595  26.921  38.741  1.00  0.00     0.211 HD
ENDBRANCH  14  39
ENDBRANCH   8   9
ENDBRANCH   7   8
ENDBRANCH   1   7
BRANCH   1  41
ATOM     41  C   UNL     1       9.842  25.028  37.462  1.00  0.00     0.364 C 
ATOM     42  O   UNL     1      10.011  26.201  37.945  1.00  0.00    -0.246 OA
BRANCH  41  43
ATOM     43  O   UNL     1       9.756  23.938  38.332  1.00  0.00    -0.477 OA
ATOM     44  H   UNL     1       9.318  23.099  37.959  1.00  0.00     0.296 HD
ENDBRANCH  41  43
ENDBRANCH   1  41
BRANCH   3  45
ATOM     45  O   UNL     1       9.549  24.196  33.571  1.00  0.00    -0.391 OA
ATOM     46  H   UNL     1       9.660  25.099  33.966  1.00  0.00     0.211 HD
ENDBRANCH   3  45
BRANCH   5  47
ATOM     47  C   UNL     1       6.571  26.476  35.240  1.00  0.00     0.176 C 
BRANCH  47  48
ATOM     48  O   UNL     1       6.753  27.364  36.318  1.00  0.00    -0.388 OA
ATOM     49  H   UNL     1       5.967  27.319  36.927  1.00  0.00     0.211 HD
ENDBRANCH  47  48
BRANCH  47  50
ATOM     50  C   UNL     1       6.896  27.307  33.994  1.00  0.00     0.165 C 
BRANCH  50  51
ATOM     51  O   UNL     1       7.509  28.502  34.403  1.00  0.00    -0.388 OA
ATOM     52  H   UNL     1       7.747  28.981  33.566  1.00  0.00     0.211 HD
ENDBRANCH  50  51
BRANCH  50  53
ATOM     53  C   UNL     1       5.678  27.633  33.198  1.00  0.00     0.154 C 
BRANCH  53  54
ATOM     54  N   UNL     1       5.569  26.796  32.034  1.00  0.00    -0.319 N 
ATOM     55  C   UNL     1       4.679  27.042  30.960  1.00  0.00     0.407 C 
ATOM     56  H   UNL     1       6.200  25.944  31.989  1.00  0.00     0.167 HD
ATOM     57  O   UNL     1       3.904  27.995  30.867  1.00  0.00    -0.225 OA
BRANCH  55  58
ATOM     58  O   UNL     1       4.648  26.134  29.875  1.00  0.00    -0.443 OA
BRANCH  58  59
ATOM     59  C   UNL     1       3.724  26.347  28.805  1.00  0.00     0.294 C 
BRANCH  59  60
ATOM     60  C   UNL     1       4.429  26.748  27.574  1.00  0.00     0.121 A 
ATOM     61  C   UNL     1       5.453  27.653  27.428  1.00  0.00     0.144 A 
ATOM     62  N   UNL     1       4.186  26.288  26.334  1.00  0.00    -0.131 NA
ATOM     63  N   UNL     1       5.808  27.727  26.126  1.00  0.00    -0.220 N 
ATOM     64  N   UNL     1       5.006  26.873  25.484  1.00  0.00    -0.062 NA
BRANCH  63  65
ATOM     65  C   UNL     1       6.806  28.526  25.517  1.00  0.00     0.079 A 
ATOM     66  C   UNL     1       8.001  27.945  25.180  1.00  0.00     0.065 A 
ATOM     67  C   UNL     1       6.595  29.867  25.262  1.00  0.00     0.029 A 
ATOM     68  C   UNL     1       9.017  28.682  24.581  1.00  0.00     0.016 A 
ATOM     69  C   UNL     1       7.603  30.624  24.662  1.00  0.00     0.002 A 
ATOM     70  C   UNL     1       8.796  30.021  24.331  1.00  0.00     0.001 A 
BRANCH  66  71
ATOM     71  C   UNL     1       8.215  26.538  25.451  1.00  0.00     0.250 C 
ATOM     72  O   UNL     1       9.075  26.210  26.306  1.00  0.00    -0.269 OA
ATOM     73  N   UNL     1       7.512  25.497  24.810  1.00  0.00    -0.366 N 
ATOM     74  H   UNL     1       6.955  24.833  25.368  1.00  0.00     0.159 HD
ATOM     75  H   UNL     1       7.558  25.404  23.785  1.00  0.00     0.159 HD
ENDBRANCH  66  71
ENDBRANCH  63  65
ENDBRANCH  59  60
ENDBRANCH  58  59
ENDBRANCH  55  58
ENDBRANCH  53  54
ENDBRANCH  50  53
ENDBRANCH  47  50
ENDBRANCH   5  47
BRANCH   4  76
ATOM     76  N   UNL     1       6.159  23.617  34.647  1.00  0.00    -0.348 N 
ATOM     77  C   UNL     1       5.138  23.408  33.686  1.00  0.00     0.217 C 
ATOM     78  H   UNL     1       5.999  23.258  35.618  1.00  0.00     0.163 HD
ATOM     79  C   UNL     1       3.858  22.718  33.952  1.00  0.00     0.114 C 
ATOM     80  O   UNL     1       5.401  23.870  32.529  1.00  0.00    -0.275 OA
ENDBRANCH   4  76
TORSDOF 31
