REMARK VINA RESULT:    -6.062      0.000      0.000
REMARK INTER + INTRA:         -22.340
REMARK INTER:                 -17.203
REMARK INTRA:                  -5.137
REMARK UNBOUND:                -7.419
REMARK SMILES CC(=O)N[C@@H]1[C@@H](O)C[C@](OC[C@H]2O[C@@H](O[C@H]3[C@H](O)[C@@H](O)[C@H](OCCN=[N+]=[N-])O[C@@H]3CO)[C@H](O)[C@@H](O)[C@H]2O)(C(=O)O)O[C@H]1C(O)[C@H](O)CNC(=O)OCc1cn(-c2ccc(C)cc2)nn1
REMARK SMILES IDX 9 1 8 2 6 3 5 4 42 5 41 6 10 7 11 8 12 9 14 10 13 11 32 12
REMARK SMILES IDX 34 13 36 14 15 15 16 16 29 17 28 18 21 19 17 20 19 21 30 22
REMARK SMILES IDX 31 23 22 25 23 26 24 27 25 28 26 29 27 30 18 31 20 33 33 35
REMARK SMILES IDX 35 37 37 39 38 41 39 42 40 43 7 45 43 47 44 48 45 50 46 51
REMARK SMILES IDX 47 53 48 54 49 55 50 57 51 58 52 59 53 60 54 61 64 62 55 63
REMARK SMILES IDX 63 64 56 65 57 66 62 67 58 68 61 69 59 70 60 71 4 72 2 73
REMARK SMILES IDX 1 75 3 76
REMARK H PARENT 31 24 18 32 20 34 33 36 35 38 37 40 40 44 7 46 44 49 46 52
REMARK H PARENT 48 56 4 74
REMARK Flexibility Score: inf
ROOT
ATOM      1  C   UNL     1      20.996  21.529  10.980  1.00  0.00     0.272 C 
ATOM      2  C   UNL     1      19.803  21.003  11.770  1.00  0.00     0.113 C 
ATOM      3  C   UNL     1      19.513  19.585  11.455  1.00  0.00     0.145 C 
ATOM      4  C   UNL     1      20.694  18.748  11.114  1.00  0.00     0.142 C 
ATOM      5  C   UNL     1      22.056  19.410  11.287  1.00  0.00     0.178 C 
ATOM      6  O   UNL     1      22.026  20.717  10.933  1.00  0.00    -0.332 OA
ENDROOT
BRANCH   1   7
ATOM      7  O   UNL     1      21.398  22.689  11.713  1.00  0.00    -0.338 OA
BRANCH   7   8
ATOM      8  C   UNL     1      21.938  22.269  12.930  1.00  0.00     0.199 C 
BRANCH   8   9
ATOM      9  C   UNL     1      22.917  23.234  13.481  1.00  0.00     0.179 C 
ATOM     10  C   UNL     1      23.870  24.033  15.407  1.00  0.00     0.282 C 
ATOM     11  O   UNL     1      23.139  22.994  14.839  1.00  0.00    -0.341 OA
ATOM     12  C   UNL     1      25.265  24.013  14.908  1.00  0.00     0.202 C 
ATOM     13  C   UNL     1      25.381  23.130  13.697  1.00  0.00     0.179 C 
ATOM     14  C   UNL     1      24.222  23.276  12.733  1.00  0.00     0.177 C 
BRANCH  10  15
ATOM     15  O   UNL     1      23.870  23.889  16.792  1.00  0.00    -0.341 OA
BRANCH  15  16
ATOM     16  C   UNL     1      24.626  24.887  17.409  1.00  0.00     0.184 C 
ATOM     17  C   UNL     1      25.480  24.404  18.548  1.00  0.00     0.178 C 
ATOM     18  O   UNL     1      25.079  25.005  19.745  1.00  0.00    -0.341 OA
ATOM     19  C   UNL     1      23.794  24.593  20.051  1.00  0.00     0.281 C 
ATOM     20  C   UNL     1      23.624  25.873  17.969  1.00  0.00     0.180 C 
ATOM     21  C   UNL     1      22.811  25.087  19.009  1.00  0.00     0.202 C 
BRANCH  17  22
ATOM     22  C   UNL     1      26.933  24.873  18.356  1.00  0.00     0.191 C 
BRANCH  22  23
ATOM     23  O   UNL     1      27.095  26.168  18.841  1.00  0.00    -0.394 OA
ATOM     24  H   UNL     1      26.337  26.710  18.469  1.00  0.00     0.210 HD
ENDBRANCH  22  23
ENDBRANCH  17  22
BRANCH  19  25
ATOM     25  O   UNL     1      23.390  24.997  21.314  1.00  0.00    -0.350 OA
BRANCH  25  26
ATOM     26  C   UNL     1      22.069  25.366  21.380  1.00  0.00     0.169 C 
BRANCH  26  27
ATOM     27  C   UNL     1      21.215  24.530  22.290  1.00  0.00     0.119 C 
BRANCH  27  28
ATOM     28  N   UNL     1      20.986  25.176  23.559  1.00  0.00    -0.092 NA
ATOM     29  N   UNL     1      21.641  24.857  24.536  1.00  0.00     0.001 N 
ATOM     30  N   UNL     1      22.357  24.611  25.508  1.00  0.00    -0.003 NA
ENDBRANCH  27  28
ENDBRANCH  26  27
ENDBRANCH  25  26
ENDBRANCH  19  25
BRANCH  20  31
ATOM     31  O   UNL     1      24.222  26.970  18.570  1.00  0.00    -0.387 OA
ATOM     32  H   UNL     1      24.482  27.591  17.847  1.00  0.00     0.211 HD
ENDBRANCH  20  31
BRANCH  21  33
ATOM     33  O   UNL     1      22.347  23.950  18.315  1.00  0.00    -0.385 OA
ATOM     34  H   UNL     1      21.440  23.686  18.590  1.00  0.00     0.211 HD
ENDBRANCH  21  33
ENDBRANCH  15  16
ENDBRANCH  10  15
BRANCH  12  35
ATOM     35  O   UNL     1      25.745  25.306  14.625  1.00  0.00    -0.385 OA
ATOM     36  H   UNL     1      26.020  25.261  13.652  1.00  0.00     0.211 HD
ENDBRANCH  12  35
BRANCH  13  37
ATOM     37  O   UNL     1      25.622  21.839  14.096  1.00  0.00    -0.387 OA
ATOM     38  H   UNL     1      25.182  21.139  13.516  1.00  0.00     0.211 HD
ENDBRANCH  13  37
BRANCH  14  39
ATOM     39  O   UNL     1      24.242  22.219  11.844  1.00  0.00    -0.387 OA
ATOM     40  H   UNL     1      24.770  22.372  11.033  1.00  0.00     0.211 HD
ENDBRANCH  14  39
ENDBRANCH   8   9
ENDBRANCH   7   8
ENDBRANCH   1   7
BRANCH   1  41
ATOM     41  C   UNL     1      20.445  21.929   9.670  1.00  0.00     0.364 C 
ATOM     42  O   UNL     1      20.284  21.135   8.715  1.00  0.00    -0.246 OA
BRANCH  41  43
ATOM     43  O   UNL     1      20.081  23.278   9.502  1.00  0.00    -0.477 OA
ATOM     44  H   UNL     1      20.228  23.922  10.280  1.00  0.00     0.296 HD
ENDBRANCH  41  43
ENDBRANCH   1  41
BRANCH   3  45
ATOM     45  O   UNL     1      18.707  19.005  12.462  1.00  0.00    -0.391 OA
ATOM     46  H   UNL     1      19.273  19.045  13.298  1.00  0.00     0.211 HD
ENDBRANCH   3  45
BRANCH   5  47
ATOM     47  C   UNL     1      22.536  19.175  12.705  1.00  0.00     0.176 C 
BRANCH  47  48
ATOM     48  O   UNL     1      21.581  18.615  13.540  1.00  0.00    -0.388 OA
ATOM     49  H   UNL     1      20.748  19.134  13.383  1.00  0.00     0.211 HD
ENDBRANCH  47  48
BRANCH  47  50
ATOM     50  C   UNL     1      23.877  18.669  12.949  1.00  0.00     0.165 C 
BRANCH  50  51
ATOM     51  O   UNL     1      24.551  19.204  14.067  1.00  0.00    -0.388 OA
ATOM     52  H   UNL     1      24.973  18.473  14.591  1.00  0.00     0.211 HD
ENDBRANCH  50  51
BRANCH  50  53
ATOM     53  C   UNL     1      24.879  18.533  11.856  1.00  0.00     0.154 C 
BRANCH  53  54
ATOM     54  N   UNL     1      26.223  18.278  12.303  1.00  0.00    -0.319 N 
ATOM     55  C   UNL     1      27.236  19.277  12.202  1.00  0.00     0.407 C 
ATOM     56  H   UNL     1      26.476  17.348  12.709  1.00  0.00     0.167 HD
ATOM     57  O   UNL     1      26.935  20.401  11.730  1.00  0.00    -0.225 OA
BRANCH  55  58
ATOM     58  O   UNL     1      28.520  18.996  12.616  1.00  0.00    -0.443 OA
BRANCH  58  59
ATOM     59  C   UNL     1      28.823  18.347  13.802  1.00  0.00     0.294 C 
BRANCH  59  60
ATOM     60  C   UNL     1      28.332  19.088  14.965  1.00  0.00     0.121 A 
ATOM     61  C   UNL     1      28.843  19.014  16.275  1.00  0.00     0.144 A 
ATOM     62  N   UNL     1      27.334  19.957  15.044  1.00  0.00    -0.131 NA
ATOM     63  N   UNL     1      28.130  19.833  17.048  1.00  0.00    -0.220 N 
ATOM     64  N   UNL     1      27.219  20.395  16.282  1.00  0.00    -0.062 NA
BRANCH  63  65
ATOM     65  C   UNL     1      28.364  20.015  18.456  1.00  0.00     0.066 A 
ATOM     66  C   UNL     1      28.880  18.983  19.208  1.00  0.00     0.029 A 
ATOM     67  C   UNL     1      28.100  21.210  19.093  1.00  0.00     0.029 A 
ATOM     68  C   UNL     1      29.124  19.154  20.574  1.00  0.00     0.005 A 
ATOM     69  C   UNL     1      28.345  21.383  20.460  1.00  0.00     0.005 A 
ATOM     70  C   UNL     1      28.861  20.348  21.206  1.00  0.00    -0.051 A 
ATOM     71  C   UNL     1      29.134  20.536  22.667  1.00  0.00     0.044 C 
ENDBRANCH  63  65
ENDBRANCH  59  60
ENDBRANCH  58  59
ENDBRANCH  55  58
ENDBRANCH  53  54
ENDBRANCH  50  53
ENDBRANCH  47  50
ENDBRANCH   5  47
BRANCH   4  72
ATOM     72  N   UNL     1      20.561  18.082   9.833  1.00  0.00    -0.348 N 
ATOM     73  C   UNL     1      21.386  16.994   9.414  1.00  0.00     0.217 C 
ATOM     74  H   UNL     1      19.842  18.386   9.147  1.00  0.00     0.163 HD
ATOM     75  C   UNL     1      21.212  16.350   8.076  1.00  0.00     0.114 C 
ATOM     76  O   UNL     1      22.254  16.628  10.245  1.00  0.00    -0.275 OA
ENDBRANCH   4  72
TORSDOF 30
