REMARK VINA RESULT:    -5.632      4.221     10.073
REMARK INTER + INTRA:         -21.397
REMARK INTER:                 -13.546
REMARK INTRA:                  -7.851
REMARK UNBOUND:                -7.203
REMARK SMILES CC(=O)N[C@@H]1[C@@H](O)C[C@](OC[C@H]2O[C@@H](O[C@H]3[C@H](O)[C@@H](O)[C@H](OCCN=[N+]=[N-])O[C@@H]3CO)[C@H](O)[C@@H](O)[C@H]2O)(C(=O)O)O[C@H]1C(O)[C@H](O)CNC(=O)OCc1cn(CC2=CC[C@H]3C[C@@H]2C3(C)C)nn1
REMARK SMILES IDX 9 1 8 2 6 3 5 4 42 5 41 6 10 7 11 8 12 9 14 10 13 11 32 12
REMARK SMILES IDX 34 13 36 14 15 15 16 16 29 17 28 18 21 19 17 20 19 21 30 22
REMARK SMILES IDX 31 23 22 25 23 26 24 27 25 28 26 29 27 30 18 31 20 33 33 35
REMARK SMILES IDX 35 37 37 39 38 41 39 42 40 43 7 45 43 47 44 48 45 50 46 51
REMARK SMILES IDX 47 53 48 54 49 55 50 57 51 58 52 59 53 60 54 61 67 62 55 63
REMARK SMILES IDX 66 64 56 65 57 66 58 67 62 68 59 69 61 70 63 71 60 72 64 73
REMARK SMILES IDX 65 74 4 75 2 76 1 78 3 79
REMARK H PARENT 31 24 18 32 20 34 33 36 35 38 37 40 40 44 7 46 44 49 46 52
REMARK H PARENT 48 56 4 77
REMARK Flexibility Score: inf
ROOT
ATOM      1  C   UNL     1      22.583  30.916  21.961  1.00  0.00     0.272 C 
ATOM      2  C   UNL     1      21.921  32.007  22.736  1.00  0.00     0.113 C 
ATOM      3  C   UNL     1      20.687  31.458  23.474  1.00  0.00     0.145 C 
ATOM      4  C   UNL     1      19.679  30.957  22.505  1.00  0.00     0.142 C 
ATOM      5  C   UNL     1      20.378  30.829  21.167  1.00  0.00     0.178 C 
ATOM      6  O   UNL     1      21.559  30.187  21.266  1.00  0.00    -0.332 OA
ENDROOT
BRANCH   1   7
ATOM      7  O   UNL     1      23.228  29.988  22.651  1.00  0.00    -0.338 OA
BRANCH   7   8
ATOM      8  C   UNL     1      23.685  28.822  22.270  1.00  0.00     0.199 C 
BRANCH   8   9
ATOM      9  C   UNL     1      23.253  27.504  22.755  1.00  0.00     0.179 C 
ATOM     10  C   UNL     1      22.785  26.460  24.766  1.00  0.00     0.282 C 
ATOM     11  O   UNL     1      22.879  27.688  24.122  1.00  0.00    -0.341 OA
ATOM     12  C   UNL     1      22.139  25.389  24.008  1.00  0.00     0.202 C 
ATOM     13  C   UNL     1      21.766  25.616  22.596  1.00  0.00     0.179 C 
ATOM     14  C   UNL     1      21.903  27.054  22.162  1.00  0.00     0.177 C 
BRANCH  10  15
ATOM     15  O   UNL     1      22.040  26.735  25.928  1.00  0.00    -0.341 OA
BRANCH  15  16
ATOM     16  C   UNL     1      22.818  26.737  27.071  1.00  0.00     0.184 C 
ATOM     17  C   UNL     1      22.284  25.744  28.063  1.00  0.00     0.178 C 
ATOM     18  O   UNL     1      22.755  25.921  29.352  1.00  0.00    -0.341 OA
ATOM     19  C   UNL     1      23.783  26.805  29.507  1.00  0.00     0.281 C 
ATOM     20  C   UNL     1      22.656  28.120  27.711  1.00  0.00     0.180 C 
ATOM     21  C   UNL     1      23.492  28.178  28.953  1.00  0.00     0.202 C 
BRANCH  17  22
ATOM     22  C   UNL     1      22.678  24.342  27.584  1.00  0.00     0.191 C 
BRANCH  22  23
ATOM     23  O   UNL     1      23.067  23.606  28.694  1.00  0.00    -0.394 OA
ATOM     24  H   UNL     1      22.715  22.670  28.582  1.00  0.00     0.210 HD
ENDBRANCH  22  23
ENDBRANCH  17  22
BRANCH  19  25
ATOM     25  O   UNL     1      24.972  26.332  28.936  1.00  0.00    -0.350 OA
BRANCH  25  26
ATOM     26  C   UNL     1      26.029  27.223  29.123  1.00  0.00     0.169 C 
BRANCH  26  27
ATOM     27  C   UNL     1      27.021  26.923  27.996  1.00  0.00     0.119 C 
BRANCH  27  28
ATOM     28  N   UNL     1      26.304  26.818  26.743  1.00  0.00    -0.092 NA
ATOM     29  N   UNL     1      26.118  27.776  26.016  1.00  0.00     0.001 N 
ATOM     30  N   UNL     1      25.831  28.797  25.378  1.00  0.00    -0.003 NA
ENDBRANCH  27  28
ENDBRANCH  26  27
ENDBRANCH  25  26
ENDBRANCH  19  25
BRANCH  20  31
ATOM     31  O   UNL     1      23.117  29.109  26.823  1.00  0.00    -0.387 OA
ATOM     32  H   UNL     1      23.023  28.805  25.894  1.00  0.00     0.211 HD
ENDBRANCH  20  31
BRANCH  21  33
ATOM     33  O   UNL     1      22.936  28.992  29.938  1.00  0.00    -0.385 OA
ATOM     34  H   UNL     1      22.314  29.634  29.490  1.00  0.00     0.211 HD
ENDBRANCH  21  33
ENDBRANCH  15  16
ENDBRANCH  10  15
BRANCH  12  35
ATOM     35  O   UNL     1      23.007  24.264  24.043  1.00  0.00    -0.385 OA
ATOM     36  H   UNL     1      22.557  23.452  23.700  1.00  0.00     0.211 HD
ENDBRANCH  12  35
BRANCH  13  37
ATOM     37  O   UNL     1      20.509  25.084  22.289  1.00  0.00    -0.387 OA
ATOM     38  H   UNL     1      20.354  25.124  21.307  1.00  0.00     0.211 HD
ENDBRANCH  13  37
BRANCH  14  39
ATOM     39  O   UNL     1      20.900  27.791  22.825  1.00  0.00    -0.387 OA
ATOM     40  H   UNL     1      21.065  28.760  22.718  1.00  0.00     0.211 HD
ENDBRANCH  14  39
ENDBRANCH   8   9
ENDBRANCH   7   8
ENDBRANCH   1   7
BRANCH   1  41
ATOM     41  C   UNL     1      23.346  31.487  20.820  1.00  0.00     0.364 C 
ATOM     42  O   UNL     1      23.907  32.632  20.937  1.00  0.00    -0.246 OA
BRANCH  41  43
ATOM     43  O   UNL     1      23.489  30.866  19.625  1.00  0.00    -0.477 OA
ATOM     44  H   UNL     1      23.172  29.949  19.358  1.00  0.00     0.296 HD
ENDBRANCH  41  43
ENDBRANCH   1  41
BRANCH   3  45
ATOM     45  O   UNL     1      21.184  30.342  24.164  1.00  0.00    -0.391 OA
ATOM     46  H   UNL     1      21.645  29.764  23.508  1.00  0.00     0.211 HD
ENDBRANCH   3  45
BRANCH   5  47
ATOM     47  C   UNL     1      19.505  30.045  20.183  1.00  0.00     0.176 C 
BRANCH  47  48
ATOM     48  O   UNL     1      18.788  29.078  20.839  1.00  0.00    -0.388 OA
ATOM     49  H   UNL     1      17.807  29.252  20.896  1.00  0.00     0.211 HD
ENDBRANCH  47  48
BRANCH  47  50
ATOM     50  C   UNL     1      20.342  29.456  19.086  1.00  0.00     0.165 C 
BRANCH  50  51
ATOM     51  O   UNL     1      20.876  30.570  18.378  1.00  0.00    -0.388 OA
ATOM     52  H   UNL     1      20.591  30.390  17.428  1.00  0.00     0.211 HD
ENDBRANCH  50  51
BRANCH  50  53
ATOM     53  C   UNL     1      19.518  28.701  18.093  1.00  0.00     0.154 C 
BRANCH  53  54
ATOM     54  N   UNL     1      18.247  29.279  17.796  1.00  0.00    -0.319 N 
ATOM     55  C   UNL     1      17.056  28.557  18.048  1.00  0.00     0.407 C 
ATOM     56  H   UNL     1      18.207  30.249  17.395  1.00  0.00     0.167 HD
ATOM     57  O   UNL     1      17.108  27.417  18.528  1.00  0.00    -0.225 OA
BRANCH  55  58
ATOM     58  O   UNL     1      15.821  29.107  17.766  1.00  0.00    -0.443 OA
BRANCH  58  59
ATOM     59  C   UNL     1      15.132  30.041  18.529  1.00  0.00     0.294 C 
BRANCH  59  60
ATOM     60  C   UNL     1      14.745  29.567  19.889  1.00  0.00     0.120 A 
ATOM     61  C   UNL     1      14.986  30.174  21.099  1.00  0.00     0.138 A 
ATOM     62  N   UNL     1      14.061  28.425  20.180  1.00  0.00    -0.132 NA
ATOM     63  N   UNL     1      14.464  29.420  22.069  1.00  0.00    -0.248 N 
ATOM     64  N   UNL     1      13.913  28.372  21.488  1.00  0.00    -0.067 NA
BRANCH  63  65
ATOM     65  C   UNL     1      14.486  29.693  23.518  1.00  0.00     0.177 C 
BRANCH  65  66
ATOM     66  C   UNL     1      13.218  30.447  23.792  1.00  0.00    -0.049 C 
ATOM     67  C   UNL     1      12.049  29.792  23.945  1.00  0.00    -0.025 C 
ATOM     68  C   UNL     1      13.179  31.911  23.913  1.00  0.00     0.023 C 
ATOM     69  C   UNL     1      10.798  30.575  24.058  1.00  0.00     0.031 C 
ATOM     70  C   UNL     1      12.274  32.228  25.112  1.00  0.00     0.013 C 
ATOM     71  C   UNL     1      12.094  32.458  23.036  1.00  0.00    -0.026 C 
ATOM     72  C   UNL     1      11.106  32.043  24.135  1.00  0.00    -0.000 C 
ATOM     73  C   UNL     1      12.087  33.963  22.906  1.00  0.00     0.012 C 
ATOM     74  C   UNL     1      11.883  31.804  21.713  1.00  0.00     0.012 C 
ENDBRANCH  65  66
ENDBRANCH  63  65
ENDBRANCH  59  60
ENDBRANCH  58  59
ENDBRANCH  55  58
ENDBRANCH  53  54
ENDBRANCH  50  53
ENDBRANCH  47  50
ENDBRANCH   5  47
BRANCH   4  75
ATOM     75  N   UNL     1      18.514  31.749  22.315  1.00  0.00    -0.348 N 
ATOM     76  C   UNL     1      17.514  32.014  23.262  1.00  0.00     0.217 C 
ATOM     77  H   UNL     1      18.405  32.178  21.351  1.00  0.00     0.163 HD
ATOM     78  C   UNL     1      16.343  32.866  22.928  1.00  0.00     0.114 C 
ATOM     79  O   UNL     1      17.655  31.505  24.388  1.00  0.00    -0.275 OA
ENDBRANCH   4  75
TORSDOF 31
