REMARK VINA RESULT:    -5.045      2.635      4.888
REMARK INTER + INTRA:         -21.052
REMARK INTER:                 -12.570
REMARK INTRA:                  -8.482
REMARK UNBOUND:                -8.339
REMARK SMILES CC(=O)N[C@@H]1[C@@H](O)C[C@](OC[C@H]2O[C@@H](O[C@H]3[C@H](O)[C@@H](O)[C@H](OCCN=[N+]=[N-])O[C@@H]3CO)[C@H](O)[C@@H](O)[C@H]2O)(C(=O)O)O[C@H]1C(O)[C@H](O)CNC(=O)OCc1cn(Cc2ccccc2)nn1
REMARK SMILES IDX 9 1 8 2 6 3 5 4 42 5 41 6 10 7 11 8 12 9 14 10 13 11 32 12
REMARK SMILES IDX 34 13 36 14 15 15 16 16 29 17 28 18 21 19 17 20 19 21 30 22
REMARK SMILES IDX 31 23 22 25 23 26 24 27 25 28 26 29 27 30 18 31 20 33 33 35
REMARK SMILES IDX 35 37 37 39 38 41 39 42 40 43 7 45 43 47 44 48 45 50 46 51
REMARK SMILES IDX 47 53 48 54 49 55 50 57 51 58 52 59 53 60 54 61 64 62 55 63
REMARK SMILES IDX 63 64 56 65 57 66 58 67 62 68 59 69 61 70 60 71 4 72 2 73
REMARK SMILES IDX 1 75 3 76
REMARK H PARENT 31 24 18 32 20 34 33 36 35 38 37 40 40 44 7 46 44 49 46 52
REMARK H PARENT 48 56 4 74
REMARK Flexibility Score: inf
ROOT
ATOM      1  C   UNL     1      15.052  30.085  21.163  1.00  0.00     0.272 C 
ATOM      2  C   UNL     1      14.638  30.850  22.366  1.00  0.00     0.113 C 
ATOM      3  C   UNL     1      15.551  31.999  22.559  1.00  0.00     0.145 C 
ATOM      4  C   UNL     1      16.729  32.038  21.572  1.00  0.00     0.142 C 
ATOM      5  C   UNL     1      17.299  30.699  21.370  1.00  0.00     0.178 C 
ATOM      6  O   UNL     1      16.368  29.645  21.395  1.00  0.00    -0.332 OA
ENDROOT
BRANCH   1   7
ATOM      7  O   UNL     1      14.944  30.742  19.955  1.00  0.00    -0.338 OA
BRANCH   7   8
ATOM      8  C   UNL     1      13.615  31.009  19.674  1.00  0.00     0.199 C 
BRANCH   8   9
ATOM      9  C   UNL     1      13.360  31.168  18.192  1.00  0.00     0.179 C 
ATOM     10  C   UNL     1      14.373  32.102  16.309  1.00  0.00     0.282 C 
ATOM     11  O   UNL     1      14.022  32.247  17.653  1.00  0.00    -0.341 OA
ATOM     12  C   UNL     1      13.331  31.416  15.506  1.00  0.00     0.202 C 
ATOM     13  C   UNL     1      13.114  30.024  16.007  1.00  0.00     0.179 C 
ATOM     14  C   UNL     1      13.601  29.892  17.431  1.00  0.00     0.177 C 
BRANCH  10  15
ATOM     15  O   UNL     1      15.597  31.467  16.176  1.00  0.00    -0.341 OA
BRANCH  15  16
ATOM     16  C   UNL     1      16.645  32.328  15.877  1.00  0.00     0.184 C 
ATOM     17  C   UNL     1      17.499  31.757  14.806  1.00  0.00     0.178 C 
ATOM     18  O   UNL     1      18.563  32.660  14.593  1.00  0.00    -0.341 OA
ATOM     19  C   UNL     1      19.454  32.434  15.661  1.00  0.00     0.281 C 
ATOM     20  C   UNL     1      17.480  32.391  17.166  1.00  0.00     0.180 C 
ATOM     21  C   UNL     1      18.839  32.967  16.947  1.00  0.00     0.202 C 
BRANCH  17  22
ATOM     22  C   UNL     1      16.739  31.557  13.499  1.00  0.00     0.191 C 
BRANCH  22  23
ATOM     23  O   UNL     1      16.091  30.306  13.596  1.00  0.00    -0.394 OA
ATOM     24  H   UNL     1      15.477  30.213  12.829  1.00  0.00     0.210 HD
ENDBRANCH  22  23
ENDBRANCH  17  22
BRANCH  19  25
ATOM     25  O   UNL     1      20.639  33.076  15.403  1.00  0.00    -0.350 OA
BRANCH  25  26
ATOM     26  C   UNL     1      21.668  32.157  15.332  1.00  0.00     0.169 C 
BRANCH  26  27
ATOM     27  C   UNL     1      21.983  31.665  13.951  1.00  0.00     0.119 C 
BRANCH  27  28
ATOM     28  N   UNL     1      21.057  30.553  13.687  1.00  0.00    -0.092 NA
ATOM     29  N   UNL     1      21.289  29.491  14.262  1.00  0.00     0.001 N 
ATOM     30  N   UNL     1      21.146  28.380  14.790  1.00  0.00    -0.003 NA
ENDBRANCH  27  28
ENDBRANCH  26  27
ENDBRANCH  25  26
ENDBRANCH  19  25
BRANCH  20  31
ATOM     31  O   UNL     1      16.757  33.256  18.014  1.00  0.00    -0.387 OA
ATOM     32  H   UNL     1      17.019  33.149  18.967  1.00  0.00     0.211 HD
ENDBRANCH  20  31
BRANCH  21  33
ATOM     33  O   UNL     1      19.676  32.590  17.997  1.00  0.00    -0.385 OA
ATOM     34  H   UNL     1      19.335  32.886  18.883  1.00  0.00     0.211 HD
ENDBRANCH  21  33
ENDBRANCH  15  16
ENDBRANCH  10  15
BRANCH  12  35
ATOM     35  O   UNL     1      12.129  32.144  15.458  1.00  0.00    -0.385 OA
ATOM     36  H   UNL     1      12.167  32.677  14.624  1.00  0.00     0.211 HD
ENDBRANCH  12  35
BRANCH  13  37
ATOM     37  O   UNL     1      13.790  29.137  15.177  1.00  0.00    -0.387 OA
ATOM     38  H   UNL     1      14.655  28.838  15.567  1.00  0.00     0.211 HD
ENDBRANCH  13  37
BRANCH  14  39
ATOM     39  O   UNL     1      14.862  29.373  17.544  1.00  0.00    -0.387 OA
ATOM     40  H   UNL     1      15.424  29.383  16.744  1.00  0.00     0.211 HD
ENDBRANCH  14  39
ENDBRANCH   8   9
ENDBRANCH   7   8
ENDBRANCH   1   7
BRANCH   1  41
ATOM     41  C   UNL     1      14.302  28.788  21.030  1.00  0.00     0.364 C 
ATOM     42  O   UNL     1      14.561  28.030  20.094  1.00  0.00    -0.246 OA
BRANCH  41  43
ATOM     43  O   UNL     1      13.334  28.457  21.952  1.00  0.00    -0.477 OA
ATOM     44  H   UNL     1      12.365  28.269  21.687  1.00  0.00     0.296 HD
ENDBRANCH  41  43
ENDBRANCH   1  41
BRANCH   3  45
ATOM     45  O   UNL     1      14.928  33.256  22.446  1.00  0.00    -0.391 OA
ATOM     46  H   UNL     1      15.228  33.895  23.110  1.00  0.00     0.211 HD
ENDBRANCH   3  45
BRANCH   5  47
ATOM     47  C   UNL     1      18.161  30.434  20.207  1.00  0.00     0.176 C 
BRANCH  47  48
ATOM     48  O   UNL     1      19.492  30.754  20.366  1.00  0.00    -0.388 OA
ATOM     49  H   UNL     1      19.819  30.731  21.292  1.00  0.00     0.211 HD
ENDBRANCH  47  48
BRANCH  47  50
ATOM     50  C   UNL     1      18.050  29.100  19.527  1.00  0.00     0.165 C 
BRANCH  50  51
ATOM     51  O   UNL     1      18.331  28.038  20.330  1.00  0.00    -0.388 OA
ATOM     52  H   UNL     1      17.596  27.403  20.441  1.00  0.00     0.211 HD
ENDBRANCH  50  51
BRANCH  50  53
ATOM     53  C   UNL     1      18.635  29.104  18.146  1.00  0.00     0.154 C 
BRANCH  53  54
ATOM     54  N   UNL     1      19.895  28.417  18.028  1.00  0.00    -0.319 N 
ATOM     55  C   UNL     1      21.178  29.053  18.055  1.00  0.00     0.407 C 
ATOM     56  H   UNL     1      19.953  27.361  17.913  1.00  0.00     0.167 HD
ATOM     57  O   UNL     1      21.245  30.297  18.182  1.00  0.00    -0.225 OA
BRANCH  55  58
ATOM     58  O   UNL     1      22.349  28.327  17.940  1.00  0.00    -0.443 OA
BRANCH  58  59
ATOM     59  C   UNL     1      23.109  28.054  19.092  1.00  0.00     0.294 C 
BRANCH  59  60
ATOM     60  C   UNL     1      22.276  27.452  20.155  1.00  0.00     0.120 A 
ATOM     61  C   UNL     1      22.408  26.128  20.596  1.00  0.00     0.138 A 
ATOM     62  N   UNL     1      21.288  27.965  20.896  1.00  0.00    -0.132 NA
ATOM     63  N   UNL     1      21.506  25.912  21.566  1.00  0.00    -0.248 N 
ATOM     64  N   UNL     1      20.843  27.019  21.735  1.00  0.00    -0.067 NA
BRANCH  63  65
ATOM     65  C   UNL     1      21.331  24.667  22.280  1.00  0.00     0.181 C 
BRANCH  65  66
ATOM     66  C   UNL     1      22.238  24.641  23.454  1.00  0.00    -0.026 A 
ATOM     67  C   UNL     1      23.612  24.549  23.316  1.00  0.00     0.005 A 
ATOM     68  C   UNL     1      21.686  24.713  24.724  1.00  0.00     0.005 A 
ATOM     69  C   UNL     1      24.417  24.528  24.443  1.00  0.00     0.000 A 
ATOM     70  C   UNL     1      22.500  24.692  25.841  1.00  0.00     0.000 A 
ATOM     71  C   UNL     1      23.859  24.599  25.695  1.00  0.00     0.000 A 
ENDBRANCH  65  66
ENDBRANCH  63  65
ENDBRANCH  59  60
ENDBRANCH  58  59
ENDBRANCH  55  58
ENDBRANCH  53  54
ENDBRANCH  50  53
ENDBRANCH  47  50
ENDBRANCH   5  47
BRANCH   4  72
ATOM     72  N   UNL     1      17.681  32.890  22.312  1.00  0.00    -0.348 N 
ATOM     73  C   UNL     1      18.571  33.786  21.678  1.00  0.00     0.217 C 
ATOM     74  H   UNL     1      17.707  32.832  23.354  1.00  0.00     0.163 HD
ATOM     75  C   UNL     1      19.528  34.632  22.453  1.00  0.00     0.114 C 
ATOM     76  O   UNL     1      18.547  33.867  20.426  1.00  0.00    -0.275 OA
ENDBRANCH   4  72
TORSDOF 31
