REMARK VINA RESULT:    -6.272      9.545     16.644
REMARK INTER + INTRA:         -22.171
REMARK INTER:                 -18.166
REMARK INTRA:                  -4.005
REMARK UNBOUND:                -6.367
REMARK SMILES CC(=O)N[C@@H]1[C@@H](O)C[C@](OC[C@H]2O[C@@H](O[C@H]3[C@H](O)[C@@H](O)[C@H](OCCN=[N+]=[N-])O[C@@H]3CO)[C@H](O)[C@@H](O)[C@H]2O)(C(=O)O)O[C@H]1C(O)[C@H](O)CNC(=O)OCc1cn(-c2ncn3c2c(=O)n(C(C)C)c2ccccc23)nn1
REMARK SMILES IDX 9 1 8 2 6 3 5 4 42 5 41 6 10 7 11 8 12 9 14 10 13 11 32 12
REMARK SMILES IDX 34 13 36 14 15 15 16 16 29 17 28 18 21 19 17 20 19 21 30 22
REMARK SMILES IDX 31 23 22 25 23 26 24 27 25 28 26 29 27 30 18 31 20 33 33 35
REMARK SMILES IDX 35 37 37 39 38 41 39 42 40 43 7 45 43 47 44 48 45 50 46 51
REMARK SMILES IDX 47 53 48 54 49 55 50 57 51 58 52 59 53 60 54 61 74 62 55 63
REMARK SMILES IDX 73 64 56 65 57 66 60 67 58 68 59 69 61 70 72 71 63 72 62 73
REMARK SMILES IDX 71 74 67 75 70 76 68 77 69 78 64 79 65 80 66 81 4 82 2 83
REMARK SMILES IDX 1 85 3 86
REMARK H PARENT 31 24 18 32 20 34 33 36 35 38 37 40 40 44 7 46 44 49 46 52
REMARK H PARENT 48 56 4 84
REMARK Flexibility Score: inf
ROOT
ATOM      1  C   UNL     1      18.640  30.204  22.055  1.00  0.00     0.272 C 
ATOM      2  C   UNL     1      18.047  30.154  23.437  1.00  0.00     0.113 C 
ATOM      3  C   UNL     1      16.629  30.544  23.469  1.00  0.00     0.145 C 
ATOM      4  C   UNL     1      15.787  29.947  22.378  1.00  0.00     0.142 C 
ATOM      5  C   UNL     1      16.542  29.643  21.135  1.00  0.00     0.178 C 
ATOM      6  O   UNL     1      17.837  29.350  21.234  1.00  0.00    -0.332 OA
ENDROOT
BRANCH   1   7
ATOM      7  O   UNL     1      19.808  29.496  22.117  1.00  0.00    -0.338 OA
BRANCH   7   8
ATOM      8  C   UNL     1      20.952  29.805  21.574  1.00  0.00     0.199 C 
BRANCH   8   9
ATOM      9  C   UNL     1      22.051  28.861  21.227  1.00  0.00     0.179 C 
ATOM     10  C   UNL     1      23.447  27.389  22.369  1.00  0.00     0.282 C 
ATOM     11  O   UNL     1      22.431  28.300  22.490  1.00  0.00    -0.341 OA
ATOM     12  C   UNL     1      23.040  26.174  21.555  1.00  0.00     0.202 C 
ATOM     13  C   UNL     1      22.452  26.595  20.220  1.00  0.00     0.179 C 
ATOM     14  C   UNL     1      21.442  27.681  20.468  1.00  0.00     0.177 C 
BRANCH  10  15
ATOM     15  O   UNL     1      23.758  26.954  23.653  1.00  0.00    -0.341 OA
BRANCH  15  16
ATOM     16  C   UNL     1      22.667  26.394  24.264  1.00  0.00     0.184 C 
ATOM     17  C   UNL     1      22.343  27.118  25.520  1.00  0.00     0.178 C 
ATOM     18  O   UNL     1      22.805  26.556  26.683  1.00  0.00    -0.341 OA
ATOM     19  C   UNL     1      23.918  25.765  26.571  1.00  0.00     0.281 C 
ATOM     20  C   UNL     1      22.813  24.901  24.474  1.00  0.00     0.180 C 
ATOM     21  C   UNL     1      23.742  24.625  25.598  1.00  0.00     0.202 C 
BRANCH  17  22
ATOM     22  C   UNL     1      20.851  27.353  25.628  1.00  0.00     0.191 C 
BRANCH  22  23
ATOM     23  O   UNL     1      20.416  27.620  24.308  1.00  0.00    -0.394 OA
ATOM     24  H   UNL     1      19.626  27.052  24.161  1.00  0.00     0.210 HD
ENDBRANCH  22  23
ENDBRANCH  17  22
BRANCH  19  25
ATOM     25  O   UNL     1      24.127  25.164  27.826  1.00  0.00    -0.350 OA
BRANCH  25  26
ATOM     26  C   UNL     1      23.603  25.866  28.877  1.00  0.00     0.169 C 
BRANCH  26  27
ATOM     27  C   UNL     1      24.590  26.593  29.734  1.00  0.00     0.119 C 
BRANCH  27  28
ATOM     28  N   UNL     1      25.863  25.870  29.588  1.00  0.00    -0.092 NA
ATOM     29  N   UNL     1      26.461  25.366  30.514  1.00  0.00     0.001 N 
ATOM     30  N   UNL     1      27.273  25.073  31.397  1.00  0.00    -0.003 NA
ENDBRANCH  27  28
ENDBRANCH  26  27
ENDBRANCH  25  26
ENDBRANCH  19  25
BRANCH  20  31
ATOM     31  O   UNL     1      21.539  24.346  24.649  1.00  0.00    -0.387 OA
ATOM     32  H   UNL     1      21.231  24.115  23.724  1.00  0.00     0.211 HD
ENDBRANCH  20  31
BRANCH  21  33
ATOM     33  O   UNL     1      25.001  24.338  25.041  1.00  0.00    -0.385 OA
ATOM     34  H   UNL     1      25.058  23.397  24.729  1.00  0.00     0.211 HD
ENDBRANCH  21  33
ENDBRANCH  15  16
ENDBRANCH  10  15
BRANCH  12  35
ATOM     35  O   UNL     1      24.201  25.463  21.260  1.00  0.00    -0.385 OA
ATOM     36  H   UNL     1      24.537  24.955  22.035  1.00  0.00     0.211 HD
ENDBRANCH  12  35
BRANCH  13  37
ATOM     37  O   UNL     1      21.732  25.486  19.737  1.00  0.00    -0.387 OA
ATOM     38  H   UNL     1      22.187  24.641  20.006  1.00  0.00     0.211 HD
ENDBRANCH  13  37
BRANCH  14  39
ATOM     39  O   UNL     1      20.451  27.105  21.305  1.00  0.00    -0.387 OA
ATOM     40  H   UNL     1      19.578  27.098  20.845  1.00  0.00     0.211 HD
ENDBRANCH  14  39
ENDBRANCH   8   9
ENDBRANCH   7   8
ENDBRANCH   1   7
BRANCH   1  41
ATOM     41  C   UNL     1      18.642  31.521  21.435  1.00  0.00     0.364 C 
ATOM     42  O   UNL     1      18.425  31.736  20.243  1.00  0.00    -0.246 OA
BRANCH  41  43
ATOM     43  O   UNL     1      18.907  32.669  22.207  1.00  0.00    -0.477 OA
ATOM     44  H   UNL     1      18.385  32.825  23.061  1.00  0.00     0.296 HD
ENDBRANCH  41  43
ENDBRANCH   1  41
BRANCH   3  45
ATOM     45  O   UNL     1      16.120  30.127  24.727  1.00  0.00    -0.391 OA
ATOM     46  H   UNL     1      16.708  30.427  25.457  1.00  0.00     0.211 HD
ENDBRANCH   3  45
BRANCH   5  47
ATOM     47  C   UNL     1      15.858  28.581  20.293  1.00  0.00     0.176 C 
BRANCH  47  48
ATOM     48  O   UNL     1      16.680  27.483  20.170  1.00  0.00    -0.388 OA
ATOM     49  H   UNL     1      16.189  26.630  20.062  1.00  0.00     0.211 HD
ENDBRANCH  47  48
BRANCH  47  50
ATOM     50  C   UNL     1      15.398  29.051  18.957  1.00  0.00     0.165 C 
BRANCH  50  51
ATOM     51  O   UNL     1      14.095  28.785  18.631  1.00  0.00    -0.388 OA
ATOM     52  H   UNL     1      13.939  28.629  17.672  1.00  0.00     0.211 HD
ENDBRANCH  50  51
BRANCH  50  53
ATOM     53  C   UNL     1      16.306  28.660  17.832  1.00  0.00     0.154 C 
BRANCH  53  54
ATOM     54  N   UNL     1      15.652  28.883  16.538  1.00  0.00    -0.319 N 
ATOM     55  C   UNL     1      15.987  29.954  15.693  1.00  0.00     0.407 C 
ATOM     56  H   UNL     1      14.891  28.212  16.215  1.00  0.00     0.167 HD
ATOM     57  O   UNL     1      16.868  30.789  16.021  1.00  0.00    -0.225 OA
BRANCH  55  58
ATOM     58  O   UNL     1      15.311  30.068  14.469  1.00  0.00    -0.443 OA
BRANCH  58  59
ATOM     59  C   UNL     1      14.261  30.981  14.318  1.00  0.00     0.294 C 
BRANCH  59  60
ATOM     60  C   UNL     1      12.918  30.376  14.662  1.00  0.00     0.121 A 
ATOM     61  C   UNL     1      11.685  30.892  14.334  1.00  0.00     0.146 A 
ATOM     62  N   UNL     1      12.668  29.241  15.334  1.00  0.00    -0.131 NA
ATOM     63  N   UNL     1      10.709  30.064  14.810  1.00  0.00    -0.200 N 
ATOM     64  N   UNL     1      11.349  29.079  15.408  1.00  0.00    -0.060 NA
BRANCH  63  65
ATOM     65  C   UNL     1       9.303  30.264  14.661  1.00  0.00     0.186 A 
ATOM     66  N   UNL     1       8.541  31.004  15.484  1.00  0.00    -0.216 NA
ATOM     67  C   UNL     1       8.433  29.775  13.719  1.00  0.00     0.158 A 
ATOM     68  C   UNL     1       7.260  30.974  15.070  1.00  0.00     0.207 A 
ATOM     69  N   UNL     1       7.169  30.207  13.962  1.00  0.00    -0.291 N 
ATOM     70  C   UNL     1       8.673  28.960  12.643  1.00  0.00     0.279 A 
ATOM     71  C   UNL     1       6.141  29.854  13.170  1.00  0.00     0.071 A 
ATOM     72  N   UNL     1       7.655  28.588  11.826  1.00  0.00    -0.302 N 
ATOM     73  O   UNL     1       9.845  28.542  12.391  1.00  0.00    -0.267 OA
ATOM     74  C   UNL     1       4.866  30.284  13.417  1.00  0.00     0.029 A 
ATOM     75  C   UNL     1       6.409  29.034  12.096  1.00  0.00     0.068 A 
ATOM     76  C   UNL     1       3.792  29.911  12.594  1.00  0.00     0.002 A 
ATOM     77  C   UNL     1       5.348  28.670  11.288  1.00  0.00     0.028 A 
ATOM     78  C   UNL     1       4.045  29.093  11.518  1.00  0.00     0.002 A 
BRANCH  72  79
ATOM     79  C   UNL     1       7.912  27.725  10.671  1.00  0.00     0.085 C 
ATOM     80  C   UNL     1       8.740  28.375   9.612  1.00  0.00     0.031 C 
ATOM     81  C   UNL     1       8.383  26.351  11.078  1.00  0.00     0.031 C 
ENDBRANCH  72  79
ENDBRANCH  63  65
ENDBRANCH  59  60
ENDBRANCH  58  59
ENDBRANCH  55  58
ENDBRANCH  53  54
ENDBRANCH  50  53
ENDBRANCH  47  50
ENDBRANCH   5  47
BRANCH   4  82
ATOM     82  N   UNL     1      14.653  30.819  22.148  1.00  0.00    -0.348 N 
ATOM     83  C   UNL     1      13.316  30.364  22.115  1.00  0.00     0.217 C 
ATOM     84  H   UNL     1      14.810  31.845  21.996  1.00  0.00     0.163 HD
ATOM     85  C   UNL     1      12.157  31.273  21.876  1.00  0.00     0.114 C 
ATOM     86  O   UNL     1      13.110  29.128  22.296  1.00  0.00    -0.275 OA
ENDBRANCH   4  82
TORSDOF 31
