REMARK VINA RESULT:    -5.746     13.964     19.236
REMARK INTER + INTRA:         -21.281
REMARK INTER:                 -13.682
REMARK INTRA:                  -7.599
REMARK UNBOUND:                -6.131
REMARK SMILES COCC(C(N)=O)n1cc(COC(=O)NC[C@@H](O)C(O)[C@@H]2O[C@@](OC[C@H]3O[C@@H](O[C@H]4[C@H](O)[C@@H](O)[C@H](OCCN=[N+]=[N-])O[C@@H]4CO)[C@H](O)[C@@H](O)[C@H]3O)(C(=O)O)C[C@H](O)[C@H]2NC(C)=O)nn1
REMARK SMILES IDX 23 1 55 2 56 3 58 4 21 5 22 6 24 7 25 8 26 9 28 10 27 11
REMARK SMILES IDX 46 12 48 13 50 14 29 15 30 16 43 17 42 18 35 19 31 20 33 21
REMARK SMILES IDX 44 22 45 23 36 25 37 26 38 27 39 28 40 29 41 30 32 31 34 33
REMARK SMILES IDX 47 35 49 37 51 39 52 41 53 42 54 43 57 45 19 47 20 48 17 50
REMARK SMILES IDX 18 51 16 53 15 54 13 55 14 57 12 58 11 59 10 60 9 61 63 62
REMARK SMILES IDX 8 63 64 64 4 65 3 66 2 67 1 68 5 69 7 70 6 71 59 74 60 75
REMARK SMILES IDX 61 77 62 78
REMARK H PARENT 45 24 32 32 34 34 47 36 49 38 51 40 54 44 57 46 20 49 18 52
REMARK H PARENT 15 56 6 72 6 73 59 76
REMARK Flexibility Score: inf
ROOT
ATOM      1  C   UNL     1       3.177  21.448  31.595  1.00  0.00     0.272 C 
ATOM      2  C   UNL     1       2.754  20.710  32.806  1.00  0.00     0.113 C 
ATOM      3  C   UNL     1       2.392  21.516  33.999  1.00  0.00     0.145 C 
ATOM      4  C   UNL     1       3.310  22.703  34.120  1.00  0.00     0.142 C 
ATOM      5  C   UNL     1       4.518  22.425  33.238  1.00  0.00     0.178 C 
ATOM      6  O   UNL     1       4.128  22.413  31.924  1.00  0.00    -0.332 OA
ENDROOT
BRANCH   1   7
ATOM      7  O   UNL     1       2.204  22.070  30.863  1.00  0.00    -0.338 OA
BRANCH   7   8
ATOM      8  C   UNL     1       2.571  23.077  30.034  1.00  0.00     0.199 C 
BRANCH   8   9
ATOM      9  C   UNL     1       1.552  23.313  28.910  1.00  0.00     0.179 C 
ATOM     10  C   UNL     1       2.054  25.359  27.932  1.00  0.00     0.282 C 
ATOM     11  O   UNL     1       1.232  24.635  28.784  1.00  0.00    -0.341 OA
ATOM     12  C   UNL     1       2.183  24.749  26.579  1.00  0.00     0.202 C 
ATOM     13  C   UNL     1       2.665  23.337  26.638  1.00  0.00     0.179 C 
ATOM     14  C   UNL     1       1.887  22.585  27.658  1.00  0.00     0.177 C 
BRANCH  10  15
ATOM     15  O   UNL     1       3.290  25.631  28.490  1.00  0.00    -0.341 OA
BRANCH  15  16
ATOM     16  C   UNL     1       3.390  26.975  28.845  1.00  0.00     0.184 C 
ATOM     17  C   UNL     1       4.624  27.661  28.396  1.00  0.00     0.178 C 
ATOM     18  O   UNL     1       4.570  29.014  28.622  1.00  0.00    -0.341 OA
ATOM     19  C   UNL     1       3.830  29.386  29.746  1.00  0.00     0.281 C 
ATOM     20  C   UNL     1       3.405  26.994  30.383  1.00  0.00     0.180 C 
ATOM     21  C   UNL     1       3.916  28.321  30.828  1.00  0.00     0.202 C 
BRANCH  17  22
ATOM     22  C   UNL     1       4.954  27.477  26.927  1.00  0.00     0.191 C 
BRANCH  22  23
ATOM     23  O   UNL     1       5.364  26.166  26.694  1.00  0.00    -0.394 OA
ATOM     24  H   UNL     1       6.253  26.124  26.270  1.00  0.00     0.210 HD
ENDBRANCH  22  23
ENDBRANCH  17  22
BRANCH  19  25
ATOM     25  O   UNL     1       2.564  29.682  29.382  1.00  0.00    -0.350 OA
BRANCH  25  26
ATOM     26  C   UNL     1       1.694  30.214  30.269  1.00  0.00     0.169 C 
BRANCH  26  27
ATOM     27  C   UNL     1       0.258  29.834  30.161  1.00  0.00     0.119 C 
BRANCH  27  28
ATOM     28  N   UNL     1      -0.033  29.044  29.006  1.00  0.00    -0.092 NA
ATOM     29  N   UNL     1      -0.468  27.903  29.133  1.00  0.00     0.001 N 
ATOM     30  N   UNL     1      -1.315  26.995  29.157  1.00  0.00    -0.003 NA
ENDBRANCH  27  28
ENDBRANCH  26  27
ENDBRANCH  25  26
ENDBRANCH  19  25
BRANCH  20  31
ATOM     31  O   UNL     1       2.120  26.750  30.865  1.00  0.00    -0.387 OA
ATOM     32  H   UNL     1       1.953  27.428  31.560  1.00  0.00     0.211 HD
ENDBRANCH  20  31
BRANCH  21  33
ATOM     33  O   UNL     1       5.278  28.240  31.192  1.00  0.00    -0.385 OA
ATOM     34  H   UNL     1       5.800  28.891  30.640  1.00  0.00     0.211 HD
ENDBRANCH  21  33
ENDBRANCH  15  16
ENDBRANCH  10  15
BRANCH  12  35
ATOM     35  O   UNL     1       0.891  24.713  26.023  1.00  0.00    -0.385 OA
ATOM     36  H   UNL     1       0.556  25.619  25.859  1.00  0.00     0.211 HD
ENDBRANCH  12  35
BRANCH  13  37
ATOM     37  O   UNL     1       4.048  23.243  26.788  1.00  0.00    -0.387 OA
ATOM     38  H   UNL     1       4.404  22.924  25.915  1.00  0.00     0.211 HD
ENDBRANCH  13  37
BRANCH  14  39
ATOM     39  O   UNL     1       2.526  21.390  27.993  1.00  0.00    -0.387 OA
ATOM     40  H   UNL     1       2.145  20.631  27.476  1.00  0.00     0.211 HD
ENDBRANCH  14  39
ENDBRANCH   8   9
ENDBRANCH   7   8
ENDBRANCH   1   7
BRANCH   1  41
ATOM     41  C   UNL     1       3.930  20.472  30.727  1.00  0.00     0.364 C 
ATOM     42  O   UNL     1       3.368  19.482  30.221  1.00  0.00    -0.246 OA
BRANCH  41  43
ATOM     43  O   UNL     1       5.264  20.693  30.502  1.00  0.00    -0.477 OA
ATOM     44  H   UNL     1       5.725  21.557  30.737  1.00  0.00     0.296 HD
ENDBRANCH  41  43
ENDBRANCH   1  41
BRANCH   3  45
ATOM     45  O   UNL     1       1.050  21.879  34.055  1.00  0.00    -0.391 OA
ATOM     46  H   UNL     1       0.781  22.310  33.206  1.00  0.00     0.211 HD
ENDBRANCH   3  45
BRANCH   5  47
ATOM     47  C   UNL     1       5.559  23.506  33.447  1.00  0.00     0.176 C 
BRANCH  47  48
ATOM     48  O   UNL     1       6.752  23.230  32.851  1.00  0.00    -0.388 OA
ATOM     49  H   UNL     1       7.002  23.732  32.064  1.00  0.00     0.211 HD
ENDBRANCH  47  48
BRANCH  47  50
ATOM     50  C   UNL     1       5.031  24.834  32.976  1.00  0.00     0.165 C 
BRANCH  50  51
ATOM     51  O   UNL     1       5.646  25.083  31.724  1.00  0.00    -0.388 OA
ATOM     52  H   UNL     1       6.544  24.654  31.714  1.00  0.00     0.211 HD
ENDBRANCH  50  51
BRANCH  50  53
ATOM     53  C   UNL     1       5.382  25.990  33.850  1.00  0.00     0.154 C 
BRANCH  53  54
ATOM     54  N   UNL     1       6.766  26.330  33.913  1.00  0.00    -0.319 N 
ATOM     55  C   UNL     1       7.231  27.670  33.988  1.00  0.00     0.407 C 
ATOM     56  H   UNL     1       7.507  25.577  33.904  1.00  0.00     0.167 HD
ATOM     57  O   UNL     1       6.407  28.597  33.998  1.00  0.00    -0.225 OA
BRANCH  55  58
ATOM     58  O   UNL     1       8.595  27.977  34.051  1.00  0.00    -0.443 OA
BRANCH  58  59
ATOM     59  C   UNL     1       9.580  27.135  33.533  1.00  0.00     0.294 C 
BRANCH  59  60
ATOM     60  C   UNL     1       9.825  25.913  34.309  1.00  0.00     0.120 A 
ATOM     61  C   UNL     1      10.312  25.896  35.592  1.00  0.00     0.139 A 
ATOM     62  N   UNL     1       9.614  24.657  33.898  1.00  0.00    -0.132 NA
ATOM     63  N   UNL     1      10.388  24.608  35.937  1.00  0.00    -0.237 N 
ATOM     64  N   UNL     1       9.963  23.874  34.906  1.00  0.00    -0.066 NA
BRANCH  63  65
ATOM     65  C   UNL     1      10.854  24.110  37.217  1.00  0.00     0.223 C 
BRANCH  65  66
ATOM     66  C   UNL     1      10.264  24.954  38.299  1.00  0.00     0.197 C 
BRANCH  66  67
ATOM     67  O   UNL     1      11.143  25.156  39.333  1.00  0.00    -0.382 OA
ATOM     68  C   UNL     1      10.537  24.995  40.551  1.00  0.00     0.195 C 
ENDBRANCH  66  67
ENDBRANCH  65  66
BRANCH  65  69
ATOM     69  C   UNL     1      10.368  22.694  37.323  1.00  0.00     0.244 C 
ATOM     70  O   UNL     1       9.426  22.441  38.101  1.00  0.00    -0.273 OA
ATOM     71  N   UNL     1      10.993  21.692  36.539  1.00  0.00    -0.368 N 
ATOM     72  H   UNL     1      11.635  20.975  36.915  1.00  0.00     0.159 HD
ATOM     73  H   UNL     1      10.790  21.686  35.516  1.00  0.00     0.159 HD
ENDBRANCH  65  69
ENDBRANCH  63  65
ENDBRANCH  59  60
ENDBRANCH  58  59
ENDBRANCH  55  58
ENDBRANCH  53  54
ENDBRANCH  50  53
ENDBRANCH  47  50
ENDBRANCH   5  47
BRANCH   4  74
ATOM     74  N   UNL     1       3.697  22.932  35.511  1.00  0.00    -0.348 N 
ATOM     75  C   UNL     1       3.224  24.027  36.284  1.00  0.00     0.217 C 
ATOM     76  H   UNL     1       4.354  22.271  35.995  1.00  0.00     0.163 HD
ATOM     77  C   UNL     1       3.598  24.277  37.686  1.00  0.00     0.114 C 
ATOM     78  O   UNL     1       2.421  24.838  35.711  1.00  0.00    -0.275 OA
ENDBRANCH   4  74
TORSDOF 33
