REMARK VINA RESULT:    -6.028     12.013     18.288
REMARK INTER + INTRA:         -24.321
REMARK INTER:                 -17.723
REMARK INTRA:                  -6.598
REMARK UNBOUND:                -8.074
REMARK SMILES CC(=O)N[C@@H]1[C@@H](O)C[C@](OC[C@H]2O[C@@H](O[C@H]3[C@H](O)[C@@H](O)[C@H](OCCN=[N+]=[N-])O[C@@H]3CO)[C@H](O)[C@@H](O)[C@H]2O)(C(=O)O)O[C@H]1C(O)[C@H](O)CNC(=O)OCc1cn(C[C@@H](C)CN2CCN(c3ccc(Cl)cc3)CC2)nn1
REMARK SMILES IDX 43 1 42 2 9 3 8 4 41 5 6 6 5 7 10 8 11 9 12 10 14 11 13 12
REMARK SMILES IDX 32 13 34 14 36 15 15 16 16 17 29 18 28 19 21 20 17 21 19 22
REMARK SMILES IDX 30 23 31 24 22 26 23 27 24 28 25 29 26 30 27 31 18 32 20 34
REMARK SMILES IDX 33 36 35 38 37 40 38 42 39 43 40 44 7 46 4 48 2 49 1 51 3 52
REMARK SMILES IDX 44 53 45 55 46 56 47 58 48 59 49 60 50 62 51 63 52 64 53 65
REMARK SMILES IDX 54 66 74 67 55 68 73 69 56 70 57 71 58 72 59 73 60 74 61 75
REMARK SMILES IDX 72 76 62 77 71 78 63 79 64 80 65 81 70 82 66 83 69 84 67 85
REMARK SMILES IDX 68 86
REMARK H PARENT 31 25 18 33 20 35 33 37 35 39 37 41 40 45 7 47 4 50 44 54
REMARK H PARENT 46 57 48 61
REMARK Flexibility Score: inf
ROOT
ATOM      1  C   UNL     1      15.761  32.881  22.334  1.00  0.00     0.176 C 
ENDROOT
BRANCH   1   2
ATOM      2  C   UNL     1      14.338  32.350  22.436  1.00  0.00     0.178 C 
ATOM      3  C   UNL     1      13.007  30.409  22.231  1.00  0.00     0.272 C 
ATOM      4  C   UNL     1      11.913  31.331  22.007  1.00  0.00     0.113 C 
ATOM      5  O   UNL     1      14.255  31.069  22.002  1.00  0.00    -0.332 OA
ATOM      6  C   UNL     1      12.289  32.505  21.122  1.00  0.00     0.145 C 
ATOM      7  C   UNL     1      13.341  33.316  21.892  1.00  0.00     0.142 C 
BRANCH   3   8
ATOM      8  O   UNL     1      13.119  29.275  21.545  1.00  0.00    -0.338 OA
BRANCH   8   9
ATOM      9  C   UNL     1      14.185  28.706  21.048  1.00  0.00     0.199 C 
BRANCH   9  10
ATOM     10  C   UNL     1      14.441  28.577  19.575  1.00  0.00     0.179 C 
ATOM     11  C   UNL     1      14.742  30.127  17.856  1.00  0.00     0.282 C 
ATOM     12  O   UNL     1      13.932  29.599  18.826  1.00  0.00    -0.341 OA
ATOM     13  C   UNL     1      15.945  30.775  18.514  1.00  0.00     0.202 C 
ATOM     14  C   UNL     1      16.665  29.733  19.305  1.00  0.00     0.179 C 
ATOM     15  C   UNL     1      15.954  28.424  19.362  1.00  0.00     0.177 C 
BRANCH  11  16
ATOM     16  O   UNL     1      13.992  31.159  17.241  1.00  0.00    -0.341 OA
BRANCH  16  17
ATOM     17  C   UNL     1      13.577  30.748  16.000  1.00  0.00     0.184 C 
ATOM     18  C   UNL     1      12.116  30.350  15.974  1.00  0.00     0.178 C 
ATOM     19  O   UNL     1      11.887  29.020  15.796  1.00  0.00    -0.341 OA
ATOM     20  C   UNL     1      12.463  28.440  14.679  1.00  0.00     0.281 C 
ATOM     21  C   UNL     1      14.452  29.626  15.451  1.00  0.00     0.180 C 
ATOM     22  C   UNL     1      13.746  29.083  14.230  1.00  0.00     0.202 C 
BRANCH  18  23
ATOM     23  C   UNL     1      11.301  31.233  15.042  1.00  0.00     0.191 C 
BRANCH  23  24
ATOM     24  O   UNL     1      10.045  30.730  14.813  1.00  0.00    -0.394 OA
ATOM     25  H   UNL     1      10.046  30.357  13.879  1.00  0.00     0.210 HD
ENDBRANCH  23  24
ENDBRANCH  18  23
BRANCH  20  26
ATOM     26  O   UNL     1      11.580  28.356  13.610  1.00  0.00    -0.350 OA
BRANCH  26  27
ATOM     27  C   UNL     1      12.134  28.494  12.370  1.00  0.00     0.169 C 
BRANCH  27  28
ATOM     28  C   UNL     1      11.382  27.715  11.328  1.00  0.00     0.119 C 
BRANCH  28  29
ATOM     29  N   UNL     1      10.090  27.321  11.865  1.00  0.00    -0.092 NA
ATOM     30  N   UNL     1       9.050  27.753  11.335  1.00  0.00     0.001 N 
ATOM     31  N   UNL     1       8.111  28.247  10.725  1.00  0.00    -0.003 NA
ENDBRANCH  28  29
ENDBRANCH  27  28
ENDBRANCH  26  27
ENDBRANCH  20  26
BRANCH  21  32
ATOM     32  O   UNL     1      15.686  30.122  15.036  1.00  0.00    -0.387 OA
ATOM     33  H   UNL     1      15.798  29.803  14.093  1.00  0.00     0.211 HD
ENDBRANCH  21  32
BRANCH  22  34
ATOM     34  O   UNL     1      14.562  28.072  13.667  1.00  0.00    -0.385 OA
ATOM     35  H   UNL     1      15.203  27.703  14.294  1.00  0.00     0.211 HD
ENDBRANCH  22  34
ENDBRANCH  16  17
ENDBRANCH  11  16
BRANCH  13  36
ATOM     36  O   UNL     1      16.720  31.349  17.521  1.00  0.00    -0.385 OA
ATOM     37  H   UNL     1      17.438  30.687  17.299  1.00  0.00     0.211 HD
ENDBRANCH  13  36
BRANCH  14  38
ATOM     38  O   UNL     1      17.015  30.166  20.591  1.00  0.00    -0.387 OA
ATOM     39  H   UNL     1      16.667  29.554  21.279  1.00  0.00     0.211 HD
ENDBRANCH  14  38
BRANCH  15  40
ATOM     40  O   UNL     1      16.460  27.626  20.359  1.00  0.00    -0.387 OA
ATOM     41  H   UNL     1      17.367  27.893  20.633  1.00  0.00     0.211 HD
ENDBRANCH  15  40
ENDBRANCH   9  10
ENDBRANCH   8   9
ENDBRANCH   3   8
BRANCH   3  42
ATOM     42  C   UNL     1      13.135  30.104  23.710  1.00  0.00     0.364 C 
ATOM     43  O   UNL     1      12.431  30.746  24.566  1.00  0.00    -0.246 OA
BRANCH  42  44
ATOM     44  O   UNL     1      13.983  29.161  24.234  1.00  0.00    -0.477 OA
ATOM     45  H   UNL     1      14.802  28.844  23.729  1.00  0.00     0.296 HD
ENDBRANCH  42  44
ENDBRANCH   3  42
BRANCH   6  46
ATOM     46  O   UNL     1      12.845  31.976  19.958  1.00  0.00    -0.391 OA
ATOM     47  H   UNL     1      12.188  31.440  19.451  1.00  0.00     0.211 HD
ENDBRANCH   6  46
BRANCH   7  48
ATOM     48  N   UNL     1      12.640  34.043  22.931  1.00  0.00    -0.348 N 
ATOM     49  C   UNL     1      12.969  35.396  23.197  1.00  0.00     0.217 C 
ATOM     50  H   UNL     1      11.879  33.604  23.519  1.00  0.00     0.163 HD
ATOM     51  C   UNL     1      12.218  36.116  24.286  1.00  0.00     0.114 C 
ATOM     52  O   UNL     1      13.862  36.029  22.565  1.00  0.00    -0.275 OA
ENDBRANCH   7  48
ENDBRANCH   1   2
BRANCH   1  53
ATOM     53  O   UNL     1      15.709  34.060  21.591  1.00  0.00    -0.388 OA
ATOM     54  H   UNL     1      16.348  34.727  21.932  1.00  0.00     0.211 HD
ENDBRANCH   1  53
BRANCH   1  55
ATOM     55  C   UNL     1      16.377  33.237  23.658  1.00  0.00     0.165 C 
BRANCH  55  56
ATOM     56  O   UNL     1      17.573  33.901  23.591  1.00  0.00    -0.388 OA
ATOM     57  H   UNL     1      18.341  33.316  23.708  1.00  0.00     0.211 HD
ENDBRANCH  55  56
BRANCH  55  58
ATOM     58  C   UNL     1      16.437  32.114  24.636  1.00  0.00     0.154 C 
BRANCH  58  59
ATOM     59  N   UNL     1      17.719  31.424  24.470  1.00  0.00    -0.319 N 
ATOM     60  C   UNL     1      17.790  30.124  23.919  1.00  0.00     0.407 C 
ATOM     61  H   UNL     1      18.591  31.907  24.767  1.00  0.00     0.167 HD
ATOM     62  O   UNL     1      16.718  29.568  23.577  1.00  0.00    -0.225 OA
BRANCH  60  63
ATOM     63  O   UNL     1      19.017  29.491  23.765  1.00  0.00    -0.443 OA
BRANCH  63  64
ATOM     64  C   UNL     1      19.892  29.973  22.746  1.00  0.00     0.294 C 
BRANCH  64  65
ATOM     65  C   UNL     1      20.383  28.888  21.867  1.00  0.00     0.120 A 
ATOM     66  C   UNL     1      21.611  28.267  21.917  1.00  0.00     0.138 A 
ATOM     67  N   UNL     1      19.725  28.295  20.842  1.00  0.00    -0.132 NA
ATOM     68  N   UNL     1      21.637  27.357  20.949  1.00  0.00    -0.252 N 
ATOM     69  N   UNL     1      20.494  27.377  20.300  1.00  0.00    -0.067 NA
BRANCH  68  70
ATOM     70  C   UNL     1      22.780  26.488  20.662  1.00  0.00     0.150 C 
BRANCH  70  71
ATOM     71  C   UNL     1      22.331  25.028  20.542  1.00  0.00     0.022 C 
ATOM     72  C   UNL     1      22.861  24.543  19.210  1.00  0.00     0.011 C 
BRANCH  71  73
ATOM     73  C   UNL     1      22.902  24.246  21.682  1.00  0.00     0.089 C 
BRANCH  73  74
ATOM     74  N   UNL     1      23.114  24.899  22.906  1.00  0.00    -0.299 NA
ATOM     75  C   UNL     1      24.403  25.059  23.434  1.00  0.00     0.106 C 
ATOM     76  C   UNL     1      22.040  24.800  23.842  1.00  0.00     0.106 C 
ATOM     77  C   UNL     1      24.512  24.570  24.878  1.00  0.00     0.132 C 
ATOM     78  C   UNL     1      22.306  25.726  25.015  1.00  0.00     0.132 C 
ATOM     79  N   UNL     1      23.479  25.224  25.681  1.00  0.00    -0.369 N 
BRANCH  79  80
ATOM     80  C   UNL     1      23.658  25.338  27.064  1.00  0.00     0.037 A 
ATOM     81  C   UNL     1      24.880  25.699  27.627  1.00  0.00     0.027 A 
ATOM     82  C   UNL     1      22.633  25.110  27.974  1.00  0.00     0.027 A 
ATOM     83  C   UNL     1      25.080  25.824  28.981  1.00  0.00     0.022 A 
ATOM     84  C   UNL     1      22.831  25.235  29.335  1.00  0.00     0.022 A 
ATOM     85  C   UNL     1      24.053  25.593  29.859  1.00  0.00     0.041 A 
ATOM     86  Cl  UNL     1      24.304  25.752  31.566  1.00  0.00    -0.084 Cl
ENDBRANCH  79  80
ENDBRANCH  73  74
ENDBRANCH  71  73
ENDBRANCH  70  71
ENDBRANCH  68  70
ENDBRANCH  64  65
ENDBRANCH  63  64
ENDBRANCH  60  63
ENDBRANCH  58  59
ENDBRANCH  55  58
ENDBRANCH   1  55
TORSDOF 34
