REMARK VINA RESULT:    -6.275      1.464      2.091
REMARK INTER + INTRA:         -24.041
REMARK INTER:                 -17.211
REMARK INTRA:                  -6.830
REMARK UNBOUND:                -7.494
REMARK SMILES CC(=O)N[C@@H]1[C@@H](O)C[C@](OC[C@H]2O[C@@H](O[C@H]3[C@H](O)[C@@H](O)[C@H](OCCN=[N+]=[N-])O[C@@H]3CO)[C@H](O)[C@@H](O)[C@H]2O)(C(=O)O)O[C@H]1C(O)[C@H](O)CNC(=O)OCc1cn(C(C)CC(=O)c2ccccc2)nn1
REMARK SMILES IDX 43 1 42 2 9 3 8 4 41 5 6 6 5 7 10 8 11 9 12 10 14 11 13 12
REMARK SMILES IDX 32 13 34 14 36 15 15 16 16 17 29 18 28 19 21 20 17 21 19 22
REMARK SMILES IDX 30 23 31 24 22 26 23 27 24 28 25 29 26 30 27 31 18 32 20 34
REMARK SMILES IDX 33 36 35 38 37 40 38 42 39 43 40 44 7 46 4 48 2 49 1 51 3 52
REMARK SMILES IDX 44 53 45 55 46 56 47 58 48 59 49 60 50 62 51 63 52 64 53 65
REMARK SMILES IDX 54 66 68 67 55 68 67 69 56 70 57 71 58 72 59 73 60 74 61 75
REMARK SMILES IDX 62 76 66 77 63 78 65 79 64 80
REMARK H PARENT 31 25 18 33 20 35 33 37 35 39 37 41 40 45 7 47 4 50 44 54
REMARK H PARENT 46 57 48 61
REMARK Flexibility Score: inf
ROOT
ATOM      1  C   UNL     1      14.128  31.675  19.490  1.00  0.00     0.176 C 
ENDROOT
BRANCH   1   2
ATOM      2  C   UNL     1      14.340  30.272  19.855  1.00  0.00     0.178 C 
ATOM      3  C   UNL     1      16.018  29.771  21.436  1.00  0.00     0.272 C 
ATOM      4  C   UNL     1      16.338  28.451  20.822  1.00  0.00     0.113 C 
ATOM      5  O   UNL     1      14.622  29.976  21.130  1.00  0.00    -0.332 OA
ATOM      6  C   UNL     1      15.626  28.266  19.496  1.00  0.00     0.145 C 
ATOM      7  C   UNL     1      15.299  29.568  18.868  1.00  0.00     0.142 C 
BRANCH   3   8
ATOM      8  O   UNL     1      16.643  30.865  21.114  1.00  0.00    -0.338 OA
BRANCH   8   9
ATOM      9  C   UNL     1      17.834  31.350  21.119  1.00  0.00     0.199 C 
BRANCH   9  10
ATOM     10  C   UNL     1      19.035  30.857  20.378  1.00  0.00     0.179 C 
ATOM     11  C   UNL     1      20.219  28.811  20.253  1.00  0.00     0.282 C 
ATOM     12  O   UNL     1      19.400  29.673  20.880  1.00  0.00    -0.341 OA
ATOM     13  C   UNL     1      19.765  28.541  18.857  1.00  0.00     0.202 C 
ATOM     14  C   UNL     1      19.321  29.738  18.146  1.00  0.00     0.179 C 
ATOM     15  C   UNL     1      19.035  30.987  18.907  1.00  0.00     0.177 C 
BRANCH  11  16
ATOM     16  O   UNL     1      20.172  27.624  21.033  1.00  0.00    -0.341 OA
BRANCH  16  17
ATOM     17  C   UNL     1      21.452  27.203  21.298  1.00  0.00     0.184 C 
ATOM     18  C   UNL     1      21.479  25.769  21.740  1.00  0.00     0.178 C 
ATOM     19  O   UNL     1      20.834  25.591  22.953  1.00  0.00    -0.341 OA
ATOM     20  C   UNL     1      21.245  26.363  23.995  1.00  0.00     0.281 C 
ATOM     21  C   UNL     1      22.033  28.086  22.422  1.00  0.00     0.180 C 
ATOM     22  C   UNL     1      21.359  27.822  23.718  1.00  0.00     0.202 C 
BRANCH  18  23
ATOM     23  C   UNL     1      22.891  25.219  21.767  1.00  0.00     0.191 C 
BRANCH  23  24
ATOM     24  O   UNL     1      22.943  23.865  21.461  1.00  0.00    -0.394 OA
ATOM     25  H   UNL     1      23.771  23.682  20.942  1.00  0.00     0.210 HD
ENDBRANCH  23  24
ENDBRANCH  18  23
BRANCH  20  26
ATOM     26  O   UNL     1      22.353  25.900  24.659  1.00  0.00    -0.350 OA
BRANCH  26  27
ATOM     27  C   UNL     1      22.218  24.670  25.242  1.00  0.00     0.169 C 
BRANCH  27  28
ATOM     28  C   UNL     1      22.847  24.598  26.608  1.00  0.00     0.119 C 
BRANCH  28  29
ATOM     29  N   UNL     1      22.349  25.706  27.402  1.00  0.00    -0.092 NA
ATOM     30  N   UNL     1      22.528  25.708  28.618  1.00  0.00     0.001 N 
ATOM     31  N   UNL     1      22.889  25.793  29.793  1.00  0.00    -0.003 NA
ENDBRANCH  28  29
ENDBRANCH  27  28
ENDBRANCH  26  27
ENDBRANCH  20  26
BRANCH  21  32
ATOM     32  O   UNL     1      23.415  27.964  22.478  1.00  0.00    -0.387 OA
ATOM     33  H   UNL     1      23.715  27.379  23.215  1.00  0.00     0.211 HD
ENDBRANCH  21  32
BRANCH  22  34
ATOM     34  O   UNL     1      20.144  28.501  23.832  1.00  0.00    -0.385 OA
ATOM     35  H   UNL     1      20.377  29.464  23.830  1.00  0.00     0.211 HD
ENDBRANCH  22  34
ENDBRANCH  16  17
ENDBRANCH  11  16
BRANCH  13  36
ATOM     36  O   UNL     1      20.826  27.946  18.114  1.00  0.00    -0.385 OA
ATOM     37  H   UNL     1      21.655  28.288  18.543  1.00  0.00     0.211 HD
ENDBRANCH  13  36
BRANCH  14  38
ATOM     38  O   UNL     1      18.179  29.381  17.372  1.00  0.00    -0.387 OA
ATOM     39  H   UNL     1      17.997  30.047  16.669  1.00  0.00     0.211 HD
ENDBRANCH  14  38
BRANCH  15  40
ATOM     40  O   UNL     1      17.920  31.581  18.352  1.00  0.00    -0.387 OA
ATOM     41  H   UNL     1      18.028  32.103  17.553  1.00  0.00     0.211 HD
ENDBRANCH  15  40
ENDBRANCH   9  10
ENDBRANCH   8   9
ENDBRANCH   3   8
BRANCH   3  42
ATOM     42  C   UNL     1      15.970  29.560  22.948  1.00  0.00     0.364 C 
ATOM     43  O   UNL     1      14.877  29.437  23.514  1.00  0.00    -0.246 OA
BRANCH  42  44
ATOM     44  O   UNL     1      17.129  29.501  23.688  1.00  0.00    -0.477 OA
ATOM     45  H   UNL     1      17.673  28.648  23.635  1.00  0.00     0.296 HD
ENDBRANCH  42  44
ENDBRANCH   3  42
BRANCH   6  46
ATOM     46  O   UNL     1      16.332  27.412  18.656  1.00  0.00    -0.391 OA
ATOM     47  H   UNL     1      15.748  27.223  17.849  1.00  0.00     0.211 HD
ENDBRANCH   6  46
BRANCH   7  48
ATOM     48  N   UNL     1      14.539  29.365  17.638  1.00  0.00    -0.348 N 
ATOM     49  C   UNL     1      14.864  30.004  16.411  1.00  0.00     0.217 C 
ATOM     50  H   UNL     1      13.725  28.725  17.656  1.00  0.00     0.163 HD
ATOM     51  C   UNL     1      14.098  29.798  15.180  1.00  0.00     0.114 C 
ATOM     52  O   UNL     1      15.869  30.795  16.381  1.00  0.00    -0.275 OA
ENDBRANCH   7  48
ENDBRANCH   1   2
BRANCH   1  53
ATOM     53  O   UNL     1      15.293  32.343  19.041  1.00  0.00    -0.388 OA
ATOM     54  H   UNL     1      14.972  33.074  18.429  1.00  0.00     0.211 HD
ENDBRANCH   1  53
BRANCH   1  55
ATOM     55  C   UNL     1      13.505  32.584  20.528  1.00  0.00     0.165 C 
BRANCH  55  56
ATOM     56  O   UNL     1      14.123  32.580  21.736  1.00  0.00    -0.388 OA
ATOM     57  H   UNL     1      14.439  31.671  21.949  1.00  0.00     0.211 HD
ENDBRANCH  55  56
BRANCH  55  58
ATOM     58  C   UNL     1      12.049  32.122  20.683  1.00  0.00     0.154 C 
BRANCH  58  59
ATOM     59  N   UNL     1      11.592  32.338  22.038  1.00  0.00    -0.319 N 
ATOM     60  C   UNL     1      11.457  31.348  23.036  1.00  0.00     0.407 C 
ATOM     61  H   UNL     1      11.330  33.322  22.359  1.00  0.00     0.167 HD
ATOM     62  O   UNL     1      11.785  30.166  22.814  1.00  0.00    -0.225 OA
BRANCH  60  63
ATOM     63  O   UNL     1      10.947  31.658  24.312  1.00  0.00    -0.443 OA
BRANCH  63  64
ATOM     64  C   UNL     1       9.709  32.396  24.392  1.00  0.00     0.294 C 
BRANCH  64  65
ATOM     65  C   UNL     1       8.663  31.367  24.037  1.00  0.00     0.120 A 
ATOM     66  C   UNL     1       7.722  31.560  23.008  1.00  0.00     0.138 A 
ATOM     67  N   UNL     1       8.369  30.196  24.568  1.00  0.00    -0.132 NA
ATOM     68  N   UNL     1       6.901  30.500  22.969  1.00  0.00    -0.249 N 
ATOM     69  N   UNL     1       7.304  29.686  23.914  1.00  0.00    -0.067 NA
BRANCH  68  70
ATOM     70  C   UNL     1       5.781  30.374  22.034  1.00  0.00     0.114 C 
ATOM     71  C   UNL     1       4.581  31.047  22.623  1.00  0.00     0.034 C 
BRANCH  70  72
ATOM     72  C   UNL     1       6.178  30.836  20.670  1.00  0.00     0.108 C 
BRANCH  72  73
ATOM     73  C   UNL     1       5.674  29.840  19.687  1.00  0.00     0.164 C 
ATOM     74  O   UNL     1       5.135  28.792  20.051  1.00  0.00    -0.294 OA
BRANCH  73  75
ATOM     75  C   UNL     1       5.844  30.154  18.260  1.00  0.00     0.018 A 
ATOM     76  C   UNL     1       4.975  29.748  17.315  1.00  0.00     0.012 A 
ATOM     77  C   UNL     1       6.970  30.917  17.912  1.00  0.00     0.012 A 
ATOM     78  C   UNL     1       5.185  30.087  15.967  1.00  0.00     0.001 A 
ATOM     79  C   UNL     1       7.156  31.235  16.597  1.00  0.00     0.001 A 
ATOM     80  C   UNL     1       6.285  30.835  15.619  1.00  0.00     0.000 A 
ENDBRANCH  73  75
ENDBRANCH  72  73
ENDBRANCH  70  72
ENDBRANCH  68  70
ENDBRANCH  64  65
ENDBRANCH  63  64
ENDBRANCH  60  63
ENDBRANCH  58  59
ENDBRANCH  55  58
ENDBRANCH   1  55
TORSDOF 33
