REMARK VINA RESULT:    -5.382     14.711     18.176
REMARK INTER + INTRA:         -21.479
REMARK INTER:                 -17.113
REMARK INTRA:                  -4.366
REMARK UNBOUND:                -7.602
REMARK SMILES CC(=O)N[C@@H]1[C@@H](O)C[C@](OC[C@H]2O[C@@H](O[C@H]3[C@H](O)[C@@H](O)[C@H](OCCN=[N+]=[N-])O[C@@H]3CO)[C@H](O)[C@@H](O)[C@H]2O)(C(=O)O)O[C@H]1C(O)[C@H](O)CNC(=O)OCc1cn(CC(=O)Nc2ncccn2)nn1
REMARK SMILES IDX 9 1 8 2 6 3 5 4 42 5 41 6 10 7 11 8 12 9 14 10 13 11 32 12
REMARK SMILES IDX 34 13 36 14 15 15 16 16 29 17 28 18 21 19 17 20 19 21 30 22
REMARK SMILES IDX 31 23 22 25 23 26 24 27 25 28 26 29 27 30 18 31 20 33 33 35
REMARK SMILES IDX 35 37 37 39 38 41 39 42 40 43 7 45 43 47 44 48 45 50 46 51
REMARK SMILES IDX 47 53 48 54 49 55 50 57 51 58 52 59 53 60 54 61 67 62 55 63
REMARK SMILES IDX 66 64 56 65 57 66 58 67 59 68 60 70 61 71 65 72 62 73 64 74
REMARK SMILES IDX 63 75 4 76 2 77 1 79 3 80
REMARK H PARENT 31 24 18 32 20 34 33 36 35 38 37 40 40 44 7 46 44 49 46 52
REMARK H PARENT 48 56 59 69 4 78
REMARK Flexibility Score: inf
ROOT
ATOM      1  C   UNL     1       1.693  22.349  30.234  1.00  0.00     0.272 C 
ATOM      2  C   UNL     1       0.372  21.749  30.685  1.00  0.00     0.113 C 
ATOM      3  C   UNL     1       0.562  20.379  31.195  1.00  0.00     0.145 C 
ATOM      4  C   UNL     1       1.739  20.185  32.139  1.00  0.00     0.142 C 
ATOM      5  C   UNL     1       2.827  21.137  31.921  1.00  0.00     0.178 C 
ATOM      6  O   UNL     1       2.380  22.383  31.505  1.00  0.00    -0.332 OA
ENDROOT
BRANCH   1   7
ATOM      7  O   UNL     1       1.496  23.615  29.890  1.00  0.00    -0.338 OA
BRANCH   7   8
ATOM      8  C   UNL     1       2.155  24.675  29.646  1.00  0.00     0.199 C 
BRANCH   8   9
ATOM      9  C   UNL     1       2.197  25.474  28.387  1.00  0.00     0.179 C 
ATOM     10  C   UNL     1       3.814  26.399  26.978  1.00  0.00     0.282 C 
ATOM     11  O   UNL     1       3.611  25.777  28.170  1.00  0.00    -0.341 OA
ATOM     12  C   UNL     1       3.792  25.340  25.829  1.00  0.00     0.202 C 
ATOM     13  C   UNL     1       3.077  24.174  26.481  1.00  0.00     0.179 C 
ATOM     14  C   UNL     1       1.816  24.800  27.120  1.00  0.00     0.177 C 
BRANCH  10  15
ATOM     15  O   UNL     1       5.089  26.981  26.966  1.00  0.00    -0.341 OA
BRANCH  15  16
ATOM     16  C   UNL     1       5.537  27.265  25.682  1.00  0.00     0.184 C 
ATOM     17  C   UNL     1       7.048  27.518  25.765  1.00  0.00     0.178 C 
ATOM     18  O   UNL     1       7.387  28.720  25.163  1.00  0.00    -0.341 OA
ATOM     19  C   UNL     1       6.801  29.804  25.832  1.00  0.00     0.281 C 
ATOM     20  C   UNL     1       4.807  28.429  25.126  1.00  0.00     0.180 C 
ATOM     21  C   UNL     1       5.342  29.785  25.475  1.00  0.00     0.202 C 
BRANCH  17  22
ATOM     22  C   UNL     1       7.790  26.423  25.018  1.00  0.00     0.191 C 
BRANCH  22  23
ATOM     23  O   UNL     1       7.018  25.263  24.934  1.00  0.00    -0.394 OA
ATOM     24  H   UNL     1       7.564  24.440  25.062  1.00  0.00     0.210 HD
ENDBRANCH  22  23
ENDBRANCH  17  22
BRANCH  19  25
ATOM     25  O   UNL     1       7.415  30.935  25.327  1.00  0.00    -0.350 OA
BRANCH  25  26
ATOM     26  C   UNL     1       8.063  30.729  24.127  1.00  0.00     0.169 C 
BRANCH  26  27
ATOM     27  C   UNL     1       7.469  31.492  22.964  1.00  0.00     0.119 C 
BRANCH  27  28
ATOM     28  N   UNL     1       6.302  30.819  22.417  1.00  0.00    -0.092 NA
ATOM     29  N   UNL     1       6.144  30.669  21.202  1.00  0.00     0.001 N 
ATOM     30  N   UNL     1       6.096  30.735  19.978  1.00  0.00    -0.003 NA
ENDBRANCH  27  28
ENDBRANCH  26  27
ENDBRANCH  25  26
ENDBRANCH  19  25
BRANCH  20  31
ATOM     31  O   UNL     1       4.850  28.359  23.706  1.00  0.00    -0.387 OA
ATOM     32  H   UNL     1       4.343  29.132  23.324  1.00  0.00     0.211 HD
ENDBRANCH  20  31
BRANCH  21  33
ATOM     33  O   UNL     1       4.598  30.299  26.531  1.00  0.00    -0.385 OA
ATOM     34  H   UNL     1       4.200  31.163  26.267  1.00  0.00     0.211 HD
ENDBRANCH  21  33
ENDBRANCH  15  16
ENDBRANCH  10  15
BRANCH  12  35
ATOM     35  O   UNL     1       2.925  25.811  24.835  1.00  0.00    -0.385 OA
ATOM     36  H   UNL     1       2.941  26.803  24.902  1.00  0.00     0.211 HD
ENDBRANCH  12  35
BRANCH  13  37
ATOM     37  O   UNL     1       3.846  23.486  27.380  1.00  0.00    -0.387 OA
ATOM     38  H   UNL     1       4.203  24.038  28.103  1.00  0.00     0.211 HD
ENDBRANCH  13  37
BRANCH  14  39
ATOM     39  O   UNL     1       0.834  23.875  27.098  1.00  0.00    -0.387 OA
ATOM     40  H   UNL     1       1.173  22.967  26.908  1.00  0.00     0.211 HD
ENDBRANCH  14  39
ENDBRANCH   8   9
ENDBRANCH   7   8
ENDBRANCH   1   7
BRANCH   1  41
ATOM     41  C   UNL     1       2.474  21.549  29.314  1.00  0.00     0.364 C 
ATOM     42  O   UNL     1       1.935  21.096  28.247  1.00  0.00    -0.246 OA
BRANCH  41  43
ATOM     43  O   UNL     1       3.794  21.202  29.478  1.00  0.00    -0.477 OA
ATOM     44  H   UNL     1       4.322  20.620  28.873  1.00  0.00     0.296 HD
ENDBRANCH  41  43
ENDBRANCH   1  41
BRANCH   3  45
ATOM     45  O   UNL     1      -0.636  20.019  31.863  1.00  0.00    -0.391 OA
ATOM     46  H   UNL     1      -1.147  20.857  32.077  1.00  0.00     0.211 HD
ENDBRANCH   3  45
BRANCH   5  47
ATOM     47  C   UNL     1       3.675  21.455  33.181  1.00  0.00     0.176 C 
BRANCH  47  48
ATOM     48  O   UNL     1       4.366  20.424  33.690  1.00  0.00    -0.388 OA
ATOM     49  H   UNL     1       3.841  19.789  34.252  1.00  0.00     0.211 HD
ENDBRANCH  47  48
BRANCH  47  50
ATOM     50  C   UNL     1       4.171  22.813  33.288  1.00  0.00     0.165 C 
BRANCH  50  51
ATOM     51  O   UNL     1       4.908  23.013  31.999  1.00  0.00    -0.388 OA
ATOM     52  H   UNL     1       5.373  23.862  32.055  1.00  0.00     0.211 HD
ENDBRANCH  50  51
BRANCH  50  53
ATOM     53  C   UNL     1       5.034  23.344  34.323  1.00  0.00     0.154 C 
BRANCH  53  54
ATOM     54  N   UNL     1       6.411  23.517  34.300  1.00  0.00    -0.319 N 
ATOM     55  C   UNL     1       7.497  22.773  33.794  1.00  0.00     0.407 C 
ATOM     56  H   UNL     1       6.737  24.464  34.797  1.00  0.00     0.167 HD
ATOM     57  O   UNL     1       7.319  21.683  33.219  1.00  0.00    -0.225 OA
BRANCH  55  58
ATOM     58  O   UNL     1       8.788  23.221  33.909  1.00  0.00    -0.443 OA
BRANCH  58  59
ATOM     59  C   UNL     1       9.393  23.890  34.921  1.00  0.00     0.294 C 
BRANCH  59  60
ATOM     60  C   UNL     1      10.100  25.122  34.503  1.00  0.00     0.120 A 
ATOM     61  C   UNL     1      10.234  26.299  35.253  1.00  0.00     0.138 A 
ATOM     62  N   UNL     1      10.705  25.429  33.321  1.00  0.00    -0.132 NA
ATOM     63  N   UNL     1      10.878  27.232  34.543  1.00  0.00    -0.243 N 
ATOM     64  N   UNL     1      11.146  26.665  33.380  1.00  0.00    -0.067 NA
BRANCH  63  65
ATOM     65  C   UNL     1      11.237  28.588  34.909  1.00  0.00     0.246 C 
BRANCH  65  66
ATOM     66  C   UNL     1      12.728  28.609  35.173  1.00  0.00     0.248 C 
ATOM     67  O   UNL     1      13.216  29.198  36.167  1.00  0.00    -0.272 OA
ATOM     68  N   UNL     1      13.613  27.949  34.284  1.00  0.00    -0.293 N 
ATOM     69  H   UNL     1      13.151  27.473  33.470  1.00  0.00     0.173 HD
BRANCH  68  70
ATOM     70  C   UNL     1      15.016  27.872  34.408  1.00  0.00     0.229 A 
ATOM     71  N   UNL     1      15.673  26.890  35.051  1.00  0.00    -0.221 NA
ATOM     72  N   UNL     1      15.754  28.853  33.851  1.00  0.00    -0.221 NA
ATOM     73  C   UNL     1      17.034  26.858  35.157  1.00  0.00     0.117 A 
ATOM     74  C   UNL     1      17.086  28.871  33.922  1.00  0.00     0.117 A 
ATOM     75  C   UNL     1      17.759  27.876  34.576  1.00  0.00     0.040 A 
ENDBRANCH  68  70
ENDBRANCH  65  66
ENDBRANCH  63  65
ENDBRANCH  59  60
ENDBRANCH  58  59
ENDBRANCH  55  58
ENDBRANCH  53  54
ENDBRANCH  50  53
ENDBRANCH  47  50
ENDBRANCH   5  47
BRANCH   4  76
ATOM     76  N   UNL     1       2.055  18.790  32.086  1.00  0.00    -0.348 N 
ATOM     77  C   UNL     1       2.107  17.985  33.286  1.00  0.00     0.217 C 
ATOM     78  H   UNL     1       2.262  18.295  31.178  1.00  0.00     0.163 HD
ATOM     79  C   UNL     1       2.434  16.550  33.160  1.00  0.00     0.114 C 
ATOM     80  O   UNL     1       1.881  18.505  34.398  1.00  0.00    -0.275 OA
ENDBRANCH   4  76
TORSDOF 32
