REMARK VINA RESULT:    -5.281      3.870      6.329
REMARK INTER + INTRA:         -21.648
REMARK INTER:                 -14.959
REMARK INTRA:                  -6.689
REMARK UNBOUND:                -8.339
REMARK SMILES CC(=O)N[C@@H]1[C@@H](O)C[C@](OC[C@H]2O[C@@H](O[C@H]3[C@H](O)[C@@H](O)[C@H](OCCN=[N+]=[N-])O[C@@H]3CO)[C@H](O)[C@@H](O)[C@H]2O)(C(=O)O)O[C@H]1C(O)[C@H](O)CNC(=O)OCc1cn(Cc2ccccc2)nn1
REMARK SMILES IDX 9 1 8 2 6 3 5 4 42 5 41 6 10 7 11 8 12 9 14 10 13 11 32 12
REMARK SMILES IDX 34 13 36 14 15 15 16 16 29 17 28 18 21 19 17 20 19 21 30 22
REMARK SMILES IDX 31 23 22 25 23 26 24 27 25 28 26 29 27 30 18 31 20 33 33 35
REMARK SMILES IDX 35 37 37 39 38 41 39 42 40 43 7 45 43 47 44 48 45 50 46 51
REMARK SMILES IDX 47 53 48 54 49 55 50 57 51 58 52 59 53 60 54 61 64 62 55 63
REMARK SMILES IDX 63 64 56 65 57 66 58 67 62 68 59 69 61 70 60 71 4 72 2 73
REMARK SMILES IDX 1 75 3 76
REMARK H PARENT 31 24 18 32 20 34 33 36 35 38 37 40 40 44 7 46 44 49 46 52
REMARK H PARENT 48 56 4 74
REMARK Flexibility Score: inf
ROOT
ATOM      1  C   UNL     1      13.010  30.785  23.757  1.00  0.00     0.272 C 
ATOM      2  C   UNL     1      12.494  31.952  23.000  1.00  0.00     0.113 C 
ATOM      3  C   UNL     1      13.593  32.917  22.770  1.00  0.00     0.145 C 
ATOM      4  C   UNL     1      14.915  32.538  23.455  1.00  0.00     0.142 C 
ATOM      5  C   UNL     1      14.684  32.030  24.814  1.00  0.00     0.178 C 
ATOM      6  O   UNL     1      13.506  31.279  24.978  1.00  0.00    -0.332 OA
ENDROOT
BRANCH   1   7
ATOM      7  O   UNL     1      13.946  30.003  23.112  1.00  0.00    -0.338 OA
BRANCH   7   8
ATOM      8  C   UNL     1      13.446  29.567  21.896  1.00  0.00     0.199 C 
BRANCH   8   9
ATOM      9  C   UNL     1      14.531  29.038  20.985  1.00  0.00     0.179 C 
ATOM     10  C   UNL     1      15.108  29.045  18.724  1.00  0.00     0.282 C 
ATOM     11  O   UNL     1      14.105  28.889  19.685  1.00  0.00    -0.341 OA
ATOM     12  C   UNL     1      16.404  28.453  19.134  1.00  0.00     0.202 C 
ATOM     13  C   UNL     1      16.927  29.133  20.359  1.00  0.00     0.179 C 
ATOM     14  C   UNL     1      15.808  29.827  21.098  1.00  0.00     0.177 C 
BRANCH  10  15
ATOM     15  O   UNL     1      15.261  30.375  18.371  1.00  0.00    -0.341 OA
BRANCH  15  16
ATOM     16  C   UNL     1      14.760  30.682  17.112  1.00  0.00     0.184 C 
ATOM     17  C   UNL     1      13.291  30.874  17.167  1.00  0.00     0.178 C 
ATOM     18  O   UNL     1      12.852  31.133  15.851  1.00  0.00    -0.341 OA
ATOM     19  C   UNL     1      12.835  29.873  15.218  1.00  0.00     0.281 C 
ATOM     20  C   UNL     1      15.043  29.431  16.264  1.00  0.00     0.180 C 
ATOM     21  C   UNL     1      14.266  29.409  14.990  1.00  0.00     0.202 C 
BRANCH  17  22
ATOM     22  C   UNL     1      12.889  32.038  18.069  1.00  0.00     0.191 C 
BRANCH  22  23
ATOM     23  O   UNL     1      12.826  31.528  19.384  1.00  0.00    -0.394 OA
ATOM     24  H   UNL     1      12.034  31.909  19.830  1.00  0.00     0.210 HD
ENDBRANCH  22  23
ENDBRANCH  17  22
BRANCH  19  25
ATOM     25  O   UNL     1      12.176  29.980  14.019  1.00  0.00    -0.350 OA
BRANCH  25  26
ATOM     26  C   UNL     1      11.110  30.850  14.143  1.00  0.00     0.169 C 
BRANCH  26  27
ATOM     27  C   UNL     1       9.777  30.193  14.340  1.00  0.00     0.119 C 
BRANCH  27  28
ATOM     28  N   UNL     1       9.700  29.108  13.351  1.00  0.00    -0.092 NA
ATOM     29  N   UNL     1       9.284  29.407  12.232  1.00  0.00     0.001 N 
ATOM     30  N   UNL     1       9.076  29.403  11.011  1.00  0.00    -0.003 NA
ENDBRANCH  27  28
ENDBRANCH  26  27
ENDBRANCH  25  26
ENDBRANCH  19  25
BRANCH  20  31
ATOM     31  O   UNL     1      16.415  29.518  15.951  1.00  0.00    -0.387 OA
ATOM     32  H   UNL     1      16.620  30.311  15.387  1.00  0.00     0.211 HD
ENDBRANCH  20  31
BRANCH  21  33
ATOM     33  O   UNL     1      14.208  28.103  14.506  1.00  0.00    -0.385 OA
ATOM     34  H   UNL     1      14.326  27.424  15.223  1.00  0.00     0.211 HD
ENDBRANCH  21  33
ENDBRANCH  15  16
ENDBRANCH  10  15
BRANCH  12  35
ATOM     35  O   UNL     1      16.325  27.060  19.307  1.00  0.00    -0.385 OA
ATOM     36  H   UNL     1      17.232  26.710  19.120  1.00  0.00     0.211 HD
ENDBRANCH  12  35
BRANCH  13  37
ATOM     37  O   UNL     1      17.903  30.048  19.983  1.00  0.00    -0.387 OA
ATOM     38  H   UNL     1      17.762  30.397  19.062  1.00  0.00     0.211 HD
ENDBRANCH  13  37
BRANCH  14  39
ATOM     39  O   UNL     1      15.697  31.161  20.818  1.00  0.00    -0.387 OA
ATOM     40  H   UNL     1      14.796  31.516  20.677  1.00  0.00     0.211 HD
ENDBRANCH  14  39
ENDBRANCH   8   9
ENDBRANCH   7   8
ENDBRANCH   1   7
BRANCH   1  41
ATOM     41  C   UNL     1      11.907  29.869  24.210  1.00  0.00     0.364 C 
ATOM     42  O   UNL     1      10.741  30.129  23.911  1.00  0.00    -0.246 OA
BRANCH  41  43
ATOM     43  O   UNL     1      12.206  28.748  24.952  1.00  0.00    -0.477 OA
ATOM     44  H   UNL     1      11.485  28.169  25.387  1.00  0.00     0.296 HD
ENDBRANCH  41  43
ENDBRANCH   1  41
BRANCH   3  45
ATOM     45  O   UNL     1      13.917  33.109  21.413  1.00  0.00    -0.391 OA
ATOM     46  H   UNL     1      14.049  34.039  21.178  1.00  0.00     0.211 HD
ENDBRANCH   3  45
BRANCH   5  47
ATOM     47  C   UNL     1      15.736  31.264  25.502  1.00  0.00     0.176 C 
BRANCH  47  48
ATOM     48  O   UNL     1      16.214  30.165  24.823  1.00  0.00    -0.388 OA
ATOM     49  H   UNL     1      15.822  30.020  23.935  1.00  0.00     0.211 HD
ENDBRANCH  47  48
BRANCH  47  50
ATOM     50  C   UNL     1      16.889  32.018  26.101  1.00  0.00     0.165 C 
BRANCH  50  51
ATOM     51  O   UNL     1      16.786  33.371  25.999  1.00  0.00    -0.388 OA
ATOM     52  H   UNL     1      16.453  33.692  25.139  1.00  0.00     0.211 HD
ENDBRANCH  50  51
BRANCH  50  53
ATOM     53  C   UNL     1      18.216  31.394  25.785  1.00  0.00     0.154 C 
BRANCH  53  54
ATOM     54  N   UNL     1      18.636  31.542  24.416  1.00  0.00    -0.319 N 
ATOM     55  C   UNL     1      19.083  30.470  23.577  1.00  0.00     0.407 C 
ATOM     56  H   UNL     1      18.638  32.487  23.926  1.00  0.00     0.167 HD
ATOM     57  O   UNL     1      19.130  29.307  24.039  1.00  0.00    -0.225 OA
BRANCH  55  58
ATOM     58  O   UNL     1      19.468  30.689  22.267  1.00  0.00    -0.443 OA
BRANCH  58  59
ATOM     59  C   UNL     1      20.802  30.448  21.890  1.00  0.00     0.294 C 
BRANCH  59  60
ATOM     60  C   UNL     1      20.935  29.160  21.177  1.00  0.00     0.120 A 
ATOM     61  C   UNL     1      21.724  28.094  21.631  1.00  0.00     0.138 A 
ATOM     62  N   UNL     1      20.391  28.725  20.035  1.00  0.00    -0.132 NA
ATOM     63  N   UNL     1      21.616  27.083  20.754  1.00  0.00    -0.248 N 
ATOM     64  N   UNL     1      20.817  27.474  19.805  1.00  0.00    -0.067 NA
BRANCH  63  65
ATOM     65  C   UNL     1      22.276  25.802  20.872  1.00  0.00     0.181 C 
BRANCH  65  66
ATOM     66  C   UNL     1      22.218  25.347  22.283  1.00  0.00    -0.026 A 
ATOM     67  C   UNL     1      21.033  24.952  22.878  1.00  0.00     0.005 A 
ATOM     68  C   UNL     1      23.391  25.319  23.022  1.00  0.00     0.005 A 
ATOM     69  C   UNL     1      21.030  24.536  24.198  1.00  0.00     0.000 A 
ATOM     70  C   UNL     1      23.376  24.901  24.339  1.00  0.00     0.000 A 
ATOM     71  C   UNL     1      22.197  24.512  24.920  1.00  0.00     0.000 A 
ENDBRANCH  65  66
ENDBRANCH  63  65
ENDBRANCH  59  60
ENDBRANCH  58  59
ENDBRANCH  55  58
ENDBRANCH  53  54
ENDBRANCH  50  53
ENDBRANCH  47  50
ENDBRANCH   5  47
BRANCH   4  72
ATOM     72  N   UNL     1      15.584  33.853  23.511  1.00  0.00    -0.348 N 
ATOM     73  C   UNL     1      16.743  34.163  22.764  1.00  0.00     0.217 C 
ATOM     74  H   UNL     1      15.191  34.594  24.131  1.00  0.00     0.163 HD
ATOM     75  C   UNL     1      17.402  35.502  22.844  1.00  0.00     0.114 C 
ATOM     76  O   UNL     1      17.224  33.281  22.012  1.00  0.00    -0.275 OA
ENDBRANCH   4  72
TORSDOF 31
