REMARK VINA RESULT:    -5.516      3.495      9.170
REMARK INTER + INTRA:         -24.129
REMARK INTER:                 -15.283
REMARK INTRA:                  -8.846
REMARK UNBOUND:                -7.166
REMARK SMILES CC(=O)N[C@@H]1[C@@H](O)C[C@](OC[C@H]2O[C@@H](O[C@H]3[C@H](O)[C@@H](O)[C@H](OCCN=[N+]=[N-])O[C@@H]3CO)[C@H](O)[C@@H](O)[C@H]2O)(C(=O)O)O[C@H]1C(O)[C@H](O)CNC(=O)OCc1cn(CCCCCCCCCCC(=O)O)nn1
REMARK SMILES IDX 51 1 49 2 48 3 50 5 47 6 45 7 43 8 42 9 9 10 8 11 41 12 6 13
REMARK SMILES IDX 5 14 10 15 11 16 12 17 14 18 13 19 32 20 34 21 36 22 15 23
REMARK SMILES IDX 16 24 29 25 28 26 21 27 17 28 19 29 30 30 31 31 22 33 23 34
REMARK SMILES IDX 24 35 25 36 26 37 27 38 18 39 20 41 33 43 35 45 37 47 38 49
REMARK SMILES IDX 39 50 40 51 7 53 4 55 2 56 1 58 3 59 44 60 46 62 52 64 53 65
REMARK SMILES IDX 54 66 70 67 55 68 69 69 56 70 57 71 58 72 59 73 60 74 61 75
REMARK SMILES IDX 62 76 63 77 64 78 65 79 66 80 67 81 68 82
REMARK H PARENT 48 4 31 32 18 40 20 42 33 44 35 46 37 48 40 52 7 54 4 57 44 61
REMARK H PARENT 46 63 68 83
REMARK Flexibility Score: inf
ROOT
ATOM      1  O   UNL     1      19.159  30.313  23.615  1.00  0.00    -0.443 OA
ENDROOT
BRANCH   1   2
ATOM      2  C   UNL     1      20.496  29.877  23.749  1.00  0.00     0.407 C 
ATOM      3  N   UNL     1      21.498  30.321  22.850  1.00  0.00    -0.319 N 
ATOM      4  H   UNL     1      21.220  30.978  22.074  1.00  0.00     0.167 HD
ATOM      5  O   UNL     1      20.829  29.091  24.664  1.00  0.00    -0.225 OA
BRANCH   3   6
ATOM      6  C   UNL     1      22.866  29.912  22.954  1.00  0.00     0.154 C 
BRANCH   6   7
ATOM      7  C   UNL     1      23.198  28.630  22.198  1.00  0.00     0.165 C 
BRANCH   7   8
ATOM      8  C   UNL     1      23.793  27.704  23.200  1.00  0.00     0.176 C 
BRANCH   8   9
ATOM      9  C   UNL     1      23.539  26.231  22.978  1.00  0.00     0.178 C 
ATOM     10  C   UNL     1      23.510  24.677  21.249  1.00  0.00     0.272 C 
ATOM     11  C   UNL     1      22.354  24.022  21.976  1.00  0.00     0.113 C 
ATOM     12  O   UNL     1      23.538  26.005  21.630  1.00  0.00    -0.332 OA
ATOM     13  C   UNL     1      21.487  24.985  22.721  1.00  0.00     0.145 C 
ATOM     14  C   UNL     1      22.342  25.730  23.725  1.00  0.00     0.142 C 
BRANCH  10  15
ATOM     15  O   UNL     1      23.343  24.572  19.858  1.00  0.00    -0.338 OA
BRANCH  15  16
ATOM     16  C   UNL     1      23.252  25.731  19.166  1.00  0.00     0.199 C 
BRANCH  16  17
ATOM     17  C   UNL     1      22.735  25.358  17.761  1.00  0.00     0.179 C 
ATOM     18  C   UNL     1      22.583  27.353  16.497  1.00  0.00     0.282 C 
ATOM     19  O   UNL     1      22.019  26.328  17.180  1.00  0.00    -0.341 OA
ATOM     20  C   UNL     1      24.004  27.135  16.141  1.00  0.00     0.202 C 
ATOM     21  C   UNL     1      24.200  25.671  15.766  1.00  0.00     0.179 C 
ATOM     22  C   UNL     1      23.860  24.772  16.936  1.00  0.00     0.177 C 
BRANCH  18  23
ATOM     23  O   UNL     1      22.361  28.522  17.269  1.00  0.00    -0.341 OA
BRANCH  23  24
ATOM     24  C   UNL     1      21.235  29.149  16.753  1.00  0.00     0.184 C 
ATOM     25  C   UNL     1      21.432  30.570  16.339  1.00  0.00     0.178 C 
ATOM     26  O   UNL     1      20.241  31.148  16.012  1.00  0.00    -0.341 OA
ATOM     27  C   UNL     1      19.118  30.416  15.909  1.00  0.00     0.281 C 
ATOM     28  C   UNL     1      20.123  29.165  17.815  1.00  0.00     0.180 C 
ATOM     29  C   UNL     1      18.847  29.494  17.075  1.00  0.00     0.202 C 
BRANCH  25  30
ATOM     30  C   UNL     1      22.416  30.739  15.196  1.00  0.00     0.191 C 
BRANCH  30  31
ATOM     31  O   UNL     1      22.189  29.896  14.140  1.00  0.00    -0.394 OA
ATOM     32  H   UNL     1      22.973  29.294  14.044  1.00  0.00     0.210 HD
ENDBRANCH  30  31
ENDBRANCH  25  30
BRANCH  27  33
ATOM     33  O   UNL     1      19.147  29.650  14.752  1.00  0.00    -0.350 OA
BRANCH  33  34
ATOM     34  C   UNL     1      18.082  28.751  14.689  1.00  0.00     0.169 C 
BRANCH  34  35
ATOM     35  C   UNL     1      16.936  29.288  13.879  1.00  0.00     0.119 C 
BRANCH  35  36
ATOM     36  N   UNL     1      15.683  28.850  14.498  1.00  0.00    -0.092 NA
ATOM     37  N   UNL     1      15.342  29.280  15.621  1.00  0.00     0.001 N 
ATOM     38  N   UNL     1      15.265  29.848  16.732  1.00  0.00    -0.003 NA
ENDBRANCH  35  36
ENDBRANCH  34  35
ENDBRANCH  33  34
ENDBRANCH  27  33
BRANCH  28  39
ATOM     39  O   UNL     1      19.990  27.955  18.462  1.00  0.00    -0.387 OA
ATOM     40  H   UNL     1      19.077  27.788  18.808  1.00  0.00     0.211 HD
ENDBRANCH  28  39
BRANCH  29  41
ATOM     41  O   UNL     1      18.015  30.171  17.961  1.00  0.00    -0.385 OA
ATOM     42  H   UNL     1      17.836  29.551  18.734  1.00  0.00     0.211 HD
ENDBRANCH  29  41
ENDBRANCH  23  24
ENDBRANCH  18  23
BRANCH  20  43
ATOM     43  O   UNL     1      24.391  27.850  14.999  1.00  0.00    -0.385 OA
ATOM     44  H   UNL     1      25.349  27.600  14.838  1.00  0.00     0.211 HD
ENDBRANCH  20  43
BRANCH  21  45
ATOM     45  O   UNL     1      25.514  25.438  15.365  1.00  0.00    -0.387 OA
ATOM     46  H   UNL     1      25.971  26.317  15.381  1.00  0.00     0.211 HD
ENDBRANCH  21  45
BRANCH  22  47
ATOM     47  O   UNL     1      24.991  24.631  17.702  1.00  0.00    -0.387 OA
ATOM     48  H   UNL     1      25.467  25.500  17.723  1.00  0.00     0.211 HD
ENDBRANCH  22  47
ENDBRANCH  16  17
ENDBRANCH  15  16
ENDBRANCH  10  15
BRANCH  10  49
ATOM     49  C   UNL     1      24.785  24.010  21.526  1.00  0.00     0.364 C 
ATOM     50  O   UNL     1      25.753  24.057  20.750  1.00  0.00    -0.246 OA
BRANCH  49  51
ATOM     51  O   UNL     1      24.960  23.285  22.693  1.00  0.00    -0.477 OA
ATOM     52  H   UNL     1      25.876  22.941  22.990  1.00  0.00     0.296 HD
ENDBRANCH  49  51
ENDBRANCH  10  49
BRANCH  13  53
ATOM     53  O   UNL     1      20.726  25.830  21.942  1.00  0.00    -0.391 OA
ATOM     54  H   UNL     1      20.382  26.630  22.433  1.00  0.00     0.211 HD
ENDBRANCH  13  53
BRANCH  14  55
ATOM     55  N   UNL     1      22.625  24.832  24.795  1.00  0.00    -0.348 N 
ATOM     56  C   UNL     1      22.582  25.185  26.173  1.00  0.00     0.217 C 
ATOM     57  H   UNL     1      22.887  23.836  24.597  1.00  0.00     0.163 HD
ATOM     58  C   UNL     1      22.889  24.198  27.224  1.00  0.00     0.114 C 
ATOM     59  O   UNL     1      22.277  26.356  26.461  1.00  0.00    -0.275 OA
ENDBRANCH  14  55
ENDBRANCH   8   9
BRANCH   8  60
ATOM     60  O   UNL     1      23.488  28.150  24.457  1.00  0.00    -0.388 OA
ATOM     61  H   UNL     1      23.996  28.917  24.764  1.00  0.00     0.211 HD
ENDBRANCH   8  60
ENDBRANCH   7   8
BRANCH   7  62
ATOM     62  O   UNL     1      24.047  28.984  21.156  1.00  0.00    -0.388 OA
ATOM     63  H   UNL     1      24.440  28.195  20.709  1.00  0.00     0.211 HD
ENDBRANCH   7  62
ENDBRANCH   6   7
ENDBRANCH   3   6
ENDBRANCH   1   2
BRANCH   1  64
ATOM     64  C   UNL     1      18.822  30.966  22.384  1.00  0.00     0.294 C 
BRANCH  64  65
ATOM     65  C   UNL     1      18.031  30.007  21.585  1.00  0.00     0.120 A 
ATOM     66  C   UNL     1      16.655  30.034  21.448  1.00  0.00     0.138 A 
ATOM     67  N   UNL     1      18.474  28.971  20.860  1.00  0.00    -0.132 NA
ATOM     68  N   UNL     1      16.332  29.006  20.642  1.00  0.00    -0.252 N 
ATOM     69  N   UNL     1      17.466  28.367  20.293  1.00  0.00    -0.067 NA
BRANCH  68  70
ATOM     70  C   UNL     1      15.042  28.596  20.181  1.00  0.00     0.146 C 
BRANCH  70  71
ATOM     71  C   UNL     1      13.910  29.497  20.529  1.00  0.00     0.024 C 
BRANCH  71  72
ATOM     72  C   UNL     1      13.142  29.148  21.755  1.00  0.00     0.002 C 
BRANCH  72  73
ATOM     73  C   UNL     1      13.199  30.143  22.861  1.00  0.00     0.000 C 
BRANCH  73  74
ATOM     74  C   UNL     1      13.651  29.618  24.180  1.00  0.00     0.000 C 
BRANCH  74  75
ATOM     75  C   UNL     1      13.047  30.425  25.295  1.00  0.00     0.000 C 
BRANCH  75  76
ATOM     76  C   UNL     1      13.947  31.541  25.778  1.00  0.00     0.000 C 
BRANCH  76  77
ATOM     77  C   UNL     1      15.144  31.058  26.527  1.00  0.00     0.001 C 
BRANCH  77  78
ATOM     78  C   UNL     1      15.377  31.733  27.843  1.00  0.00     0.012 C 
BRANCH  78  79
ATOM     79  C   UNL     1      14.516  31.048  28.890  1.00  0.00     0.122 C 
BRANCH  79  80
ATOM     80  C   UNL     1      13.619  32.045  29.499  1.00  0.00     0.303 C 
ATOM     81  O   UNL     1      13.337  33.101  28.896  1.00  0.00    -0.252 OA
BRANCH  80  82
ATOM     82  O   UNL     1      13.063  31.846  30.755  1.00  0.00    -0.481 OA
ATOM     83  H   UNL     1      12.102  32.057  30.956  1.00  0.00     0.296 HD
ENDBRANCH  80  82
ENDBRANCH  79  80
ENDBRANCH  78  79
ENDBRANCH  77  78
ENDBRANCH  76  77
ENDBRANCH  75  76
ENDBRANCH  74  75
ENDBRANCH  73  74
ENDBRANCH  72  73
ENDBRANCH  71  72
ENDBRANCH  70  71
ENDBRANCH  68  70
ENDBRANCH  64  65
ENDBRANCH   1  64
TORSDOF 41
