REMARK VINA RESULT:    -5.296      4.541     11.994
REMARK INTER + INTRA:         -20.636
REMARK INTER:                 -15.068
REMARK INTRA:                  -5.567
REMARK UNBOUND:                -7.600
REMARK SMILES CC(=O)N[C@@H]1[C@@H](O)C[C@](OC[C@H]2O[C@@H](O[C@H]3[C@H](O)[C@@H](O)[C@H](OCCN=[N+]=[N-])O[C@@H]3CO)[C@H](O)[C@@H](O)[C@H]2O)(C(=O)O)O[C@H]1C(O)[C@H](O)CNC(=O)OCc1cn(-c2ccc(Cl)cc2)nn1
REMARK SMILES IDX 9 1 8 2 6 3 5 4 42 5 41 6 10 7 11 8 12 9 14 10 13 11 32 12
REMARK SMILES IDX 34 13 36 14 15 15 16 16 29 17 28 18 21 19 17 20 19 21 30 22
REMARK SMILES IDX 31 23 22 25 23 26 24 27 25 28 26 29 27 30 18 31 20 33 33 35
REMARK SMILES IDX 35 37 37 39 38 41 39 42 40 43 7 45 43 47 44 48 45 50 46 51
REMARK SMILES IDX 47 53 48 54 49 55 50 57 51 58 52 59 53 60 54 61 64 62 55 63
REMARK SMILES IDX 63 64 56 65 57 66 62 67 58 68 61 69 59 70 60 71 4 72 2 73
REMARK SMILES IDX 1 75 3 76
REMARK H PARENT 31 24 18 32 20 34 33 36 35 38 37 40 40 44 7 46 44 49 46 52
REMARK H PARENT 48 56 4 74
REMARK Flexibility Score: inf
ROOT
ATOM      1  C   UNL     1      15.168  29.281  19.587  1.00  0.00     0.272 C 
ATOM      2  C   UNL     1      14.162  28.746  20.520  1.00  0.00     0.113 C 
ATOM      3  C   UNL     1      13.922  29.423  21.807  1.00  0.00     0.145 C 
ATOM      4  C   UNL     1      14.674  30.736  21.859  1.00  0.00     0.142 C 
ATOM      5  C   UNL     1      16.090  30.392  21.347  1.00  0.00     0.178 C 
ATOM      6  O   UNL     1      15.860  30.411  19.937  1.00  0.00    -0.332 OA
ENDROOT
BRANCH   1   7
ATOM      7  O   UNL     1      14.504  29.527  18.353  1.00  0.00    -0.338 OA
BRANCH   7   8
ATOM      8  C   UNL     1      14.486  30.848  17.999  1.00  0.00     0.199 C 
BRANCH   8   9
ATOM      9  C   UNL     1      15.043  31.068  16.595  1.00  0.00     0.179 C 
ATOM     10  C   UNL     1      15.864  29.526  15.018  1.00  0.00     0.282 C 
ATOM     11  O   UNL     1      15.982  30.144  16.264  1.00  0.00    -0.341 OA
ATOM     12  C   UNL     1      14.565  28.837  14.969  1.00  0.00     0.202 C 
ATOM     13  C   UNL     1      13.444  29.857  15.120  1.00  0.00     0.179 C 
ATOM     14  C   UNL     1      13.936  31.195  15.573  1.00  0.00     0.177 C 
BRANCH  10  15
ATOM     15  O   UNL     1      17.008  28.735  14.944  1.00  0.00    -0.341 OA
BRANCH  15  16
ATOM     16  C   UNL     1      17.837  28.942  13.926  1.00  0.00     0.184 C 
ATOM     17  C   UNL     1      19.113  29.608  14.301  1.00  0.00     0.178 C 
ATOM     18  O   UNL     1      20.050  29.513  13.277  1.00  0.00    -0.341 OA
ATOM     19  C   UNL     1      19.685  30.065  12.092  1.00  0.00     0.281 C 
ATOM     20  C   UNL     1      17.250  29.793  12.782  1.00  0.00     0.180 C 
ATOM     21  C   UNL     1      18.302  30.606  12.118  1.00  0.00     0.202 C 
BRANCH  17  22
ATOM     22  C   UNL     1      19.757  29.172  15.580  1.00  0.00     0.191 C 
BRANCH  22  23
ATOM     23  O   UNL     1      19.020  29.554  16.701  1.00  0.00    -0.394 OA
ATOM     24  H   UNL     1      18.559  28.764  17.068  1.00  0.00     0.210 HD
ENDBRANCH  22  23
ENDBRANCH  17  22
BRANCH  19  25
ATOM     25  O   UNL     1      19.751  29.109  11.071  1.00  0.00    -0.350 OA
BRANCH  25  26
ATOM     26  C   UNL     1      20.590  29.515  10.044  1.00  0.00     0.169 C 
BRANCH  26  27
ATOM     27  C   UNL     1      21.728  30.377  10.496  1.00  0.00     0.119 C 
BRANCH  27  28
ATOM     28  N   UNL     1      22.929  29.546  10.470  1.00  0.00    -0.092 NA
ATOM     29  N   UNL     1      23.059  28.769  11.434  1.00  0.00     0.001 N 
ATOM     30  N   UNL     1      23.047  27.757  12.167  1.00  0.00    -0.003 NA
ENDBRANCH  27  28
ENDBRANCH  26  27
ENDBRANCH  25  26
ENDBRANCH  19  25
BRANCH  20  31
ATOM     31  O   UNL     1      16.705  28.903  11.872  1.00  0.00    -0.387 OA
ATOM     32  H   UNL     1      16.238  28.194  12.418  1.00  0.00     0.211 HD
ENDBRANCH  20  31
BRANCH  21  33
ATOM     33  O   UNL     1      18.328  31.937  12.582  1.00  0.00    -0.385 OA
ATOM     34  H   UNL     1      17.398  32.140  12.830  1.00  0.00     0.211 HD
ENDBRANCH  21  33
ENDBRANCH  15  16
ENDBRANCH  10  15
BRANCH  12  35
ATOM     35  O   UNL     1      14.317  28.102  13.808  1.00  0.00    -0.385 OA
ATOM     36  H   UNL     1      13.531  28.479  13.297  1.00  0.00     0.211 HD
ENDBRANCH  12  35
BRANCH  13  37
ATOM     37  O   UNL     1      12.471  29.310  15.953  1.00  0.00    -0.387 OA
ATOM     38  H   UNL     1      11.908  29.958  16.404  1.00  0.00     0.211 HD
ENDBRANCH  13  37
BRANCH  14  39
ATOM     39  O   UNL     1      12.893  31.880  16.244  1.00  0.00    -0.387 OA
ATOM     40  H   UNL     1      12.092  31.765  15.702  1.00  0.00     0.211 HD
ENDBRANCH  14  39
ENDBRANCH   8   9
ENDBRANCH   7   8
ENDBRANCH   1   7
BRANCH   1  41
ATOM     41  C   UNL     1      16.165  28.193  19.281  1.00  0.00     0.364 C 
ATOM     42  O   UNL     1      16.431  27.290  20.104  1.00  0.00    -0.246 OA
BRANCH  41  43
ATOM     43  O   UNL     1      16.800  28.189  18.064  1.00  0.00    -0.477 OA
ATOM     44  H   UNL     1      16.315  28.255  17.171  1.00  0.00     0.296 HD
ENDBRANCH  41  43
ENDBRANCH   1  41
BRANCH   3  45
ATOM     45  O   UNL     1      12.572  29.728  21.976  1.00  0.00    -0.391 OA
ATOM     46  H   UNL     1      12.469  30.696  21.911  1.00  0.00     0.211 HD
ENDBRANCH   3  45
BRANCH   5  47
ATOM     47  C   UNL     1      17.097  31.436  21.672  1.00  0.00     0.176 C 
BRANCH  47  48
ATOM     48  O   UNL     1      17.606  31.159  22.933  1.00  0.00    -0.388 OA
ATOM     49  H   UNL     1      18.530  31.478  23.081  1.00  0.00     0.211 HD
ENDBRANCH  47  48
BRANCH  47  50
ATOM     50  C   UNL     1      18.166  31.743  20.713  1.00  0.00     0.165 C 
BRANCH  50  51
ATOM     51  O   UNL     1      17.502  32.429  19.630  1.00  0.00    -0.388 OA
ATOM     52  H   UNL     1      16.551  32.562  19.855  1.00  0.00     0.211 HD
ENDBRANCH  50  51
BRANCH  50  53
ATOM     53  C   UNL     1      18.722  30.514  20.009  1.00  0.00     0.154 C 
BRANCH  53  54
ATOM     54  N   UNL     1      19.352  29.566  20.886  1.00  0.00    -0.319 N 
ATOM     55  C   UNL     1      19.816  28.339  20.347  1.00  0.00     0.407 C 
ATOM     56  H   UNL     1      19.486  29.731  21.912  1.00  0.00     0.167 HD
ATOM     57  O   UNL     1      19.676  28.050  19.120  1.00  0.00    -0.225 OA
BRANCH  55  58
ATOM     58  O   UNL     1      20.443  27.405  21.150  1.00  0.00    -0.443 OA
BRANCH  58  59
ATOM     59  C   UNL     1      21.642  27.704  21.869  1.00  0.00     0.294 C 
BRANCH  59  60
ATOM     60  C   UNL     1      21.379  27.689  23.337  1.00  0.00     0.121 A 
ATOM     61  C   UNL     1      22.167  27.050  24.285  1.00  0.00     0.144 A 
ATOM     62  N   UNL     1      20.369  28.267  24.001  1.00  0.00    -0.131 NA
ATOM     63  N   UNL     1      21.613  27.259  25.486  1.00  0.00    -0.220 N 
ATOM     64  N   UNL     1      20.549  27.982  25.289  1.00  0.00    -0.062 NA
BRANCH  63  65
ATOM     65  C   UNL     1      22.172  26.736  26.693  1.00  0.00     0.066 A 
ATOM     66  C   UNL     1      23.375  26.076  26.695  1.00  0.00     0.030 A 
ATOM     67  C   UNL     1      21.514  26.886  27.882  1.00  0.00     0.030 A 
ATOM     68  C   UNL     1      23.947  25.554  27.857  1.00  0.00     0.023 A 
ATOM     69  C   UNL     1      22.059  26.378  29.053  1.00  0.00     0.023 A 
ATOM     70  C   UNL     1      23.282  25.708  29.045  1.00  0.00     0.041 A 
ATOM     71  Cl  UNL     1      23.964  25.065  30.542  1.00  0.00    -0.084 Cl
ENDBRANCH  63  65
ENDBRANCH  59  60
ENDBRANCH  58  59
ENDBRANCH  55  58
ENDBRANCH  53  54
ENDBRANCH  50  53
ENDBRANCH  47  50
ENDBRANCH   5  47
BRANCH   4  72
ATOM     72  N   UNL     1      14.633  31.309  23.150  1.00  0.00    -0.348 N 
ATOM     73  C   UNL     1      14.733  30.461  24.310  1.00  0.00     0.217 C 
ATOM     74  H   UNL     1      14.549  32.319  23.350  1.00  0.00     0.163 HD
ATOM     75  C   UNL     1      14.693  31.034  25.686  1.00  0.00     0.114 C 
ATOM     76  O   UNL     1      14.854  29.222  24.133  1.00  0.00    -0.275 OA
ENDBRANCH   4  72
TORSDOF 30
