REMARK VINA RESULT:    -6.439      3.643     10.490
REMARK INTER + INTRA:         -24.854
REMARK INTER:                 -16.697
REMARK INTRA:                  -8.157
REMARK UNBOUND:                -6.934
REMARK SMILES CCOCCc1c(-c2ccccc2)nc(N)nc1-n1cc(COC(=O)NC[C@@H](O)C(O)[C@@H]2O[C@@](OC[C@H]3O[C@@H](O[C@H]4[C@H](O)[C@@H](O)[C@H](OCCN=[N+]=[N-])O[C@@H]4CO)[C@H](O)[C@@H](O)[C@H]3O)(C(=O)O)C[C@H](O)[C@H]2NC(C)=O)nn1
REMARK SMILES IDX 30 1 32 2 34 3 66 4 33 5 67 6 69 7 35 8 36 9 37 10 39 11
REMARK SMILES IDX 38 12 57 13 59 14 61 15 40 16 41 17 54 18 53 19 46 20 42 21
REMARK SMILES IDX 44 22 55 23 56 24 47 26 48 27 49 28 50 29 51 30 52 31 43 32
REMARK SMILES IDX 45 34 58 36 60 38 62 40 63 42 64 43 65 44 68 46 70 48 71 49
REMARK SMILES IDX 72 51 73 52 31 53 28 55 29 56 27 58 26 59 24 60 25 62 23 63
REMARK SMILES IDX 22 64 21 65 20 66 74 67 19 68 75 69 18 70 17 71 6 72 15 73
REMARK SMILES IDX 7 74 14 75 5 76 4 77 3 78 2 79 1 80 16 81 8 84 9 85 13 86
REMARK SMILES IDX 10 87 12 88 11 89
REMARK H PARENT 56 25 43 33 45 35 58 37 60 39 62 41 65 45 68 47 70 50 31 54
REMARK H PARENT 29 57 26 61 16 82 16 83
REMARK Flexibility Score: inf
ROOT
ATOM      1  C   UNL     1       7.626  24.357  34.247  1.00  0.00     0.176 C 
ENDROOT
BRANCH   1   2
ATOM      2  C   UNL     1       9.097  24.386  34.534  1.00  0.00     0.178 C 
ATOM      3  C   UNL     1      10.468  23.857  36.356  1.00  0.00     0.272 C 
ATOM      4  C   UNL     1      11.555  24.263  35.358  1.00  0.00     0.113 C 
ATOM      5  O   UNL     1       9.255  23.718  35.786  1.00  0.00    -0.332 OA
ATOM      6  C   UNL     1      11.233  25.544  34.650  1.00  0.00     0.145 C 
ATOM      7  C   UNL     1       9.727  25.727  34.694  1.00  0.00     0.142 C 
BRANCH   3   8
ATOM      8  O   UNL     1      10.527  24.753  37.400  1.00  0.00    -0.338 OA
BRANCH   8   9
ATOM      9  C   UNL     1      11.724  24.828  38.061  1.00  0.00     0.199 C 
BRANCH   9  10
ATOM     10  C   UNL     1      11.547  25.050  39.556  1.00  0.00     0.179 C 
ATOM     11  C   UNL     1       9.830  24.587  41.066  1.00  0.00     0.282 C 
ATOM     12  O   UNL     1      10.211  25.030  39.832  1.00  0.00    -0.341 OA
ATOM     13  C   UNL     1      10.374  23.159  41.197  1.00  0.00     0.202 C 
ATOM     14  C   UNL     1      11.875  23.354  41.412  1.00  0.00     0.179 C 
ATOM     15  C   UNL     1      12.469  24.292  40.422  1.00  0.00     0.177 C 
BRANCH  11  16
ATOM     16  O   UNL     1       8.461  24.641  41.189  1.00  0.00    -0.341 OA
BRANCH  16  17
ATOM     17  C   UNL     1       7.824  24.731  39.962  1.00  0.00     0.184 C 
ATOM     18  C   UNL     1       6.999  25.970  39.868  1.00  0.00     0.178 C 
ATOM     19  O   UNL     1       5.649  25.808  39.852  1.00  0.00    -0.341 OA
ATOM     20  C   UNL     1       5.113  24.824  39.082  1.00  0.00     0.281 C 
ATOM     21  C   UNL     1       7.073  23.476  39.636  1.00  0.00     0.180 C 
ATOM     22  C   UNL     1       6.041  23.770  38.580  1.00  0.00     0.202 C 
BRANCH  18  23
ATOM     23  C   UNL     1       7.488  26.891  38.750  1.00  0.00     0.191 C 
BRANCH  23  24
ATOM     24  O   UNL     1       8.274  26.207  37.839  1.00  0.00    -0.394 OA
ATOM     25  H   UNL     1       9.215  26.295  38.137  1.00  0.00     0.210 HD
ENDBRANCH  23  24
ENDBRANCH  18  23
BRANCH  20  26
ATOM     26  O   UNL     1       4.484  25.430  37.999  1.00  0.00    -0.350 OA
BRANCH  26  27
ATOM     27  C   UNL     1       3.118  25.514  38.113  1.00  0.00     0.169 C 
BRANCH  27  28
ATOM     28  C   UNL     1       2.385  25.476  36.794  1.00  0.00     0.119 C 
BRANCH  28  29
ATOM     29  N   UNL     1       2.016  24.092  36.500  1.00  0.00    -0.092 NA
ATOM     30  N   UNL     1       2.862  23.258  36.156  1.00  0.00     0.001 N 
ATOM     31  N   UNL     1       3.787  22.584  35.706  1.00  0.00    -0.003 NA
ENDBRANCH  28  29
ENDBRANCH  27  28
ENDBRANCH  26  27
ENDBRANCH  20  26
BRANCH  21  32
ATOM     32  O   UNL     1       7.909  22.465  39.153  1.00  0.00    -0.387 OA
ATOM     33  H   UNL     1       8.366  22.736  38.312  1.00  0.00     0.211 HD
ENDBRANCH  21  32
BRANCH  22  34
ATOM     34  O   UNL     1       5.310  22.602  38.369  1.00  0.00    -0.385 OA
ATOM     35  H   UNL     1       4.703  22.673  37.590  1.00  0.00     0.211 HD
ENDBRANCH  22  34
ENDBRANCH  16  17
ENDBRANCH  11  16
BRANCH  13  36
ATOM     36  O   UNL     1       9.834  22.480  42.262  1.00  0.00    -0.385 OA
ATOM     37  H   UNL     1       9.229  23.059  42.802  1.00  0.00     0.211 HD
ENDBRANCH  13  36
BRANCH  14  38
ATOM     38  O   UNL     1      12.556  22.170  41.580  1.00  0.00    -0.387 OA
ATOM     39  H   UNL     1      12.013  21.495  42.089  1.00  0.00     0.211 HD
ENDBRANCH  14  38
BRANCH  15  40
ATOM     40  O   UNL     1      13.346  23.545  39.606  1.00  0.00    -0.387 OA
ATOM     41  H   UNL     1      13.074  23.649  38.658  1.00  0.00     0.211 HD
ENDBRANCH  15  40
ENDBRANCH   9  10
ENDBRANCH   8   9
ENDBRANCH   3   8
BRANCH   3  42
ATOM     42  C   UNL     1      10.928  22.515  36.835  1.00  0.00     0.364 C 
ATOM     43  O   UNL     1      11.998  22.085  36.276  1.00  0.00    -0.246 OA
BRANCH  42  44
ATOM     44  O   UNL     1      10.311  21.756  37.787  1.00  0.00    -0.477 OA
ATOM     45  H   UNL     1       9.508  21.188  37.531  1.00  0.00     0.296 HD
ENDBRANCH  42  44
ENDBRANCH   3  42
BRANCH   6  46
ATOM     46  O   UNL     1      11.900  26.570  35.337  1.00  0.00    -0.391 OA
ATOM     47  H   UNL     1      12.706  26.246  35.784  1.00  0.00     0.211 HD
ENDBRANCH   6  46
BRANCH   7  48
ATOM     48  N   UNL     1       9.296  26.757  33.801  1.00  0.00    -0.348 N 
ATOM     49  C   UNL     1       8.394  27.791  34.164  1.00  0.00     0.217 C 
ATOM     50  H   UNL     1       9.692  26.739  32.837  1.00  0.00     0.163 HD
ATOM     51  C   UNL     1       8.019  28.807  33.160  1.00  0.00     0.114 C 
ATOM     52  O   UNL     1       7.929  27.836  35.323  1.00  0.00    -0.275 OA
ENDBRANCH   7  48
ENDBRANCH   1   2
BRANCH   1  53
ATOM     53  O   UNL     1       7.002  24.858  35.440  1.00  0.00    -0.388 OA
ATOM     54  H   UNL     1       7.707  25.342  35.920  1.00  0.00     0.211 HD
ENDBRANCH   1  53
BRANCH   1  55
ATOM     55  C   UNL     1       6.984  23.063  33.947  1.00  0.00     0.165 C 
BRANCH  55  56
ATOM     56  O   UNL     1       8.049  22.208  33.538  1.00  0.00    -0.388 OA
ATOM     57  H   UNL     1       8.544  21.939  34.338  1.00  0.00     0.211 HD
ENDBRANCH  55  56
BRANCH  55  58
ATOM     58  C   UNL     1       5.941  23.031  32.911  1.00  0.00     0.154 C 
BRANCH  58  59
ATOM     59  N   UNL     1       5.778  24.208  32.148  1.00  0.00    -0.319 N 
ATOM     60  C   UNL     1       4.696  25.104  32.226  1.00  0.00     0.407 C 
ATOM     61  H   UNL     1       6.520  24.507  31.412  1.00  0.00     0.167 HD
ATOM     62  O   UNL     1       3.737  24.931  33.010  1.00  0.00    -0.225 OA
BRANCH  60  63
ATOM     63  O   UNL     1       4.619  26.254  31.433  1.00  0.00    -0.443 OA
BRANCH  63  64
ATOM     64  C   UNL     1       3.395  26.719  30.906  1.00  0.00     0.294 C 
BRANCH  64  65
ATOM     65  C   UNL     1       3.552  27.219  29.519  1.00  0.00     0.121 A 
ATOM     66  C   UNL     1       4.655  27.096  28.715  1.00  0.00     0.146 A 
ATOM     67  N   UNL     1       2.654  27.913  28.783  1.00  0.00    -0.131 NA
ATOM     68  N   UNL     1       4.409  27.720  27.502  1.00  0.00    -0.202 N 
ATOM     69  N   UNL     1       3.200  28.183  27.611  1.00  0.00    -0.060 NA
BRANCH  68  70
ATOM     70  C   UNL     1       5.420  27.735  26.526  1.00  0.00     0.164 A 
ATOM     71  N   UNL     1       5.931  26.551  26.104  1.00  0.00    -0.193 NA
ATOM     72  C   UNL     1       5.893  28.893  25.893  1.00  0.00     0.026 A 
ATOM     73  C   UNL     1       6.838  26.443  25.132  1.00  0.00     0.222 A 
ATOM     74  C   UNL     1       6.816  28.807  24.895  1.00  0.00     0.081 A 
ATOM     75  N   UNL     1       7.270  27.559  24.541  1.00  0.00    -0.213 NA
BRANCH  72  76
ATOM     76  C   UNL     1       5.417  30.164  26.453  1.00  0.00     0.070 C 
BRANCH  76  77
ATOM     77  C   UNL     1       6.214  30.657  27.642  1.00  0.00     0.165 C 
BRANCH  77  78
ATOM     78  O   UNL     1       6.438  31.997  27.725  1.00  0.00    -0.381 OA
BRANCH  78  79
ATOM     79  C   UNL     1       6.000  32.788  26.705  1.00  0.00     0.156 C 
ATOM     80  C   UNL     1       7.169  33.525  26.029  1.00  0.00     0.035 C 
ENDBRANCH  78  79
ENDBRANCH  77  78
ENDBRANCH  76  77
ENDBRANCH  72  76
BRANCH  73  81
ATOM     81  N   UNL     1       7.348  25.170  24.725  1.00  0.00    -0.368 N 
ATOM     82  H   UNL     1       7.275  24.349  25.359  1.00  0.00     0.159 HD
ATOM     83  H   UNL     1       7.797  25.014  23.807  1.00  0.00     0.159 HD
ENDBRANCH  73  81
BRANCH  74  84
ATOM     84  C   UNL     1       7.334  29.950  24.176  1.00  0.00     0.001 A 
ATOM     85  C   UNL     1       8.621  30.386  24.483  1.00  0.00     0.010 A 
ATOM     86  C   UNL     1       6.614  30.597  23.189  1.00  0.00     0.010 A 
ATOM     87  C   UNL     1       9.199  31.459  23.817  1.00  0.00     0.001 A 
ATOM     88  C   UNL     1       7.203  31.657  22.542  1.00  0.00     0.001 A 
ATOM     89  C   UNL     1       8.471  32.093  22.838  1.00  0.00     0.000 A 
ENDBRANCH  74  84
ENDBRANCH  68  70
ENDBRANCH  64  65
ENDBRANCH  63  64
ENDBRANCH  60  63
ENDBRANCH  58  59
ENDBRANCH  55  58
ENDBRANCH   1  55
TORSDOF 36
