REMARK VINA RESULT:    -6.239      6.447     12.763
REMARK INTER + INTRA:         -21.993
REMARK INTER:                 -14.414
REMARK INTRA:                  -7.579
REMARK UNBOUND:                -6.272
REMARK SMILES CC(=O)N[C@@H]1[C@@H](O)C[C@](OC[C@H]2O[C@@H](O[C@H]3[C@H](O)[C@@H](O)[C@H](OCCN=[N+]=[N-])O[C@@H]3CO)[C@H](O)[C@@H](O)[C@H]2O)(C(=O)O)O[C@H]1C(O)[C@H](O)CNC(=O)OCc1cn(Cc2cccc(Br)c2)nn1
REMARK SMILES IDX 9 1 8 2 6 3 5 4 42 5 41 6 10 7 11 8 12 9 14 10 13 11 32 12
REMARK SMILES IDX 34 13 36 14 15 15 16 16 29 17 28 18 21 19 17 20 19 21 30 22
REMARK SMILES IDX 31 23 22 25 23 26 24 27 25 28 26 29 27 30 18 31 20 33 33 35
REMARK SMILES IDX 35 37 37 39 38 41 39 42 40 43 7 45 43 47 44 48 45 50 46 51
REMARK SMILES IDX 47 53 48 54 49 55 50 57 51 58 52 59 53 60 54 61 65 62 55 63
REMARK SMILES IDX 64 64 56 65 57 66 58 67 63 68 59 69 61 70 60 71 62 72 4 73
REMARK SMILES IDX 2 74 1 76 3 77
REMARK H PARENT 31 24 18 32 20 34 33 36 35 38 37 40 40 44 7 46 44 49 46 52
REMARK H PARENT 48 56 4 75
REMARK Flexibility Score: inf
ROOT
ATOM      1  C   UNL     1      22.720  25.135  23.566  1.00  0.00     0.272 C 
ATOM      2  C   UNL     1      22.888  23.996  22.634  1.00  0.00     0.113 C 
ATOM      3  C   UNL     1      24.019  24.130  21.666  1.00  0.00     0.145 C 
ATOM      4  C   UNL     1      24.276  25.562  21.254  1.00  0.00     0.142 C 
ATOM      5  C   UNL     1      23.925  26.563  22.263  1.00  0.00     0.178 C 
ATOM      6  O   UNL     1      23.673  26.114  23.522  1.00  0.00    -0.332 OA
ENDROOT
BRANCH   1   7
ATOM      7  O   UNL     1      22.625  24.627  24.899  1.00  0.00    -0.338 OA
BRANCH   7   8
ATOM      8  C   UNL     1      23.838  24.547  25.519  1.00  0.00     0.199 C 
BRANCH   8   9
ATOM      9  C   UNL     1      23.683  24.759  27.040  1.00  0.00     0.179 C 
ATOM     10  C   UNL     1      24.698  26.075  28.691  1.00  0.00     0.282 C 
ATOM     11  O   UNL     1      24.793  25.431  27.435  1.00  0.00    -0.341 OA
ATOM     12  C   UNL     1      23.526  25.620  29.467  1.00  0.00     0.202 C 
ATOM     13  C   UNL     1      22.219  25.754  28.706  1.00  0.00     0.179 C 
ATOM     14  C   UNL     1      22.465  25.641  27.212  1.00  0.00     0.177 C 
BRANCH  10  15
ATOM     15  O   UNL     1      24.785  27.411  28.386  1.00  0.00    -0.341 OA
BRANCH  15  16
ATOM     16  C   UNL     1      25.931  27.846  27.824  1.00  0.00     0.184 C 
ATOM     17  C   UNL     1      26.550  28.896  28.710  1.00  0.00     0.178 C 
ATOM     18  O   UNL     1      27.812  29.212  28.215  1.00  0.00    -0.341 OA
ATOM     19  C   UNL     1      27.777  29.826  26.961  1.00  0.00     0.281 C 
ATOM     20  C   UNL     1      25.737  28.555  26.488  1.00  0.00     0.180 C 
ATOM     21  C   UNL     1      27.165  28.838  25.997  1.00  0.00     0.202 C 
BRANCH  17  22
ATOM     22  C   UNL     1      26.722  28.345  30.085  1.00  0.00     0.191 C 
BRANCH  22  23
ATOM     23  O   UNL     1      27.851  27.549  30.163  1.00  0.00    -0.394 OA
ATOM     24  H   UNL     1      27.711  26.769  29.566  1.00  0.00     0.210 HD
ENDBRANCH  22  23
ENDBRANCH  17  22
BRANCH  19  25
ATOM     25  O   UNL     1      29.083  30.145  26.654  1.00  0.00    -0.350 OA
BRANCH  25  26
ATOM     26  C   UNL     1      29.619  31.180  27.369  1.00  0.00     0.169 C 
BRANCH  26  27
ATOM     27  C   UNL     1      31.074  30.999  27.735  1.00  0.00     0.119 C 
BRANCH  27  28
ATOM     28  N   UNL     1      31.118  30.576  29.117  1.00  0.00    -0.092 NA
ATOM     29  N   UNL     1      30.885  29.437  29.496  1.00  0.00     0.001 N 
ATOM     30  N   UNL     1      30.771  28.242  29.759  1.00  0.00    -0.003 NA
ENDBRANCH  27  28
ENDBRANCH  26  27
ENDBRANCH  25  26
ENDBRANCH  19  25
BRANCH  20  31
ATOM     31  O   UNL     1      25.119  27.793  25.538  1.00  0.00    -0.387 OA
ATOM     32  H   UNL     1      25.218  26.822  25.647  1.00  0.00     0.211 HD
ENDBRANCH  20  31
BRANCH  21  33
ATOM     33  O   UNL     1      27.064  29.291  24.709  1.00  0.00    -0.385 OA
ATOM     34  H   UNL     1      27.811  28.952  24.118  1.00  0.00     0.211 HD
ENDBRANCH  21  33
ENDBRANCH  15  16
ENDBRANCH  10  15
BRANCH  12  35
ATOM     35  O   UNL     1      23.720  24.245  29.756  1.00  0.00    -0.385 OA
ATOM     36  H   UNL     1      23.549  23.713  28.936  1.00  0.00     0.211 HD
ENDBRANCH  12  35
BRANCH  13  37
ATOM     37  O   UNL     1      21.518  26.906  29.051  1.00  0.00    -0.387 OA
ATOM     38  H   UNL     1      22.031  27.383  29.781  1.00  0.00     0.211 HD
ENDBRANCH  13  37
BRANCH  14  39
ATOM     39  O   UNL     1      22.711  26.847  26.597  1.00  0.00    -0.387 OA
ATOM     40  H   UNL     1      22.091  26.975  25.816  1.00  0.00     0.211 HD
ENDBRANCH  14  39
ENDBRANCH   8   9
ENDBRANCH   7   8
ENDBRANCH   1   7
BRANCH   1  41
ATOM     41  C   UNL     1      21.383  25.758  23.335  1.00  0.00     0.364 C 
ATOM     42  O   UNL     1      20.939  26.608  24.187  1.00  0.00    -0.246 OA
BRANCH  41  43
ATOM     43  O   UNL     1      20.552  25.508  22.279  1.00  0.00    -0.477 OA
ATOM     44  H   UNL     1      19.538  25.559  22.445  1.00  0.00     0.296 HD
ENDBRANCH  41  43
ENDBRANCH   1  41
BRANCH   3  45
ATOM     45  O   UNL     1      25.160  23.481  22.115  1.00  0.00    -0.391 OA
ATOM     46  H   UNL     1      25.234  23.437  23.094  1.00  0.00     0.211 HD
ENDBRANCH   3  45
BRANCH   5  47
ATOM     47  C   UNL     1      24.941  27.714  22.334  1.00  0.00     0.176 C 
BRANCH  47  48
ATOM     48  O   UNL     1      25.713  27.604  21.108  1.00  0.00    -0.388 OA
ATOM     49  H   UNL     1      26.365  26.875  21.264  1.00  0.00     0.211 HD
ENDBRANCH  47  48
BRANCH  47  50
ATOM     50  C   UNL     1      24.350  29.076  22.330  1.00  0.00     0.165 C 
BRANCH  50  51
ATOM     51  O   UNL     1      23.482  29.094  23.486  1.00  0.00    -0.388 OA
ATOM     52  H   UNL     1      24.048  29.349  24.277  1.00  0.00     0.211 HD
ENDBRANCH  50  51
BRANCH  50  53
ATOM     53  C   UNL     1      23.437  29.440  21.208  1.00  0.00     0.154 C 
BRANCH  53  54
ATOM     54  N   UNL     1      22.069  29.709  21.624  1.00  0.00    -0.319 N 
ATOM     55  C   UNL     1      21.039  28.832  21.206  1.00  0.00     0.407 C 
ATOM     56  H   UNL     1      21.830  30.522  22.218  1.00  0.00     0.167 HD
ATOM     57  O   UNL     1      21.309  27.836  20.478  1.00  0.00    -0.225 OA
BRANCH  55  58
ATOM     58  O   UNL     1      19.713  29.042  21.585  1.00  0.00    -0.443 OA
BRANCH  58  59
ATOM     59  C   UNL     1      18.939  29.995  20.843  1.00  0.00     0.294 C 
BRANCH  59  60
ATOM     60  C   UNL     1      17.683  29.338  20.412  1.00  0.00     0.120 A 
ATOM     61  C   UNL     1      16.454  29.907  20.189  1.00  0.00     0.138 A 
ATOM     62  N   UNL     1      17.559  28.027  20.166  1.00  0.00    -0.132 NA
ATOM     63  N   UNL     1      15.622  28.917  19.813  1.00  0.00    -0.248 N 
ATOM     64  N   UNL     1      16.314  27.787  19.807  1.00  0.00    -0.067 NA
BRANCH  63  65
ATOM     65  C   UNL     1      14.212  29.090  19.478  1.00  0.00     0.181 C 
BRANCH  65  66
ATOM     66  C   UNL     1      13.473  29.758  20.581  1.00  0.00    -0.025 A 
ATOM     67  C   UNL     1      13.254  29.104  21.776  1.00  0.00     0.006 A 
ATOM     68  C   UNL     1      12.973  31.033  20.478  1.00  0.00     0.021 A 
ATOM     69  C   UNL     1      12.576  29.665  22.834  1.00  0.00     0.002 A 
ATOM     70  C   UNL     1      12.291  31.624  21.516  1.00  0.00     0.018 A 
ATOM     71  C   UNL     1      12.077  30.969  22.701  1.00  0.00     0.016 A 
ATOM     72  Br  UNL     1      11.594  33.401  21.377  1.00  0.00    -0.051 Br
ENDBRANCH  65  66
ENDBRANCH  63  65
ENDBRANCH  59  60
ENDBRANCH  58  59
ENDBRANCH  55  58
ENDBRANCH  53  54
ENDBRANCH  50  53
ENDBRANCH  47  50
ENDBRANCH   5  47
BRANCH   4  73
ATOM     73  N   UNL     1      23.559  25.836  19.981  1.00  0.00    -0.348 N 
ATOM     74  C   UNL     1      24.257  25.835  18.749  1.00  0.00     0.217 C 
ATOM     75  H   UNL     1      22.527  26.036  19.974  1.00  0.00     0.163 HD
ATOM     76  C   UNL     1      23.553  26.111  17.447  1.00  0.00     0.114 C 
ATOM     77  O   UNL     1      25.494  25.596  18.756  1.00  0.00    -0.275 OA
ENDBRANCH   4  73
TORSDOF 31
