REMARK VINA RESULT:    -5.446      7.580     14.373
REMARK INTER + INTRA:         -23.923
REMARK INTER:                 -14.704
REMARK INTRA:                  -9.219
REMARK UNBOUND:                -9.245
REMARK SMILES CC(=O)N[C@@H]1[C@@H](O)C[C@](OC[C@H]2O[C@@H](O[C@H]3[C@H](O)[C@@H](O)[C@H](OCCN=[N+]=[N-])O[C@@H]3CO)[C@H](O)[C@@H](O)[C@H]2O)(C(=O)O)O[C@H]1C(O)[C@H](O)CNC(=O)OCc1cn([C@@H](C)C(=O)OCc2ccccc2)nn1
REMARK SMILES IDX 43 1 42 2 9 3 8 4 41 5 6 6 5 7 10 8 11 9 12 10 14 11 13 12
REMARK SMILES IDX 32 13 34 14 36 15 15 16 16 17 29 18 28 19 21 20 17 21 19 22
REMARK SMILES IDX 30 23 31 24 22 26 23 27 24 28 25 29 26 30 27 31 18 32 20 34
REMARK SMILES IDX 33 36 35 38 37 40 38 42 39 43 40 44 7 46 4 48 2 49 1 51 3 52
REMARK SMILES IDX 44 53 45 55 46 56 47 58 48 59 49 60 50 62 51 63 52 64 53 65
REMARK SMILES IDX 54 66 69 67 55 68 68 69 56 70 57 71 58 72 59 73 60 74 61 75
REMARK SMILES IDX 62 76 63 77 67 78 64 79 66 80 65 81
REMARK H PARENT 31 25 18 33 20 35 33 37 35 39 37 41 40 45 7 47 4 50 44 54
REMARK H PARENT 46 57 48 61
REMARK Flexibility Score: inf
ROOT
ATOM      1  C   UNL     1      16.814  29.203  20.007  1.00  0.00     0.176 C 
ENDROOT
BRANCH   1   2
ATOM      2  C   UNL     1      15.812  29.996  20.751  1.00  0.00     0.178 C 
ATOM      3  C   UNL     1      16.931  32.008  21.137  1.00  0.00     0.272 C 
ATOM      4  C   UNL     1      16.925  31.702  22.586  1.00  0.00     0.113 C 
ATOM      5  O   UNL     1      15.812  31.346  20.517  1.00  0.00    -0.332 OA
ATOM      6  C   UNL     1      16.941  30.224  22.898  1.00  0.00     0.145 C 
ATOM      7  C   UNL     1      15.775  29.591  22.201  1.00  0.00     0.142 C 
BRANCH   3   8
ATOM      8  O   UNL     1      17.959  31.724  20.380  1.00  0.00    -0.338 OA
BRANCH   8   9
ATOM      9  C   UNL     1      18.974  32.418  19.955  1.00  0.00     0.199 C 
BRANCH   9  10
ATOM     10  C   UNL     1      20.318  32.417  20.627  1.00  0.00     0.179 C 
ATOM     11  C   UNL     1      21.197  32.240  22.775  1.00  0.00     0.282 C 
ATOM     12  O   UNL     1      20.155  32.671  21.957  1.00  0.00    -0.341 OA
ATOM     13  C   UNL     1      22.478  32.080  22.037  1.00  0.00     0.202 C 
ATOM     14  C   UNL     1      22.362  31.021  20.976  1.00  0.00     0.179 C 
ATOM     15  C   UNL     1      20.993  31.048  20.399  1.00  0.00     0.177 C 
BRANCH  11  16
ATOM     16  O   UNL     1      20.739  31.155  23.471  1.00  0.00    -0.341 OA
BRANCH  16  17
ATOM     17  C   UNL     1      21.285  30.970  24.706  1.00  0.00     0.184 C 
ATOM     18  C   UNL     1      20.975  29.574  25.184  1.00  0.00     0.178 C 
ATOM     19  O   UNL     1      21.395  29.420  26.510  1.00  0.00    -0.341 OA
ATOM     20  C   UNL     1      20.333  29.952  27.286  1.00  0.00     0.281 C 
ATOM     21  C   UNL     1      20.732  31.928  25.748  1.00  0.00     0.180 C 
ATOM     22  C   UNL     1      19.896  31.297  26.799  1.00  0.00     0.202 C 
BRANCH  18  23
ATOM     23  C   UNL     1      21.503  28.484  24.301  1.00  0.00     0.191 C 
BRANCH  23  24
ATOM     24  O   UNL     1      20.621  28.380  23.221  1.00  0.00    -0.394 OA
ATOM     25  H   UNL     1      20.599  29.193  22.662  1.00  0.00     0.210 HD
ENDBRANCH  23  24
ENDBRANCH  18  23
BRANCH  20  26
ATOM     26  O   UNL     1      20.717  29.917  28.589  1.00  0.00    -0.350 OA
BRANCH  26  27
ATOM     27  C   UNL     1      19.963  30.555  29.518  1.00  0.00     0.169 C 
BRANCH  27  28
ATOM     28  C   UNL     1      18.914  29.774  30.224  1.00  0.00     0.119 C 
BRANCH  28  29
ATOM     29  N   UNL     1      17.759  30.473  30.659  1.00  0.00    -0.092 NA
ATOM     30  N   UNL     1      16.683  30.389  30.079  1.00  0.00     0.001 N 
ATOM     31  N   UNL     1      15.530  30.215  29.642  1.00  0.00    -0.003 NA
ENDBRANCH  28  29
ENDBRANCH  27  28
ENDBRANCH  26  27
ENDBRANCH  20  26
BRANCH  21  32
ATOM     32  O   UNL     1      21.754  32.658  26.361  1.00  0.00    -0.387 OA
ATOM     33  H   UNL     1      22.559  32.739  25.802  1.00  0.00     0.211 HD
ENDBRANCH  21  32
BRANCH  22  34
ATOM     34  O   UNL     1      18.555  31.325  26.404  1.00  0.00    -0.385 OA
ATOM     35  H   UNL     1      18.072  30.689  26.996  1.00  0.00     0.211 HD
ENDBRANCH  22  34
ENDBRANCH  16  17
ENDBRANCH  11  16
BRANCH  13  36
ATOM     36  O   UNL     1      22.819  33.330  21.468  1.00  0.00    -0.385 OA
ATOM     37  H   UNL     1      23.505  33.105  20.768  1.00  0.00     0.211 HD
ENDBRANCH  13  36
BRANCH  14  38
ATOM     38  O   UNL     1      22.712  29.803  21.523  1.00  0.00    -0.387 OA
ATOM     39  H   UNL     1      21.953  29.159  21.532  1.00  0.00     0.211 HD
ENDBRANCH  14  38
BRANCH  15  40
ATOM     40  O   UNL     1      20.196  30.007  20.856  1.00  0.00    -0.387 OA
ATOM     41  H   UNL     1      19.357  30.389  21.261  1.00  0.00     0.211 HD
ENDBRANCH  15  40
ENDBRANCH   9  10
ENDBRANCH   8   9
ENDBRANCH   3   8
BRANCH   3  42
ATOM     42  C   UNL     1      16.463  33.441  20.977  1.00  0.00     0.364 C 
ATOM     43  O   UNL     1      16.716  34.305  21.827  1.00  0.00    -0.246 OA
BRANCH  42  44
ATOM     44  O   UNL     1      15.729  33.828  19.857  1.00  0.00    -0.477 OA
ATOM     45  H   UNL     1      16.127  33.932  18.929  1.00  0.00     0.296 HD
ENDBRANCH  42  44
ENDBRANCH   3  42
BRANCH   6  46
ATOM     46  O   UNL     1      18.153  29.617  22.581  1.00  0.00    -0.391 OA
ATOM     47  H   UNL     1      18.059  29.258  21.668  1.00  0.00     0.211 HD
ENDBRANCH   6  46
BRANCH   7  48
ATOM     48  N   UNL     1      14.548  30.037  22.849  1.00  0.00    -0.348 N 
ATOM     49  C   UNL     1      13.319  29.400  22.489  1.00  0.00     0.217 C 
ATOM     50  H   UNL     1      14.512  30.795  23.558  1.00  0.00     0.163 HD
ATOM     51  C   UNL     1      12.061  29.857  23.152  1.00  0.00     0.114 C 
ATOM     52  O   UNL     1      13.310  28.475  21.632  1.00  0.00    -0.275 OA
ENDBRANCH   7  48
ENDBRANCH   1   2
BRANCH   1  53
ATOM     53  O   UNL     1      16.751  27.862  20.458  1.00  0.00    -0.388 OA
ATOM     54  H   UNL     1      17.574  27.633  20.972  1.00  0.00     0.211 HD
ENDBRANCH   1  53
BRANCH   1  55
ATOM     55  C   UNL     1      16.517  29.090  18.503  1.00  0.00     0.165 C 
BRANCH  55  56
ATOM     56  O   UNL     1      15.226  28.748  18.251  1.00  0.00    -0.388 OA
ATOM     57  H   UNL     1      14.994  28.902  17.305  1.00  0.00     0.211 HD
ENDBRANCH  55  56
BRANCH  55  58
ATOM     58  C   UNL     1      17.559  28.268  17.814  1.00  0.00     0.154 C 
BRANCH  58  59
ATOM     59  N   UNL     1      18.868  28.575  18.319  1.00  0.00    -0.319 N 
ATOM     60  C   UNL     1      20.087  28.425  17.617  1.00  0.00     0.407 C 
ATOM     61  H   UNL     1      18.985  28.954  19.312  1.00  0.00     0.167 HD
ATOM     62  O   UNL     1      20.111  27.981  16.467  1.00  0.00    -0.225 OA
BRANCH  60  63
ATOM     63  O   UNL     1      21.310  28.778  18.208  1.00  0.00    -0.443 OA
BRANCH  63  64
ATOM     64  C   UNL     1      22.332  27.839  18.428  1.00  0.00     0.294 C 
BRANCH  64  65
ATOM     65  C   UNL     1      21.967  27.051  19.628  1.00  0.00     0.120 A 
ATOM     66  C   UNL     1      22.588  25.929  20.130  1.00  0.00     0.139 A 
ATOM     67  N   UNL     1      20.936  27.310  20.439  1.00  0.00    -0.132 NA
ATOM     68  N   UNL     1      21.914  25.527  21.243  1.00  0.00    -0.238 N 
ATOM     69  N   UNL     1      20.921  26.381  21.405  1.00  0.00    -0.066 NA
BRANCH  68  70
ATOM     70  C   UNL     1      22.308  24.367  22.002  1.00  0.00     0.215 C 
ATOM     71  C   UNL     1      23.695  23.895  21.607  1.00  0.00     0.046 C 
BRANCH  70  72
ATOM     72  C   UNL     1      22.283  24.670  23.478  1.00  0.00     0.331 C 
ATOM     73  O   UNL     1      21.262  24.398  24.132  1.00  0.00    -0.250 OA
BRANCH  72  74
ATOM     74  O   UNL     1      23.364  25.238  24.111  1.00  0.00    -0.459 OA
BRANCH  74  75
ATOM     75  C   UNL     1      24.258  24.555  24.955  1.00  0.00     0.268 C 
BRANCH  75  76
ATOM     76  C   UNL     1      24.071  24.861  26.388  1.00  0.00    -0.011 A 
ATOM     77  C   UNL     1      22.965  24.456  27.089  1.00  0.00     0.007 A 
ATOM     78  C   UNL     1      25.026  25.578  27.066  1.00  0.00     0.007 A 
ATOM     79  C   UNL     1      22.786  24.741  28.423  1.00  0.00     0.000 A 
ATOM     80  C   UNL     1      24.891  25.886  28.400  1.00  0.00     0.000 A 
ATOM     81  C   UNL     1      23.755  25.459  29.077  1.00  0.00     0.000 A 
ENDBRANCH  75  76
ENDBRANCH  74  75
ENDBRANCH  72  74
ENDBRANCH  70  72
ENDBRANCH  68  70
ENDBRANCH  64  65
ENDBRANCH  63  64
ENDBRANCH  60  63
ENDBRANCH  58  59
ENDBRANCH  55  58
ENDBRANCH   1  55
TORSDOF 34
