REMARK VINA RESULT:    -5.613      6.350      9.973
REMARK INTER + INTRA:         -22.378
REMARK INTER:                 -16.057
REMARK INTRA:                  -6.321
REMARK UNBOUND:                -8.561
REMARK SMILES CC(=O)N[C@@H]1[C@@H](O)C[C@](OC[C@H]2O[C@@H](O[C@H]3[C@H](O)[C@@H](O)[C@H](OCCN=[N+]=[N-])O[C@@H]3CO)[C@H](O)[C@@H](O)[C@H]2O)(C(=O)O)O[C@H]1C(O)[C@H](O)CNC(=O)OCc1cn(-c2cnc3ccccc3c2)nn1
REMARK SMILES IDX 9 1 8 2 6 3 5 4 42 5 41 6 10 7 11 8 12 9 14 10 13 11 32 12
REMARK SMILES IDX 34 13 36 14 15 15 16 16 29 17 28 18 21 19 17 20 19 21 30 22
REMARK SMILES IDX 31 23 22 25 23 26 24 27 25 28 26 29 27 30 18 31 20 33 33 35
REMARK SMILES IDX 35 37 37 39 38 41 39 42 40 43 7 45 43 47 44 48 45 50 46 51
REMARK SMILES IDX 47 53 48 54 49 55 50 57 51 58 52 59 53 60 54 61 67 62 55 63
REMARK SMILES IDX 66 64 56 65 57 66 65 67 58 68 64 69 59 70 63 71 60 72 62 73
REMARK SMILES IDX 61 74 4 75 2 76 1 78 3 79
REMARK H PARENT 31 24 18 32 20 34 33 36 35 38 37 40 40 44 7 46 44 49 46 52
REMARK H PARENT 48 56 4 77
REMARK Flexibility Score: inf
ROOT
ATOM      1  C   UNL     1      18.812  30.852  20.756  1.00  0.00     0.272 C 
ATOM      2  C   UNL     1      18.139  31.618  21.837  1.00  0.00     0.113 C 
ATOM      3  C   UNL     1      16.648  31.763  21.599  1.00  0.00     0.145 C 
ATOM      4  C   UNL     1      16.156  30.352  21.274  1.00  0.00     0.142 C 
ATOM      5  C   UNL     1      16.781  29.995  19.917  1.00  0.00     0.178 C 
ATOM      6  O   UNL     1      18.135  29.781  20.250  1.00  0.00    -0.332 OA
ENDROOT
BRANCH   1   7
ATOM      7  O   UNL     1      20.044  30.325  21.197  1.00  0.00    -0.338 OA
BRANCH   7   8
ATOM      8  C   UNL     1      20.069  29.973  22.518  1.00  0.00     0.199 C 
BRANCH   8   9
ATOM      9  C   UNL     1      20.942  28.745  22.671  1.00  0.00     0.179 C 
ATOM     10  C   UNL     1      21.868  27.267  24.163  1.00  0.00     0.282 C 
ATOM     11  O   UNL     1      20.810  28.120  23.894  1.00  0.00    -0.341 OA
ATOM     12  C   UNL     1      22.515  26.738  22.917  1.00  0.00     0.202 C 
ATOM     13  C   UNL     1      21.584  26.586  21.766  1.00  0.00     0.179 C 
ATOM     14  C   UNL     1      20.917  27.898  21.469  1.00  0.00     0.177 C 
BRANCH  10  15
ATOM     15  O   UNL     1      21.445  26.272  25.017  1.00  0.00    -0.341 OA
BRANCH  15  16
ATOM     16  C   UNL     1      22.152  26.252  26.220  1.00  0.00     0.184 C 
ATOM     17  C   UNL     1      22.701  24.888  26.559  1.00  0.00     0.178 C 
ATOM     18  O   UNL     1      22.470  24.456  27.828  1.00  0.00    -0.341 OA
ATOM     19  C   UNL     1      22.665  25.343  28.851  1.00  0.00     0.281 C 
ATOM     20  C   UNL     1      21.385  26.893  27.343  1.00  0.00     0.180 C 
ATOM     21  C   UNL     1      22.135  26.725  28.627  1.00  0.00     0.202 C 
BRANCH  17  22
ATOM     22  C   UNL     1      24.161  24.770  26.117  1.00  0.00     0.191 C 
BRANCH  22  23
ATOM     23  O   UNL     1      24.276  24.478  24.761  1.00  0.00    -0.394 OA
ATOM     24  H   UNL     1      23.832  23.643  24.510  1.00  0.00     0.210 HD
ENDBRANCH  22  23
ENDBRANCH  17  22
BRANCH  19  25
ATOM     25  O   UNL     1      23.981  25.363  29.318  1.00  0.00    -0.350 OA
BRANCH  25  26
ATOM     26  C   UNL     1      24.077  25.018  30.650  1.00  0.00     0.169 C 
BRANCH  26  27
ATOM     27  C   UNL     1      24.460  26.198  31.514  1.00  0.00     0.119 C 
BRANCH  27  28
ATOM     28  N   UNL     1      25.859  26.531  31.341  1.00  0.00    -0.092 NA
ATOM     29  N   UNL     1      26.764  25.780  31.706  1.00  0.00     0.001 N 
ATOM     30  N   UNL     1      27.622  24.897  31.692  1.00  0.00    -0.003 NA
ENDBRANCH  27  28
ENDBRANCH  26  27
ENDBRANCH  25  26
ENDBRANCH  19  25
BRANCH  20  31
ATOM     31  O   UNL     1      21.305  28.278  27.077  1.00  0.00    -0.387 OA
ATOM     32  H   UNL     1      21.875  28.781  27.719  1.00  0.00     0.211 HD
ENDBRANCH  20  31
BRANCH  21  33
ATOM     33  O   UNL     1      21.266  27.136  29.664  1.00  0.00    -0.385 OA
ATOM     34  H   UNL     1      21.209  28.137  29.674  1.00  0.00     0.211 HD
ENDBRANCH  21  33
ENDBRANCH  15  16
ENDBRANCH  10  15
BRANCH  12  35
ATOM     35  O   UNL     1      23.620  27.477  22.506  1.00  0.00    -0.385 OA
ATOM     36  H   UNL     1      23.406  28.435  22.405  1.00  0.00     0.211 HD
ENDBRANCH  12  35
BRANCH  13  37
ATOM     37  O   UNL     1      20.653  25.574  22.009  1.00  0.00    -0.387 OA
ATOM     38  H   UNL     1      20.504  25.061  21.197  1.00  0.00     0.211 HD
ENDBRANCH  13  37
BRANCH  14  39
ATOM     39  O   UNL     1      19.643  27.608  20.993  1.00  0.00    -0.387 OA
ATOM     40  H   UNL     1      19.234  26.834  21.424  1.00  0.00     0.211 HD
ENDBRANCH  14  39
ENDBRANCH   8   9
ENDBRANCH   7   8
ENDBRANCH   1   7
BRANCH   1  41
ATOM     41  C   UNL     1      19.068  31.786  19.606  1.00  0.00     0.364 C 
ATOM     42  O   UNL     1      19.858  31.455  18.663  1.00  0.00    -0.246 OA
BRANCH  41  43
ATOM     43  O   UNL     1      18.497  33.030  19.476  1.00  0.00    -0.477 OA
ATOM     44  H   UNL     1      18.743  33.829  20.080  1.00  0.00     0.296 HD
ENDBRANCH  41  43
ENDBRANCH   1  41
BRANCH   3  45
ATOM     45  O   UNL     1      15.991  32.299  22.680  1.00  0.00    -0.391 OA
ATOM     46  H   UNL     1      15.552  31.569  23.165  1.00  0.00     0.211 HD
ENDBRANCH   3  45
BRANCH   5  47
ATOM     47  C   UNL     1      16.280  28.669  19.412  1.00  0.00     0.176 C 
BRANCH  47  48
ATOM     48  O   UNL     1      16.676  27.689  20.360  1.00  0.00    -0.388 OA
ATOM     49  H   UNL     1      16.374  26.787  20.083  1.00  0.00     0.211 HD
ENDBRANCH  47  48
BRANCH  47  50
ATOM     50  C   UNL     1      16.889  28.224  18.090  1.00  0.00     0.165 C 
BRANCH  50  51
ATOM     51  O   UNL     1      18.176  27.725  18.500  1.00  0.00    -0.388 OA
ATOM     52  H   UNL     1      18.021  27.156  19.290  1.00  0.00     0.211 HD
ENDBRANCH  50  51
BRANCH  50  53
ATOM     53  C   UNL     1      17.258  29.427  17.249  1.00  0.00     0.154 C 
BRANCH  53  54
ATOM     54  N   UNL     1      18.628  29.584  16.935  1.00  0.00    -0.319 N 
ATOM     55  C   UNL     1      19.176  29.464  15.641  1.00  0.00     0.407 C 
ATOM     56  H   UNL     1      19.287  29.808  17.746  1.00  0.00     0.167 HD
ATOM     57  O   UNL     1      18.423  29.189  14.687  1.00  0.00    -0.225 OA
BRANCH  55  58
ATOM     58  O   UNL     1      20.530  29.656  15.489  1.00  0.00    -0.443 OA
BRANCH  58  59
ATOM     59  C   UNL     1      21.394  28.645  15.045  1.00  0.00     0.294 C 
BRANCH  59  60
ATOM     60  C   UNL     1      21.877  27.840  16.212  1.00  0.00     0.121 A 
ATOM     61  C   UNL     1      23.049  27.176  16.352  1.00  0.00     0.144 A 
ATOM     62  N   UNL     1      21.162  27.653  17.346  1.00  0.00    -0.131 NA
ATOM     63  N   UNL     1      23.016  26.601  17.569  1.00  0.00    -0.219 N 
ATOM     64  N   UNL     1      21.860  26.898  18.168  1.00  0.00    -0.062 NA
BRANCH  63  65
ATOM     65  C   UNL     1      24.065  25.802  18.109  1.00  0.00     0.085 A 
ATOM     66  C   UNL     1      25.098  25.415  17.317  1.00  0.00     0.140 A 
ATOM     67  C   UNL     1      24.006  25.442  19.446  1.00  0.00     0.040 A 
ATOM     68  N   UNL     1      26.085  24.665  17.845  1.00  0.00    -0.254 NA
ATOM     69  C   UNL     1      25.016  24.683  19.963  1.00  0.00     0.002 A 
ATOM     70  C   UNL     1      26.036  24.313  19.135  1.00  0.00     0.070 A 
ATOM     71  C   UNL     1      24.979  24.312  21.291  1.00  0.00     0.010 A 
ATOM     72  C   UNL     1      27.065  23.537  19.671  1.00  0.00     0.029 A 
ATOM     73  C   UNL     1      26.011  23.542  21.802  1.00  0.00     0.001 A 
ATOM     74  C   UNL     1      27.069  23.148  20.980  1.00  0.00     0.002 A 
ENDBRANCH  63  65
ENDBRANCH  59  60
ENDBRANCH  58  59
ENDBRANCH  55  58
ENDBRANCH  53  54
ENDBRANCH  50  53
ENDBRANCH  47  50
ENDBRANCH   5  47
BRANCH   4  75
ATOM     75  N   UNL     1      14.748  30.250  21.342  1.00  0.00    -0.348 N 
ATOM     76  C   UNL     1      14.106  29.714  22.520  1.00  0.00     0.217 C 
ATOM     77  H   UNL     1      14.095  30.555  20.592  1.00  0.00     0.163 HD
ATOM     78  C   UNL     1      12.649  29.601  22.606  1.00  0.00     0.114 C 
ATOM     79  O   UNL     1      14.867  29.349  23.466  1.00  0.00    -0.275 OA
ENDBRANCH   4  75
TORSDOF 30
