REMARK VINA RESULT:    -5.509      5.559      7.375
REMARK INTER + INTRA:         -20.738
REMARK INTER:                 -11.979
REMARK INTRA:                  -8.759
REMARK UNBOUND:                -6.855
REMARK SMILES CC(=O)N[C@@H]1[C@@H](O)C[C@](OC[C@H]2O[C@@H](O[C@H]3[C@H](O)[C@@H](O)[C@H](OCCN=[N+]=[N-])O[C@@H]3CO)[C@H](O)[C@@H](O)[C@H]2O)(C(=O)O)O[C@H]1C(O)[C@H](O)CNC(=O)OCc1cn(Cc2ccsc2)nn1
REMARK SMILES IDX 9 1 8 2 6 3 5 4 42 5 41 6 10 7 11 8 12 9 14 10 13 11 32 12
REMARK SMILES IDX 34 13 36 14 15 15 16 16 29 17 28 18 21 19 17 20 19 21 30 22
REMARK SMILES IDX 31 23 22 25 23 26 24 27 25 28 26 29 27 30 18 31 20 33 33 35
REMARK SMILES IDX 35 37 37 39 38 41 39 42 40 43 7 45 43 47 44 48 45 50 46 51
REMARK SMILES IDX 47 53 48 54 49 55 50 57 51 58 52 59 53 60 54 61 63 62 55 63
REMARK SMILES IDX 62 64 56 65 57 66 58 67 61 68 59 69 60 70 4 71 2 72 1 74
REMARK SMILES IDX 3 75
REMARK H PARENT 31 24 18 32 20 34 33 36 35 38 37 40 40 44 7 46 44 49 46 52
REMARK H PARENT 48 56 4 73
REMARK Flexibility Score: inf
ROOT
ATOM      1  C   UNL     1      22.041  26.799  21.003  1.00  0.00     0.272 C 
ATOM      2  C   UNL     1      21.079  25.813  21.594  1.00  0.00     0.113 C 
ATOM      3  C   UNL     1      21.597  25.059  22.789  1.00  0.00     0.145 C 
ATOM      4  C   UNL     1      22.337  25.914  23.742  1.00  0.00     0.142 C 
ATOM      5  C   UNL     1      23.003  27.127  23.121  1.00  0.00     0.178 C 
ATOM      6  O   UNL     1      22.348  27.705  22.093  1.00  0.00    -0.332 OA
ENDROOT
BRANCH   1   7
ATOM      7  O   UNL     1      21.391  27.617  20.148  1.00  0.00    -0.338 OA
BRANCH   7   8
ATOM      8  C   UNL     1      21.911  28.666  19.537  1.00  0.00     0.199 C 
BRANCH   8   9
ATOM      9  C   UNL     1      21.274  29.988  19.432  1.00  0.00     0.179 C 
ATOM     10  C   UNL     1      19.688  30.972  18.132  1.00  0.00     0.282 C 
ATOM     11  O   UNL     1      20.005  29.756  18.780  1.00  0.00    -0.341 OA
ATOM     12  C   UNL     1      19.812  32.155  19.029  1.00  0.00     0.202 C 
ATOM     13  C   UNL     1      20.093  31.878  20.461  1.00  0.00     0.179 C 
ATOM     14  C   UNL     1      20.827  30.600  20.749  1.00  0.00     0.177 C 
BRANCH  10  15
ATOM     15  O   UNL     1      18.445  30.834  17.568  1.00  0.00    -0.341 OA
BRANCH  15  16
ATOM     16  C   UNL     1      17.501  30.228  18.415  1.00  0.00     0.184 C 
ATOM     17  C   UNL     1      17.050  28.909  17.896  1.00  0.00     0.178 C 
ATOM     18  O   UNL     1      15.897  28.878  17.176  1.00  0.00    -0.341 OA
ATOM     19  C   UNL     1      15.316  30.134  16.930  1.00  0.00     0.281 C 
ATOM     20  C   UNL     1      16.415  31.176  18.813  1.00  0.00     0.180 C 
ATOM     21  C   UNL     1      15.045  30.725  18.286  1.00  0.00     0.202 C 
BRANCH  17  22
ATOM     22  C   UNL     1      16.962  27.852  18.986  1.00  0.00     0.191 C 
BRANCH  22  23
ATOM     23  O   UNL     1      17.927  28.176  19.939  1.00  0.00    -0.394 OA
ATOM     24  H   UNL     1      17.701  29.027  20.418  1.00  0.00     0.210 HD
ENDBRANCH  22  23
ENDBRANCH  17  22
BRANCH  19  25
ATOM     25  O   UNL     1      14.214  29.927  16.146  1.00  0.00    -0.350 OA
BRANCH  25  26
ATOM     26  C   UNL     1      14.370  30.326  14.833  1.00  0.00     0.169 C 
BRANCH  26  27
ATOM     27  C   UNL     1      14.355  29.232  13.815  1.00  0.00     0.119 C 
BRANCH  27  28
ATOM     28  N   UNL     1      15.442  28.315  14.021  1.00  0.00    -0.092 NA
ATOM     29  N   UNL     1      16.579  28.666  13.670  1.00  0.00     0.001 N 
ATOM     30  N   UNL     1      17.796  28.778  13.518  1.00  0.00    -0.003 NA
ENDBRANCH  27  28
ENDBRANCH  26  27
ENDBRANCH  25  26
ENDBRANCH  19  25
BRANCH  20  31
ATOM     31  O   UNL     1      16.358  31.444  20.164  1.00  0.00    -0.387 OA
ATOM     32  H   UNL     1      15.600  30.990  20.588  1.00  0.00     0.211 HD
ENDBRANCH  20  31
BRANCH  21  33
ATOM     33  O   UNL     1      14.134  31.748  18.248  1.00  0.00    -0.385 OA
ATOM     34  H   UNL     1      13.192  31.424  18.264  1.00  0.00     0.211 HD
ENDBRANCH  21  33
ENDBRANCH  15  16
ENDBRANCH  10  15
BRANCH  12  35
ATOM     35  O   UNL     1      20.711  33.116  18.497  1.00  0.00    -0.385 OA
ATOM     36  H   UNL     1      20.323  33.517  17.675  1.00  0.00     0.211 HD
ENDBRANCH  12  35
BRANCH  13  37
ATOM     37  O   UNL     1      18.870  31.811  21.158  1.00  0.00    -0.387 OA
ATOM     38  H   UNL     1      19.063  31.851  22.123  1.00  0.00     0.211 HD
ENDBRANCH  13  37
BRANCH  14  39
ATOM     39  O   UNL     1      19.948  29.641  21.310  1.00  0.00    -0.387 OA
ATOM     40  H   UNL     1      20.222  28.772  20.881  1.00  0.00     0.211 HD
ENDBRANCH  14  39
ENDBRANCH   8   9
ENDBRANCH   7   8
ENDBRANCH   1   7
BRANCH   1  41
ATOM     41  C   UNL     1      23.342  26.247  20.625  1.00  0.00     0.364 C 
ATOM     42  O   UNL     1      23.493  25.089  20.192  1.00  0.00    -0.246 OA
BRANCH  41  43
ATOM     43  O   UNL     1      24.529  26.996  20.730  1.00  0.00    -0.477 OA
ATOM     44  H   UNL     1      24.502  27.995  20.882  1.00  0.00     0.296 HD
ENDBRANCH  41  43
ENDBRANCH   1  41
BRANCH   3  45
ATOM     45  O   UNL     1      20.424  24.589  23.441  1.00  0.00    -0.391 OA
ATOM     46  H   UNL     1      19.737  24.340  22.762  1.00  0.00     0.211 HD
ENDBRANCH   3  45
BRANCH   5  47
ATOM     47  C   UNL     1      23.090  28.225  24.210  1.00  0.00     0.176 C 
BRANCH  47  48
ATOM     48  O   UNL     1      22.010  28.084  25.079  1.00  0.00    -0.388 OA
ATOM     49  H   UNL     1      22.105  28.704  25.837  1.00  0.00     0.211 HD
ENDBRANCH  47  48
BRANCH  47  50
ATOM     50  C   UNL     1      22.979  29.545  23.536  1.00  0.00     0.165 C 
BRANCH  50  51
ATOM     51  O   UNL     1      24.247  29.953  23.123  1.00  0.00    -0.388 OA
ATOM     52  H   UNL     1      24.888  29.202  23.151  1.00  0.00     0.211 HD
ENDBRANCH  50  51
BRANCH  50  53
ATOM     53  C   UNL     1      22.400  30.641  24.392  1.00  0.00     0.154 C 
BRANCH  53  54
ATOM     54  N   UNL     1      21.121  31.100  23.938  1.00  0.00    -0.319 N 
ATOM     55  C   UNL     1      19.885  30.715  24.471  1.00  0.00     0.407 C 
ATOM     56  H   UNL     1      21.112  31.790  23.128  1.00  0.00     0.167 HD
ATOM     57  O   UNL     1      19.857  29.906  25.423  1.00  0.00    -0.225 OA
BRANCH  55  58
ATOM     58  O   UNL     1      18.725  31.234  23.937  1.00  0.00    -0.443 OA
BRANCH  58  59
ATOM     59  C   UNL     1      17.454  31.052  24.491  1.00  0.00     0.294 C 
BRANCH  59  60
ATOM     60  C   UNL     1      16.611  30.301  23.538  1.00  0.00     0.120 A 
ATOM     61  C   UNL     1      15.267  30.110  23.611  1.00  0.00     0.138 A 
ATOM     62  N   UNL     1      17.057  29.685  22.433  1.00  0.00    -0.132 NA
ATOM     63  N   UNL     1      14.916  29.375  22.542  1.00  0.00    -0.248 N 
ATOM     64  N   UNL     1      16.001  29.124  21.838  1.00  0.00    -0.067 NA
BRANCH  63  65
ATOM     65  C   UNL     1      13.576  28.945  22.234  1.00  0.00     0.182 C 
BRANCH  65  66
ATOM     66  C   UNL     1      12.641  30.156  22.345  1.00  0.00    -0.016 A 
ATOM     67  C   UNL     1      11.776  30.326  23.325  1.00  0.00     0.017 A 
ATOM     68  C   UNL     1      12.725  31.120  21.342  1.00  0.00     0.070 A 
ATOM     69  C   UNL     1      10.956  31.438  23.376  1.00  0.00     0.065 A 
ATOM     70  S   UNL     1      11.485  32.321  21.861  1.00  0.00    -0.152 S 
ENDBRANCH  65  66
ENDBRANCH  63  65
ENDBRANCH  59  60
ENDBRANCH  58  59
ENDBRANCH  55  58
ENDBRANCH  53  54
ENDBRANCH  50  53
ENDBRANCH  47  50
ENDBRANCH   5  47
BRANCH   4  71
ATOM     71  N   UNL     1      23.327  25.232  24.520  1.00  0.00    -0.348 N 
ATOM     72  C   UNL     1      23.175  24.983  25.909  1.00  0.00     0.217 C 
ATOM     73  H   UNL     1      24.204  24.893  24.067  1.00  0.00     0.163 HD
ATOM     74  C   UNL     1      24.202  24.271  26.730  1.00  0.00     0.114 C 
ATOM     75  O   UNL     1      22.100  25.408  26.424  1.00  0.00    -0.275 OA
ENDBRANCH   4  71
TORSDOF 31
