REMARK VINA RESULT:    -6.425     17.331     20.682
REMARK INTER + INTRA:         -22.027
REMARK INTER:                 -14.246
REMARK INTRA:                  -7.781
REMARK UNBOUND:                -5.460
REMARK SMILES CC(=O)N[C@@H]1[C@@H](O)C[C@](OC[C@H]2O[C@@H](O[C@H]3[C@H](O)[C@@H](O)[C@H](OCCN=[N+]=[N-])O[C@@H]3CO)[C@H](O)[C@@H](O)[C@H]2O)(C(=O)O)O[C@H]1C(O)[C@H](O)CNC(=O)OCc1cn(C(c2ccccc2)c2ccccc2)nn1
REMARK SMILES IDX 9 1 8 2 6 3 5 4 42 5 41 6 10 7 11 8 12 9 14 10 13 11 32 12
REMARK SMILES IDX 34 13 36 14 15 15 16 16 29 17 28 18 21 19 17 20 19 21 30 22
REMARK SMILES IDX 31 23 22 25 23 26 24 27 25 28 26 29 27 30 18 31 20 33 33 35
REMARK SMILES IDX 35 37 37 39 38 41 39 42 40 43 7 45 43 47 44 48 45 50 46 51
REMARK SMILES IDX 47 53 48 54 49 55 50 57 51 58 52 59 53 60 54 61 70 62 55 63
REMARK SMILES IDX 69 64 56 65 57 66 58 67 62 68 59 69 61 70 60 71 63 72 64 73
REMARK SMILES IDX 68 74 65 75 67 76 66 77 4 78 2 79 1 81 3 82
REMARK H PARENT 31 24 18 32 20 34 33 36 35 38 37 40 40 44 7 46 44 49 46 52
REMARK H PARENT 48 56 4 80
REMARK Flexibility Score: inf
ROOT
ATOM      1  C   UNL     1       6.263  24.008  34.412  1.00  0.00     0.272 C 
ATOM      2  C   UNL     1       6.565  24.767  35.721  1.00  0.00     0.113 C 
ATOM      3  C   UNL     1       7.465  25.901  35.447  1.00  0.00     0.145 C 
ATOM      4  C   UNL     1       6.833  26.826  34.438  1.00  0.00     0.142 C 
ATOM      5  C   UNL     1       5.790  26.172  33.609  1.00  0.00     0.178 C 
ATOM      6  O   UNL     1       5.930  24.837  33.410  1.00  0.00    -0.332 OA
ENDROOT
BRANCH   1   7
ATOM      7  O   UNL     1       5.193  23.135  34.672  1.00  0.00    -0.338 OA
BRANCH   7   8
ATOM      8  C   UNL     1       4.613  23.394  35.886  1.00  0.00     0.199 C 
BRANCH   8   9
ATOM      9  C   UNL     1       3.171  22.897  35.961  1.00  0.00     0.179 C 
ATOM     10  C   UNL     1       2.826  20.731  35.024  1.00  0.00     0.282 C 
ATOM     11  O   UNL     1       2.882  22.076  34.987  1.00  0.00    -0.341 OA
ATOM     12  C   UNL     1       3.211  20.120  36.285  1.00  0.00     0.202 C 
ATOM     13  C   UNL     1       2.903  20.926  37.499  1.00  0.00     0.179 C 
ATOM     14  C   UNL     1       2.832  22.396  37.346  1.00  0.00     0.177 C 
BRANCH  10  15
ATOM     15  O   UNL     1       3.615  20.341  33.898  1.00  0.00    -0.341 OA
BRANCH  15  16
ATOM     16  C   UNL     1       3.048  20.729  32.722  1.00  0.00     0.184 C 
ATOM     17  C   UNL     1       2.640  19.568  31.886  1.00  0.00     0.178 C 
ATOM     18  O   UNL     1       1.871  20.000  30.797  1.00  0.00    -0.341 OA
ATOM     19  C   UNL     1       2.667  20.649  29.894  1.00  0.00     0.281 C 
ATOM     20  C   UNL     1       4.018  21.543  31.875  1.00  0.00     0.180 C 
ATOM     21  C   UNL     1       3.932  21.165  30.449  1.00  0.00     0.202 C 
BRANCH  17  22
ATOM     22  C   UNL     1       1.935  18.456  32.636  1.00  0.00     0.191 C 
BRANCH  22  23
ATOM     23  O   UNL     1       2.868  17.758  33.397  1.00  0.00    -0.394 OA
ATOM     24  H   UNL     1       2.556  16.881  33.703  1.00  0.00     0.210 HD
ENDBRANCH  22  23
ENDBRANCH  17  22
BRANCH  19  25
ATOM     25  O   UNL     1       1.956  21.629  29.182  1.00  0.00    -0.350 OA
BRANCH  25  26
ATOM     26  C   UNL     1       0.718  21.919  29.678  1.00  0.00     0.169 C 
BRANCH  26  27
ATOM     27  C   UNL     1       0.564  23.417  29.806  1.00  0.00     0.119 C 
BRANCH  27  28
ATOM     28  N   UNL     1       1.294  23.940  30.958  1.00  0.00    -0.092 NA
ATOM     29  N   UNL     1       0.988  24.993  31.503  1.00  0.00     0.001 N 
ATOM     30  N   UNL     1       0.821  26.192  31.757  1.00  0.00    -0.003 NA
ENDBRANCH  27  28
ENDBRANCH  26  27
ENDBRANCH  25  26
ENDBRANCH  19  25
BRANCH  20  31
ATOM     31  O   UNL     1       3.758  22.889  32.139  1.00  0.00    -0.387 OA
ATOM     32  H   UNL     1       3.964  23.463  31.353  1.00  0.00     0.211 HD
ENDBRANCH  20  31
BRANCH  21  33
ATOM     33  O   UNL     1       4.982  20.236  30.187  1.00  0.00    -0.385 OA
ATOM     34  H   UNL     1       4.848  19.500  30.847  1.00  0.00     0.211 HD
ENDBRANCH  21  33
ENDBRANCH  15  16
ENDBRANCH  10  15
BRANCH  12  35
ATOM     35  O   UNL     1       2.600  18.859  36.509  1.00  0.00    -0.385 OA
ATOM     36  H   UNL     1       2.501  18.786  37.489  1.00  0.00     0.211 HD
ENDBRANCH  12  35
BRANCH  13  37
ATOM     37  O   UNL     1       3.809  20.631  38.550  1.00  0.00    -0.387 OA
ATOM     38  H   UNL     1       3.311  20.590  39.408  1.00  0.00     0.211 HD
ENDBRANCH  13  37
BRANCH  14  39
ATOM     39  O   UNL     1       3.768  22.995  38.204  1.00  0.00    -0.387 OA
ATOM     40  H   UNL     1       4.540  22.406  38.378  1.00  0.00     0.211 HD
ENDBRANCH  14  39
ENDBRANCH   8   9
ENDBRANCH   7   8
ENDBRANCH   1   7
BRANCH   1  41
ATOM     41  C   UNL     1       7.465  23.222  34.133  1.00  0.00     0.364 C 
ATOM     42  O   UNL     1       7.509  22.432  33.171  1.00  0.00    -0.246 OA
BRANCH  41  43
ATOM     43  O   UNL     1       8.616  23.311  34.921  1.00  0.00    -0.477 OA
ATOM     44  H   UNL     1       9.163  22.491  35.136  1.00  0.00     0.296 HD
ENDBRANCH  41  43
ENDBRANCH   1  41
BRANCH   3  45
ATOM     45  O   UNL     1       7.651  26.588  36.666  1.00  0.00    -0.391 OA
ATOM     46  H   UNL     1       8.601  26.564  36.942  1.00  0.00     0.211 HD
ENDBRANCH   3  45
BRANCH   5  47
ATOM     47  C   UNL     1       4.361  26.491  33.946  1.00  0.00     0.176 C 
BRANCH  47  48
ATOM     48  O   UNL     1       3.585  25.465  33.366  1.00  0.00    -0.388 OA
ATOM     49  H   UNL     1       2.672  25.438  33.701  1.00  0.00     0.211 HD
ENDBRANCH  47  48
BRANCH  47  50
ATOM     50  C   UNL     1       3.842  27.792  33.452  1.00  0.00     0.165 C 
BRANCH  50  51
ATOM     51  O   UNL     1       2.456  27.741  33.542  1.00  0.00    -0.388 OA
ATOM     52  H   UNL     1       2.030  27.331  32.745  1.00  0.00     0.211 HD
ENDBRANCH  50  51
BRANCH  50  53
ATOM     53  C   UNL     1       4.240  28.178  32.070  1.00  0.00     0.154 C 
BRANCH  53  54
ATOM     54  N   UNL     1       3.585  27.489  31.005  1.00  0.00    -0.319 N 
ATOM     55  C   UNL     1       4.139  26.574  30.104  1.00  0.00     0.407 C 
ATOM     56  H   UNL     1       2.542  27.691  30.872  1.00  0.00     0.167 HD
ATOM     57  O   UNL     1       5.339  26.285  30.166  1.00  0.00    -0.225 OA
BRANCH  55  58
ATOM     58  O   UNL     1       3.362  25.966  29.121  1.00  0.00    -0.443 OA
BRANCH  58  59
ATOM     59  C   UNL     1       2.522  26.771  28.278  1.00  0.00     0.294 C 
BRANCH  59  60
ATOM     60  C   UNL     1       3.302  27.166  27.079  1.00  0.00     0.120 A 
ATOM     61  C   UNL     1       4.193  28.200  27.067  1.00  0.00     0.139 A 
ATOM     62  N   UNL     1       3.253  26.586  25.883  1.00  0.00    -0.132 NA
ATOM     63  N   UNL     1       4.689  28.234  25.818  1.00  0.00    -0.240 N 
ATOM     64  N   UNL     1       4.113  27.253  25.114  1.00  0.00    -0.066 NA
BRANCH  63  65
ATOM     65  C   UNL     1       5.680  29.121  25.246  1.00  0.00     0.169 C 
BRANCH  65  66
ATOM     66  C   UNL     1       6.978  28.434  25.282  1.00  0.00    -0.019 A 
ATOM     67  C   UNL     1       8.083  28.989  24.669  1.00  0.00     0.006 A 
ATOM     68  C   UNL     1       7.163  27.216  25.900  1.00  0.00     0.006 A 
ATOM     69  C   UNL     1       9.315  28.349  24.677  1.00  0.00     0.000 A 
ATOM     70  C   UNL     1       8.394  26.565  25.914  1.00  0.00     0.000 A 
ATOM     71  C   UNL     1       9.489  27.135  25.295  1.00  0.00     0.000 A 
ENDBRANCH  65  66
BRANCH  65  72
ATOM     72  C   UNL     1       5.651  30.434  25.921  1.00  0.00    -0.019 A 
ATOM     73  C   UNL     1       4.746  31.373  25.438  1.00  0.00     0.006 A 
ATOM     74  C   UNL     1       6.460  30.799  26.957  1.00  0.00     0.006 A 
ATOM     75  C   UNL     1       4.675  32.623  25.993  1.00  0.00     0.000 A 
ATOM     76  C   UNL     1       6.394  32.060  27.523  1.00  0.00     0.000 A 
ATOM     77  C   UNL     1       5.499  32.980  27.041  1.00  0.00     0.000 A 
ENDBRANCH  65  72
ENDBRANCH  63  65
ENDBRANCH  59  60
ENDBRANCH  58  59
ENDBRANCH  55  58
ENDBRANCH  53  54
ENDBRANCH  50  53
ENDBRANCH  47  50
ENDBRANCH   5  47
BRANCH   4  78
ATOM     78  N   UNL     1       7.951  27.266  33.581  1.00  0.00    -0.348 N 
ATOM     79  C   UNL     1       8.805  28.346  33.942  1.00  0.00     0.217 C 
ATOM     80  H   UNL     1       8.158  26.792  32.667  1.00  0.00     0.163 HD
ATOM     81  C   UNL     1       9.938  28.768  33.049  1.00  0.00     0.114 C 
ATOM     82  O   UNL     1       8.641  28.973  35.010  1.00  0.00    -0.275 OA
ENDBRANCH   4  78
TORSDOF 32
