REMARK VINA RESULT:    -6.230      0.000      0.000
REMARK INTER + INTRA:         -22.818
REMARK INTER:                 -17.033
REMARK INTRA:                  -5.786
REMARK UNBOUND:                -6.938
REMARK SMILES CC(=O)N[C@@H]1[C@@H](O)C[C@](OC[C@H]2O[C@@H](O[C@H]3[C@H](O)[C@@H](O)[C@H](OCCN=[N+]=[N-])O[C@@H]3CO)[C@H](O)[C@@H](O)[C@H]2O)(C(=O)O)O[C@H]1C(O)[C@H](O)CNC(=O)OCc1cn(Cc2cc(Br)cc(Br)c2O)nn1
REMARK SMILES IDX 9 1 8 2 6 3 5 4 42 5 41 6 10 7 11 8 12 9 14 10 13 11 32 12
REMARK SMILES IDX 34 13 36 14 15 15 16 16 29 17 28 18 21 19 17 20 19 21 30 22
REMARK SMILES IDX 31 23 22 25 23 26 24 27 25 28 26 29 27 30 18 31 20 33 33 35
REMARK SMILES IDX 35 37 37 39 38 41 39 42 40 43 7 45 43 47 44 48 45 50 46 51
REMARK SMILES IDX 47 53 48 54 49 55 50 57 51 58 52 59 53 60 54 61 67 62 55 63
REMARK SMILES IDX 66 64 56 65 57 66 58 67 64 68 59 69 62 70 60 71 61 72 63 73
REMARK SMILES IDX 65 74 4 76 2 77 1 79 3 80
REMARK H PARENT 31 24 18 32 20 34 33 36 35 38 37 40 40 44 7 46 44 49 46 52
REMARK H PARENT 48 56 65 75 4 78
REMARK Flexibility Score: inf
ROOT
ATOM      1  C   UNL     1      22.994  25.706  24.869  1.00  0.00     0.272 C 
ATOM      2  C   UNL     1      22.463  24.617  25.919  1.00  0.00     0.113 C 
ATOM      3  C   UNL     1      23.138  24.797  27.217  1.00  0.00     0.145 C 
ATOM      4  C   UNL     1      22.953  26.207  27.713  1.00  0.00     0.142 C 
ATOM      5  C   UNL     1      22.590  27.214  26.664  1.00  0.00     0.178 C 
ATOM      6  O   UNL     1      22.695  26.922  25.373  1.00  0.00    -0.332 OA
ENDROOT
BRANCH   1   7
ATOM      7  O   UNL     1      22.199  25.406  23.816  1.00  0.00    -0.338 OA
BRANCH   7   8
ATOM      8  C   UNL     1      22.518  25.498  22.539  1.00  0.00     0.199 C 
BRANCH   8   9
ATOM      9  C   UNL     1      22.897  26.796  21.916  1.00  0.00     0.179 C 
ATOM     10  C   UNL     1      23.675  25.966  19.882  1.00  0.00     0.282 C 
ATOM     11  O   UNL     1      23.894  26.693  21.007  1.00  0.00    -0.341 OA
ATOM     12  C   UNL     1      22.329  26.217  19.285  1.00  0.00     0.202 C 
ATOM     13  C   UNL     1      21.732  27.486  19.830  1.00  0.00     0.179 C 
ATOM     14  C   UNL     1      21.683  27.520  21.329  1.00  0.00     0.177 C 
BRANCH  10  15
ATOM     15  O   UNL     1      23.948  24.606  20.097  1.00  0.00    -0.341 OA
BRANCH  15  16
ATOM     16  C   UNL     1      25.108  24.162  19.503  1.00  0.00     0.184 C 
ATOM     17  C   UNL     1      26.312  24.937  19.987  1.00  0.00     0.178 C 
ATOM     18  O   UNL     1      27.449  24.725  19.261  1.00  0.00    -0.341 OA
ATOM     19  C   UNL     1      27.437  23.639  18.405  1.00  0.00     0.281 C 
ATOM     20  C   UNL     1      25.088  24.407  17.990  1.00  0.00     0.180 C 
ATOM     21  C   UNL     1      26.280  23.658  17.444  1.00  0.00     0.202 C 
BRANCH  17  22
ATOM     22  C   UNL     1      26.585  24.730  21.462  1.00  0.00     0.191 C 
BRANCH  22  23
ATOM     23  O   UNL     1      26.240  25.840  22.201  1.00  0.00    -0.394 OA
ATOM     24  H   UNL     1      25.286  26.033  22.046  1.00  0.00     0.210 HD
ENDBRANCH  22  23
ENDBRANCH  17  22
BRANCH  19  25
ATOM     25  O   UNL     1      27.491  22.476  19.156  1.00  0.00    -0.350 OA
BRANCH  25  26
ATOM     26  C   UNL     1      28.784  22.070  19.350  1.00  0.00     0.169 C 
BRANCH  26  27
ATOM     27  C   UNL     1      29.264  20.969  18.466  1.00  0.00     0.119 C 
BRANCH  27  28
ATOM     28  N   UNL     1      28.586  19.712  18.710  1.00  0.00    -0.092 NA
ATOM     29  N   UNL     1      28.800  19.028  19.691  1.00  0.00     0.001 N 
ATOM     30  N   UNL     1      28.714  18.374  20.727  1.00  0.00    -0.003 NA
ENDBRANCH  27  28
ENDBRANCH  26  27
ENDBRANCH  25  26
ENDBRANCH  19  25
BRANCH  20  31
ATOM     31  O   UNL     1      23.907  24.060  17.393  1.00  0.00    -0.387 OA
ATOM     32  H   UNL     1      23.916  23.052  17.321  1.00  0.00     0.211 HD
ENDBRANCH  20  31
BRANCH  21  33
ATOM     33  O   UNL     1      26.700  24.181  16.226  1.00  0.00    -0.385 OA
ATOM     34  H   UNL     1      26.831  25.143  16.292  1.00  0.00     0.211 HD
ENDBRANCH  21  33
ENDBRANCH  15  16
ENDBRANCH  10  15
BRANCH  12  35
ATOM     35  O   UNL     1      22.500  26.327  17.884  1.00  0.00    -0.385 OA
ATOM     36  H   UNL     1      22.751  27.269  17.734  1.00  0.00     0.211 HD
ENDBRANCH  12  35
BRANCH  13  37
ATOM     37  O   UNL     1      20.477  27.751  19.281  1.00  0.00    -0.387 OA
ATOM     38  H   UNL     1      20.536  27.482  18.330  1.00  0.00     0.211 HD
ENDBRANCH  13  37
BRANCH  14  39
ATOM     39  O   UNL     1      20.526  26.905  21.773  1.00  0.00    -0.387 OA
ATOM     40  H   UNL     1      20.024  27.502  22.390  1.00  0.00     0.211 HD
ENDBRANCH  14  39
ENDBRANCH   8   9
ENDBRANCH   7   8
ENDBRANCH   1   7
BRANCH   1  41
ATOM     41  C   UNL     1      24.423  25.444  24.743  1.00  0.00     0.364 C 
ATOM     42  O   UNL     1      24.860  24.267  24.453  1.00  0.00    -0.246 OA
BRANCH  41  43
ATOM     43  O   UNL     1      25.407  26.384  24.906  1.00  0.00    -0.477 OA
ATOM     44  H   UNL     1      25.692  26.686  25.826  1.00  0.00     0.296 HD
ENDBRANCH  41  43
ENDBRANCH   1  41
BRANCH   3  45
ATOM     45  O   UNL     1      22.620  23.859  28.129  1.00  0.00    -0.391 OA
ATOM     46  H   UNL     1      22.799  24.157  29.050  1.00  0.00     0.211 HD
ENDBRANCH   3  45
BRANCH   5  47
ATOM     47  C   UNL     1      21.264  27.833  27.063  1.00  0.00     0.176 C 
BRANCH  47  48
ATOM     48  O   UNL     1      20.850  27.289  28.305  1.00  0.00    -0.388 OA
ATOM     49  H   UNL     1      20.055  26.731  28.192  1.00  0.00     0.211 HD
ENDBRANCH  47  48
BRANCH  47  50
ATOM     50  C   UNL     1      21.211  29.304  27.063  1.00  0.00     0.165 C 
BRANCH  50  51
ATOM     51  O   UNL     1      20.043  29.795  27.603  1.00  0.00    -0.388 OA
ATOM     52  H   UNL     1      20.130  30.710  27.971  1.00  0.00     0.211 HD
ENDBRANCH  50  51
BRANCH  50  53
ATOM     53  C   UNL     1      21.546  30.019  25.799  1.00  0.00     0.154 C 
BRANCH  53  54
ATOM     54  N   UNL     1      21.059  29.448  24.591  1.00  0.00    -0.319 N 
ATOM     55  C   UNL     1      19.764  29.869  24.133  1.00  0.00     0.407 C 
ATOM     56  H   UNL     1      21.559  28.738  24.033  1.00  0.00     0.167 HD
ATOM     57  O   UNL     1      19.115  30.729  24.823  1.00  0.00    -0.225 OA
BRANCH  55  58
ATOM     58  O   UNL     1      19.246  29.355  22.978  1.00  0.00    -0.443 OA
BRANCH  58  59
ATOM     59  C   UNL     1      18.839  30.159  21.901  1.00  0.00     0.294 C 
BRANCH  59  60
ATOM     60  C   UNL     1      17.815  29.464  21.090  1.00  0.00     0.120 A 
ATOM     61  C   UNL     1      16.517  29.853  20.783  1.00  0.00     0.138 A 
ATOM     62  N   UNL     1      17.959  28.283  20.468  1.00  0.00    -0.132 NA
ATOM     63  N   UNL     1      15.926  28.929  20.011  1.00  0.00    -0.248 N 
ATOM     64  N   UNL     1      16.844  27.974  19.836  1.00  0.00    -0.067 NA
BRANCH  63  65
ATOM     65  C   UNL     1      14.573  28.900  19.446  1.00  0.00     0.185 C 
BRANCH  65  66
ATOM     66  C   UNL     1      13.743  29.842  20.231  1.00  0.00     0.018 A 
ATOM     67  C   UNL     1      13.468  31.088  19.702  1.00  0.00     0.025 A 
ATOM     68  C   UNL     1      13.231  29.517  21.482  1.00  0.00     0.134 A 
ATOM     69  C   UNL     1      12.696  32.018  20.382  1.00  0.00     0.019 A 
ATOM     70  C   UNL     1      12.457  30.426  22.186  1.00  0.00     0.061 A 
ATOM     71  Br  UNL     1      12.342  33.724  19.613  1.00  0.00    -0.051 Br
ATOM     72  C   UNL     1      12.202  31.673  21.616  1.00  0.00     0.035 A 
ATOM     73  Br  UNL     1      11.772  29.960  23.883  1.00  0.00    -0.047 Br
BRANCH  68  74
ATOM     74  O   UNL     1      13.544  28.258  21.955  1.00  0.00    -0.506 OA
ATOM     75  H   UNL     1      14.303  27.747  21.536  1.00  0.00     0.293 HD
ENDBRANCH  68  74
ENDBRANCH  65  66
ENDBRANCH  63  65
ENDBRANCH  59  60
ENDBRANCH  58  59
ENDBRANCH  55  58
ENDBRANCH  53  54
ENDBRANCH  50  53
ENDBRANCH  47  50
ENDBRANCH   5  47
BRANCH   4  76
ATOM     76  N   UNL     1      24.079  26.586  28.539  1.00  0.00    -0.348 N 
ATOM     77  C   UNL     1      23.951  26.519  29.950  1.00  0.00     0.217 C 
ATOM     78  H   UNL     1      24.991  26.915  28.145  1.00  0.00     0.163 HD
ATOM     79  C   UNL     1      25.116  26.912  30.803  1.00  0.00     0.114 C 
ATOM     80  O   UNL     1      22.855  26.127  30.473  1.00  0.00    -0.275 OA
ENDBRANCH   4  76
TORSDOF 32
