REMARK VINA RESULT:    -6.621      2.885      4.505
REMARK INTER + INTRA:         -23.270
REMARK INTER:                 -15.841
REMARK INTRA:                  -7.429
REMARK UNBOUND:                -6.197
REMARK SMILES CC(=O)N[C@@H]1[C@@H](O)C[C@](OC[C@H]2O[C@@H](O[C@H]3[C@H](O)[C@@H](O)[C@H](OCCN=[N+]=[N-])O[C@@H]3CO)[C@H](O)[C@@H](O)[C@H]2O)(C(=O)O)O[C@H]1C(O)[C@H](O)CNC(=O)OCc1cn(Cc2cccc(C#N)c2)nn1
REMARK SMILES IDX 9 1 8 2 6 3 5 4 42 5 41 6 10 7 11 8 12 9 14 10 13 11 32 12
REMARK SMILES IDX 34 13 36 14 15 15 16 16 29 17 28 18 21 19 17 20 19 21 30 22
REMARK SMILES IDX 31 23 22 25 23 26 24 27 25 28 26 29 27 30 18 31 20 33 33 35
REMARK SMILES IDX 35 37 37 39 38 41 39 42 40 43 7 45 43 47 44 48 45 50 46 51
REMARK SMILES IDX 47 53 48 54 49 55 50 57 51 58 52 59 53 60 54 61 66 62 55 63
REMARK SMILES IDX 65 64 56 65 57 66 58 67 64 68 59 69 61 70 60 71 62 72 63 73
REMARK SMILES IDX 4 74 2 75 1 77 3 78
REMARK H PARENT 31 24 18 32 20 34 33 36 35 38 37 40 40 44 7 46 44 49 46 52
REMARK H PARENT 48 56 4 76
REMARK Flexibility Score: inf
ROOT
ATOM      1  C   UNL     1      17.237  32.281  18.538  1.00  0.00     0.272 C 
ATOM      2  C   UNL     1      16.236  33.230  17.922  1.00  0.00     0.113 C 
ATOM      3  C   UNL     1      14.956  32.665  17.470  1.00  0.00     0.145 C 
ATOM      4  C   UNL     1      15.105  31.218  16.987  1.00  0.00     0.142 C 
ATOM      5  C   UNL     1      15.898  30.388  17.893  1.00  0.00     0.178 C 
ATOM      6  O   UNL     1      16.868  30.979  18.635  1.00  0.00    -0.332 OA
ENDROOT
BRANCH   1   7
ATOM      7  O   UNL     1      17.547  32.719  19.744  1.00  0.00    -0.338 OA
BRANCH   7   8
ATOM      8  C   UNL     1      17.185  33.128  20.863  1.00  0.00     0.199 C 
BRANCH   8   9
ATOM      9  C   UNL     1      16.819  32.317  22.075  1.00  0.00     0.179 C 
ATOM     10  C   UNL     1      15.197  30.982  22.890  1.00  0.00     0.282 C 
ATOM     11  O   UNL     1      15.777  31.394  21.683  1.00  0.00    -0.341 OA
ATOM     12  C   UNL     1      16.115  30.107  23.674  1.00  0.00     0.202 C 
ATOM     13  C   UNL     1      17.545  30.612  23.669  1.00  0.00     0.179 C 
ATOM     14  C   UNL     1      17.937  31.311  22.412  1.00  0.00     0.177 C 
BRANCH  10  15
ATOM     15  O   UNL     1      14.013  30.303  22.615  1.00  0.00    -0.341 OA
BRANCH  15  16
ATOM     16  C   UNL     1      12.902  30.965  23.068  1.00  0.00     0.184 C 
ATOM     17  C   UNL     1      11.889  30.058  23.663  1.00  0.00     0.178 C 
ATOM     18  O   UNL     1      10.730  30.692  24.049  1.00  0.00    -0.341 OA
ATOM     19  C   UNL     1      10.140  31.499  23.101  1.00  0.00     0.281 C 
ATOM     20  C   UNL     1      12.211  31.518  21.779  1.00  0.00     0.180 C 
ATOM     21  C   UNL     1      11.076  32.364  22.318  1.00  0.00     0.202 C 
BRANCH  17  22
ATOM     22  C   UNL     1      12.442  29.375  24.893  1.00  0.00     0.191 C 
BRANCH  22  23
ATOM     23  O   UNL     1      11.575  28.357  25.299  1.00  0.00    -0.394 OA
ATOM     24  H   UNL     1      11.938  27.466  25.163  1.00  0.00     0.210 HD
ENDBRANCH  22  23
ENDBRANCH  17  22
BRANCH  19  25
ATOM     25  O   UNL     1       9.289  32.380  23.802  1.00  0.00    -0.350 OA
BRANCH  25  26
ATOM     26  C   UNL     1       7.990  31.960  23.692  1.00  0.00     0.169 C 
BRANCH  26  27
ATOM     27  C   UNL     1       7.531  31.169  24.884  1.00  0.00     0.119 C 
BRANCH  27  28
ATOM     28  N   UNL     1       7.128  29.822  24.554  1.00  0.00    -0.092 NA
ATOM     29  N   UNL     1       7.969  28.916  24.632  1.00  0.00     0.001 N 
ATOM     30  N   UNL     1       8.741  27.932  24.584  1.00  0.00    -0.003 NA
ENDBRANCH  27  28
ENDBRANCH  26  27
ENDBRANCH  25  26
ENDBRANCH  19  25
BRANCH  20  31
ATOM     31  O   UNL     1      13.151  32.226  21.078  1.00  0.00    -0.387 OA
ATOM     32  H   UNL     1      14.077  32.058  21.417  1.00  0.00     0.211 HD
ENDBRANCH  20  31
BRANCH  21  33
ATOM     33  O   UNL     1      10.392  32.887  21.224  1.00  0.00    -0.385 OA
ATOM     34  H   UNL     1      10.158  32.112  20.635  1.00  0.00     0.211 HD
ENDBRANCH  21  33
ENDBRANCH  15  16
ENDBRANCH  10  15
BRANCH  12  35
ATOM     35  O   UNL     1      15.718  30.167  25.029  1.00  0.00    -0.385 OA
ATOM     36  H   UNL     1      15.421  29.254  25.264  1.00  0.00     0.211 HD
ENDBRANCH  12  35
BRANCH  13  37
ATOM     37  O   UNL     1      18.354  29.471  23.781  1.00  0.00    -0.387 OA
ATOM     38  H   UNL     1      17.893  28.708  24.179  1.00  0.00     0.211 HD
ENDBRANCH  13  37
BRANCH  14  39
ATOM     39  O   UNL     1      17.949  30.346  21.393  1.00  0.00    -0.387 OA
ATOM     40  H   UNL     1      17.354  30.579  20.654  1.00  0.00     0.211 HD
ENDBRANCH  14  39
ENDBRANCH   8   9
ENDBRANCH   7   8
ENDBRANCH   1   7
BRANCH   1  41
ATOM     41  C   UNL     1      18.424  32.282  17.610  1.00  0.00     0.364 C 
ATOM     42  O   UNL     1      18.296  32.631  16.388  1.00  0.00    -0.246 OA
BRANCH  41  43
ATOM     43  O   UNL     1      19.672  31.914  18.034  1.00  0.00    -0.477 OA
ATOM     44  H   UNL     1      19.796  30.933  18.332  1.00  0.00     0.296 HD
ENDBRANCH  41  43
ENDBRANCH   1  41
BRANCH   3  45
ATOM     45  O   UNL     1      14.027  32.698  18.500  1.00  0.00    -0.391 OA
ATOM     46  H   UNL     1      13.187  32.228  18.284  1.00  0.00     0.211 HD
ENDBRANCH   3  45
BRANCH   5  47
ATOM     47  C   UNL     1      15.101  29.621  18.928  1.00  0.00     0.176 C 
BRANCH  47  48
ATOM     48  O   UNL     1      13.823  29.431  18.305  1.00  0.00    -0.388 OA
ATOM     49  H   UNL     1      13.988  29.348  17.339  1.00  0.00     0.211 HD
ENDBRANCH  47  48
BRANCH  47  50
ATOM     50  C   UNL     1      15.544  28.270  19.309  1.00  0.00     0.165 C 
BRANCH  50  51
ATOM     51  O   UNL     1      15.797  28.421  20.741  1.00  0.00    -0.388 OA
ATOM     52  H   UNL     1      16.778  28.260  20.879  1.00  0.00     0.211 HD
ENDBRANCH  50  51
BRANCH  50  53
ATOM     53  C   UNL     1      16.844  27.773  18.790  1.00  0.00     0.154 C 
BRANCH  53  54
ATOM     54  N   UNL     1      18.026  28.389  19.298  1.00  0.00    -0.319 N 
ATOM     55  C   UNL     1      19.182  28.513  18.457  1.00  0.00     0.407 C 
ATOM     56  H   UNL     1      18.106  28.764  20.251  1.00  0.00     0.167 HD
ATOM     57  O   UNL     1      19.090  28.066  17.291  1.00  0.00    -0.225 OA
BRANCH  55  58
ATOM     58  O   UNL     1      20.349  29.090  18.867  1.00  0.00    -0.443 OA
BRANCH  58  59
ATOM     59  C   UNL     1      21.557  28.321  19.043  1.00  0.00     0.294 C 
BRANCH  59  60
ATOM     60  C   UNL     1      21.387  27.418  20.216  1.00  0.00     0.120 A 
ATOM     61  C   UNL     1      21.942  26.170  20.389  1.00  0.00     0.138 A 
ATOM     62  N   UNL     1      20.661  27.649  21.315  1.00  0.00    -0.132 NA
ATOM     63  N   UNL     1      21.545  25.664  21.590  1.00  0.00    -0.248 N 
ATOM     64  N   UNL     1      20.766  26.590  22.129  1.00  0.00    -0.067 NA
BRANCH  63  65
ATOM     65  C   UNL     1      21.901  24.384  22.131  1.00  0.00     0.181 C 
BRANCH  65  66
ATOM     66  C   UNL     1      22.873  24.570  23.233  1.00  0.00    -0.025 A 
ATOM     67  C   UNL     1      24.212  24.768  23.027  1.00  0.00     0.006 A 
ATOM     68  C   UNL     1      22.420  24.540  24.547  1.00  0.00     0.025 A 
ATOM     69  C   UNL     1      25.105  24.934  24.052  1.00  0.00     0.002 A 
ATOM     70  C   UNL     1      23.315  24.706  25.575  1.00  0.00     0.052 A 
ATOM     71  C   UNL     1      24.681  24.908  25.374  1.00  0.00     0.019 A 
BRANCH  70  72
ATOM     72  C   UNL     1      22.838  24.680  26.933  1.00  0.00     0.099 C 
ATOM     73  N   UNL     1      22.436  24.664  28.031  1.00  0.00    -0.192 NA
ENDBRANCH  70  72
ENDBRANCH  65  66
ENDBRANCH  63  65
ENDBRANCH  59  60
ENDBRANCH  58  59
ENDBRANCH  55  58
ENDBRANCH  53  54
ENDBRANCH  50  53
ENDBRANCH  47  50
ENDBRANCH   5  47
BRANCH   4  74
ATOM     74  N   UNL     1      15.534  31.240  15.589  1.00  0.00    -0.348 N 
ATOM     75  C   UNL     1      14.922  30.367  14.666  1.00  0.00     0.217 C 
ATOM     76  H   UNL     1      16.270  31.867  15.211  1.00  0.00     0.163 HD
ATOM     77  C   UNL     1      15.296  30.320  13.224  1.00  0.00     0.114 C 
ATOM     78  O   UNL     1      14.033  29.600  15.070  1.00  0.00    -0.275 OA
ENDBRANCH   4  74
TORSDOF 32
