REMARK VINA RESULT:    -4.741      3.015      5.141
REMARK INTER + INTRA:         -20.287
REMARK INTER:                 -12.716
REMARK INTRA:                  -7.572
REMARK UNBOUND:                -8.339
REMARK SMILES CC(=O)N[C@@H]1[C@@H](O)C[C@](OC[C@H]2O[C@@H](O[C@H]3[C@H](O)[C@@H](O)[C@H](OCCN=[N+]=[N-])O[C@@H]3CO)[C@H](O)[C@@H](O)[C@H]2O)(C(=O)O)O[C@H]1C(O)[C@H](O)CNC(=O)OCc1cn(Cc2ccccc2)nn1
REMARK SMILES IDX 9 1 8 2 6 3 5 4 42 5 41 6 10 7 11 8 12 9 14 10 13 11 32 12
REMARK SMILES IDX 34 13 36 14 15 15 16 16 29 17 28 18 21 19 17 20 19 21 30 22
REMARK SMILES IDX 31 23 22 25 23 26 24 27 25 28 26 29 27 30 18 31 20 33 33 35
REMARK SMILES IDX 35 37 37 39 38 41 39 42 40 43 7 45 43 47 44 48 45 50 46 51
REMARK SMILES IDX 47 53 48 54 49 55 50 57 51 58 52 59 53 60 54 61 64 62 55 63
REMARK SMILES IDX 63 64 56 65 57 66 58 67 62 68 59 69 61 70 60 71 4 72 2 73
REMARK SMILES IDX 1 75 3 76
REMARK H PARENT 31 24 18 32 20 34 33 36 35 38 37 40 40 44 7 46 44 49 46 52
REMARK H PARENT 48 56 4 74
REMARK Flexibility Score: inf
ROOT
ATOM      1  C   UNL     1      14.603  33.074  26.582  1.00  0.00     0.272 C 
ATOM      2  C   UNL     1      13.580  34.132  26.384  1.00  0.00     0.113 C 
ATOM      3  C   UNL     1      14.027  35.058  25.319  1.00  0.00     0.145 C 
ATOM      4  C   UNL     1      15.442  34.772  24.791  1.00  0.00     0.142 C 
ATOM      5  C   UNL     1      16.365  34.447  25.887  1.00  0.00     0.178 C 
ATOM      6  O   UNL     1      15.794  33.724  26.952  1.00  0.00    -0.332 OA
ENDROOT
BRANCH   1   7
ATOM      7  O   UNL     1      14.804  32.214  25.522  1.00  0.00    -0.338 OA
BRANCH   7   8
ATOM      8  C   UNL     1      13.645  31.507  25.254  1.00  0.00     0.199 C 
BRANCH   8   9
ATOM      9  C   UNL     1      13.475  31.217  23.780  1.00  0.00     0.179 C 
ATOM     10  C   UNL     1      14.726  31.248  21.810  1.00  0.00     0.282 C 
ATOM     11  O   UNL     1      14.380  31.898  22.998  1.00  0.00    -0.341 OA
ATOM     12  C   UNL     1      13.578  30.567  21.163  1.00  0.00     0.202 C 
ATOM     13  C   UNL     1      13.035  29.494  22.053  1.00  0.00     0.179 C 
ATOM     14  C   UNL     1      13.439  29.741  23.487  1.00  0.00     0.177 C 
BRANCH  10  15
ATOM     15  O   UNL     1      15.776  30.367  22.009  1.00  0.00    -0.341 OA
BRANCH  15  16
ATOM     16  C   UNL     1      16.918  30.683  21.283  1.00  0.00     0.184 C 
ATOM     17  C   UNL     1      17.534  29.457  20.721  1.00  0.00     0.178 C 
ATOM     18  O   UNL     1      18.708  29.851  20.043  1.00  0.00    -0.341 OA
ATOM     19  C   UNL     1      19.660  30.070  21.059  1.00  0.00     0.281 C 
ATOM     20  C   UNL     1      17.889  31.270  22.320  1.00  0.00     0.180 C 
ATOM     21  C   UNL     1      19.295  31.335  21.822  1.00  0.00     0.202 C 
BRANCH  17  22
ATOM     22  C   UNL     1      16.610  28.734  19.746  1.00  0.00     0.191 C 
BRANCH  22  23
ATOM     23  O   UNL     1      16.182  27.554  20.394  1.00  0.00    -0.394 OA
ATOM     24  H   UNL     1      15.428  27.780  20.988  1.00  0.00     0.210 HD
ENDBRANCH  22  23
ENDBRANCH  17  22
BRANCH  19  25
ATOM     25  O   UNL     1      20.902  30.204  20.491  1.00  0.00    -0.350 OA
BRANCH  25  26
ATOM     26  C   UNL     1      21.763  29.256  21.009  1.00  0.00     0.169 C 
BRANCH  26  27
ATOM     27  C   UNL     1      21.112  28.211  21.866  1.00  0.00     0.119 C 
BRANCH  27  28
ATOM     28  N   UNL     1      21.578  28.455  23.240  1.00  0.00    -0.092 NA
ATOM     29  N   UNL     1      22.754  28.187  23.481  1.00  0.00     0.001 N 
ATOM     30  N   UNL     1      23.882  28.182  23.993  1.00  0.00    -0.003 NA
ENDBRANCH  27  28
ENDBRANCH  26  27
ENDBRANCH  25  26
ENDBRANCH  19  25
BRANCH  20  31
ATOM     31  O   UNL     1      17.427  32.585  22.534  1.00  0.00    -0.387 OA
ATOM     32  H   UNL     1      17.448  33.127  21.701  1.00  0.00     0.211 HD
ENDBRANCH  20  31
BRANCH  21  33
ATOM     33  O   UNL     1      20.165  31.433  22.907  1.00  0.00    -0.385 OA
ATOM     34  H   UNL     1      20.765  30.644  22.989  1.00  0.00     0.211 HD
ENDBRANCH  21  33
ENDBRANCH  15  16
ENDBRANCH  10  15
BRANCH  12  35
ATOM     35  O   UNL     1      12.576  31.470  20.768  1.00  0.00    -0.385 OA
ATOM     36  H   UNL     1      11.765  31.217  21.278  1.00  0.00     0.211 HD
ENDBRANCH  12  35
BRANCH  13  37
ATOM     37  O   UNL     1      13.514  28.265  21.617  1.00  0.00    -0.387 OA
ATOM     38  H   UNL     1      12.792  27.586  21.529  1.00  0.00     0.211 HD
ENDBRANCH  13  37
BRANCH  14  39
ATOM     39  O   UNL     1      14.545  29.040  23.885  1.00  0.00    -0.387 OA
ATOM     40  H   UNL     1      14.440  28.428  24.640  1.00  0.00     0.211 HD
ENDBRANCH  14  39
ENDBRANCH   8   9
ENDBRANCH   7   8
ENDBRANCH   1   7
BRANCH   1  41
ATOM     41  C   UNL     1      14.315  32.226  27.790  1.00  0.00     0.364 C 
ATOM     42  O   UNL     1      13.344  32.489  28.499  1.00  0.00    -0.246 OA
BRANCH  41  43
ATOM     43  O   UNL     1      15.136  31.162  28.093  1.00  0.00    -0.477 OA
ATOM     44  H   UNL     1      14.837  30.191  27.988  1.00  0.00     0.296 HD
ENDBRANCH  41  43
ENDBRANCH   1  41
BRANCH   3  45
ATOM     45  O   UNL     1      13.199  35.070  24.180  1.00  0.00    -0.391 OA
ATOM     46  H   UNL     1      13.601  35.512  23.418  1.00  0.00     0.211 HD
ENDBRANCH   3  45
BRANCH   5  47
ATOM     47  C   UNL     1      17.643  33.778  25.599  1.00  0.00     0.176 C 
BRANCH  47  48
ATOM     48  O   UNL     1      18.324  34.242  24.495  1.00  0.00    -0.388 OA
ATOM     49  H   UNL     1      19.303  34.242  24.578  1.00  0.00     0.211 HD
ENDBRANCH  47  48
BRANCH  47  50
ATOM     50  C   UNL     1      18.611  33.574  26.729  1.00  0.00     0.165 C 
BRANCH  50  51
ATOM     51  O   UNL     1      18.590  34.559  27.668  1.00  0.00    -0.388 OA
ATOM     52  H   UNL     1      17.729  35.011  27.768  1.00  0.00     0.211 HD
ENDBRANCH  50  51
BRANCH  50  53
ATOM     53  C   UNL     1      19.950  33.084  26.264  1.00  0.00     0.154 C 
BRANCH  53  54
ATOM     54  N   UNL     1      20.376  31.846  26.864  1.00  0.00    -0.319 N 
ATOM     55  C   UNL     1      20.032  30.543  26.380  1.00  0.00     0.407 C 
ATOM     56  H   UNL     1      20.993  31.823  27.731  1.00  0.00     0.167 HD
ATOM     57  O   UNL     1      19.304  30.436  25.366  1.00  0.00    -0.225 OA
BRANCH  55  58
ATOM     58  O   UNL     1      20.482  29.396  27.007  1.00  0.00    -0.443 OA
BRANCH  58  59
ATOM     59  C   UNL     1      21.762  29.384  27.591  1.00  0.00     0.294 C 
BRANCH  59  60
ATOM     60  C   UNL     1      22.454  28.101  27.343  1.00  0.00     0.120 A 
ATOM     61  C   UNL     1      21.816  26.949  26.862  1.00  0.00     0.138 A 
ATOM     62  N   UNL     1      23.735  27.747  27.494  1.00  0.00    -0.132 NA
ATOM     63  N   UNL     1      22.730  25.974  26.749  1.00  0.00    -0.248 N 
ATOM     64  N   UNL     1      23.873  26.464  27.130  1.00  0.00    -0.067 NA
BRANCH  63  65
ATOM     65  C   UNL     1      22.465  24.632  26.278  1.00  0.00     0.181 C 
BRANCH  65  66
ATOM     66  C   UNL     1      22.423  24.630  24.795  1.00  0.00    -0.026 A 
ATOM     67  C   UNL     1      23.575  24.604  24.029  1.00  0.00     0.005 A 
ATOM     68  C   UNL     1      21.189  24.654  24.164  1.00  0.00     0.005 A 
ATOM     69  C   UNL     1      23.484  24.604  22.648  1.00  0.00     0.000 A 
ATOM     70  C   UNL     1      21.110  24.653  22.784  1.00  0.00     0.000 A 
ATOM     71  C   UNL     1      22.256  24.628  22.034  1.00  0.00     0.000 A 
ENDBRANCH  65  66
ENDBRANCH  63  65
ENDBRANCH  59  60
ENDBRANCH  58  59
ENDBRANCH  55  58
ENDBRANCH  53  54
ENDBRANCH  50  53
ENDBRANCH  47  50
ENDBRANCH   5  47
BRANCH   4  72
ATOM     72  N   UNL     1      15.789  36.083  24.206  1.00  0.00    -0.348 N 
ATOM     73  C   UNL     1      16.287  36.236  22.893  1.00  0.00     0.217 C 
ATOM     74  H   UNL     1      15.667  36.942  24.785  1.00  0.00     0.163 HD
ATOM     75  C   UNL     1      16.635  37.576  22.330  1.00  0.00     0.114 C 
ATOM     76  O   UNL     1      16.436  35.210  22.186  1.00  0.00    -0.275 OA
ENDBRANCH   4  72
TORSDOF 31
