REMARK VINA RESULT:    -5.291     10.627     15.199
REMARK INTER + INTRA:         -20.918
REMARK INTER:                 -14.050
REMARK INTRA:                  -6.868
REMARK UNBOUND:                -7.585
REMARK SMILES COc1ccc(-n2cc(COC(=O)NC[C@@H](O)C(O)[C@@H]3O[C@@](OC[C@H]4O[C@@H](O[C@H]5[C@H](O)[C@@H](O)[C@H](OCCN=[N+]=[N-])O[C@@H]5CO)[C@H](O)[C@@H](O)[C@H]4O)(C(=O)O)C[C@H](O)[C@H]3NC(C)=O)nn2)cc1
REMARK SMILES IDX 22 1 54 2 55 3 57 4 20 5 21 6 23 7 24 8 25 9 27 10 26 11
REMARK SMILES IDX 45 12 47 13 49 14 28 15 29 16 42 17 41 18 34 19 30 20 32 21
REMARK SMILES IDX 43 22 44 23 35 25 36 26 37 27 38 28 39 29 40 30 31 31 33 33
REMARK SMILES IDX 46 35 48 37 50 39 51 41 52 42 53 43 56 45 18 47 19 48 16 50
REMARK SMILES IDX 17 51 15 53 14 54 12 55 13 57 11 58 10 59 9 60 8 61 62 62
REMARK SMILES IDX 7 63 63 64 6 65 5 66 64 67 4 68 65 69 3 70 2 71 1 72 58 73
REMARK SMILES IDX 59 74 60 76 61 77
REMARK H PARENT 44 24 31 32 33 34 46 36 48 38 50 40 53 44 56 46 19 49 17 52
REMARK H PARENT 14 56 58 75
REMARK Flexibility Score: inf
ROOT
ATOM      1  C   UNL     1      14.587  30.590  22.403  1.00  0.00     0.272 C 
ATOM      2  C   UNL     1      13.712  31.343  23.335  1.00  0.00     0.113 C 
ATOM      3  C   UNL     1      13.341  32.719  22.946  1.00  0.00     0.145 C 
ATOM      4  C   UNL     1      14.400  33.236  21.952  1.00  0.00     0.142 C 
ATOM      5  C   UNL     1      15.711  32.687  22.390  1.00  0.00     0.178 C 
ATOM      6  O   UNL     1      15.726  31.335  22.050  1.00  0.00    -0.332 OA
ENDROOT
BRANCH   1   7
ATOM      7  O   UNL     1      14.178  29.936  21.362  1.00  0.00    -0.338 OA
BRANCH   7   8
ATOM      8  C   UNL     1      14.341  28.832  20.736  1.00  0.00     0.199 C 
BRANCH   8   9
ATOM      9  C   UNL     1      14.826  28.720  19.319  1.00  0.00     0.179 C 
ATOM     10  C   UNL     1      15.042  29.715  17.273  1.00  0.00     0.282 C 
ATOM     11  O   UNL     1      14.731  29.883  18.633  1.00  0.00    -0.341 OA
ATOM     12  C   UNL     1      16.426  29.205  17.026  1.00  0.00     0.202 C 
ATOM     13  C   UNL     1      17.087  28.550  18.180  1.00  0.00     0.179 C 
ATOM     14  C   UNL     1      16.180  28.058  19.234  1.00  0.00     0.177 C 
BRANCH  10  15
ATOM     15  O   UNL     1      14.898  30.960  16.668  1.00  0.00    -0.341 OA
BRANCH  15  16
ATOM     16  C   UNL     1      13.759  31.065  15.917  1.00  0.00     0.184 C 
ATOM     17  C   UNL     1      12.521  31.010  16.734  1.00  0.00     0.178 C 
ATOM     18  O   UNL     1      11.369  31.020  15.904  1.00  0.00    -0.341 OA
ATOM     19  C   UNL     1      11.357  29.750  15.271  1.00  0.00     0.281 C 
ATOM     20  C   UNL     1      13.753  29.909  14.901  1.00  0.00     0.180 C 
ATOM     21  C   UNL     1      12.429  29.878  14.186  1.00  0.00     0.202 C 
BRANCH  17  22
ATOM     22  C   UNL     1      12.432  32.157  17.706  1.00  0.00     0.191 C 
BRANCH  22  23
ATOM     23  O   UNL     1      12.773  31.706  18.970  1.00  0.00    -0.394 OA
ATOM     24  H   UNL     1      12.167  32.034  19.671  1.00  0.00     0.210 HD
ENDBRANCH  22  23
ENDBRANCH  17  22
BRANCH  19  25
ATOM     25  O   UNL     1      10.140  29.462  14.757  1.00  0.00    -0.350 OA
BRANCH  25  26
ATOM     26  C   UNL     1       9.415  30.435  14.142  1.00  0.00     0.169 C 
BRANCH  26  27
ATOM     27  C   UNL     1       8.773  30.096  12.840  1.00  0.00     0.119 C 
BRANCH  27  28
ATOM     28  N   UNL     1       9.600  29.408  11.895  1.00  0.00    -0.092 NA
ATOM     29  N   UNL     1      10.276  30.020  11.074  1.00  0.00     0.001 N 
ATOM     30  N   UNL     1      10.807  30.752  10.233  1.00  0.00    -0.003 NA
ENDBRANCH  27  28
ENDBRANCH  26  27
ENDBRANCH  25  26
ENDBRANCH  19  25
BRANCH  20  31
ATOM     31  O   UNL     1      14.813  30.079  14.029  1.00  0.00    -0.387 OA
ATOM     32  H   UNL     1      15.544  30.543  14.546  1.00  0.00     0.211 HD
ENDBRANCH  20  31
BRANCH  21  33
ATOM     33  O   UNL     1      12.345  28.770  13.374  1.00  0.00    -0.385 OA
ATOM     34  H   UNL     1      11.644  28.878  12.684  1.00  0.00     0.211 HD
ENDBRANCH  21  33
ENDBRANCH  15  16
ENDBRANCH  10  15
BRANCH  12  35
ATOM     35  O   UNL     1      16.453  28.283  15.967  1.00  0.00    -0.385 OA
ATOM     36  H   UNL     1      15.866  27.514  16.145  1.00  0.00     0.211 HD
ENDBRANCH  12  35
BRANCH  13  37
ATOM     37  O   UNL     1      18.121  29.359  18.666  1.00  0.00    -0.387 OA
ATOM     38  H   UNL     1      19.005  29.098  18.335  1.00  0.00     0.211 HD
ENDBRANCH  13  37
BRANCH  14  39
ATOM     39  O   UNL     1      16.850  28.096  20.459  1.00  0.00    -0.387 OA
ATOM     40  H   UNL     1      17.763  28.434  20.275  1.00  0.00     0.211 HD
ENDBRANCH  14  39
ENDBRANCH   8   9
ENDBRANCH   7   8
ENDBRANCH   1   7
BRANCH   1  41
ATOM     41  C   UNL     1      15.239  29.527  23.344  1.00  0.00     0.364 C 
ATOM     42  O   UNL     1      16.450  29.303  23.286  1.00  0.00    -0.246 OA
BRANCH  41  43
ATOM     43  O   UNL     1      14.391  28.884  24.211  1.00  0.00    -0.477 OA
ATOM     44  H   UNL     1      13.403  28.710  23.974  1.00  0.00     0.296 HD
ENDBRANCH  41  43
ENDBRANCH   1  41
BRANCH   3  45
ATOM     45  O   UNL     1      12.067  32.915  22.498  1.00  0.00    -0.391 OA
ATOM     46  H   UNL     1      11.961  33.020  21.526  1.00  0.00     0.211 HD
ENDBRANCH   3  45
BRANCH   5  47
ATOM     47  C   UNL     1      16.914  33.295  21.631  1.00  0.00     0.176 C 
BRANCH  47  48
ATOM     48  O   UNL     1      17.414  34.372  22.296  1.00  0.00    -0.388 OA
ATOM     49  H   UNL     1      17.310  34.238  23.267  1.00  0.00     0.211 HD
ENDBRANCH  47  48
BRANCH  47  50
ATOM     50  C   UNL     1      17.759  32.292  21.033  1.00  0.00     0.165 C 
BRANCH  50  51
ATOM     51  O   UNL     1      17.131  31.416  20.105  1.00  0.00    -0.388 OA
ATOM     52  H   UNL     1      17.417  30.517  20.360  1.00  0.00     0.211 HD
ENDBRANCH  50  51
BRANCH  50  53
ATOM     53  C   UNL     1      18.689  31.428  21.778  1.00  0.00     0.154 C 
BRANCH  53  54
ATOM     54  N   UNL     1      18.811  30.087  21.424  1.00  0.00    -0.319 N 
ATOM     55  C   UNL     1      20.001  29.388  21.169  1.00  0.00     0.407 C 
ATOM     56  H   UNL     1      17.907  29.509  21.331  1.00  0.00     0.167 HD
ATOM     57  O   UNL     1      21.115  29.928  21.260  1.00  0.00    -0.225 OA
BRANCH  55  58
ATOM     58  O   UNL     1      19.933  28.026  20.797  1.00  0.00    -0.443 OA
BRANCH  58  59
ATOM     59  C   UNL     1      21.131  27.291  20.822  1.00  0.00     0.294 C 
BRANCH  59  60
ATOM     60  C   UNL     1      21.225  26.530  22.091  1.00  0.00     0.121 A 
ATOM     61  C   UNL     1      21.782  26.893  23.302  1.00  0.00     0.144 A 
ATOM     62  N   UNL     1      20.732  25.288  22.264  1.00  0.00    -0.131 NA
ATOM     63  N   UNL     1      21.606  25.872  24.149  1.00  0.00    -0.220 N 
ATOM     64  N   UNL     1      20.962  24.903  23.491  1.00  0.00    -0.062 NA
BRANCH  63  65
ATOM     65  C   UNL     1      21.965  25.701  25.511  1.00  0.00     0.067 A 
ATOM     66  C   UNL     1      22.602  24.595  26.005  1.00  0.00     0.032 A 
ATOM     67  C   UNL     1      21.648  26.710  26.419  1.00  0.00     0.032 A 
ATOM     68  C   UNL     1      22.915  24.488  27.353  1.00  0.00     0.048 A 
ATOM     69  C   UNL     1      21.959  26.603  27.760  1.00  0.00     0.048 A 
ATOM     70  C   UNL     1      22.601  25.488  28.255  1.00  0.00     0.119 A 
BRANCH  70  71
ATOM     71  O   UNL     1      22.924  25.365  29.620  1.00  0.00    -0.497 OA
ATOM     72  C   UNL     1      24.262  25.712  30.004  1.00  0.00     0.278 C 
ENDBRANCH  70  71
ENDBRANCH  63  65
ENDBRANCH  59  60
ENDBRANCH  58  59
ENDBRANCH  55  58
ENDBRANCH  53  54
ENDBRANCH  50  53
ENDBRANCH  47  50
ENDBRANCH   5  47
BRANCH   4  73
ATOM     73  N   UNL     1      14.268  34.661  21.843  1.00  0.00    -0.348 N 
ATOM     74  C   UNL     1      13.468  35.252  20.831  1.00  0.00     0.217 C 
ATOM     75  H   UNL     1      14.741  35.270  22.533  1.00  0.00     0.163 HD
ATOM     76  C   UNL     1      13.350  36.731  20.740  1.00  0.00     0.114 C 
ATOM     77  O   UNL     1      12.834  34.573  19.981  1.00  0.00    -0.275 OA
ENDBRANCH   4  73
TORSDOF 31
