REMARK VINA RESULT:    -5.441      7.788     13.191
REMARK INTER + INTRA:         -23.083
REMARK INTER:                 -15.992
REMARK INTRA:                  -7.090
REMARK UNBOUND:                -8.417
REMARK SMILES CC(=O)N[C@@H]1[C@@H](O)C[C@](OC[C@H]2O[C@@H](O[C@H]3[C@H](O)[C@@H](O)[C@H](OCCN=[N+]=[N-])O[C@@H]3CO)[C@H](O)[C@@H](O)[C@H]2O)(C(=O)O)O[C@H]1C(O)[C@H](O)CNC(=O)OCc1cn(CCNC(=O)NCc2ccco2)nn1
REMARK SMILES IDX 43 1 42 2 9 3 8 4 41 5 6 6 5 7 10 8 11 9 12 10 14 11 13 12
REMARK SMILES IDX 32 13 34 14 36 15 15 16 16 17 29 18 28 19 21 20 17 21 19 22
REMARK SMILES IDX 30 23 31 24 22 26 23 27 24 28 25 29 26 30 27 31 18 32 20 34
REMARK SMILES IDX 33 36 35 38 37 40 38 42 39 43 40 44 7 46 4 48 2 49 1 51 3 52
REMARK SMILES IDX 44 53 45 55 46 56 47 58 48 59 49 60 50 62 51 63 52 64 53 65
REMARK SMILES IDX 54 66 69 67 55 68 68 69 56 70 57 71 58 72 59 73 60 75 61 76
REMARK SMILES IDX 62 78 63 79 64 80 67 81 65 82 66 83
REMARK H PARENT 31 25 18 33 20 35 33 37 35 39 37 41 40 45 7 47 4 50 44 54
REMARK H PARENT 46 57 48 61 58 74 61 77
REMARK Flexibility Score: inf
ROOT
ATOM      1  C   UNL     1      12.714  30.183  15.471  1.00  0.00     0.176 C 
ENDROOT
BRANCH   1   2
ATOM      2  C   UNL     1      13.237  29.829  14.116  1.00  0.00     0.178 C 
ATOM      3  C   UNL     1      15.583  29.501  14.320  1.00  0.00     0.272 C 
ATOM      4  C   UNL     1      15.579  31.064  14.274  1.00  0.00     0.113 C 
ATOM      5  O   UNL     1      14.335  29.025  14.136  1.00  0.00    -0.332 OA
ATOM      6  C   UNL     1      14.678  31.602  13.235  1.00  0.00     0.145 C 
ATOM      7  C   UNL     1      13.324  30.944  13.138  1.00  0.00     0.142 C 
BRANCH   3   8
ATOM      8  O   UNL     1      15.969  29.223  15.614  1.00  0.00    -0.338 OA
BRANCH   8   9
ATOM      9  C   UNL     1      16.522  30.156  16.384  1.00  0.00     0.199 C 
BRANCH   9  10
ATOM     10  C   UNL     1      16.904  30.036  17.777  1.00  0.00     0.179 C 
ATOM     11  C   UNL     1      16.919  30.871  19.913  1.00  0.00     0.282 C 
ATOM     12  O   UNL     1      16.294  30.904  18.666  1.00  0.00    -0.341 OA
ATOM     13  C   UNL     1      17.698  29.640  20.197  1.00  0.00     0.202 C 
ATOM     14  C   UNL     1      17.195  28.380  19.555  1.00  0.00     0.179 C 
ATOM     15  C   UNL     1      16.483  28.634  18.259  1.00  0.00     0.177 C 
BRANCH  11  16
ATOM     16  O   UNL     1      16.030  31.103  20.951  1.00  0.00    -0.341 OA
BRANCH  16  17
ATOM     17  C   UNL     1      14.808  31.648  20.507  1.00  0.00     0.184 C 
ATOM     18  C   UNL     1      14.444  32.754  21.454  1.00  0.00     0.178 C 
ATOM     19  O   UNL     1      13.067  32.866  21.632  1.00  0.00    -0.341 OA
ATOM     20  C   UNL     1      12.660  31.716  22.296  1.00  0.00     0.281 C 
ATOM     21  C   UNL     1      13.822  30.533  20.412  1.00  0.00     0.180 C 
ATOM     22  C   UNL     1      12.673  30.564  21.348  1.00  0.00     0.202 C 
BRANCH  18  23
ATOM     23  C   UNL     1      14.900  34.076  20.835  1.00  0.00     0.191 C 
BRANCH  23  24
ATOM     24  O   UNL     1      15.290  33.794  19.508  1.00  0.00    -0.394 OA
ATOM     25  H   UNL     1      16.275  33.973  19.497  1.00  0.00     0.210 HD
ENDBRANCH  23  24
ENDBRANCH  18  23
BRANCH  20  26
ATOM     26  O   UNL     1      11.333  31.934  22.676  1.00  0.00    -0.350 OA
BRANCH  26  27
ATOM     27  C   UNL     1      11.147  31.706  24.039  1.00  0.00     0.169 C 
BRANCH  27  28
ATOM     28  C   UNL     1      10.165  30.537  24.152  1.00  0.00     0.119 C 
BRANCH  28  29
ATOM     29  N   UNL     1      10.957  29.364  24.480  1.00  0.00    -0.092 NA
ATOM     30  N   UNL     1      10.413  28.305  24.824  1.00  0.00     0.001 N 
ATOM     31  N   UNL     1       9.851  27.197  24.858  1.00  0.00    -0.003 NA
ENDBRANCH  28  29
ENDBRANCH  27  28
ENDBRANCH  26  27
ENDBRANCH  20  26
BRANCH  21  32
ATOM     32  O   UNL     1      13.360  30.499  19.082  1.00  0.00    -0.387 OA
ATOM     33  H   UNL     1      14.030  30.815  18.449  1.00  0.00     0.211 HD
ENDBRANCH  21  32
BRANCH  22  34
ATOM     34  O   UNL     1      12.727  29.398  22.152  1.00  0.00    -0.385 OA
ATOM     35  H   UNL     1      12.744  28.633  21.499  1.00  0.00     0.211 HD
ENDBRANCH  22  34
ENDBRANCH  16  17
ENDBRANCH  11  16
BRANCH  13  36
ATOM     36  O   UNL     1      19.077  29.812  20.008  1.00  0.00    -0.385 OA
ATOM     37  H   UNL     1      19.274  30.554  19.393  1.00  0.00     0.211 HD
ENDBRANCH  13  36
BRANCH  14  38
ATOM     38  O   UNL     1      16.386  27.638  20.426  1.00  0.00    -0.387 OA
ATOM     39  H   UNL     1      16.079  28.291  21.114  1.00  0.00     0.211 HD
ENDBRANCH  14  38
BRANCH  15  40
ATOM     40  O   UNL     1      15.116  28.524  18.340  1.00  0.00    -0.387 OA
ATOM     41  H   UNL     1      14.781  29.262  18.882  1.00  0.00     0.211 HD
ENDBRANCH  15  40
ENDBRANCH   9  10
ENDBRANCH   8   9
ENDBRANCH   3   8
BRANCH   3  42
ATOM     42  C   UNL     1      16.616  29.138  13.354  1.00  0.00     0.364 C 
ATOM     43  O   UNL     1      17.779  28.897  13.708  1.00  0.00    -0.246 OA
BRANCH  42  44
ATOM     44  O   UNL     1      16.382  29.036  11.979  1.00  0.00    -0.477 OA
ATOM     45  H   UNL     1      15.453  28.766  11.654  1.00  0.00     0.296 HD
ENDBRANCH  42  44
ENDBRANCH   3  42
BRANCH   6  46
ATOM     46  O   UNL     1      14.493  32.972  13.506  1.00  0.00    -0.391 OA
ATOM     47  H   UNL     1      15.286  33.315  13.990  1.00  0.00     0.211 HD
ENDBRANCH   6  46
BRANCH   7  48
ATOM     48  N   UNL     1      13.133  30.474  11.766  1.00  0.00    -0.348 N 
ATOM     49  C   UNL     1      11.853  30.344  11.211  1.00  0.00     0.217 C 
ATOM     50  H   UNL     1      13.981  30.238  11.209  1.00  0.00     0.163 HD
ATOM     51  C   UNL     1      11.607  29.868   9.817  1.00  0.00     0.114 C 
ATOM     52  O   UNL     1      10.863  30.651  11.948  1.00  0.00    -0.275 OA
ENDBRANCH   7  48
ENDBRANCH   1   2
BRANCH   1  53
ATOM     53  O   UNL     1      13.138  29.153  16.385  1.00  0.00    -0.388 OA
ATOM     54  H   UNL     1      12.333  28.660  16.605  1.00  0.00     0.211 HD
ENDBRANCH   1  53
BRANCH   1  55
ATOM     55  C   UNL     1      11.222  30.170  15.635  1.00  0.00     0.165 C 
BRANCH  55  56
ATOM     56  O   UNL     1      10.503  29.434  14.724  1.00  0.00    -0.388 OA
ATOM     57  H   UNL     1       9.579  29.235  15.016  1.00  0.00     0.211 HD
ENDBRANCH  55  56
BRANCH  55  58
ATOM     58  C   UNL     1      10.664  31.593  15.738  1.00  0.00     0.154 C 
BRANCH  58  59
ATOM     59  N   UNL     1       9.547  31.645  16.651  1.00  0.00    -0.319 N 
ATOM     60  C   UNL     1       8.211  31.406  16.256  1.00  0.00     0.407 C 
ATOM     61  H   UNL     1       9.736  31.866  17.648  1.00  0.00     0.167 HD
ATOM     62  O   UNL     1       7.963  31.132  15.053  1.00  0.00    -0.225 OA
BRANCH  60  63
ATOM     63  O   UNL     1       7.154  31.465  17.159  1.00  0.00    -0.443 OA
BRANCH  63  64
ATOM     64  C   UNL     1       6.124  30.484  17.073  1.00  0.00     0.294 C 
BRANCH  64  65
ATOM     65  C   UNL     1       5.734  30.200  18.488  1.00  0.00     0.120 A 
ATOM     66  C   UNL     1       5.789  31.100  19.518  1.00  0.00     0.138 A 
ATOM     67  N   UNL     1       5.266  29.029  18.984  1.00  0.00    -0.132 NA
ATOM     68  N   UNL     1       5.361  30.458  20.596  1.00  0.00    -0.250 N 
ATOM     69  N   UNL     1       5.046  29.206  20.266  1.00  0.00    -0.067 NA
BRANCH  68  70
ATOM     70  C   UNL     1       5.266  31.044  21.932  1.00  0.00     0.167 C 
BRANCH  70  71
ATOM     71  C   UNL     1       6.612  30.808  22.619  1.00  0.00     0.141 C 
BRANCH  71  72
ATOM     72  N   UNL     1       6.690  29.409  22.919  1.00  0.00    -0.336 N 
ATOM     73  C   UNL     1       6.626  28.880  24.224  1.00  0.00     0.315 C 
ATOM     74  H   UNL     1       6.804  28.758  22.096  1.00  0.00     0.165 HD
ATOM     75  O   UNL     1       6.514  29.625  25.222  1.00  0.00    -0.249 OA
ATOM     76  N   UNL     1       6.690  27.455  24.394  1.00  0.00    -0.331 N 
ATOM     77  H   UNL     1       6.784  26.867  23.527  1.00  0.00     0.165 HD
BRANCH  76  78
ATOM     78  C   UNL     1       6.625  26.878  25.707  1.00  0.00     0.193 C 
BRANCH  78  79
ATOM     79  C   UNL     1       5.222  26.521  26.048  1.00  0.00     0.122 A 
ATOM     80  C   UNL     1       4.584  26.888  27.227  1.00  0.00     0.047 A 
ATOM     81  O   UNL     1       4.396  25.838  25.330  1.00  0.00    -0.467 OA
ATOM     82  C   UNL     1       3.324  26.371  27.149  1.00  0.00     0.042 A 
ATOM     83  C   UNL     1       3.241  25.719  25.948  1.00  0.00     0.195 A 
ENDBRANCH  78  79
ENDBRANCH  76  78
ENDBRANCH  71  72
ENDBRANCH  70  71
ENDBRANCH  68  70
ENDBRANCH  64  65
ENDBRANCH  63  64
ENDBRANCH  60  63
ENDBRANCH  58  59
ENDBRANCH  55  58
ENDBRANCH   1  55
TORSDOF 34
