REMARK VINA RESULT:    -6.683     17.171     22.831
REMARK INTER + INTRA:         -21.988
REMARK INTER:                 -16.160
REMARK INTRA:                  -5.828
REMARK UNBOUND:                -5.539
REMARK SMILES CC(=O)N[C@@H]1[C@@H](O)C[C@](OC[C@H]2O[C@@H](O[C@H]3[C@H](O)[C@@H](O)[C@H](OCCN=[N+]=[N-])O[C@@H]3CO)[C@H](O)[C@@H](O)[C@H]2O)(C(=O)O)O[C@H]1C(O)[C@H](O)CNC(=O)OCc1cn(-c2c3ccccc3nc3ccccc23)nn1
REMARK SMILES IDX 9 1 8 2 6 3 5 4 42 5 41 6 10 7 11 8 12 9 14 10 13 11 32 12
REMARK SMILES IDX 34 13 36 14 15 15 16 16 29 17 28 18 21 19 17 20 19 21 30 22
REMARK SMILES IDX 31 23 22 25 23 26 24 27 25 28 26 29 27 30 18 31 20 33 33 35
REMARK SMILES IDX 35 37 37 39 38 41 39 42 40 43 7 45 43 47 44 48 45 50 46 51
REMARK SMILES IDX 47 53 48 54 49 55 50 57 51 58 52 59 53 60 54 61 71 62 55 63
REMARK SMILES IDX 70 64 56 65 57 66 69 67 58 68 62 69 64 70 68 71 59 72 61 73
REMARK SMILES IDX 63 74 65 75 67 76 60 77 66 78 4 79 2 80 1 82 3 83
REMARK H PARENT 31 24 18 32 20 34 33 36 35 38 37 40 40 44 7 46 44 49 46 52
REMARK H PARENT 48 56 4 81
REMARK Flexibility Score: inf
ROOT
ATOM      1  C   UNL     1      21.864  27.978  18.793  1.00  0.00     0.272 C 
ATOM      2  C   UNL     1      23.213  28.493  19.501  1.00  0.00     0.113 C 
ATOM      3  C   UNL     1      23.160  27.863  20.845  1.00  0.00     0.145 C 
ATOM      4  C   UNL     1      22.997  26.358  20.836  1.00  0.00     0.142 C 
ATOM      5  C   UNL     1      22.308  25.826  19.649  1.00  0.00     0.178 C 
ATOM      6  O   UNL     1      22.086  26.677  18.620  1.00  0.00    -0.332 OA
ENDROOT
BRANCH   1   7
ATOM      7  O   UNL     1      22.002  28.641  17.571  1.00  0.00    -0.338 OA
BRANCH   7   8
ATOM      8  C   UNL     1      21.522  28.012  16.473  1.00  0.00     0.199 C 
BRANCH   8   9
ATOM      9  C   UNL     1      20.408  28.694  15.777  1.00  0.00     0.179 C 
ATOM     10  C   UNL     1      18.098  29.004  15.666  1.00  0.00     0.282 C 
ATOM     11  O   UNL     1      19.184  28.326  16.262  1.00  0.00    -0.341 OA
ATOM     12  C   UNL     1      18.457  29.812  14.492  1.00  0.00     0.202 C 
ATOM     13  C   UNL     1      19.602  30.756  14.778  1.00  0.00     0.179 C 
ATOM     14  C   UNL     1      20.560  30.217  15.788  1.00  0.00     0.177 C 
BRANCH  10  15
ATOM     15  O   UNL     1      17.402  29.713  16.636  1.00  0.00    -0.341 OA
BRANCH  15  16
ATOM     16  C   UNL     1      16.314  28.981  17.167  1.00  0.00     0.184 C 
ATOM     17  C   UNL     1      15.113  29.837  17.219  1.00  0.00     0.178 C 
ATOM     18  O   UNL     1      14.130  29.381  18.136  1.00  0.00    -0.341 OA
ATOM     19  C   UNL     1      14.699  29.467  19.400  1.00  0.00     0.281 C 
ATOM     20  C   UNL     1      16.792  28.589  18.574  1.00  0.00     0.180 C 
ATOM     21  C   UNL     1      15.644  28.257  19.486  1.00  0.00     0.202 C 
BRANCH  17  22
ATOM     22  C   UNL     1      14.422  29.917  15.866  1.00  0.00     0.191 C 
BRANCH  22  23
ATOM     23  O   UNL     1      14.658  28.829  15.066  1.00  0.00    -0.394 OA
ATOM     24  H   UNL     1      14.214  28.971  14.190  1.00  0.00     0.210 HD
ENDBRANCH  22  23
ENDBRANCH  17  22
BRANCH  19  25
ATOM     25  O   UNL     1      13.687  29.415  20.325  1.00  0.00    -0.350 OA
BRANCH  25  26
ATOM     26  C   UNL     1      13.277  30.657  20.800  1.00  0.00     0.169 C 
BRANCH  26  27
ATOM     27  C   UNL     1      13.830  30.953  22.178  1.00  0.00     0.119 C 
BRANCH  27  28
ATOM     28  N   UNL     1      14.235  29.676  22.758  1.00  0.00    -0.092 NA
ATOM     29  N   UNL     1      15.277  29.587  23.416  1.00  0.00     0.001 N 
ATOM     30  N   UNL     1      16.269  29.454  24.135  1.00  0.00    -0.003 NA
ENDBRANCH  27  28
ENDBRANCH  26  27
ENDBRANCH  25  26
ENDBRANCH  19  25
BRANCH  20  31
ATOM     31  O   UNL     1      17.722  27.565  18.485  1.00  0.00    -0.387 OA
ATOM     32  H   UNL     1      18.501  27.696  19.081  1.00  0.00     0.211 HD
ENDBRANCH  20  31
BRANCH  21  33
ATOM     33  O   UNL     1      16.111  28.081  20.768  1.00  0.00    -0.385 OA
ATOM     34  H   UNL     1      15.612  27.302  21.160  1.00  0.00     0.211 HD
ENDBRANCH  21  33
ENDBRANCH  15  16
ENDBRANCH  10  15
BRANCH  12  35
ATOM     35  O   UNL     1      18.708  28.996  13.378  1.00  0.00    -0.385 OA
ATOM     36  H   UNL     1      18.720  28.058  13.735  1.00  0.00     0.211 HD
ENDBRANCH  12  35
BRANCH  13  37
ATOM     37  O   UNL     1      19.045  31.981  15.196  1.00  0.00    -0.387 OA
ATOM     38  H   UNL     1      19.346  32.091  16.154  1.00  0.00     0.211 HD
ENDBRANCH  13  37
BRANCH  14  39
ATOM     39  O   UNL     1      20.393  30.754  17.048  1.00  0.00    -0.387 OA
ATOM     40  H   UNL     1      19.971  30.126  17.686  1.00  0.00     0.211 HD
ENDBRANCH  14  39
ENDBRANCH   8   9
ENDBRANCH   7   8
ENDBRANCH   1   7
BRANCH   1  41
ATOM     41  C   UNL     1      20.844  28.508  19.634  1.00  0.00     0.364 C 
ATOM     42  O   UNL     1      20.725  29.764  19.808  1.00  0.00    -0.246 OA
BRANCH  41  43
ATOM     43  O   UNL     1      19.889  27.767  20.339  1.00  0.00    -0.477 OA
ATOM     44  H   UNL     1      19.818  27.893  21.341  1.00  0.00     0.296 HD
ENDBRANCH  41  43
ENDBRANCH   1  41
BRANCH   3  45
ATOM     45  O   UNL     1      24.363  28.217  21.502  1.00  0.00    -0.391 OA
ATOM     46  H   UNL     1      24.230  28.134  22.483  1.00  0.00     0.211 HD
ENDBRANCH   3  45
BRANCH   5  47
ATOM     47  C   UNL     1      23.089  24.640  19.018  1.00  0.00     0.176 C 
BRANCH  47  48
ATOM     48  O   UNL     1      22.430  24.158  17.925  1.00  0.00    -0.388 OA
ATOM     49  H   UNL     1      22.981  24.147  17.081  1.00  0.00     0.211 HD
ENDBRANCH  47  48
BRANCH  47  50
ATOM     50  C   UNL     1      24.533  24.854  18.955  1.00  0.00     0.165 C 
BRANCH  50  51
ATOM     51  O   UNL     1      25.256  24.651  20.133  1.00  0.00    -0.388 OA
ATOM     52  H   UNL     1      24.659  24.549  20.916  1.00  0.00     0.211 HD
ENDBRANCH  50  51
BRANCH  50  53
ATOM     53  C   UNL     1      25.063  25.945  18.109  1.00  0.00     0.154 C 
BRANCH  53  54
ATOM     54  N   UNL     1      24.975  25.863  16.699  1.00  0.00    -0.319 N 
ATOM     55  C   UNL     1      25.010  26.958  15.810  1.00  0.00     0.407 C 
ATOM     56  H   UNL     1      24.873  24.874  16.255  1.00  0.00     0.167 HD
ATOM     57  O   UNL     1      25.098  28.146  16.153  1.00  0.00    -0.225 OA
BRANCH  55  58
ATOM     58  O   UNL     1      24.947  26.752  14.417  1.00  0.00    -0.443 OA
BRANCH  58  59
ATOM     59  C   UNL     1      23.740  26.451  13.738  1.00  0.00     0.294 C 
BRANCH  59  60
ATOM     60  C   UNL     1      23.363  25.032  14.004  1.00  0.00     0.121 A 
ATOM     61  C   UNL     1      23.637  23.918  13.240  1.00  0.00     0.144 A 
ATOM     62  N   UNL     1      22.662  24.574  15.050  1.00  0.00    -0.131 NA
ATOM     63  N   UNL     1      23.109  22.816  13.821  1.00  0.00    -0.219 N 
ATOM     64  N   UNL     1      22.520  23.250  14.923  1.00  0.00    -0.062 NA
BRANCH  63  65
ATOM     65  C   UNL     1      23.181  21.467  13.324  1.00  0.00     0.085 A 
ATOM     66  C   UNL     1      22.104  20.920  12.642  1.00  0.00     0.027 A 
ATOM     67  C   UNL     1      24.293  20.678  13.506  1.00  0.00     0.027 A 
ATOM     68  C   UNL     1      20.961  21.659  12.428  1.00  0.00     0.012 A 
ATOM     69  C   UNL     1      22.122  19.618  12.147  1.00  0.00     0.073 A 
ATOM     70  C   UNL     1      24.271  19.398  13.000  1.00  0.00     0.073 A 
ATOM     71  C   UNL     1      25.389  21.152  14.166  1.00  0.00     0.012 A 
ATOM     72  C   UNL     1      19.891  21.117  11.748  1.00  0.00     0.001 A 
ATOM     73  C   UNL     1      21.051  19.081  11.469  1.00  0.00     0.029 A 
ATOM     74  N   UNL     1      23.221  18.878  12.341  1.00  0.00    -0.248 NA
ATOM     75  C   UNL     1      25.369  18.578  13.162  1.00  0.00     0.029 A 
ATOM     76  C   UNL     1      26.480  20.305  14.314  1.00  0.00     0.001 A 
ATOM     77  C   UNL     1      19.910  19.816  11.254  1.00  0.00     0.002 A 
ATOM     78  C   UNL     1      26.500  19.017  13.825  1.00  0.00     0.002 A 
ENDBRANCH  63  65
ENDBRANCH  59  60
ENDBRANCH  58  59
ENDBRANCH  55  58
ENDBRANCH  53  54
ENDBRANCH  50  53
ENDBRANCH  47  50
ENDBRANCH   5  47
BRANCH   4  79
ATOM     79  N   UNL     1      22.413  25.941  22.091  1.00  0.00    -0.348 N 
ATOM     80  C   UNL     1      23.016  25.013  22.992  1.00  0.00     0.217 C 
ATOM     81  H   UNL     1      21.486  26.314  22.400  1.00  0.00     0.163 HD
ATOM     82  C   UNL     1      22.305  24.656  24.265  1.00  0.00     0.114 C 
ATOM     83  O   UNL     1      24.118  24.534  22.680  1.00  0.00    -0.275 OA
ENDBRANCH   4  79
TORSDOF 30
