REMARK VINA RESULT:    -5.227      4.096      7.349
REMARK INTER + INTRA:         -22.749
REMARK INTER:                 -12.204
REMARK INTRA:                 -10.545
REMARK UNBOUND:                -8.356
REMARK SMILES CC(=O)N[C@@H]1[C@@H](O)C[C@](OC[C@H]2O[C@@H](O[C@H]3[C@H](O)[C@@H](O)[C@H](OCCN=[N+]=[N-])O[C@@H]3CO)[C@H](O)[C@@H](O)[C@H]2O)(C(=O)O)O[C@H]1C(O)[C@H](O)CNC(=O)OCc1cn([C@@H](CCC(=O)O)C(=O)O)nn1
REMARK SMILES IDX 43 1 42 2 9 3 8 4 41 5 6 6 5 7 10 8 11 9 12 10 14 11 13 12
REMARK SMILES IDX 32 13 34 14 36 15 15 16 16 17 29 18 28 19 21 20 17 21 19 22
REMARK SMILES IDX 30 23 31 24 22 26 23 27 24 28 25 29 26 30 27 31 18 32 20 34
REMARK SMILES IDX 33 36 35 38 37 40 38 42 39 43 40 44 7 46 4 48 2 49 1 51 3 52
REMARK SMILES IDX 44 53 45 55 46 56 47 58 48 59 49 60 50 62 51 63 52 64 53 65
REMARK SMILES IDX 54 66 66 67 55 68 65 69 56 70 57 71 58 72 59 73 60 74 61 75
REMARK SMILES IDX 62 77 63 78 64 79
REMARK H PARENT 31 25 18 33 20 35 33 37 35 39 37 41 40 45 7 47 4 50 44 54
REMARK H PARENT 46 57 48 61 61 76 64 80
REMARK Flexibility Score: inf
ROOT
ATOM      1  C   UNL     1      22.818  30.910  20.649  1.00  0.00     0.176 C 
ENDROOT
BRANCH   1   2
ATOM      2  C   UNL     1      22.933  29.387  20.579  1.00  0.00     0.178 C 
ATOM      3  C   UNL     1      21.799  27.699  19.392  1.00  0.00     0.272 C 
ATOM      4  C   UNL     1      21.329  26.992  20.599  1.00  0.00     0.113 C 
ATOM      5  O   UNL     1      21.850  29.060  19.764  1.00  0.00    -0.332 OA
ATOM      6  C   UNL     1      21.501  27.814  21.847  1.00  0.00     0.145 C 
ATOM      7  C   UNL     1      22.678  28.721  21.901  1.00  0.00     0.142 C 
BRANCH   3   8
ATOM      8  O   UNL     1      20.880  27.625  18.365  1.00  0.00    -0.338 OA
BRANCH   8   9
ATOM      9  C   UNL     1      20.136  28.611  17.936  1.00  0.00     0.199 C 
BRANCH   9  10
ATOM     10  C   UNL     1      18.685  28.786  18.288  1.00  0.00     0.179 C 
ATOM     11  C   UNL     1      17.622  30.035  19.948  1.00  0.00     0.282 C 
ATOM     12  O   UNL     1      18.489  29.025  19.618  1.00  0.00    -0.341 OA
ATOM     13  C   UNL     1      18.136  31.324  19.346  1.00  0.00     0.202 C 
ATOM     14  C   UNL     1      18.091  31.209  17.857  1.00  0.00     0.179 C 
ATOM     15  C   UNL     1      18.026  29.806  17.368  1.00  0.00     0.177 C 
BRANCH  11  16
ATOM     16  O   UNL     1      17.610  30.170  21.338  1.00  0.00    -0.341 OA
BRANCH  16  17
ATOM     17  C   UNL     1      16.534  29.600  21.971  1.00  0.00     0.184 C 
ATOM     18  C   UNL     1      15.214  30.156  21.446  1.00  0.00     0.178 C 
ATOM     19  O   UNL     1      14.534  30.776  22.492  1.00  0.00    -0.341 OA
ATOM     20  C   UNL     1      15.216  31.967  22.869  1.00  0.00     0.281 C 
ATOM     21  C   UNL     1      16.623  29.977  23.436  1.00  0.00     0.180 C 
ATOM     22  C   UNL     1      16.497  31.514  23.502  1.00  0.00     0.202 C 
BRANCH  18  23
ATOM     23  C   UNL     1      14.343  29.010  20.959  1.00  0.00     0.191 C 
BRANCH  23  24
ATOM     24  O   UNL     1      13.689  28.378  22.000  1.00  0.00    -0.394 OA
ATOM     25  H   UNL     1      13.210  29.021  22.584  1.00  0.00     0.210 HD
ENDBRANCH  23  24
ENDBRANCH  18  23
BRANCH  20  26
ATOM     26  O   UNL     1      14.367  32.678  23.665  1.00  0.00    -0.350 OA
BRANCH  26  27
ATOM     27  C   UNL     1      13.425  31.947  24.333  1.00  0.00     0.169 C 
BRANCH  27  28
ATOM     28  C   UNL     1      13.285  32.305  25.799  1.00  0.00     0.119 C 
BRANCH  28  29
ATOM     29  N   UNL     1      13.779  31.257  26.670  1.00  0.00    -0.092 NA
ATOM     30  N   UNL     1      14.967  30.990  26.814  1.00  0.00     0.001 N 
ATOM     31  N   UNL     1      16.158  30.926  27.027  1.00  0.00    -0.003 NA
ENDBRANCH  28  29
ENDBRANCH  27  28
ENDBRANCH  26  27
ENDBRANCH  20  26
BRANCH  21  32
ATOM     32  O   UNL     1      15.636  29.376  24.207  1.00  0.00    -0.387 OA
ATOM     33  H   UNL     1      14.800  29.935  24.268  1.00  0.00     0.211 HD
ENDBRANCH  21  32
BRANCH  22  34
ATOM     34  O   UNL     1      17.548  31.973  22.670  1.00  0.00    -0.385 OA
ATOM     35  H   UNL     1      18.193  32.453  23.250  1.00  0.00     0.211 HD
ENDBRANCH  22  34
ENDBRANCH  16  17
ENDBRANCH  11  16
BRANCH  13  36
ATOM     36  O   UNL     1      17.371  32.408  19.782  1.00  0.00    -0.385 OA
ATOM     37  H   UNL     1      16.973  32.123  20.664  1.00  0.00     0.211 HD
ENDBRANCH  13  36
BRANCH  14  38
ATOM     38  O   UNL     1      19.143  31.892  17.240  1.00  0.00    -0.387 OA
ATOM     39  H   UNL     1      19.522  31.314  16.513  1.00  0.00     0.211 HD
ENDBRANCH  14  38
BRANCH  15  40
ATOM     40  O   UNL     1      18.688  29.778  16.138  1.00  0.00    -0.387 OA
ATOM     41  H   UNL     1      19.663  29.798  16.262  1.00  0.00     0.211 HD
ENDBRANCH  15  40
ENDBRANCH   9  10
ENDBRANCH   8   9
ENDBRANCH   3   8
BRANCH   3  42
ATOM     42  C   UNL     1      23.097  27.337  18.837  1.00  0.00     0.364 C 
ATOM     43  O   UNL     1      23.442  27.870  17.720  1.00  0.00    -0.246 OA
BRANCH  42  44
ATOM     44  O   UNL     1      24.044  26.472  19.351  1.00  0.00    -0.477 OA
ATOM     45  H   UNL     1      23.851  25.512  19.519  1.00  0.00     0.296 HD
ENDBRANCH  42  44
ENDBRANCH   3  42
BRANCH   6  46
ATOM     46  O   UNL     1      20.357  28.656  21.936  1.00  0.00    -0.391 OA
ATOM     47  H   UNL     1      20.243  29.001  22.858  1.00  0.00     0.211 HD
ENDBRANCH   6  46
BRANCH   7  48
ATOM     48  N   UNL     1      23.747  28.004  22.503  1.00  0.00    -0.348 N 
ATOM     49  C   UNL     1      24.610  28.541  23.490  1.00  0.00     0.217 C 
ATOM     50  H   UNL     1      23.940  27.013  22.258  1.00  0.00     0.163 HD
ATOM     51  C   UNL     1      25.727  27.724  24.083  1.00  0.00     0.114 C 
ATOM     52  O   UNL     1      24.464  29.695  23.886  1.00  0.00    -0.275 OA
ENDBRANCH   7  48
ENDBRANCH   1   2
BRANCH   1  53
ATOM     53  O   UNL     1      23.394  31.360  21.831  1.00  0.00    -0.388 OA
ATOM     54  H   UNL     1      24.204  31.901  21.629  1.00  0.00     0.211 HD
ENDBRANCH   1  53
BRANCH   1  55
ATOM     55  C   UNL     1      21.496  31.486  20.449  1.00  0.00     0.165 C 
BRANCH  55  56
ATOM     56  O   UNL     1      21.534  32.286  19.267  1.00  0.00    -0.388 OA
ATOM     57  H   UNL     1      21.803  33.196  19.533  1.00  0.00     0.211 HD
ENDBRANCH  55  56
BRANCH  55  58
ATOM     58  C   UNL     1      20.950  32.397  21.507  1.00  0.00     0.154 C 
BRANCH  58  59
ATOM     59  N   UNL     1      20.346  31.692  22.613  1.00  0.00    -0.319 N 
ATOM     60  C   UNL     1      20.870  31.701  23.939  1.00  0.00     0.407 C 
ATOM     61  H   UNL     1      19.492  31.136  22.447  1.00  0.00     0.167 HD
ATOM     62  O   UNL     1      21.892  32.331  24.209  1.00  0.00    -0.225 OA
BRANCH  60  63
ATOM     63  O   UNL     1      20.203  30.987  24.903  1.00  0.00    -0.443 OA
BRANCH  63  64
ATOM     64  C   UNL     1      20.838  30.305  25.945  1.00  0.00     0.294 C 
BRANCH  64  65
ATOM     65  C   UNL     1      20.978  28.871  25.591  1.00  0.00     0.120 A 
ATOM     66  C   UNL     1      22.039  28.018  25.806  1.00  0.00     0.139 A 
ATOM     67  N   UNL     1      20.044  28.126  24.941  1.00  0.00    -0.132 NA
ATOM     68  N   UNL     1      21.731  26.793  25.292  1.00  0.00    -0.238 N 
ATOM     69  N   UNL     1      20.506  26.904  24.775  1.00  0.00    -0.066 NA
BRANCH  68  70
ATOM     70  C   UNL     1      22.543  25.632  25.328  1.00  0.00     0.219 C 
BRANCH  70  71
ATOM     71  C   UNL     1      22.288  24.592  26.354  1.00  0.00     0.051 C 
BRANCH  71  72
ATOM     72  C   UNL     1      23.057  24.592  27.610  1.00  0.00     0.125 C 
BRANCH  72  73
ATOM     73  C   UNL     1      22.852  25.649  28.579  1.00  0.00     0.303 C 
ATOM     74  O   UNL     1      21.786  26.060  29.068  1.00  0.00    -0.252 OA
BRANCH  73  75
ATOM     75  O   UNL     1      23.996  26.350  29.077  1.00  0.00    -0.481 OA
ATOM     76  H   UNL     1      23.882  26.975  29.859  1.00  0.00     0.296 HD
ENDBRANCH  73  75
ENDBRANCH  72  73
ENDBRANCH  71  72
ENDBRANCH  70  71
BRANCH  70  77
ATOM     77  C   UNL     1      22.499  24.980  23.982  1.00  0.00     0.328 C 
ATOM     78  O   UNL     1      23.512  24.958  23.257  1.00  0.00    -0.250 OA
BRANCH  77  79
ATOM     79  O   UNL     1      21.349  24.385  23.496  1.00  0.00    -0.480 OA
ATOM     80  H   UNL     1      20.546  24.197  24.098  1.00  0.00     0.296 HD
ENDBRANCH  77  79
ENDBRANCH  70  77
ENDBRANCH  68  70
ENDBRANCH  64  65
ENDBRANCH  63  64
ENDBRANCH  60  63
ENDBRANCH  58  59
ENDBRANCH  55  58
ENDBRANCH   1  55
TORSDOF 36
