REMARK VINA RESULT:    -5.356      2.805     10.264
REMARK INTER + INTRA:         -21.413
REMARK INTER:                 -14.532
REMARK INTRA:                  -6.881
REMARK UNBOUND:                -7.602
REMARK SMILES CC(=O)N[C@@H]1[C@@H](O)C[C@](OC[C@H]2O[C@@H](O[C@H]3[C@H](O)[C@@H](O)[C@H](OCCN=[N+]=[N-])O[C@@H]3CO)[C@H](O)[C@@H](O)[C@H]2O)(C(=O)O)O[C@H]1C(O)[C@H](O)CNC(=O)OCc1cn(CC(=O)Nc2ncccn2)nn1
REMARK SMILES IDX 9 1 8 2 6 3 5 4 42 5 41 6 10 7 11 8 12 9 14 10 13 11 32 12
REMARK SMILES IDX 34 13 36 14 15 15 16 16 29 17 28 18 21 19 17 20 19 21 30 22
REMARK SMILES IDX 31 23 22 25 23 26 24 27 25 28 26 29 27 30 18 31 20 33 33 35
REMARK SMILES IDX 35 37 37 39 38 41 39 42 40 43 7 45 43 47 44 48 45 50 46 51
REMARK SMILES IDX 47 53 48 54 49 55 50 57 51 58 52 59 53 60 54 61 67 62 55 63
REMARK SMILES IDX 66 64 56 65 57 66 58 67 59 68 60 70 61 71 65 72 62 73 64 74
REMARK SMILES IDX 63 75 4 76 2 77 1 79 3 80
REMARK H PARENT 31 24 18 32 20 34 33 36 35 38 37 40 40 44 7 46 44 49 46 52
REMARK H PARENT 48 56 59 69 4 78
REMARK Flexibility Score: inf
ROOT
ATOM      1  C   UNL     1      17.408  29.465  19.213  1.00  0.00     0.272 C 
ATOM      2  C   UNL     1      17.254  30.585  18.198  1.00  0.00     0.113 C 
ATOM      3  C   UNL     1      16.044  30.390  17.378  1.00  0.00     0.145 C 
ATOM      4  C   UNL     1      14.787  30.004  18.142  1.00  0.00     0.142 C 
ATOM      5  C   UNL     1      15.054  29.291  19.390  1.00  0.00     0.178 C 
ATOM      6  O   UNL     1      16.225  29.706  20.008  1.00  0.00    -0.332 OA
ENDROOT
BRANCH   1   7
ATOM      7  O   UNL     1      18.441  29.738  20.001  1.00  0.00    -0.338 OA
BRANCH   7   8
ATOM      8  C   UNL     1      19.254  29.152  20.783  1.00  0.00     0.199 C 
BRANCH   8   9
ATOM      9  C   UNL     1      20.716  29.396  20.957  1.00  0.00     0.179 C 
ATOM     10  C   UNL     1      22.559  28.290  21.869  1.00  0.00     0.282 C 
ATOM     11  O   UNL     1      21.206  28.264  21.740  1.00  0.00    -0.341 OA
ATOM     12  C   UNL     1      23.217  27.757  20.554  1.00  0.00     0.202 C 
ATOM     13  C   UNL     1      22.091  27.905  19.550  1.00  0.00     0.179 C 
ATOM     14  C   UNL     1      21.579  29.350  19.751  1.00  0.00     0.177 C 
BRANCH  10  15
ATOM     15  O   UNL     1      22.948  27.420  22.896  1.00  0.00    -0.341 OA
BRANCH  15  16
ATOM     16  C   UNL     1      21.870  26.927  23.619  1.00  0.00     0.184 C 
ATOM     17  C   UNL     1      22.021  27.416  25.066  1.00  0.00     0.178 C 
ATOM     18  O   UNL     1      21.930  26.361  25.962  1.00  0.00    -0.341 OA
ATOM     19  C   UNL     1      22.977  25.447  25.776  1.00  0.00     0.281 C 
ATOM     20  C   UNL     1      21.822  25.448  23.533  1.00  0.00     0.180 C 
ATOM     21  C   UNL     1      22.664  24.692  24.516  1.00  0.00     0.202 C 
BRANCH  17  22
ATOM     22  C   UNL     1      20.895  28.379  25.400  1.00  0.00     0.191 C 
BRANCH  22  23
ATOM     23  O   UNL     1      19.903  28.348  24.418  1.00  0.00    -0.394 OA
ATOM     24  H   UNL     1      19.481  27.449  24.342  1.00  0.00     0.210 HD
ENDBRANCH  22  23
ENDBRANCH  17  22
BRANCH  19  25
ATOM     25  O   UNL     1      22.943  24.607  26.873  1.00  0.00    -0.350 OA
BRANCH  25  26
ATOM     26  C   UNL     1      22.670  25.252  28.061  1.00  0.00     0.169 C 
BRANCH  26  27
ATOM     27  C   UNL     1      23.779  25.158  29.086  1.00  0.00     0.119 C 
BRANCH  27  28
ATOM     28  N   UNL     1      24.991  25.820  28.632  1.00  0.00    -0.092 NA
ATOM     29  N   UNL     1      26.040  25.779  29.282  1.00  0.00     0.001 N 
ATOM     30  N   UNL     1      26.935  25.742  30.119  1.00  0.00    -0.003 NA
ENDBRANCH  27  28
ENDBRANCH  26  27
ENDBRANCH  25  26
ENDBRANCH  19  25
BRANCH  20  31
ATOM     31  O   UNL     1      20.486  25.019  23.769  1.00  0.00    -0.387 OA
ATOM     32  H   UNL     1      20.031  25.679  24.368  1.00  0.00     0.211 HD
ENDBRANCH  20  31
BRANCH  21  33
ATOM     33  O   UNL     1      23.848  24.315  23.892  1.00  0.00    -0.385 OA
ATOM     34  H   UNL     1      24.602  24.420  24.520  1.00  0.00     0.211 HD
ENDBRANCH  21  33
ENDBRANCH  15  16
ENDBRANCH  10  15
BRANCH  12  35
ATOM     35  O   UNL     1      24.196  28.678  20.166  1.00  0.00    -0.385 OA
ATOM     36  H   UNL     1      24.727  28.233  19.452  1.00  0.00     0.211 HD
ENDBRANCH  12  35
BRANCH  13  37
ATOM     37  O   UNL     1      21.105  26.965  19.683  1.00  0.00    -0.387 OA
ATOM     38  H   UNL     1      21.281  26.133  19.204  1.00  0.00     0.211 HD
ENDBRANCH  13  37
BRANCH  14  39
ATOM     39  O   UNL     1      21.130  29.802  18.561  1.00  0.00    -0.387 OA
ATOM     40  H   UNL     1      21.836  30.252  18.036  1.00  0.00     0.211 HD
ENDBRANCH  14  39
ENDBRANCH   8   9
ENDBRANCH   7   8
ENDBRANCH   1   7
BRANCH   1  41
ATOM     41  C   UNL     1      17.340  28.118  18.689  1.00  0.00     0.364 C 
ATOM     42  O   UNL     1      18.089  27.775  17.712  1.00  0.00    -0.246 OA
BRANCH  41  43
ATOM     43  O   UNL     1      16.510  27.122  19.148  1.00  0.00    -0.477 OA
ATOM     44  H   UNL     1      16.070  26.430  18.592  1.00  0.00     0.296 HD
ENDBRANCH  41  43
ENDBRANCH   1  41
BRANCH   3  45
ATOM     45  O   UNL     1      15.816  31.606  16.687  1.00  0.00    -0.391 OA
ATOM     46  H   UNL     1      16.657  31.860  16.199  1.00  0.00     0.211 HD
ENDBRANCH   3  45
BRANCH   5  47
ATOM     47  C   UNL     1      13.976  29.477  20.489  1.00  0.00     0.176 C 
BRANCH  47  48
ATOM     48  O   UNL     1      14.130  28.719  21.586  1.00  0.00    -0.388 OA
ATOM     49  H   UNL     1      14.814  29.041  22.238  1.00  0.00     0.211 HD
ENDBRANCH  47  48
BRANCH  47  50
ATOM     50  C   UNL     1      13.366  30.789  20.568  1.00  0.00     0.165 C 
BRANCH  50  51
ATOM     51  O   UNL     1      14.543  31.711  20.665  1.00  0.00    -0.388 OA
ATOM     52  H   UNL     1      14.435  32.241  21.470  1.00  0.00     0.211 HD
ENDBRANCH  50  51
BRANCH  50  53
ATOM     53  C   UNL     1      12.419  31.250  21.563  1.00  0.00     0.154 C 
BRANCH  53  54
ATOM     54  N   UNL     1      12.568  31.301  22.943  1.00  0.00    -0.319 N 
ATOM     55  C   UNL     1      12.309  30.408  24.002  1.00  0.00     0.407 C 
ATOM     56  H   UNL     1      12.988  32.275  23.297  1.00  0.00     0.167 HD
ATOM     57  O   UNL     1      11.826  29.280  23.792  1.00  0.00    -0.225 OA
BRANCH  55  58
ATOM     58  O   UNL     1      12.584  30.742  25.304  1.00  0.00    -0.443 OA
BRANCH  58  59
ATOM     59  C   UNL     1      13.775  30.901  25.932  1.00  0.00     0.294 C 
BRANCH  59  60
ATOM     60  C   UNL     1      14.953  30.547  25.108  1.00  0.00     0.120 A 
ATOM     61  C   UNL     1      16.100  31.329  24.918  1.00  0.00     0.138 A 
ATOM     62  N   UNL     1      15.175  29.461  24.315  1.00  0.00    -0.132 NA
ATOM     63  N   UNL     1      16.935  30.730  24.063  1.00  0.00    -0.243 N 
ATOM     64  N   UNL     1      16.338  29.602  23.721  1.00  0.00    -0.067 NA
BRANCH  63  65
ATOM     65  C   UNL     1      18.229  31.166  23.574  1.00  0.00     0.246 C 
BRANCH  65  66
ATOM     66  C   UNL     1      18.008  32.423  22.759  1.00  0.00     0.248 C 
ATOM     67  O   UNL     1      18.194  33.566  23.242  1.00  0.00    -0.272 OA
ATOM     68  N   UNL     1      17.581  32.326  21.412  1.00  0.00    -0.293 N 
ATOM     69  H   UNL     1      17.441  31.346  21.060  1.00  0.00     0.173 HD
BRANCH  68  70
ATOM     70  C   UNL     1      17.349  33.403  20.530  1.00  0.00     0.229 A 
ATOM     71  N   UNL     1      16.198  34.096  20.460  1.00  0.00    -0.221 NA
ATOM     72  N   UNL     1      18.343  33.761  19.693  1.00  0.00    -0.221 NA
ATOM     73  C   UNL     1      16.009  35.127  19.584  1.00  0.00     0.117 A 
ATOM     74  C   UNL     1      18.214  34.760  18.820  1.00  0.00     0.117 A 
ATOM     75  C   UNL     1      17.045  35.468  18.742  1.00  0.00     0.040 A 
ENDBRANCH  68  70
ENDBRANCH  65  66
ENDBRANCH  63  65
ENDBRANCH  59  60
ENDBRANCH  58  59
ENDBRANCH  55  58
ENDBRANCH  53  54
ENDBRANCH  50  53
ENDBRANCH  47  50
ENDBRANCH   5  47
BRANCH   4  76
ATOM     76  N   UNL     1      13.928  29.372  17.186  1.00  0.00    -0.348 N 
ATOM     77  C   UNL     1      12.852  30.096  16.547  1.00  0.00     0.217 C 
ATOM     78  H   UNL     1      14.045  28.361  16.910  1.00  0.00     0.163 HD
ATOM     79  C   UNL     1      12.008  29.384  15.566  1.00  0.00     0.114 C 
ATOM     80  O   UNL     1      12.651  31.295  16.830  1.00  0.00    -0.275 OA
ENDBRANCH   4  76
TORSDOF 32
