REMARK VINA RESULT:    -5.673      9.544     16.415
REMARK INTER + INTRA:         -20.561
REMARK INTER:                 -17.157
REMARK INTRA:                  -3.404
REMARK UNBOUND:                -6.597
REMARK SMILES CC(=O)N[C@@H]1[C@@H](O)C[C@](OC[C@H]2O[C@@H](O[C@H]3[C@H](O)[C@@H](O)[C@H](OCCN=[N+]=[N-])O[C@@H]3CO)[C@H](O)[C@@H](O)[C@H]2O)(C(=O)O)O[C@H]1C(O)[C@H](O)CNC(=O)OCc1cn(-c2ccccc2)nn1
REMARK SMILES IDX 9 1 8 2 6 3 5 4 42 5 41 6 10 7 11 8 12 9 14 10 13 11 32 12
REMARK SMILES IDX 34 13 36 14 15 15 16 16 29 17 28 18 21 19 17 20 19 21 30 22
REMARK SMILES IDX 31 23 22 25 23 26 24 27 25 28 26 29 27 30 18 31 20 33 33 35
REMARK SMILES IDX 35 37 37 39 38 41 39 42 40 43 7 45 43 47 44 48 45 50 46 51
REMARK SMILES IDX 47 53 48 54 49 55 50 57 51 58 52 59 53 60 54 61 63 62 55 63
REMARK SMILES IDX 62 64 56 65 57 66 61 67 58 68 60 69 59 70 4 71 2 72 1 74
REMARK SMILES IDX 3 75
REMARK H PARENT 31 24 18 32 20 34 33 36 35 38 37 40 40 44 7 46 44 49 46 52
REMARK H PARENT 48 56 4 73
REMARK Flexibility Score: inf
ROOT
ATOM      1  C   UNL     1      28.820  19.755  17.828  1.00  0.00     0.272 C 
ATOM      2  C   UNL     1      29.056  18.683  18.825  1.00  0.00     0.113 C 
ATOM      3  C   UNL     1      29.367  19.153  20.197  1.00  0.00     0.145 C 
ATOM      4  C   UNL     1      28.479  20.325  20.572  1.00  0.00     0.142 C 
ATOM      5  C   UNL     1      28.730  21.391  19.529  1.00  0.00     0.178 C 
ATOM      6  O   UNL     1      28.179  20.910  18.371  1.00  0.00    -0.332 OA
ENDROOT
BRANCH   1   7
ATOM      7  O   UNL     1      27.981  19.427  16.803  1.00  0.00    -0.338 OA
BRANCH   7   8
ATOM      8  C   UNL     1      28.344  18.778  15.713  1.00  0.00     0.199 C 
BRANCH   8   9
ATOM      9  C   UNL     1      27.935  19.181  14.350  1.00  0.00     0.179 C 
ATOM     10  C   UNL     1      26.166  18.829  12.870  1.00  0.00     0.282 C 
ATOM     11  O   UNL     1      26.780  18.387  14.062  1.00  0.00    -0.341 OA
ATOM     12  C   UNL     1      26.948  19.856  12.120  1.00  0.00     0.202 C 
ATOM     13  C   UNL     1      27.210  21.078  12.973  1.00  0.00     0.179 C 
ATOM     14  C   UNL     1      27.423  20.627  14.389  1.00  0.00     0.177 C 
BRANCH  10  15
ATOM     15  O   UNL     1      24.962  19.339  13.194  1.00  0.00    -0.341 OA
BRANCH  15  16
ATOM     16  C   UNL     1      23.812  18.695  12.923  1.00  0.00     0.184 C 
ATOM     17  C   UNL     1      23.604  18.323  11.473  1.00  0.00     0.178 C 
ATOM     18  O   UNL     1      22.210  18.204  11.309  1.00  0.00    -0.341 OA
ATOM     19  C   UNL     1      21.753  19.524  11.104  1.00  0.00     0.281 C 
ATOM     20  C   UNL     1      22.574  19.456  13.400  1.00  0.00     0.180 C 
ATOM     21  C   UNL     1      22.082  20.384  12.308  1.00  0.00     0.202 C 
BRANCH  17  22
ATOM     22  C   UNL     1      24.201  16.975  11.132  1.00  0.00     0.191 C 
BRANCH  22  23
ATOM     23  O   UNL     1      23.954  16.102  12.195  1.00  0.00    -0.394 OA
ATOM     24  H   UNL     1      23.145  16.389  12.724  1.00  0.00     0.210 HD
ENDBRANCH  22  23
ENDBRANCH  17  22
BRANCH  19  25
ATOM     25  O   UNL     1      20.412  19.578  10.880  1.00  0.00    -0.350 OA
BRANCH  25  26
ATOM     26  C   UNL     1      19.970  19.389   9.599  1.00  0.00     0.169 C 
BRANCH  26  27
ATOM     27  C   UNL     1      20.632  20.241   8.563  1.00  0.00     0.119 C 
BRANCH  27  28
ATOM     28  N   UNL     1      20.128  21.564   8.558  1.00  0.00    -0.092 NA
ATOM     29  N   UNL     1      20.592  22.451   9.298  1.00  0.00     0.001 N 
ATOM     30  N   UNL     1      20.933  23.089  10.307  1.00  0.00    -0.003 NA
ENDBRANCH  27  28
ENDBRANCH  26  27
ENDBRANCH  25  26
ENDBRANCH  19  25
BRANCH  20  31
ATOM     31  O   UNL     1      21.517  18.621  13.733  1.00  0.00    -0.387 OA
ATOM     32  H   UNL     1      20.667  18.934  13.339  1.00  0.00     0.211 HD
ENDBRANCH  20  31
BRANCH  21  33
ATOM     33  O   UNL     1      23.004  21.357  11.983  1.00  0.00    -0.385 OA
ATOM     34  H   UNL     1      23.802  21.354  12.559  1.00  0.00     0.211 HD
ENDBRANCH  21  33
ENDBRANCH  15  16
ENDBRANCH  10  15
BRANCH  12  35
ATOM     35  O   UNL     1      28.079  19.371  11.476  1.00  0.00    -0.385 OA
ATOM     36  H   UNL     1      28.044  19.688  10.537  1.00  0.00     0.211 HD
ENDBRANCH  12  35
BRANCH  13  37
ATOM     37  O   UNL     1      26.095  21.895  12.931  1.00  0.00    -0.387 OA
ATOM     38  H   UNL     1      26.301  22.862  12.894  1.00  0.00     0.211 HD
ENDBRANCH  13  37
BRANCH  14  39
ATOM     39  O   UNL     1      26.198  20.574  15.093  1.00  0.00    -0.387 OA
ATOM     40  H   UNL     1      25.766  21.452  15.122  1.00  0.00     0.211 HD
ENDBRANCH  14  39
ENDBRANCH   8   9
ENDBRANCH   7   8
ENDBRANCH   1   7
BRANCH   1  41
ATOM     41  C   UNL     1      30.114  20.313  17.373  1.00  0.00     0.364 C 
ATOM     42  O   UNL     1      30.190  21.399  16.799  1.00  0.00    -0.246 OA
BRANCH  41  43
ATOM     43  O   UNL     1      31.308  19.594  17.589  1.00  0.00    -0.477 OA
ATOM     44  H   UNL     1      32.115  20.101  17.949  1.00  0.00     0.296 HD
ENDBRANCH  41  43
ENDBRANCH   1  41
BRANCH   3  45
ATOM     45  O   UNL     1      29.227  18.099  21.096  1.00  0.00    -0.391 OA
ATOM     46  H   UNL     1      29.735  17.349  20.741  1.00  0.00     0.211 HD
ENDBRANCH   3  45
BRANCH   5  47
ATOM     47  C   UNL     1      27.980  22.676  19.865  1.00  0.00     0.176 C 
BRANCH  47  48
ATOM     48  O   UNL     1      27.105  22.398  20.880  1.00  0.00    -0.388 OA
ATOM     49  H   UNL     1      26.418  21.732  20.657  1.00  0.00     0.211 HD
ENDBRANCH  47  48
BRANCH  47  50
ATOM     50  C   UNL     1      28.818  23.855  20.139  1.00  0.00     0.165 C 
BRANCH  50  51
ATOM     51  O   UNL     1      28.795  24.037  21.558  1.00  0.00    -0.388 OA
ATOM     52  H   UNL     1      27.905  24.370  21.772  1.00  0.00     0.211 HD
ENDBRANCH  50  51
BRANCH  50  53
ATOM     53  C   UNL     1      28.179  25.150  19.610  1.00  0.00     0.154 C 
BRANCH  53  54
ATOM     54  N   UNL     1      26.948  24.896  18.905  1.00  0.00    -0.319 N 
ATOM     55  C   UNL     1      26.406  25.843  17.969  1.00  0.00     0.407 C 
ATOM     56  H   UNL     1      26.389  24.026  19.029  1.00  0.00     0.167 HD
ATOM     57  O   UNL     1      27.000  26.919  17.728  1.00  0.00    -0.225 OA
BRANCH  55  58
ATOM     58  O   UNL     1      25.218  25.589  17.309  1.00  0.00    -0.443 OA
BRANCH  58  59
ATOM     59  C   UNL     1      24.017  26.266  17.660  1.00  0.00     0.294 C 
BRANCH  59  60
ATOM     60  C   UNL     1      23.370  25.418  18.704  1.00  0.00     0.121 A 
ATOM     61  C   UNL     1      23.383  25.731  20.057  1.00  0.00     0.144 A 
ATOM     62  N   UNL     1      22.691  24.272  18.608  1.00  0.00    -0.131 NA
ATOM     63  N   UNL     1      22.713  24.767  20.740  1.00  0.00    -0.220 N 
ATOM     64  N   UNL     1      22.311  23.904  19.835  1.00  0.00    -0.062 NA
BRANCH  63  65
ATOM     65  C   UNL     1      22.501  24.710  22.142  1.00  0.00     0.066 A 
ATOM     66  C   UNL     1      23.549  24.673  23.032  1.00  0.00     0.028 A 
ATOM     67  C   UNL     1      21.219  24.696  22.644  1.00  0.00     0.028 A 
ATOM     68  C   UNL     1      23.352  24.624  24.396  1.00  0.00     0.002 A 
ATOM     69  C   UNL     1      21.025  24.647  24.016  1.00  0.00     0.002 A 
ATOM     70  C   UNL     1      22.058  24.609  24.920  1.00  0.00     0.000 A 
ENDBRANCH  63  65
ENDBRANCH  59  60
ENDBRANCH  58  59
ENDBRANCH  55  58
ENDBRANCH  53  54
ENDBRANCH  50  53
ENDBRANCH  47  50
ENDBRANCH   5  47
BRANCH   4  71
ATOM     71  N   UNL     1      28.651  20.713  21.927  1.00  0.00    -0.348 N 
ATOM     72  C   UNL     1      29.963  20.921  22.426  1.00  0.00     0.217 C 
ATOM     73  H   UNL     1      27.851  20.867  22.568  1.00  0.00     0.163 HD
ATOM     74  C   UNL     1      30.172  21.331  23.848  1.00  0.00     0.114 C 
ATOM     75  O   UNL     1      30.996  20.773  21.706  1.00  0.00    -0.275 OA
ENDBRANCH   4  71
TORSDOF 30
