REMARK VINA RESULT:    -4.940     13.893     19.445
REMARK INTER + INTRA:         -21.145
REMARK INTER:                 -14.809
REMARK INTRA:                  -6.335
REMARK UNBOUND:                -8.118
REMARK SMILES CC(=O)N[C@@H]1[C@@H](O)C[C@](OC[C@H]2O[C@@H](O[C@H]3[C@H](O)[C@@H](O)[C@H](OCCN=[N+]=[N-])O[C@@H]3CO)[C@H](O)[C@@H](O)[C@H]2O)(C(=O)O)O[C@H]1C(O)[C@H](O)CNC(=O)OCc1cn(CCOC(C)=O)nn1
REMARK SMILES IDX 43 1 42 2 9 3 8 4 41 5 6 6 5 7 10 8 11 9 12 10 14 11 13 12
REMARK SMILES IDX 32 13 34 14 36 15 15 16 16 17 29 18 28 19 21 20 17 21 19 22
REMARK SMILES IDX 30 23 31 24 22 26 23 27 24 28 25 29 26 30 27 31 18 32 20 34
REMARK SMILES IDX 33 36 35 38 37 40 38 42 39 43 40 44 7 46 4 48 2 49 1 51 3 52
REMARK SMILES IDX 44 53 45 55 46 56 47 58 48 59 49 60 50 62 51 63 52 64 53 65
REMARK SMILES IDX 54 66 63 67 55 68 62 69 56 70 57 71 58 72 59 73 61 74 60 75
REMARK H PARENT 31 25 18 33 20 35 33 37 35 39 37 41 40 45 7 47 4 50 44 54
REMARK H PARENT 46 57 48 61
REMARK Flexibility Score: inf
ROOT
ATOM      1  C   UNL     1      13.358  29.933  20.981  1.00  0.00     0.176 C 
ENDROOT
BRANCH   1   2
ATOM      2  C   UNL     1      13.927  30.771  22.098  1.00  0.00     0.178 C 
ATOM      3  C   UNL     1      15.993  31.737  22.692  1.00  0.00     0.272 C 
ATOM      4  C   UNL     1      15.109  32.283  23.788  1.00  0.00     0.113 C 
ATOM      5  O   UNL     1      15.235  31.092  21.678  1.00  0.00    -0.332 OA
ATOM      6  C   UNL     1      14.263  31.243  24.430  1.00  0.00     0.145 C 
ATOM      7  C   UNL     1      14.096  30.078  23.413  1.00  0.00     0.142 C 
BRANCH   3   8
ATOM      8  O   UNL     1      16.937  30.895  23.034  1.00  0.00    -0.338 OA
BRANCH   8   9
ATOM      9  C   UNL     1      17.966  30.413  22.394  1.00  0.00     0.199 C 
BRANCH   9  10
ATOM     10  C   UNL     1      19.326  30.235  22.920  1.00  0.00     0.179 C 
ATOM     11  C   UNL     1      20.408  29.214  24.680  1.00  0.00     0.282 C 
ATOM     12  O   UNL     1      19.295  29.111  23.832  1.00  0.00    -0.341 OA
ATOM     13  C   UNL     1      21.654  29.610  24.006  1.00  0.00     0.202 C 
ATOM     14  C   UNL     1      21.644  29.681  22.519  1.00  0.00     0.179 C 
ATOM     15  C   UNL     1      20.308  29.690  21.864  1.00  0.00     0.177 C 
BRANCH  11  16
ATOM     16  O   UNL     1      20.450  28.046  25.422  1.00  0.00    -0.341 OA
BRANCH  16  17
ATOM     17  C   UNL     1      21.716  27.688  25.807  1.00  0.00     0.184 C 
ATOM     18  C   UNL     1      21.833  26.182  25.848  1.00  0.00     0.178 C 
ATOM     19  O   UNL     1      23.161  25.919  26.213  1.00  0.00    -0.341 OA
ATOM     20  C   UNL     1      23.318  26.126  27.551  1.00  0.00     0.281 C 
ATOM     21  C   UNL     1      22.086  28.270  27.162  1.00  0.00     0.180 C 
ATOM     22  C   UNL     1      22.454  27.211  28.149  1.00  0.00     0.202 C 
BRANCH  18  23
ATOM     23  C   UNL     1      21.592  25.604  24.466  1.00  0.00     0.191 C 
BRANCH  23  24
ATOM     24  O   UNL     1      22.315  26.316  23.528  1.00  0.00    -0.394 OA
ATOM     25  H   UNL     1      21.723  27.073  23.241  1.00  0.00     0.210 HD
ENDBRANCH  23  24
ENDBRANCH  18  23
BRANCH  20  26
ATOM     26  O   UNL     1      24.676  26.383  27.780  1.00  0.00    -0.350 OA
BRANCH  26  27
ATOM     27  C   UNL     1      24.888  26.882  29.060  1.00  0.00     0.169 C 
BRANCH  27  28
ATOM     28  C   UNL     1      25.409  25.698  29.882  1.00  0.00     0.119 C 
BRANCH  28  29
ATOM     29  N   UNL     1      26.790  25.971  30.240  1.00  0.00    -0.092 NA
ATOM     30  N   UNL     1      27.397  25.311  31.093  1.00  0.00     0.001 N 
ATOM     31  N   UNL     1      27.868  24.933  32.182  1.00  0.00    -0.003 NA
ENDBRANCH  28  29
ENDBRANCH  27  28
ENDBRANCH  26  27
ENDBRANCH  20  26
BRANCH  21  32
ATOM     32  O   UNL     1      23.068  29.250  27.084  1.00  0.00    -0.387 OA
ATOM     33  H   UNL     1      23.688  29.134  26.323  1.00  0.00     0.211 HD
ENDBRANCH  21  32
BRANCH  22  34
ATOM     34  O   UNL     1      21.334  26.726  28.795  1.00  0.00    -0.385 OA
ATOM     35  H   UNL     1      21.046  27.404  29.473  1.00  0.00     0.211 HD
ENDBRANCH  22  34
ENDBRANCH  16  17
ENDBRANCH  11  16
BRANCH  13  36
ATOM     36  O   UNL     1      22.206  30.790  24.570  1.00  0.00    -0.385 OA
ATOM     37  H   UNL     1      23.167  30.863  24.392  1.00  0.00     0.211 HD
ENDBRANCH  13  36
BRANCH  14  38
ATOM     38  O   UNL     1      22.394  28.641  21.947  1.00  0.00    -0.387 OA
ATOM     39  H   UNL     1      23.272  29.023  21.649  1.00  0.00     0.211 HD
ENDBRANCH  14  38
BRANCH  15  40
ATOM     40  O   UNL     1      19.957  28.332  21.630  1.00  0.00    -0.387 OA
ATOM     41  H   UNL     1      18.986  28.235  21.557  1.00  0.00     0.211 HD
ENDBRANCH  15  40
ENDBRANCH   9  10
ENDBRANCH   8   9
ENDBRANCH   3   8
BRANCH   3  42
ATOM     42  C   UNL     1      16.476  32.938  21.954  1.00  0.00     0.364 C 
ATOM     43  O   UNL     1      16.975  33.961  22.459  1.00  0.00    -0.246 OA
BRANCH  42  44
ATOM     44  O   UNL     1      16.381  32.974  20.545  1.00  0.00    -0.477 OA
ATOM     45  H   UNL     1      16.279  32.104  20.045  1.00  0.00     0.296 HD
ENDBRANCH  42  44
ENDBRANCH   3  42
BRANCH   6  46
ATOM     46  O   UNL     1      14.715  30.772  25.641  1.00  0.00    -0.391 OA
ATOM     47  H   UNL     1      14.379  31.288  26.418  1.00  0.00     0.211 HD
ENDBRANCH   6  46
BRANCH   7  48
ATOM     48  N   UNL     1      13.045  29.222  23.854  1.00  0.00    -0.348 N 
ATOM     49  C   UNL     1      11.737  29.705  24.115  1.00  0.00     0.217 C 
ATOM     50  H   UNL     1      13.228  28.212  23.966  1.00  0.00     0.163 HD
ATOM     51  C   UNL     1      10.640  28.801  24.577  1.00  0.00     0.114 C 
ATOM     52  O   UNL     1      11.436  30.929  23.967  1.00  0.00    -0.275 OA
ENDBRANCH   7  48
ENDBRANCH   1   2
BRANCH   1  53
ATOM     53  O   UNL     1      13.854  28.616  21.239  1.00  0.00    -0.388 OA
ATOM     54  H   UNL     1      13.410  27.969  20.652  1.00  0.00     0.211 HD
ENDBRANCH   1  53
BRANCH   1  55
ATOM     55  C   UNL     1      14.001  30.308  19.668  1.00  0.00     0.165 C 
BRANCH  55  56
ATOM     56  O   UNL     1      13.113  31.108  18.932  1.00  0.00    -0.388 OA
ATOM     57  H   UNL     1      12.416  30.529  18.562  1.00  0.00     0.211 HD
ENDBRANCH  55  56
BRANCH  55  58
ATOM     58  C   UNL     1      14.464  29.124  18.877  1.00  0.00     0.154 C 
BRANCH  58  59
ATOM     59  N   UNL     1      15.876  29.027  18.676  1.00  0.00    -0.319 N 
ATOM     60  C   UNL     1      16.732  28.284  19.511  1.00  0.00     0.407 C 
ATOM     61  H   UNL     1      16.360  29.523  17.865  1.00  0.00     0.167 HD
ATOM     62  O   UNL     1      16.321  27.636  20.496  1.00  0.00    -0.225 OA
BRANCH  60  63
ATOM     63  O   UNL     1      18.117  28.228  19.288  1.00  0.00    -0.443 OA
BRANCH  63  64
ATOM     64  C   UNL     1      18.775  29.095  18.409  1.00  0.00     0.294 C 
BRANCH  64  65
ATOM     65  C   UNL     1      20.008  28.482  17.842  1.00  0.00     0.120 A 
ATOM     66  C   UNL     1      21.256  28.576  18.433  1.00  0.00     0.138 A 
ATOM     67  N   UNL     1      20.184  27.758  16.741  1.00  0.00    -0.132 NA
ATOM     68  N   UNL     1      22.119  27.909  17.662  1.00  0.00    -0.249 N 
ATOM     69  N   UNL     1      21.446  27.419  16.637  1.00  0.00    -0.067 NA
BRANCH  68  70
ATOM     70  C   UNL     1      23.564  27.746  17.880  1.00  0.00     0.187 C 
BRANCH  70  71
ATOM     71  C   UNL     1      23.804  26.974  19.158  1.00  0.00     0.256 C 
BRANCH  71  72
ATOM     72  O   UNL     1      23.014  25.790  19.121  1.00  0.00    -0.464 OA
BRANCH  72  73
ATOM     73  C   UNL     1      22.377  25.331  20.270  1.00  0.00     0.302 C 
ATOM     74  O   UNL     1      21.525  26.077  20.808  1.00  0.00    -0.253 OA
ATOM     75  C   UNL     1      22.677  23.990  20.872  1.00  0.00     0.139 C 
ENDBRANCH  72  73
ENDBRANCH  71  72
ENDBRANCH  70  71
ENDBRANCH  68  70
ENDBRANCH  64  65
ENDBRANCH  63  64
ENDBRANCH  60  63
ENDBRANCH  58  59
ENDBRANCH  55  58
ENDBRANCH   1  55
TORSDOF 33
