REMARK VINA RESULT:    -5.608      2.998      7.923
REMARK INTER + INTRA:         -21.629
REMARK INTER:                 -12.494
REMARK INTRA:                  -9.134
REMARK UNBOUND:                -7.496
REMARK SMILES CC(=O)N[C@@H]1[C@@H](O)C[C@](OC[C@H]2O[C@@H](O[C@H]3[C@H](O)[C@@H](O)[C@H](OCCN=[N+]=[N-])O[C@@H]3CO)[C@H](O)[C@@H](O)[C@H]2O)(C(=O)O)O[C@H]1C(O)[C@H](O)CNC(=O)OCc1cn(-c2ccccc2C(N)=O)nn1
REMARK SMILES IDX 9 1 8 2 6 3 5 4 42 5 41 6 10 7 11 8 12 9 14 10 13 11 32 12
REMARK SMILES IDX 34 13 36 14 15 15 16 16 29 17 28 18 21 19 17 20 19 21 30 22
REMARK SMILES IDX 31 23 22 25 23 26 24 27 25 28 26 29 27 30 18 31 20 33 33 35
REMARK SMILES IDX 35 37 37 39 38 41 39 42 40 43 7 45 43 47 44 48 45 50 46 51
REMARK SMILES IDX 47 53 48 54 49 55 50 57 51 58 52 59 53 60 54 61 66 62 55 63
REMARK SMILES IDX 65 64 56 65 61 66 57 67 60 68 58 69 59 70 62 71 64 72 63 73
REMARK SMILES IDX 4 76 2 77 1 79 3 80
REMARK H PARENT 31 24 18 32 20 34 33 36 35 38 37 40 40 44 7 46 44 49 46 52
REMARK H PARENT 48 56 63 74 63 75 4 78
REMARK Flexibility Score: inf
ROOT
ATOM      1  C   UNL     1      22.934  29.867  23.634  1.00  0.00     0.272 C 
ATOM      2  C   UNL     1      22.974  31.348  24.106  1.00  0.00     0.113 C 
ATOM      3  C   UNL     1      21.586  31.874  23.876  1.00  0.00     0.145 C 
ATOM      4  C   UNL     1      21.348  32.033  22.427  1.00  0.00     0.142 C 
ATOM      5  C   UNL     1      22.136  30.910  21.730  1.00  0.00     0.178 C 
ATOM      6  O   UNL     1      22.135  29.767  22.507  1.00  0.00    -0.332 OA
ENDROOT
BRANCH   1   7
ATOM      7  O   UNL     1      22.353  29.202  24.697  1.00  0.00    -0.338 OA
BRANCH   7   8
ATOM      8  C   UNL     1      23.136  29.096  25.807  1.00  0.00     0.199 C 
BRANCH   8   9
ATOM      9  C   UNL     1      23.102  27.708  26.422  1.00  0.00     0.179 C 
ATOM     10  C   UNL     1      22.347  25.574  25.871  1.00  0.00     0.282 C 
ATOM     11  O   UNL     1      22.555  26.878  25.447  1.00  0.00    -0.341 OA
ATOM     12  C   UNL     1      22.878  25.243  27.216  1.00  0.00     0.202 C 
ATOM     13  C   UNL     1      24.186  25.882  27.577  1.00  0.00     0.179 C 
ATOM     14  C   UNL     1      24.448  27.168  26.779  1.00  0.00     0.177 C 
BRANCH  10  15
ATOM     15  O   UNL     1      22.907  24.744  24.917  1.00  0.00    -0.341 OA
BRANCH  15  16
ATOM     16  C   UNL     1      23.022  25.338  23.672  1.00  0.00     0.184 C 
ATOM     17  C   UNL     1      21.766  25.032  22.887  1.00  0.00     0.178 C 
ATOM     18  O   UNL     1      21.906  23.971  22.059  1.00  0.00    -0.341 OA
ATOM     19  C   UNL     1      22.792  24.153  21.061  1.00  0.00     0.281 C 
ATOM     20  C   UNL     1      24.217  24.680  22.991  1.00  0.00     0.180 C 
ATOM     21  C   UNL     1      24.088  24.701  21.510  1.00  0.00     0.202 C 
BRANCH  17  22
ATOM     22  C   UNL     1      21.326  26.252  22.125  1.00  0.00     0.191 C 
BRANCH  22  23
ATOM     23  O   UNL     1      20.857  27.253  22.981  1.00  0.00    -0.394 OA
ATOM     24  H   UNL     1      21.613  27.908  23.074  1.00  0.00     0.210 HD
ENDBRANCH  22  23
ENDBRANCH  17  22
BRANCH  19  25
ATOM     25  O   UNL     1      22.267  24.826  19.948  1.00  0.00    -0.350 OA
BRANCH  25  26
ATOM     26  C   UNL     1      22.900  24.529  18.767  1.00  0.00     0.169 C 
BRANCH  26  27
ATOM     27  C   UNL     1      23.108  25.769  17.964  1.00  0.00     0.119 C 
BRANCH  27  28
ATOM     28  N   UNL     1      24.518  26.052  17.871  1.00  0.00    -0.092 NA
ATOM     29  N   UNL     1      25.146  26.619  18.774  1.00  0.00     0.001 N 
ATOM     30  N   UNL     1      25.591  27.001  19.859  1.00  0.00    -0.003 NA
ENDBRANCH  27  28
ENDBRANCH  26  27
ENDBRANCH  25  26
ENDBRANCH  19  25
BRANCH  20  31
ATOM     31  O   UNL     1      25.391  25.332  23.356  1.00  0.00    -0.387 OA
ATOM     32  H   UNL     1      26.124  24.662  23.529  1.00  0.00     0.211 HD
ENDBRANCH  20  31
BRANCH  21  33
ATOM     33  O   UNL     1      25.129  23.898  20.982  1.00  0.00    -0.385 OA
ATOM     34  H   UNL     1      25.427  24.310  20.120  1.00  0.00     0.211 HD
ENDBRANCH  21  33
ENDBRANCH  15  16
ENDBRANCH  10  15
BRANCH  12  35
ATOM     35  O   UNL     1      21.918  25.430  28.234  1.00  0.00    -0.385 OA
ATOM     36  H   UNL     1      22.407  25.414  29.085  1.00  0.00     0.211 HD
ENDBRANCH  12  35
BRANCH  13  37
ATOM     37  O   UNL     1      25.249  25.020  27.306  1.00  0.00    -0.387 OA
ATOM     38  H   UNL     1      25.032  24.392  26.551  1.00  0.00     0.211 HD
ENDBRANCH  13  37
BRANCH  14  39
ATOM     39  O   UNL     1      25.112  26.826  25.587  1.00  0.00    -0.387 OA
ATOM     40  H   UNL     1      25.118  27.533  24.923  1.00  0.00     0.211 HD
ENDBRANCH  14  39
ENDBRANCH   8   9
ENDBRANCH   7   8
ENDBRANCH   1   7
BRANCH   1  41
ATOM     41  C   UNL     1      24.295  29.421  23.326  1.00  0.00     0.364 C 
ATOM     42  O   UNL     1      25.299  30.170  23.588  1.00  0.00    -0.246 OA
BRANCH  41  43
ATOM     43  O   UNL     1      24.511  28.170  22.741  1.00  0.00    -0.477 OA
ATOM     44  H   UNL     1      24.582  28.154  21.727  1.00  0.00     0.296 HD
ENDBRANCH  41  43
ENDBRANCH   1  41
BRANCH   3  45
ATOM     45  O   UNL     1      20.705  30.853  24.318  1.00  0.00    -0.391 OA
ATOM     46  H   UNL     1      21.154  30.334  25.034  1.00  0.00     0.211 HD
ENDBRANCH   3  45
BRANCH   5  47
ATOM     47  C   UNL     1      21.644  30.722  20.324  1.00  0.00     0.176 C 
BRANCH  47  48
ATOM     48  O   UNL     1      22.476  31.507  19.502  1.00  0.00    -0.388 OA
ATOM     49  H   UNL     1      21.923  32.000  18.837  1.00  0.00     0.211 HD
ENDBRANCH  47  48
BRANCH  47  50
ATOM     50  C   UNL     1      21.872  29.285  19.846  1.00  0.00     0.165 C 
BRANCH  50  51
ATOM     51  O   UNL     1      23.218  28.950  20.066  1.00  0.00    -0.388 OA
ATOM     52  H   UNL     1      23.634  29.761  20.460  1.00  0.00     0.211 HD
ENDBRANCH  50  51
BRANCH  50  53
ATOM     53  C   UNL     1      21.560  29.113  18.398  1.00  0.00     0.154 C 
BRANCH  53  54
ATOM     54  N   UNL     1      20.285  29.687  18.062  1.00  0.00    -0.319 N 
ATOM     55  C   UNL     1      19.333  29.066  17.217  1.00  0.00     0.407 C 
ATOM     56  H   UNL     1      20.056  30.636  18.477  1.00  0.00     0.167 HD
ATOM     57  O   UNL     1      19.453  27.964  16.679  1.00  0.00    -0.225 OA
BRANCH  55  58
ATOM     58  O   UNL     1      18.119  29.740  16.942  1.00  0.00    -0.443 OA
BRANCH  58  59
ATOM     59  C   UNL     1      16.880  29.039  17.074  1.00  0.00     0.294 C 
BRANCH  59  60
ATOM     60  C   UNL     1      16.597  28.733  18.488  1.00  0.00     0.121 A 
ATOM     61  C   UNL     1      16.185  29.586  19.484  1.00  0.00     0.144 A 
ATOM     62  N   UNL     1      16.698  27.529  19.076  1.00  0.00    -0.131 NA
ATOM     63  N   UNL     1      16.046  28.899  20.639  1.00  0.00    -0.220 N 
ATOM     64  N   UNL     1      16.371  27.636  20.348  1.00  0.00    -0.062 NA
BRANCH  63  65
ATOM     65  C   UNL     1      15.650  29.367  21.915  1.00  0.00     0.079 A 
ATOM     66  C   UNL     1      16.556  30.065  22.671  1.00  0.00     0.065 A 
ATOM     67  C   UNL     1      14.380  29.132  22.404  1.00  0.00     0.029 A 
ATOM     68  C   UNL     1      16.222  30.548  23.932  1.00  0.00     0.016 A 
ATOM     69  C   UNL     1      14.026  29.608  23.668  1.00  0.00     0.002 A 
ATOM     70  C   UNL     1      14.951  30.307  24.411  1.00  0.00     0.001 A 
BRANCH  66  71
ATOM     71  C   UNL     1      17.887  30.307  22.151  1.00  0.00     0.250 C 
ATOM     72  O   UNL     1      18.799  29.483  22.414  1.00  0.00    -0.269 OA
ATOM     73  N   UNL     1      18.232  31.422  21.360  1.00  0.00    -0.366 N 
ATOM     74  H   UNL     1      18.614  31.281  20.413  1.00  0.00     0.159 HD
ATOM     75  H   UNL     1      18.101  32.374  21.731  1.00  0.00     0.159 HD
ENDBRANCH  66  71
ENDBRANCH  63  65
ENDBRANCH  59  60
ENDBRANCH  58  59
ENDBRANCH  55  58
ENDBRANCH  53  54
ENDBRANCH  50  53
ENDBRANCH  47  50
ENDBRANCH   5  47
BRANCH   4  76
ATOM     76  N   UNL     1      21.731  33.253  21.833  1.00  0.00    -0.348 N 
ATOM     77  C   UNL     1      20.804  34.249  21.435  1.00  0.00     0.217 C 
ATOM     78  H   UNL     1      22.750  33.441  21.676  1.00  0.00     0.163 HD
ATOM     79  C   UNL     1      21.168  35.538  20.810  1.00  0.00     0.114 C 
ATOM     80  O   UNL     1      19.586  33.953  21.658  1.00  0.00    -0.275 OA
ENDBRANCH   4  76
TORSDOF 31
