REMARK VINA RESULT:    -8.316      1.089      1.813
REMARK INTER + INTRA:         -20.311
REMARK INTER:                 -14.968
REMARK INTRA:                  -5.343
REMARK UNBOUND:                 3.076
REMARK SMILES CC(=O)N[C@@H]1[C@@H](O)C[C@](OC[C@H]2O[C@@H](O[C@H]3[C@H](O)[C@@H](O)[C@H](OCCN=[N+]=[N-])O[C@@H]3CO)[C@H](O)[C@@H](O)[C@H]2O)(C(=O)O)O[C@H]1C(O)[C@H](O)CNC(=O)OCc1cn(C2CC(O)C=C[C@@H](O)C2)nn1
REMARK SMILES IDX 43 1 42 2 9 3 8 4 41 5 6 6 5 7 10 8 11 9 12 10 14 11 13 12
REMARK SMILES IDX 32 13 34 14 36 15 15 16 16 17 29 18 28 19 21 20 17 21 19 22
REMARK SMILES IDX 30 23 31 24 22 26 23 27 24 28 25 29 26 30 27 31 18 32 20 34
REMARK SMILES IDX 33 36 35 38 37 40 38 42 39 43 40 44 7 46 4 48 2 49 1 51 3 52
REMARK SMILES IDX 44 53 45 55 46 56 47 58 48 59 49 60 50 62 51 63 52 64 53 65
REMARK SMILES IDX 54 66 66 67 55 68 65 69 56 70 57 71 58 72 59 74 64 76 62 77
REMARK SMILES IDX 61 78 60 79 63 81
REMARK H PARENT 31 25 18 33 20 35 33 37 35 39 37 41 40 45 7 47 4 50 44 54
REMARK H PARENT 46 57 48 61 59 75 63 82
REMARK Flexibility Score: 90.00
ROOT
ATOM      1  C   UNL     1      17.057  31.871  21.157  1.00  0.00     0.176 C 
ENDROOT
BRANCH   1   2
ATOM      2  C   UNL     1      16.137  30.663  21.138  1.00  0.00     0.178 C 
ATOM      3  C   UNL     1      14.988  29.424  19.501  1.00  0.00     0.272 C 
ATOM      4  C   UNL     1      14.085  28.834  20.521  1.00  0.00     0.113 C 
ATOM      5  O   UNL     1      15.680  30.537  19.795  1.00  0.00    -0.332 OA
ATOM      6  C   UNL     1      14.369  29.244  21.921  1.00  0.00     0.145 C 
ATOM      7  C   UNL     1      14.920  30.704  21.955  1.00  0.00     0.142 C 
BRANCH   3   8
ATOM      8  O   UNL     1      14.256  29.568  18.305  1.00  0.00    -0.338 OA
BRANCH   8   9
ATOM      9  C   UNL     1      13.960  30.856  17.964  1.00  0.00     0.199 C 
BRANCH   9  10
ATOM     10  C   UNL     1      14.274  31.117  16.491  1.00  0.00     0.179 C 
ATOM     11  C   UNL     1      15.205  29.793  14.844  1.00  0.00     0.282 C 
ATOM     12  O   UNL     1      15.310  30.313  16.135  1.00  0.00    -0.341 OA
ATOM     13  C   UNL     1      13.996  28.878  14.902  1.00  0.00     0.202 C 
ATOM     14  C   UNL     1      12.788  29.786  14.946  1.00  0.00     0.179 C 
ATOM     15  C   UNL     1      13.051  31.084  15.640  1.00  0.00     0.177 C 
BRANCH  11  16
ATOM     16  O   UNL     1      16.376  29.148  14.524  1.00  0.00    -0.341 OA
BRANCH  16  17
ATOM     17  C   UNL     1      17.339  30.086  14.140  1.00  0.00     0.184 C 
ATOM     18  C   UNL     1      18.523  29.392  13.516  1.00  0.00     0.178 C 
ATOM     19  O   UNL     1      19.357  28.767  14.408  1.00  0.00    -0.341 OA
ATOM     20  C   UNL     1      19.045  29.008  15.745  1.00  0.00     0.281 C 
ATOM     21  C   UNL     1      17.734  31.007  15.262  1.00  0.00     0.180 C 
ATOM     22  C   UNL     1      18.954  30.510  15.989  1.00  0.00     0.202 C 
BRANCH  18  23
ATOM     23  C   UNL     1      19.319  30.358  12.650  1.00  0.00     0.191 C 
BRANCH  23  24
ATOM     24  O   UNL     1      20.626  29.946  12.474  1.00  0.00    -0.394 OA
ATOM     25  H   UNL     1      20.759  29.428  11.664  1.00  0.00     0.210 HD
ENDBRANCH  23  24
ENDBRANCH  18  23
BRANCH  20  26
ATOM     26  O   UNL     1      20.088  28.463  16.487  1.00  0.00    -0.350 OA
BRANCH  26  27
ATOM     27  C   UNL     1      21.246  28.501  15.719  1.00  0.00     0.169 C 
BRANCH  27  28
ATOM     28  C   UNL     1      22.449  28.907  16.553  1.00  0.00     0.119 C 
BRANCH  28  29
ATOM     29  N   UNL     1      22.576  30.349  16.608  1.00  0.00    -0.092 NA
ATOM     30  N   UNL     1      22.198  30.946  17.629  1.00  0.00     0.001 N 
ATOM     31  N   UNL     1      21.693  31.427  18.653  1.00  0.00    -0.003 NA
ENDBRANCH  28  29
ENDBRANCH  27  28
ENDBRANCH  26  27
ENDBRANCH  20  26
BRANCH  21  32
ATOM     32  O   UNL     1      17.966  32.293  14.774  1.00  0.00    -0.387 OA
ATOM     33  H   UNL     1      18.837  32.362  14.313  1.00  0.00     0.211 HD
ENDBRANCH  21  32
BRANCH  22  34
ATOM     34  O   UNL     1      18.857  30.753  17.355  1.00  0.00    -0.385 OA
ATOM     35  H   UNL     1      19.757  30.790  17.771  1.00  0.00     0.211 HD
ENDBRANCH  22  34
ENDBRANCH  16  17
ENDBRANCH  11  16
BRANCH  13  36
ATOM     36  O   UNL     1      13.898  28.003  13.854  1.00  0.00    -0.385 OA
ATOM     37  H   UNL     1      13.814  28.411  12.977  1.00  0.00     0.211 HD
ENDBRANCH  13  36
BRANCH  14  38
ATOM     38  O   UNL     1      11.758  29.054  15.536  1.00  0.00    -0.387 OA
ATOM     39  H   UNL     1      11.137  29.653  16.036  1.00  0.00     0.211 HD
ENDBRANCH  14  38
BRANCH  15  40
ATOM     40  O   UNL     1      11.962  31.413  16.472  1.00  0.00    -0.387 OA
ATOM     41  H   UNL     1      12.144  31.290  17.415  1.00  0.00     0.211 HD
ENDBRANCH  15  40
ENDBRANCH   9  10
ENDBRANCH   8   9
ENDBRANCH   3   8
BRANCH   3  42
ATOM     42  C   UNL     1      16.016  28.355  19.197  1.00  0.00     0.364 C 
ATOM     43  O   UNL     1      15.965  27.205  19.706  1.00  0.00    -0.246 OA
BRANCH  42  44
ATOM     44  O   UNL     1      17.038  28.681  18.322  1.00  0.00    -0.477 OA
ATOM     45  H   UNL     1      16.940  28.533  17.317  1.00  0.00     0.296 HD
ENDBRANCH  42  44
ENDBRANCH   3  42
BRANCH   6  46
ATOM     46  O   UNL     1      13.257  29.141  22.719  1.00  0.00    -0.391 OA
ATOM     47  H   UNL     1      13.351  28.383  23.335  1.00  0.00     0.211 HD
ENDBRANCH   6  46
BRANCH   7  48
ATOM     48  N   UNL     1      14.941  31.147  23.295  1.00  0.00    -0.348 N 
ATOM     49  C   UNL     1      15.805  30.533  24.236  1.00  0.00     0.217 C 
ATOM     50  H   UNL     1      14.354  31.942  23.608  1.00  0.00     0.163 HD
ATOM     51  C   UNL     1      15.845  30.983  25.652  1.00  0.00     0.114 C 
ATOM     52  O   UNL     1      16.551  29.593  23.871  1.00  0.00    -0.275 OA
ENDBRANCH   7  48
ENDBRANCH   1   2
BRANCH   1  53
ATOM     53  O   UNL     1      16.801  32.415  19.822  1.00  0.00    -0.388 OA
ATOM     54  H   UNL     1      17.085  31.712  19.158  1.00  0.00     0.211 HD
ENDBRANCH   1  53
BRANCH   1  55
ATOM     55  C   UNL     1      18.518  31.535  21.060  1.00  0.00     0.165 C 
BRANCH  55  56
ATOM     56  O   UNL     1      19.042  31.835  19.826  1.00  0.00    -0.388 OA
ATOM     57  H   UNL     1      18.873  32.758  19.532  1.00  0.00     0.211 HD
ENDBRANCH  55  56
BRANCH  55  58
ATOM     58  C   UNL     1      18.744  30.043  21.276  1.00  0.00     0.154 C 
BRANCH  58  59
ATOM     59  N   UNL     1      20.085  29.614  21.037  1.00  0.00    -0.319 N 
ATOM     60  C   UNL     1      20.414  28.564  20.136  1.00  0.00     0.407 C 
ATOM     61  H   UNL     1      20.888  30.090  21.547  1.00  0.00     0.167 HD
ATOM     62  O   UNL     1      19.451  28.003  19.538  1.00  0.00    -0.225 OA
BRANCH  60  63
ATOM     63  O   UNL     1      21.725  28.195  19.944  1.00  0.00    -0.443 OA
BRANCH  63  64
ATOM     64  C   UNL     1      22.130  26.840  20.112  1.00  0.00     0.294 C 
BRANCH  64  65
ATOM     65  C   UNL     1      21.810  26.440  21.500  1.00  0.00     0.120 A 
ATOM     66  C   UNL     1      22.413  26.843  22.663  1.00  0.00     0.138 A 
ATOM     67  N   UNL     1      20.842  25.577  21.857  1.00  0.00    -0.132 NA
ATOM     68  N   UNL     1      21.790  26.209  23.688  1.00  0.00    -0.249 N 
ATOM     69  N   UNL     1      20.846  25.452  23.167  1.00  0.00    -0.067 NA
BRANCH  68  70
ATOM     70  C   UNL     1      22.108  26.335  25.117  1.00  0.00     0.115 C 
BRANCH  70  71
ATOM     71  C   UNL     1      21.007  27.089  25.785  1.00  0.00     0.063 C 
BRANCH  71  72
ATOM     72  C   UNL     1      21.569  27.794  27.023  1.00  0.00     0.139 CG0
ATOM     73  G   UNL     1      21.794  26.798  28.083  1.00  0.00     0.000 G0
BRANCH  72  74
ATOM     74  O   UNL     1      20.689  28.791  27.441  1.00  0.00    -0.389 OA
ATOM     75  H   UNL     1      20.081  29.001  26.676  1.00  0.00     0.211 HD
ENDBRANCH  72  74
ENDBRANCH  71  72
ENDBRANCH  70  71
BRANCH  70  76
ATOM     76  C   UNL     1      22.256  24.961  25.693  1.00  0.00     0.063 C 
BRANCH  76  77
ATOM     77  C   UNL     1      23.210  25.087  26.886  1.00  0.00     0.139 C 
BRANCH  77  78
ATOM     78  C   UNL     1      22.472  25.632  28.057  1.00  0.00     0.002 C 
ATOM     79  C   UNL     1      21.792  26.770  28.092  1.00  0.00     0.002 CG0
ATOM     80  G   UNL     1      21.580  27.772  27.035  1.00  0.00     0.000 G0
ENDBRANCH  77  78
BRANCH  77  81
ATOM     81  O   UNL     1      23.817  23.878  27.187  1.00  0.00    -0.389 OA
ATOM     82  H   UNL     1      23.676  23.271  26.407  1.00  0.00     0.211 HD
ENDBRANCH  77  81
ENDBRANCH  76  77
ENDBRANCH  70  76
ENDBRANCH  68  70
ENDBRANCH  64  65
ENDBRANCH  63  64
ENDBRANCH  60  63
ENDBRANCH  58  59
ENDBRANCH  55  58
ENDBRANCH   1  55
TORSDOF 32
