REMARK VINA RESULT:    -6.090      5.712     11.811
REMARK INTER + INTRA:         -23.283
REMARK INTER:                 -17.883
REMARK INTRA:                  -5.399
REMARK UNBOUND:                -7.402
REMARK SMILES CC(=O)N[C@@H]1[C@@H](O)C[C@](OC[C@H]2O[C@@H](O[C@H]3[C@H](O)[C@@H](O)[C@H](OCCN=[N+]=[N-])O[C@@H]3CO)[C@H](O)[C@@H](O)[C@H]2O)(C(=O)O)O[C@H]1C(O)[C@H](O)CNC(=O)OCc1cn(-c2ccc(S(=O)(=O)c3ccc(N)cc3)cc2)nn1
REMARK SMILES IDX 43 1 42 2 9 3 8 4 41 5 6 6 5 7 10 8 11 9 12 10 14 11 13 12
REMARK SMILES IDX 32 13 34 14 36 15 15 16 16 17 29 18 28 19 21 20 17 21 19 22
REMARK SMILES IDX 30 23 31 24 22 26 23 27 24 28 25 29 26 30 27 31 18 32 20 34
REMARK SMILES IDX 33 36 35 38 37 40 38 42 39 43 40 44 7 46 4 48 2 49 1 51 3 52
REMARK SMILES IDX 44 53 45 55 46 56 47 58 48 59 49 60 50 62 51 63 52 64 53 65
REMARK SMILES IDX 54 66 73 67 55 68 72 69 56 70 57 71 71 72 58 73 70 74 59 75
REMARK SMILES IDX 60 76 61 77 62 78 63 79 64 80 69 81 65 82 68 83 66 84 67 85
REMARK H PARENT 31 25 18 33 20 35 33 37 35 39 37 41 40 45 7 47 4 50 44 54
REMARK H PARENT 46 57 48 61 67 86 67 87
REMARK Flexibility Score: inf
ROOT
ATOM      1  C   UNL     1      21.486  27.253  20.717  1.00  0.00     0.176 C 
ENDROOT
BRANCH   1   2
ATOM      2  C   UNL     1      22.732  26.400  20.955  1.00  0.00     0.178 C 
ATOM      3  C   UNL     1      24.638  25.558  19.951  1.00  0.00     0.272 C 
ATOM      4  C   UNL     1      24.393  24.221  20.570  1.00  0.00     0.113 C 
ATOM      5  O   UNL     1      23.431  26.263  19.794  1.00  0.00    -0.332 OA
ATOM      6  C   UNL     1      22.892  23.993  20.650  1.00  0.00     0.145 C 
ATOM      7  C   UNL     1      22.301  25.041  21.530  1.00  0.00     0.142 C 
BRANCH   3   8
ATOM      8  O   UNL     1      25.179  25.522  18.663  1.00  0.00    -0.338 OA
BRANCH   8   9
ATOM      9  C   UNL     1      24.392  26.007  17.662  1.00  0.00     0.199 C 
BRANCH   9  10
ATOM     10  C   UNL     1      24.554  25.143  16.432  1.00  0.00     0.179 C 
ATOM     11  C   UNL     1      25.424  23.177  15.661  1.00  0.00     0.282 C 
ATOM     12  O   UNL     1      25.127  23.929  16.828  1.00  0.00    -0.341 OA
ATOM     13  C   UNL     1      24.094  22.712  15.140  1.00  0.00     0.202 C 
ATOM     14  C   UNL     1      23.313  23.912  14.654  1.00  0.00     0.179 C 
ATOM     15  C   UNL     1      23.235  24.943  15.768  1.00  0.00     0.177 C 
BRANCH  11  16
ATOM     16  O   UNL     1      26.300  22.185  16.015  1.00  0.00    -0.341 OA
BRANCH  16  17
ATOM     17  C   UNL     1      27.329  22.695  16.841  1.00  0.00     0.184 C 
ATOM     18  C   UNL     1      28.555  22.854  15.999  1.00  0.00     0.178 C 
ATOM     19  O   UNL     1      29.685  22.250  16.483  1.00  0.00    -0.341 OA
ATOM     20  C   UNL     1      29.591  20.942  16.858  1.00  0.00     0.281 C 
ATOM     21  C   UNL     1      27.516  21.631  17.915  1.00  0.00     0.180 C 
ATOM     22  C   UNL     1      28.198  20.473  17.213  1.00  0.00     0.202 C 
BRANCH  18  23
ATOM     23  C   UNL     1      28.862  24.364  15.991  1.00  0.00     0.191 C 
BRANCH  23  24
ATOM     24  O   UNL     1      28.959  24.893  17.254  1.00  0.00    -0.394 OA
ATOM     25  H   UNL     1      29.884  25.022  17.580  1.00  0.00     0.210 HD
ENDBRANCH  23  24
ENDBRANCH  18  23
BRANCH  20  26
ATOM     26  O   UNL     1      30.370  20.773  17.998  1.00  0.00    -0.350 OA
BRANCH  26  27
ATOM     27  C   UNL     1      30.688  19.478  18.304  1.00  0.00     0.169 C 
BRANCH  27  28
ATOM     28  C   UNL     1      32.163  19.260  18.259  1.00  0.00     0.119 C 
BRANCH  28  29
ATOM     29  N   UNL     1      32.510  18.074  19.062  1.00  0.00    -0.092 NA
ATOM     30  N   UNL     1      31.788  17.079  19.066  1.00  0.00     0.001 N 
ATOM     31  N   UNL     1      31.349  15.958  18.751  1.00  0.00    -0.003 NA
ENDBRANCH  28  29
ENDBRANCH  27  28
ENDBRANCH  26  27
ENDBRANCH  20  26
BRANCH  21  32
ATOM     32  O   UNL     1      28.338  22.098  18.913  1.00  0.00    -0.387 OA
ATOM     33  H   UNL     1      27.827  22.226  19.757  1.00  0.00     0.211 HD
ENDBRANCH  21  32
BRANCH  22  34
ATOM     34  O   UNL     1      27.482  20.009  16.134  1.00  0.00    -0.385 OA
ATOM     35  H   UNL     1      26.819  20.666  15.797  1.00  0.00     0.211 HD
ENDBRANCH  22  34
ENDBRANCH  16  17
ENDBRANCH  11  16
BRANCH  13  36
ATOM     36  O   UNL     1      24.216  21.742  14.147  1.00  0.00    -0.385 OA
ATOM     37  H   UNL     1      24.197  22.236  13.267  1.00  0.00     0.211 HD
ENDBRANCH  13  36
BRANCH  14  38
ATOM     38  O   UNL     1      21.989  23.511  14.421  1.00  0.00    -0.387 OA
ATOM     39  H   UNL     1      21.963  22.801  13.753  1.00  0.00     0.211 HD
ENDBRANCH  14  38
BRANCH  15  40
ATOM     40  O   UNL     1      22.238  24.617  16.676  1.00  0.00    -0.387 OA
ATOM     41  H   UNL     1      22.093  23.642  16.688  1.00  0.00     0.211 HD
ENDBRANCH  15  40
ENDBRANCH   9  10
ENDBRANCH   8   9
ENDBRANCH   3   8
BRANCH   3  42
ATOM     42  C   UNL     1      25.542  26.426  20.753  1.00  0.00     0.364 C 
ATOM     43  O   UNL     1      26.073  26.111  21.844  1.00  0.00    -0.246 OA
BRANCH  42  44
ATOM     44  O   UNL     1      25.839  27.695  20.285  1.00  0.00    -0.477 OA
ATOM     45  H   UNL     1      26.793  27.950  19.982  1.00  0.00     0.296 HD
ENDBRANCH  42  44
ENDBRANCH   3  42
BRANCH   6  46
ATOM     46  O   UNL     1      22.404  24.201  19.356  1.00  0.00    -0.391 OA
ATOM     47  H   UNL     1      22.307  23.346  18.855  1.00  0.00     0.211 HD
ENDBRANCH   6  46
BRANCH   7  48
ATOM     48  N   UNL     1      22.655  24.961  22.911  1.00  0.00    -0.348 N 
ATOM     49  C   UNL     1      21.722  24.788  23.972  1.00  0.00     0.217 C 
ATOM     50  H   UNL     1      23.667  25.027  23.180  1.00  0.00     0.163 HD
ATOM     51  C   UNL     1      22.214  24.718  25.370  1.00  0.00     0.114 C 
ATOM     52  O   UNL     1      20.521  24.703  23.681  1.00  0.00    -0.275 OA
ENDBRANCH   7  48
ENDBRANCH   1   2
BRANCH   1  53
ATOM     53  O   UNL     1      20.465  26.895  21.582  1.00  0.00    -0.388 OA
ATOM     54  H   UNL     1      20.786  26.197  22.227  1.00  0.00     0.211 HD
ENDBRANCH   1  53
BRANCH   1  55
ATOM     55  C   UNL     1      21.783  28.703  20.688  1.00  0.00     0.165 C 
BRANCH  55  56
ATOM     56  O   UNL     1      20.806  29.431  21.373  1.00  0.00    -0.388 OA
ATOM     57  H   UNL     1      21.052  29.668  22.282  1.00  0.00     0.211 HD
ENDBRANCH  55  56
BRANCH  55  58
ATOM     58  C   UNL     1      21.775  29.238  19.272  1.00  0.00     0.154 C 
BRANCH  58  59
ATOM     59  N   UNL     1      20.487  29.177  18.640  1.00  0.00    -0.319 N 
ATOM     60  C   UNL     1      20.314  28.316  17.528  1.00  0.00     0.407 C 
ATOM     61  H   UNL     1      19.691  29.742  18.975  1.00  0.00     0.167 HD
ATOM     62  O   UNL     1      21.299  27.624  17.140  1.00  0.00    -0.225 OA
BRANCH  60  63
ATOM     63  O   UNL     1      19.139  28.174  16.826  1.00  0.00    -0.443 OA
BRANCH  63  64
ATOM     64  C   UNL     1      18.032  29.042  16.939  1.00  0.00     0.294 C 
BRANCH  64  65
ATOM     65  C   UNL     1      17.243  28.649  18.132  1.00  0.00     0.121 A 
ATOM     66  C   UNL     1      16.567  29.424  19.052  1.00  0.00     0.144 A 
ATOM     67  N   UNL     1      17.019  27.359  18.540  1.00  0.00    -0.131 NA
ATOM     68  N   UNL     1      15.965  28.605  19.968  1.00  0.00    -0.220 N 
ATOM     69  N   UNL     1      16.267  27.379  19.618  1.00  0.00    -0.062 NA
BRANCH  68  70
ATOM     70  C   UNL     1      15.162  28.973  21.069  1.00  0.00     0.066 A 
ATOM     71  C   UNL     1      13.772  28.842  21.008  1.00  0.00     0.030 A 
ATOM     72  C   UNL     1      15.674  29.471  22.240  1.00  0.00     0.030 A 
ATOM     73  C   UNL     1      12.947  29.186  22.050  1.00  0.00     0.023 A 
ATOM     74  C   UNL     1      14.842  29.823  23.303  1.00  0.00     0.023 A 
ATOM     75  C   UNL     1      13.474  29.686  23.220  1.00  0.00     0.072 A 
BRANCH  75  76
ATOM     76  S   UNL     1      12.432  30.124  24.558  1.00  0.00     0.206 S 
ATOM     77  O   UNL     1      13.197  31.072  25.467  1.00  0.00    -0.219 OA
ATOM     78  O   UNL     1      11.913  28.943  25.307  1.00  0.00    -0.219 OA
BRANCH  76  79
ATOM     79  C   UNL     1      11.079  31.067  23.933  1.00  0.00     0.072 A 
ATOM     80  C   UNL     1      11.305  32.217  23.226  1.00  0.00     0.023 A 
ATOM     81  C   UNL     1       9.782  30.663  24.148  1.00  0.00     0.023 A 
ATOM     82  C   UNL     1      10.250  32.940  22.749  1.00  0.00     0.027 A 
ATOM     83  C   UNL     1       8.732  31.400  23.663  1.00  0.00     0.027 A 
ATOM     84  C   UNL     1       8.927  32.551  22.955  1.00  0.00     0.031 A 
BRANCH  84  85
ATOM     85  N   UNL     1       7.866  33.331  22.445  1.00  0.00    -0.399 N 
ATOM     86  H   UNL     1       7.335  33.972  23.051  1.00  0.00     0.156 HD
ATOM     87  H   UNL     1       7.614  33.259  21.444  1.00  0.00     0.156 HD
ENDBRANCH  84  85
ENDBRANCH  76  79
ENDBRANCH  75  76
ENDBRANCH  68  70
ENDBRANCH  64  65
ENDBRANCH  63  64
ENDBRANCH  60  63
ENDBRANCH  58  59
ENDBRANCH  55  58
ENDBRANCH   1  55
TORSDOF 33
