REMARK VINA RESULT:    -4.908     13.220     19.176
REMARK INTER + INTRA:         -21.257
REMARK INTER:                 -16.363
REMARK INTRA:                  -4.894
REMARK UNBOUND:                -8.028
REMARK SMILES CCN(CC)CCn1cc(COC(=O)NC[C@@H](O)C(O)[C@@H]2O[C@@](OC[C@H]3O[C@@H](O[C@H]4[C@H](O)[C@@H](O)[C@H](OCCN=[N+]=[N-])O[C@@H]4CO)[C@H](O)[C@@H](O)[C@H]3O)(C(=O)O)C[C@H](O)[C@H]2NC(C)=O)nn1
REMARK SMILES IDX 19 1 21 2 23 3 55 4 22 5 56 6 58 7 24 8 25 9 26 10 28 11
REMARK SMILES IDX 27 12 46 13 48 14 50 15 29 16 30 17 43 18 42 19 35 20 31 21
REMARK SMILES IDX 33 22 44 23 45 24 36 26 37 27 38 28 39 29 40 30 41 31 32 32
REMARK SMILES IDX 34 34 47 36 49 38 51 40 52 42 53 43 54 44 57 46 59 48 60 49
REMARK SMILES IDX 61 51 62 52 20 53 17 55 18 56 16 58 15 59 13 60 14 62 12 63
REMARK SMILES IDX 11 64 10 65 9 66 63 67 8 68 64 69 7 70 6 71 3 72 2 73 1 74
REMARK SMILES IDX 4 75 5 76
REMARK H PARENT 45 25 32 33 34 35 47 37 49 39 51 41 54 45 57 47 59 50 20 54
REMARK H PARENT 18 57 15 61
REMARK Flexibility Score: inf
ROOT
ATOM      1  C   UNL     1       3.185  21.074  30.795  1.00  0.00     0.176 C 
ENDROOT
BRANCH   1   2
ATOM      2  C   UNL     1       3.332  21.960  32.005  1.00  0.00     0.178 C 
ATOM      3  C   UNL     1       4.697  23.512  33.017  1.00  0.00     0.272 C 
ATOM      4  C   UNL     1       3.451  23.562  33.915  1.00  0.00     0.113 C 
ATOM      5  O   UNL     1       4.478  22.714  31.917  1.00  0.00    -0.332 OA
ATOM      6  C   UNL     1       2.996  22.217  34.381  1.00  0.00     0.145 C 
ATOM      7  C   UNL     1       3.408  21.196  33.309  1.00  0.00     0.142 C 
BRANCH   3   8
ATOM      8  O   UNL     1       5.739  23.113  33.818  1.00  0.00    -0.338 OA
BRANCH   8   9
ATOM      9  C   UNL     1       6.996  23.223  33.277  1.00  0.00     0.199 C 
BRANCH   9  10
ATOM     10  C   UNL     1       8.080  23.138  34.367  1.00  0.00     0.179 C 
ATOM     11  C   UNL     1      10.063  24.367  34.668  1.00  0.00     0.282 C 
ATOM     12  O   UNL     1       9.196  23.677  33.834  1.00  0.00    -0.341 OA
ATOM     13  C   UNL     1       9.987  23.908  36.069  1.00  0.00     0.202 C 
ATOM     14  C   UNL     1       8.602  23.949  36.654  1.00  0.00     0.179 C 
ATOM     15  C   UNL     1       7.580  23.927  35.538  1.00  0.00     0.177 C 
BRANCH  11  16
ATOM     16  O   UNL     1       9.816  25.707  34.406  1.00  0.00    -0.341 OA
BRANCH  16  17
ATOM     17  C   UNL     1      10.706  26.565  34.950  1.00  0.00     0.184 C 
ATOM     18  C   UNL     1      10.183  27.975  35.043  1.00  0.00     0.178 C 
ATOM     19  O   UNL     1      11.158  28.755  35.729  1.00  0.00    -0.341 OA
ATOM     20  C   UNL     1      12.142  29.095  34.827  1.00  0.00     0.281 C 
ATOM     21  C   UNL     1      12.022  26.641  34.184  1.00  0.00     0.180 C 
ATOM     22  C   UNL     1      12.426  28.041  33.848  1.00  0.00     0.202 C 
BRANCH  18  23
ATOM     23  C   UNL     1       8.838  28.131  35.654  1.00  0.00     0.191 C 
BRANCH  23  24
ATOM     24  O   UNL     1       7.888  27.940  34.658  1.00  0.00    -0.394 OA
ATOM     25  H   UNL     1       8.180  28.249  33.765  1.00  0.00     0.210 HD
ENDBRANCH  23  24
ENDBRANCH  18  23
BRANCH  20  26
ATOM     26  O   UNL     1      13.264  29.625  35.456  1.00  0.00    -0.350 OA
BRANCH  26  27
ATOM     27  C   UNL     1      14.137  30.268  34.631  1.00  0.00     0.169 C 
BRANCH  27  28
ATOM     28  C   UNL     1      15.585  30.097  35.050  1.00  0.00     0.119 C 
BRANCH  28  29
ATOM     29  N   UNL     1      16.221  29.021  34.316  1.00  0.00    -0.092 NA
ATOM     30  N   UNL     1      15.934  27.830  34.490  1.00  0.00     0.001 N 
ATOM     31  N   UNL     1      15.991  26.699  34.977  1.00  0.00    -0.003 NA
ENDBRANCH  28  29
ENDBRANCH  27  28
ENDBRANCH  26  27
ENDBRANCH  20  26
BRANCH  21  32
ATOM     32  O   UNL     1      13.007  26.051  34.953  1.00  0.00    -0.387 OA
ATOM     33  H   UNL     1      12.764  25.924  35.893  1.00  0.00     0.211 HD
ENDBRANCH  21  32
BRANCH  22  34
ATOM     34  O   UNL     1      11.923  28.428  32.581  1.00  0.00    -0.385 OA
ATOM     35  H   UNL     1      11.509  27.613  32.195  1.00  0.00     0.211 HD
ENDBRANCH  22  34
ENDBRANCH  16  17
ENDBRANCH  11  16
BRANCH  13  36
ATOM     36  O   UNL     1      10.401  22.544  36.112  1.00  0.00    -0.385 OA
ATOM     37  H   UNL     1      10.800  22.273  35.266  1.00  0.00     0.211 HD
ENDBRANCH  13  36
BRANCH  14  38
ATOM     38  O   UNL     1       8.388  25.003  37.527  1.00  0.00    -0.387 OA
ATOM     39  H   UNL     1       7.892  25.739  37.132  1.00  0.00     0.211 HD
ENDBRANCH  14  38
BRANCH  15  40
ATOM     40  O   UNL     1       7.363  25.238  35.134  1.00  0.00    -0.387 OA
ATOM     41  H   UNL     1       7.772  25.393  34.234  1.00  0.00     0.211 HD
ENDBRANCH  15  40
ENDBRANCH   9  10
ENDBRANCH   8   9
ENDBRANCH   3   8
BRANCH   3  42
ATOM     42  C   UNL     1       4.878  24.915  32.566  1.00  0.00     0.364 C 
ATOM     43  O   UNL     1       4.890  25.874  33.411  1.00  0.00    -0.246 OA
BRANCH  42  44
ATOM     44  O   UNL     1       5.043  25.300  31.251  1.00  0.00    -0.477 OA
ATOM     45  H   UNL     1       4.231  25.492  30.674  1.00  0.00     0.296 HD
ENDBRANCH  42  44
ENDBRANCH   3  42
BRANCH   6  46
ATOM     46  O   UNL     1       3.405  21.864  35.643  1.00  0.00    -0.391 OA
ATOM     47  H   UNL     1       4.380  21.691  35.600  1.00  0.00     0.211 HD
ENDBRANCH   6  46
BRANCH   7  48
ATOM     48  N   UNL     1       2.604  20.023  33.364  1.00  0.00    -0.348 N 
ATOM     49  C   UNL     1       3.009  18.960  34.250  1.00  0.00     0.217 C 
ATOM     50  H   UNL     1       1.736  19.856  32.823  1.00  0.00     0.163 HD
ATOM     51  C   UNL     1       2.220  17.707  34.358  1.00  0.00     0.114 C 
ATOM     52  O   UNL     1       4.045  19.056  34.960  1.00  0.00    -0.275 OA
ENDBRANCH   7  48
ENDBRANCH   1   2
BRANCH   1  53
ATOM     53  O   UNL     1       3.966  19.942  30.986  1.00  0.00    -0.388 OA
ATOM     54  H   UNL     1       3.859  19.330  30.191  1.00  0.00     0.211 HD
ENDBRANCH   1  53
BRANCH   1  55
ATOM     55  C   UNL     1       1.736  20.666  30.728  1.00  0.00     0.165 C 
BRANCH  55  56
ATOM     56  O   UNL     1       1.647  19.274  30.839  1.00  0.00    -0.388 OA
ATOM     57  H   UNL     1       1.518  18.903  29.933  1.00  0.00     0.211 HD
ENDBRANCH  55  56
BRANCH  55  58
ATOM     58  C   UNL     1       0.998  21.117  29.522  1.00  0.00     0.154 C 
BRANCH  58  59
ATOM     59  N   UNL     1       1.416  22.378  29.014  1.00  0.00    -0.319 N 
ATOM     60  C   UNL     1       1.830  22.481  27.642  1.00  0.00     0.407 C 
ATOM     61  H   UNL     1       1.439  23.215  29.598  1.00  0.00     0.167 HD
ATOM     62  O   UNL     1       1.834  21.481  26.896  1.00  0.00    -0.225 OA
BRANCH  60  63
ATOM     63  O   UNL     1       2.228  23.720  27.168  1.00  0.00    -0.443 OA
BRANCH  63  64
ATOM     64  C   UNL     1       3.596  23.885  26.758  1.00  0.00     0.294 C 
BRANCH  64  65
ATOM     65  C   UNL     1       3.901  25.322  26.803  1.00  0.00     0.120 A 
ATOM     66  C   UNL     1       3.841  26.162  25.686  1.00  0.00     0.138 A 
ATOM     67  N   UNL     1       4.272  26.106  27.811  1.00  0.00    -0.132 NA
ATOM     68  N   UNL     1       4.175  27.408  26.067  1.00  0.00    -0.251 N 
ATOM     69  N   UNL     1       4.429  27.348  27.347  1.00  0.00    -0.067 NA
BRANCH  68  70
ATOM     70  C   UNL     1       4.245  28.595  25.237  1.00  0.00     0.161 C 
BRANCH  70  71
ATOM     71  C   UNL     1       5.513  28.508  24.415  1.00  0.00     0.108 C 
BRANCH  71  72
ATOM     72  N   UNL     1       6.707  28.703  25.185  1.00  0.00    -0.302 NA
BRANCH  72  73
ATOM     73  C   UNL     1       7.047  30.093  25.321  1.00  0.00     0.081 C 
ATOM     74  C   UNL     1       8.180  30.410  24.352  1.00  0.00     0.021 C 
ENDBRANCH  72  73
BRANCH  72  75
ATOM     75  C   UNL     1       7.799  27.890  24.748  1.00  0.00     0.081 C 
ATOM     76  C   UNL     1       8.100  26.798  25.755  1.00  0.00     0.021 C 
ENDBRANCH  72  75
ENDBRANCH  71  72
ENDBRANCH  70  71
ENDBRANCH  68  70
ENDBRANCH  64  65
ENDBRANCH  63  64
ENDBRANCH  60  63
ENDBRANCH  58  59
ENDBRANCH  55  58
ENDBRANCH   1  55
TORSDOF 34
