REMARK VINA RESULT:    -5.472      6.107     14.262
REMARK INTER + INTRA:         -20.237
REMARK INTER:                 -15.524
REMARK INTRA:                  -4.713
REMARK UNBOUND:                -6.769
REMARK SMILES CC(=O)N[C@@H]1[C@@H](O)C[C@](OC[C@H]2O[C@@H](O[C@H]3[C@H](O)[C@@H](O)[C@H](OCCN=[N+]=[N-])O[C@@H]3CO)[C@H](O)[C@@H](O)[C@H]2O)(C(=O)O)O[C@H]1C(O)[C@H](O)CNC(=O)OCc1cn(-c2cccnc2)nn1
REMARK SMILES IDX 9 1 8 2 6 3 5 4 42 5 41 6 10 7 11 8 12 9 14 10 13 11 32 12
REMARK SMILES IDX 34 13 36 14 15 15 16 16 29 17 28 18 21 19 17 20 19 21 30 22
REMARK SMILES IDX 31 23 22 25 23 26 24 27 25 28 26 29 27 30 18 31 20 33 33 35
REMARK SMILES IDX 35 37 37 39 38 41 39 42 40 43 7 45 43 47 44 48 45 50 46 51
REMARK SMILES IDX 47 53 48 54 49 55 50 57 51 58 52 59 53 60 54 61 63 62 55 63
REMARK SMILES IDX 62 64 56 65 57 66 61 67 58 68 60 69 59 70 4 71 2 72 1 74
REMARK SMILES IDX 3 75
REMARK H PARENT 31 24 18 32 20 34 33 36 35 38 37 40 40 44 7 46 44 49 46 52
REMARK H PARENT 48 56 4 73
REMARK Flexibility Score: inf
ROOT
ATOM      1  C   UNL     1      23.429  24.963  21.624  1.00  0.00     0.272 C 
ATOM      2  C   UNL     1      22.256  24.273  22.192  1.00  0.00     0.113 C 
ATOM      3  C   UNL     1      21.693  24.993  23.368  1.00  0.00     0.145 C 
ATOM      4  C   UNL     1      21.674  26.494  23.221  1.00  0.00     0.142 C 
ATOM      5  C   UNL     1      22.217  26.969  21.922  1.00  0.00     0.178 C 
ATOM      6  O   UNL     1      23.404  26.345  21.566  1.00  0.00    -0.332 OA
ENDROOT
BRANCH   1   7
ATOM      7  O   UNL     1      23.693  24.567  20.314  1.00  0.00    -0.338 OA
BRANCH   7   8
ATOM      8  C   UNL     1      24.990  24.324  19.992  1.00  0.00     0.199 C 
BRANCH   8   9
ATOM      9  C   UNL     1      25.366  25.307  18.867  1.00  0.00     0.179 C 
ATOM     10  C   UNL     1      27.046  23.976  17.921  1.00  0.00     0.282 C 
ATOM     11  O   UNL     1      26.654  25.152  18.523  1.00  0.00    -0.341 OA
ATOM     12  C   UNL     1      26.043  23.554  16.904  1.00  0.00     0.202 C 
ATOM     13  C   UNL     1      25.231  24.796  16.509  1.00  0.00     0.179 C 
ATOM     14  C   UNL     1      24.392  25.215  17.706  1.00  0.00     0.177 C 
BRANCH  10  15
ATOM     15  O   UNL     1      27.247  23.057  18.949  1.00  0.00    -0.341 OA
BRANCH  15  16
ATOM     16  C   UNL     1      28.545  22.737  19.175  1.00  0.00     0.184 C 
ATOM     17  C   UNL     1      29.183  23.378  20.368  1.00  0.00     0.178 C 
ATOM     18  O   UNL     1      30.233  22.552  20.772  1.00  0.00    -0.341 OA
ATOM     19  C   UNL     1      31.016  22.091  19.719  1.00  0.00     0.281 C 
ATOM     20  C   UNL     1      29.468  23.095  18.014  1.00  0.00     0.180 C 
ATOM     21  C   UNL     1      30.923  22.958  18.485  1.00  0.00     0.202 C 
BRANCH  17  22
ATOM     22  C   UNL     1      28.298  23.653  21.527  1.00  0.00     0.191 C 
BRANCH  22  23
ATOM     23  O   UNL     1      27.528  22.575  21.875  1.00  0.00    -0.394 OA
ATOM     24  H   UNL     1      27.757  21.830  21.263  1.00  0.00     0.210 HD
ENDBRANCH  22  23
ENDBRANCH  17  22
BRANCH  19  25
ATOM     25  O   UNL     1      30.759  20.795  19.374  1.00  0.00    -0.350 OA
BRANCH  25  26
ATOM     26  C   UNL     1      31.075  19.795  20.221  1.00  0.00     0.169 C 
BRANCH  26  27
ATOM     27  C   UNL     1      30.382  18.487  20.069  1.00  0.00     0.119 C 
BRANCH  27  28
ATOM     28  N   UNL     1      29.448  18.129  21.079  1.00  0.00    -0.092 NA
ATOM     29  N   UNL     1      28.584  18.922  21.511  1.00  0.00     0.001 N 
ATOM     30  N   UNL     1      28.175  19.863  22.213  1.00  0.00    -0.003 NA
ENDBRANCH  27  28
ENDBRANCH  26  27
ENDBRANCH  25  26
ENDBRANCH  19  25
BRANCH  20  31
ATOM     31  O   UNL     1      29.288  22.182  16.985  1.00  0.00    -0.387 OA
ATOM     32  H   UNL     1      28.662  22.507  16.286  1.00  0.00     0.211 HD
ENDBRANCH  20  31
BRANCH  21  33
ATOM     33  O   UNL     1      31.508  24.202  18.715  1.00  0.00    -0.385 OA
ATOM     34  H   UNL     1      32.065  24.135  19.529  1.00  0.00     0.211 HD
ENDBRANCH  21  33
ENDBRANCH  15  16
ENDBRANCH  10  15
BRANCH  12  35
ATOM     35  O   UNL     1      26.703  23.195  15.713  1.00  0.00    -0.385 OA
ATOM     36  H   UNL     1      27.650  22.948  15.945  1.00  0.00     0.211 HD
ENDBRANCH  12  35
BRANCH  13  37
ATOM     37  O   UNL     1      24.483  24.607  15.376  1.00  0.00    -0.387 OA
ATOM     38  H   UNL     1      25.011  24.109  14.703  1.00  0.00     0.211 HD
ENDBRANCH  13  37
BRANCH  14  39
ATOM     39  O   UNL     1      23.361  24.326  17.934  1.00  0.00    -0.387 OA
ATOM     40  H   UNL     1      23.757  23.496  18.311  1.00  0.00     0.211 HD
ENDBRANCH  14  39
ENDBRANCH   8   9
ENDBRANCH   7   8
ENDBRANCH   1   7
BRANCH   1  41
ATOM     41  C   UNL     1      24.628  24.544  22.451  1.00  0.00     0.364 C 
ATOM     42  O   UNL     1      25.380  25.428  22.893  1.00  0.00    -0.246 OA
BRANCH  41  43
ATOM     43  O   UNL     1      24.920  23.232  22.731  1.00  0.00    -0.477 OA
ATOM     44  H   UNL     1      24.236  22.497  22.866  1.00  0.00     0.296 HD
ENDBRANCH  41  43
ENDBRANCH   1  41
BRANCH   3  45
ATOM     45  O   UNL     1      20.377  24.504  23.539  1.00  0.00    -0.391 OA
ATOM     46  H   UNL     1      20.006  24.145  22.711  1.00  0.00     0.211 HD
ENDBRANCH   3  45
BRANCH   5  47
ATOM     47  C   UNL     1      21.245  27.016  20.791  1.00  0.00     0.176 C 
BRANCH  47  48
ATOM     48  O   UNL     1      21.953  26.695  19.604  1.00  0.00    -0.388 OA
ATOM     49  H   UNL     1      21.408  26.046  19.078  1.00  0.00     0.211 HD
ENDBRANCH  47  48
BRANCH  47  50
ATOM     50  C   UNL     1      20.580  28.330  20.526  1.00  0.00     0.165 C 
BRANCH  50  51
ATOM     51  O   UNL     1      19.167  27.958  20.551  1.00  0.00    -0.388 OA
ATOM     52  H   UNL     1      19.043  27.523  21.430  1.00  0.00     0.211 HD
ENDBRANCH  50  51
BRANCH  50  53
ATOM     53  C   UNL     1      20.736  28.871  19.142  1.00  0.00     0.154 C 
BRANCH  53  54
ATOM     54  N   UNL     1      19.582  29.458  18.540  1.00  0.00    -0.319 N 
ATOM     55  C   UNL     1      19.098  28.879  17.308  1.00  0.00     0.407 C 
ATOM     56  H   UNL     1      19.041  30.240  18.895  1.00  0.00     0.167 HD
ATOM     57  O   UNL     1      19.712  27.898  16.840  1.00  0.00    -0.225 OA
BRANCH  55  58
ATOM     58  O   UNL     1      17.998  29.382  16.659  1.00  0.00    -0.443 OA
BRANCH  58  59
ATOM     59  C   UNL     1      16.773  28.695  16.716  1.00  0.00     0.294 C 
BRANCH  59  60
ATOM     60  C   UNL     1      16.415  28.474  18.133  1.00  0.00     0.121 A 
ATOM     61  C   UNL     1      15.665  29.261  18.977  1.00  0.00     0.144 A 
ATOM     62  N   UNL     1      16.782  27.397  18.891  1.00  0.00    -0.131 NA
ATOM     63  N   UNL     1      15.591  28.674  20.182  1.00  0.00    -0.219 N 
ATOM     64  N   UNL     1      16.277  27.548  20.097  1.00  0.00    -0.062 NA
BRANCH  63  65
ATOM     65  C   UNL     1      14.937  29.081  21.379  1.00  0.00     0.085 A 
ATOM     66  C   UNL     1      15.626  29.490  22.501  1.00  0.00     0.031 A 
ATOM     67  C   UNL     1      13.558  29.075  21.473  1.00  0.00     0.139 A 
ATOM     68  C   UNL     1      14.971  29.873  23.650  1.00  0.00     0.022 A 
ATOM     69  N   UNL     1      12.925  29.454  22.611  1.00  0.00    -0.262 NA
ATOM     70  C   UNL     1      13.596  29.853  23.705  1.00  0.00     0.111 A 
ENDBRANCH  63  65
ENDBRANCH  59  60
ENDBRANCH  58  59
ENDBRANCH  55  58
ENDBRANCH  53  54
ENDBRANCH  50  53
ENDBRANCH  47  50
ENDBRANCH   5  47
BRANCH   4  71
ATOM     71  N   UNL     1      22.396  27.127  24.321  1.00  0.00    -0.348 N 
ATOM     72  C   UNL     1      21.786  27.559  25.524  1.00  0.00     0.217 C 
ATOM     73  H   UNL     1      23.438  27.289  24.249  1.00  0.00     0.163 HD
ATOM     74  C   UNL     1      22.569  28.210  26.621  1.00  0.00     0.114 C 
ATOM     75  O   UNL     1      20.548  27.400  25.698  1.00  0.00    -0.275 OA
ENDBRANCH   4  71
TORSDOF 30
