REMARK VINA RESULT:    -5.799     13.434     17.919
REMARK INTER + INTRA:         -22.373
REMARK INTER:                 -11.144
REMARK INTRA:                 -11.229
REMARK UNBOUND:                -7.759
REMARK SMILES CC(=O)N[C@@H]1[C@@H](O)C[C@](OC[C@H]2O[C@@H](O[C@H]3[C@H](O)[C@@H](O)[C@H](OCCN=[N+]=[N-])O[C@@H]3CO)[C@H](O)[C@@H](O)[C@H]2O)(C(=O)O)O[C@H]1C(O)[C@H](O)CNC(=O)OCc1cn(-c2cc(Cl)ccc2C(=O)N(C)C)nn1
REMARK SMILES IDX 9 1 8 2 6 3 5 4 42 5 41 6 10 7 11 8 12 9 14 10 13 11 32 12
REMARK SMILES IDX 34 13 36 14 15 15 16 16 29 17 28 18 21 19 17 20 19 21 30 22
REMARK SMILES IDX 31 23 22 25 23 26 24 27 25 28 26 29 27 30 18 31 20 33 33 35
REMARK SMILES IDX 35 37 37 39 38 41 39 42 40 43 7 45 43 47 44 48 45 50 46 51
REMARK SMILES IDX 47 53 48 54 49 55 50 57 51 58 52 59 53 60 54 61 69 62 55 63
REMARK SMILES IDX 68 64 56 65 57 66 62 67 58 68 61 69 59 70 60 71 63 72 64 73
REMARK SMILES IDX 65 74 66 75 67 76 4 77 2 78 1 80 3 81
REMARK H PARENT 31 24 18 32 20 34 33 36 35 38 37 40 40 44 7 46 44 49 46 52
REMARK H PARENT 48 56 4 79
REMARK Flexibility Score: inf
ROOT
ATOM      1  C   UNL     1      20.803  20.425  10.933  1.00  0.00     0.272 C 
ATOM      2  C   UNL     1      21.535  19.304  10.297  1.00  0.00     0.113 C 
ATOM      3  C   UNL     1      22.112  19.743   8.975  1.00  0.00     0.145 C 
ATOM      4  C   UNL     1      20.948  20.181   8.118  1.00  0.00     0.142 C 
ATOM      5  C   UNL     1      20.148  21.221   8.782  1.00  0.00     0.178 C 
ATOM      6  O   UNL     1      20.156  21.316  10.137  1.00  0.00    -0.332 OA
ENDROOT
BRANCH   1   7
ATOM      7  O   UNL     1      21.622  21.160  11.775  1.00  0.00    -0.338 OA
BRANCH   7   8
ATOM      8  C   UNL     1      21.129  22.277  12.350  1.00  0.00     0.199 C 
BRANCH   8   9
ATOM      9  C   UNL     1      22.253  23.009  13.100  1.00  0.00     0.179 C 
ATOM     10  C   UNL     1      24.093  22.402  14.351  1.00  0.00     0.282 C 
ATOM     11  O   UNL     1      22.681  22.210  14.120  1.00  0.00    -0.341 OA
ATOM     12  C   UNL     1      24.340  23.893  14.317  1.00  0.00     0.202 C 
ATOM     13  C   UNL     1      24.185  24.445  12.915  1.00  0.00     0.179 C 
ATOM     14  C   UNL     1      23.236  23.543  12.145  1.00  0.00     0.177 C 
BRANCH  10  15
ATOM     15  O   UNL     1      24.712  21.683  13.421  1.00  0.00    -0.341 OA
BRANCH  15  16
ATOM     16  C   UNL     1      25.012  20.344  13.597  1.00  0.00     0.184 C 
ATOM     17  C   UNL     1      25.997  19.990  12.530  1.00  0.00     0.178 C 
ATOM     18  O   UNL     1      26.344  18.631  12.624  1.00  0.00    -0.341 OA
ATOM     19  C   UNL     1      25.178  18.004  12.063  1.00  0.00     0.281 C 
ATOM     20  C   UNL     1      23.768  19.502  13.466  1.00  0.00     0.180 C 
ATOM     21  C   UNL     1      24.085  18.095  13.063  1.00  0.00     0.202 C 
BRANCH  17  22
ATOM     22  C   UNL     1      27.245  20.842  12.629  1.00  0.00     0.191 C 
BRANCH  22  23
ATOM     23  O   UNL     1      27.030  22.018  11.941  1.00  0.00    -0.394 OA
ATOM     24  H   UNL     1      26.373  21.871  11.216  1.00  0.00     0.210 HD
ENDBRANCH  22  23
ENDBRANCH  17  22
BRANCH  19  25
ATOM     25  O   UNL     1      25.511  16.754  11.712  1.00  0.00    -0.350 OA
BRANCH  25  26
ATOM     26  C   UNL     1      25.724  16.548  10.359  1.00  0.00     0.169 C 
BRANCH  26  27
ATOM     27  C   UNL     1      24.471  16.678   9.519  1.00  0.00     0.119 C 
BRANCH  27  28
ATOM     28  N   UNL     1      23.452  15.752   9.966  1.00  0.00    -0.092 NA
ATOM     29  N   UNL     1      22.301  15.844   9.555  1.00  0.00     0.001 N 
ATOM     30  N   UNL     1      21.219  16.038   8.963  1.00  0.00    -0.003 NA
ENDBRANCH  27  28
ENDBRANCH  26  27
ENDBRANCH  25  26
ENDBRANCH  19  25
BRANCH  20  31
ATOM     31  O   UNL     1      23.067  19.430  14.675  1.00  0.00    -0.387 OA
ATOM     32  H   UNL     1      23.200  20.268  15.208  1.00  0.00     0.211 HD
ENDBRANCH  20  31
BRANCH  21  33
ATOM     33  O   UNL     1      22.931  17.503  12.555  1.00  0.00    -0.385 OA
ATOM     34  H   UNL     1      23.085  16.622  12.153  1.00  0.00     0.211 HD
ENDBRANCH  21  33
ENDBRANCH  15  16
ENDBRANCH  10  15
BRANCH  12  35
ATOM     35  O   UNL     1      23.324  24.480  15.098  1.00  0.00    -0.385 OA
ATOM     36  H   UNL     1      23.683  25.249  15.645  1.00  0.00     0.211 HD
ENDBRANCH  12  35
BRANCH  13  37
ATOM     37  O   UNL     1      25.354  24.554  12.211  1.00  0.00    -0.387 OA
ATOM     38  H   UNL     1      25.580  23.747  11.688  1.00  0.00     0.211 HD
ENDBRANCH  13  37
BRANCH  14  39
ATOM     39  O   UNL     1      23.847  22.674  11.286  1.00  0.00    -0.387 OA
ATOM     40  H   UNL     1      24.033  21.783  11.655  1.00  0.00     0.211 HD
ENDBRANCH  14  39
ENDBRANCH   8   9
ENDBRANCH   7   8
ENDBRANCH   1   7
BRANCH   1  41
ATOM     41  C   UNL     1      19.759  19.820  11.891  1.00  0.00     0.364 C 
ATOM     42  O   UNL     1      18.567  20.128  11.662  1.00  0.00    -0.246 OA
BRANCH  41  43
ATOM     43  O   UNL     1      20.075  19.003  12.930  1.00  0.00    -0.477 OA
ATOM     44  H   UNL     1      19.895  18.025  12.978  1.00  0.00     0.296 HD
ENDBRANCH  41  43
ENDBRANCH   1  41
BRANCH   3  45
ATOM     45  O   UNL     1      23.072  20.693   9.178  1.00  0.00    -0.391 OA
ATOM     46  H   UNL     1      23.823  20.467   9.736  1.00  0.00     0.211 HD
ENDBRANCH   3  45
BRANCH   5  47
ATOM     47  C   UNL     1      20.352  22.637   8.258  1.00  0.00     0.176 C 
BRANCH  47  48
ATOM     48  O   UNL     1      19.317  23.128   7.514  1.00  0.00    -0.388 OA
ATOM     49  H   UNL     1      18.676  22.444   7.183  1.00  0.00     0.211 HD
ENDBRANCH  47  48
BRANCH  47  50
ATOM     50  C   UNL     1      20.802  23.638   9.257  1.00  0.00     0.165 C 
BRANCH  50  51
ATOM     51  O   UNL     1      19.761  24.509   9.656  1.00  0.00    -0.388 OA
ATOM     52  H   UNL     1      19.665  24.522  10.638  1.00  0.00     0.211 HD
ENDBRANCH  50  51
BRANCH  50  53
ATOM     53  C   UNL     1      21.763  24.588   8.505  1.00  0.00     0.154 C 
BRANCH  53  54
ATOM     54  N   UNL     1      23.126  24.198   8.732  1.00  0.00    -0.319 N 
ATOM     55  C   UNL     1      24.158  25.152   8.825  1.00  0.00     0.407 C 
ATOM     56  H   UNL     1      23.402  23.176   8.836  1.00  0.00     0.167 HD
ATOM     57  O   UNL     1      23.914  26.377   8.736  1.00  0.00    -0.225 OA
BRANCH  55  58
ATOM     58  O   UNL     1      25.489  24.762   9.020  1.00  0.00    -0.443 OA
BRANCH  58  59
ATOM     59  C   UNL     1      26.200  24.050   8.045  1.00  0.00     0.294 C 
BRANCH  59  60
ATOM     60  C   UNL     1      26.190  22.584   8.336  1.00  0.00     0.121 A 
ATOM     61  C   UNL     1      26.809  21.613   7.523  1.00  0.00     0.144 A 
ATOM     62  N   UNL     1      25.648  21.910   9.339  1.00  0.00    -0.131 NA
ATOM     63  N   UNL     1      26.615  20.418   8.065  1.00  0.00    -0.219 N 
ATOM     64  N   UNL     1      25.900  20.636   9.176  1.00  0.00    -0.062 NA
BRANCH  63  65
ATOM     65  C   UNL     1      27.016  19.118   7.677  1.00  0.00     0.081 A 
ATOM     66  C   UNL     1      28.134  18.536   8.286  1.00  0.00     0.049 A 
ATOM     67  C   UNL     1      26.409  18.368   6.710  1.00  0.00     0.065 A 
ATOM     68  C   UNL     1      28.580  17.306   7.928  1.00  0.00     0.043 A 
ATOM     69  C   UNL     1      26.870  17.092   6.337  1.00  0.00     0.017 A 
ATOM     70  Cl  UNL     1      29.991  16.635   8.734  1.00  0.00    -0.084 Cl
ATOM     71  C   UNL     1      27.972  16.557   6.958  1.00  0.00     0.021 A 
BRANCH  67  72
ATOM     72  C   UNL     1      25.197  18.831   6.026  1.00  0.00     0.255 C 
ATOM     73  O   UNL     1      24.088  18.564   6.529  1.00  0.00    -0.269 OA
ATOM     74  N   UNL     1      25.292  19.557   4.835  1.00  0.00    -0.345 N 
ATOM     75  C   UNL     1      26.598  19.861   4.257  1.00  0.00     0.146 C 
ATOM     76  C   UNL     1      24.102  20.038   4.139  1.00  0.00     0.146 C 
ENDBRANCH  67  72
ENDBRANCH  63  65
ENDBRANCH  59  60
ENDBRANCH  58  59
ENDBRANCH  55  58
ENDBRANCH  53  54
ENDBRANCH  50  53
ENDBRANCH  47  50
ENDBRANCH   5  47
BRANCH   4  77
ATOM     77  N   UNL     1      20.183  18.969   7.814  1.00  0.00    -0.348 N 
ATOM     78  C   UNL     1      20.090  18.437   6.511  1.00  0.00     0.217 C 
ATOM     79  H   UNL     1      19.682  18.473   8.577  1.00  0.00     0.163 HD
ATOM     80  C   UNL     1      19.317  17.212   6.196  1.00  0.00     0.114 C 
ATOM     81  O   UNL     1      20.691  19.026   5.573  1.00  0.00    -0.275 OA
ENDBRANCH   4  77
TORSDOF 31
