REMARK VINA RESULT:    -5.128      3.319      8.937
REMARK INTER + INTRA:         -21.261
REMARK INTER:                 -13.823
REMARK INTRA:                  -7.438
REMARK UNBOUND:                -8.339
REMARK SMILES CC(=O)N[C@@H]1[C@@H](O)C[C@](OC[C@H]2O[C@@H](O[C@H]3[C@H](O)[C@@H](O)[C@H](OCCN=[N+]=[N-])O[C@@H]3CO)[C@H](O)[C@@H](O)[C@H]2O)(C(=O)O)O[C@H]1C(O)[C@H](O)CNC(=O)OCc1cn(Cc2ccccc2)nn1
REMARK SMILES IDX 9 1 8 2 6 3 5 4 42 5 41 6 10 7 11 8 12 9 14 10 13 11 32 12
REMARK SMILES IDX 34 13 36 14 15 15 16 16 29 17 28 18 21 19 17 20 19 21 30 22
REMARK SMILES IDX 31 23 22 25 23 26 24 27 25 28 26 29 27 30 18 31 20 33 33 35
REMARK SMILES IDX 35 37 37 39 38 41 39 42 40 43 7 45 43 47 44 48 45 50 46 51
REMARK SMILES IDX 47 53 48 54 49 55 50 57 51 58 52 59 53 60 54 61 64 62 55 63
REMARK SMILES IDX 63 64 56 65 57 66 58 67 62 68 59 69 61 70 60 71 4 72 2 73
REMARK SMILES IDX 1 75 3 76
REMARK H PARENT 31 24 18 32 20 34 33 36 35 38 37 40 40 44 7 46 44 49 46 52
REMARK H PARENT 48 56 4 74
REMARK Flexibility Score: inf
ROOT
ATOM      1  C   UNL     1      21.228  29.826  20.677  1.00  0.00     0.272 C 
ATOM      2  C   UNL     1      22.152  30.954  20.401  1.00  0.00     0.113 C 
ATOM      3  C   UNL     1      22.217  31.840  21.585  1.00  0.00     0.145 C 
ATOM      4  C   UNL     1      21.252  31.449  22.716  1.00  0.00     0.142 C 
ATOM      5  C   UNL     1      19.937  31.063  22.185  1.00  0.00     0.178 C 
ATOM      6  O   UNL     1      19.968  30.389  20.950  1.00  0.00    -0.332 OA
ENDROOT
BRANCH   1   7
ATOM      7  O   UNL     1      21.615  28.949  21.668  1.00  0.00    -0.338 OA
BRANCH   7   8
ATOM      8  C   UNL     1      22.861  28.419  21.377  1.00  0.00     0.199 C 
BRANCH   8   9
ATOM      9  C   UNL     1      22.981  26.969  21.791  1.00  0.00     0.179 C 
ATOM     10  C   UNL     1      23.305  25.696  23.719  1.00  0.00     0.282 C 
ATOM     11  O   UNL     1      23.683  26.809  22.964  1.00  0.00    -0.341 OA
ATOM     12  C   UNL     1      22.999  24.505  22.890  1.00  0.00     0.202 C 
ATOM     13  C   UNL     1      21.838  24.779  21.988  1.00  0.00     0.179 C 
ATOM     14  C   UNL     1      21.650  26.266  21.802  1.00  0.00     0.177 C 
BRANCH  10  15
ATOM     15  O   UNL     1      22.247  25.998  24.561  1.00  0.00    -0.341 OA
BRANCH  15  16
ATOM     16  C   UNL     1      22.616  26.724  25.687  1.00  0.00     0.184 C 
ATOM     17  C   UNL     1      22.379  25.931  26.918  1.00  0.00     0.178 C 
ATOM     18  O   UNL     1      22.729  26.747  28.015  1.00  0.00    -0.341 OA
ATOM     19  C   UNL     1      21.644  27.634  28.172  1.00  0.00     0.281 C 
ATOM     20  C   UNL     1      21.660  27.927  25.706  1.00  0.00     0.180 C 
ATOM     21  C   UNL     1      21.644  28.631  27.022  1.00  0.00     0.202 C 
BRANCH  17  22
ATOM     22  C   UNL     1      23.209  24.653  26.957  1.00  0.00     0.191 C 
BRANCH  22  23
ATOM     23  O   UNL     1      24.418  24.976  27.612  1.00  0.00    -0.394 OA
ATOM     24  H   UNL     1      25.166  24.597  27.092  1.00  0.00     0.210 HD
ENDBRANCH  22  23
ENDBRANCH  17  22
BRANCH  19  25
ATOM     25  O   UNL     1      21.770  28.293  29.369  1.00  0.00    -0.350 OA
BRANCH  25  26
ATOM     26  C   UNL     1      23.103  28.548  29.629  1.00  0.00     0.169 C 
BRANCH  26  27
ATOM     27  C   UNL     1      23.509  28.393  31.064  1.00  0.00     0.119 C 
BRANCH  27  28
ATOM     28  N   UNL     1      23.223  26.996  31.425  1.00  0.00    -0.092 NA
ATOM     29  N   UNL     1      23.941  26.135  30.918  1.00  0.00     0.001 N 
ATOM     30  N   UNL     1      24.558  25.079  30.722  1.00  0.00    -0.003 NA
ENDBRANCH  27  28
ENDBRANCH  26  27
ENDBRANCH  25  26
ENDBRANCH  19  25
BRANCH  20  31
ATOM     31  O   UNL     1      22.178  28.807  24.733  1.00  0.00    -0.387 OA
ATOM     32  H   UNL     1      23.026  28.469  24.339  1.00  0.00     0.211 HD
ENDBRANCH  20  31
BRANCH  21  33
ATOM     33  O   UNL     1      20.478  29.389  27.128  1.00  0.00    -0.385 OA
ATOM     34  H   UNL     1      20.019  29.265  28.001  1.00  0.00     0.211 HD
ENDBRANCH  21  33
ENDBRANCH  15  16
ENDBRANCH  10  15
BRANCH  12  35
ATOM     35  O   UNL     1      24.119  24.053  22.171  1.00  0.00    -0.385 OA
ATOM     36  H   UNL     1      24.777  23.757  22.850  1.00  0.00     0.211 HD
ENDBRANCH  12  35
BRANCH  13  37
ATOM     37  O   UNL     1      20.696  24.210  22.539  1.00  0.00    -0.387 OA
ATOM     38  H   UNL     1      19.861  24.547  22.116  1.00  0.00     0.211 HD
ENDBRANCH  13  37
BRANCH  14  39
ATOM     39  O   UNL     1      20.706  26.817  22.625  1.00  0.00    -0.387 OA
ATOM     40  H   UNL     1      19.881  26.310  22.762  1.00  0.00     0.211 HD
ENDBRANCH  14  39
ENDBRANCH   8   9
ENDBRANCH   7   8
ENDBRANCH   1   7
BRANCH   1  41
ATOM     41  C   UNL     1      20.950  29.007  19.446  1.00  0.00     0.364 C 
ATOM     42  O   UNL     1      21.484  29.314  18.379  1.00  0.00    -0.246 OA
BRANCH  41  43
ATOM     43  O   UNL     1      20.105  27.922  19.520  1.00  0.00    -0.477 OA
ATOM     44  H   UNL     1      19.578  27.582  18.714  1.00  0.00     0.296 HD
ENDBRANCH  41  43
ENDBRANCH   1  41
BRANCH   3  45
ATOM     45  O   UNL     1      23.488  31.907  22.186  1.00  0.00    -0.391 OA
ATOM     46  H   UNL     1      23.521  32.501  22.951  1.00  0.00     0.211 HD
ENDBRANCH   3  45
BRANCH   5  47
ATOM     47  C   UNL     1      19.000  30.301  23.025  1.00  0.00     0.176 C 
BRANCH  47  48
ATOM     48  O   UNL     1      19.507  29.154  23.596  1.00  0.00    -0.388 OA
ATOM     49  H   UNL     1      20.478  29.156  23.744  1.00  0.00     0.211 HD
ENDBRANCH  47  48
BRANCH  47  50
ATOM     50  C   UNL     1      18.190  31.047  24.045  1.00  0.00     0.165 C 
BRANCH  50  51
ATOM     51  O   UNL     1      18.586  30.843  25.331  1.00  0.00    -0.388 OA
ATOM     52  H   UNL     1      18.634  31.651  25.878  1.00  0.00     0.211 HD
ENDBRANCH  50  51
BRANCH  50  53
ATOM     53  C   UNL     1      16.718  31.012  23.756  1.00  0.00     0.154 C 
BRANCH  53  54
ATOM     54  N   UNL     1      16.315  29.985  22.831  1.00  0.00    -0.319 N 
ATOM     55  C   UNL     1      15.001  29.417  22.763  1.00  0.00     0.407 C 
ATOM     56  H   UNL     1      16.988  29.573  22.117  1.00  0.00     0.167 HD
ATOM     57  O   UNL     1      14.117  29.816  23.556  1.00  0.00    -0.225 OA
BRANCH  55  58
ATOM     58  O   UNL     1      14.684  28.434  21.844  1.00  0.00    -0.443 OA
BRANCH  58  59
ATOM     59  C   UNL     1      14.402  28.797  20.514  1.00  0.00     0.294 C 
BRANCH  59  60
ATOM     60  C   UNL     1      15.559  28.541  19.630  1.00  0.00     0.120 A 
ATOM     61  C   UNL     1      16.165  29.522  18.833  1.00  0.00     0.138 A 
ATOM     62  N   UNL     1      16.255  27.424  19.391  1.00  0.00    -0.132 NA
ATOM     63  N   UNL     1      17.182  28.956  18.163  1.00  0.00    -0.248 N 
ATOM     64  N   UNL     1      17.224  27.703  18.506  1.00  0.00    -0.067 NA
BRANCH  63  65
ATOM     65  C   UNL     1      18.057  29.643  17.241  1.00  0.00     0.181 C 
BRANCH  65  66
ATOM     66  C   UNL     1      17.629  29.356  15.849  1.00  0.00    -0.026 A 
ATOM     67  C   UNL     1      18.527  29.330  14.797  1.00  0.00     0.005 A 
ATOM     68  C   UNL     1      16.287  29.107  15.604  1.00  0.00     0.005 A 
ATOM     69  C   UNL     1      18.077  29.058  13.516  1.00  0.00     0.000 A 
ATOM     70  C   UNL     1      15.851  28.836  14.321  1.00  0.00     0.000 A 
ATOM     71  C   UNL     1      16.747  28.813  13.284  1.00  0.00     0.000 A 
ENDBRANCH  65  66
ENDBRANCH  63  65
ENDBRANCH  59  60
ENDBRANCH  58  59
ENDBRANCH  55  58
ENDBRANCH  53  54
ENDBRANCH  50  53
ENDBRANCH  47  50
ENDBRANCH   5  47
BRANCH   4  72
ATOM     72  N   UNL     1      21.149  32.728  23.447  1.00  0.00    -0.348 N 
ATOM     73  C   UNL     1      21.274  32.829  24.851  1.00  0.00     0.217 C 
ATOM     74  H   UNL     1      20.973  33.604  22.909  1.00  0.00     0.163 HD
ATOM     75  C   UNL     1      21.160  34.137  25.563  1.00  0.00     0.114 C 
ATOM     76  O   UNL     1      21.489  31.782  25.509  1.00  0.00    -0.275 OA
ENDBRANCH   4  72
TORSDOF 31
