REMARK VINA RESULT:    -7.185      0.000      0.000
REMARK INTER + INTRA:         -24.408
REMARK INTER:                 -16.990
REMARK INTRA:                  -7.418
REMARK UNBOUND:                -5.463
REMARK SMILES CC(=O)N[C@@H]1[C@@H](O)C[C@](OC[C@H]2O[C@@H](O[C@H]3[C@H](O)[C@@H](O)[C@H](OCCN=[N+]=[N-])O[C@@H]3CO)[C@H](O)[C@@H](O)[C@H]2O)(C(=O)O)O[C@H]1C(O)[C@H](O)CNC(=O)OCc1cn(COCc2ccccc2)nn1
REMARK SMILES IDX 43 1 42 2 9 3 8 4 41 5 6 6 5 7 10 8 11 9 12 10 14 11 13 12
REMARK SMILES IDX 32 13 34 14 36 15 15 16 16 17 29 18 28 19 21 20 17 21 19 22
REMARK SMILES IDX 30 23 31 24 22 26 23 27 24 28 25 29 26 30 27 31 18 32 20 34
REMARK SMILES IDX 33 36 35 38 37 40 38 42 39 43 40 44 7 46 4 48 2 49 1 51 3 52
REMARK SMILES IDX 44 53 45 55 46 56 47 58 48 59 49 60 50 62 51 63 52 64 53 65
REMARK SMILES IDX 54 66 66 67 55 68 65 69 56 70 57 71 58 72 59 73 60 74 64 75
REMARK SMILES IDX 61 76 63 77 62 78
REMARK H PARENT 31 25 18 33 20 35 33 37 35 39 37 41 40 45 7 47 4 50 44 54
REMARK H PARENT 46 57 48 61
REMARK Flexibility Score: inf
ROOT
ATOM      1  C   UNL     1      14.826  33.389  22.244  1.00  0.00     0.176 C 
ENDROOT
BRANCH   1   2
ATOM      2  C   UNL     1      14.361  31.921  22.375  1.00  0.00     0.178 C 
ATOM      3  C   UNL     1      15.186  29.832  21.778  1.00  0.00     0.272 C 
ATOM      4  C   UNL     1      13.783  29.412  21.351  1.00  0.00     0.113 C 
ATOM      5  O   UNL     1      15.244  31.178  21.589  1.00  0.00    -0.332 OA
ATOM      6  C   UNL     1      13.053  30.601  20.772  1.00  0.00     0.145 C 
ATOM      7  C   UNL     1      12.973  31.719  21.854  1.00  0.00     0.142 C 
BRANCH   3   8
ATOM      8  O   UNL     1      16.143  29.168  20.986  1.00  0.00    -0.338 OA
BRANCH   8   9
ATOM      9  C   UNL     1      15.724  28.119  20.262  1.00  0.00     0.199 C 
BRANCH   9  10
ATOM     10  C   UNL     1      15.992  28.347  18.792  1.00  0.00     0.179 C 
ATOM     11  C   UNL     1      15.431  29.474  16.908  1.00  0.00     0.282 C 
ATOM     12  O   UNL     1      15.146  29.356  18.288  1.00  0.00    -0.341 OA
ATOM     13  C   UNL     1      16.755  30.203  16.703  1.00  0.00     0.202 C 
ATOM     14  C   UNL     1      17.473  30.141  18.060  1.00  0.00     0.179 C 
ATOM     15  C   UNL     1      17.404  28.688  18.483  1.00  0.00     0.177 C 
BRANCH  11  16
ATOM     16  O   UNL     1      14.444  30.232  16.342  1.00  0.00    -0.341 OA
BRANCH  16  17
ATOM     17  C   UNL     1      14.352  30.101  14.963  1.00  0.00     0.184 C 
ATOM     18  C   UNL     1      13.347  31.006  14.345  1.00  0.00     0.178 C 
ATOM     19  O   UNL     1      12.090  30.575  14.641  1.00  0.00    -0.341 OA
ATOM     20  C   UNL     1      11.728  29.383  14.059  1.00  0.00     0.281 C 
ATOM     21  C   UNL     1      14.094  28.672  14.627  1.00  0.00     0.180 C 
ATOM     22  C   UNL     1      12.782  28.347  14.017  1.00  0.00     0.202 C 
BRANCH  18  23
ATOM     23  C   UNL     1      13.623  31.143  12.866  1.00  0.00     0.191 C 
BRANCH  23  24
ATOM     24  O   UNL     1      12.859  32.170  12.299  1.00  0.00    -0.394 OA
ATOM     25  H   UNL     1      13.461  32.874  11.952  1.00  0.00     0.210 HD
ENDBRANCH  23  24
ENDBRANCH  18  23
BRANCH  20  26
ATOM     26  O   UNL     1      11.324  29.676  12.752  1.00  0.00    -0.350 OA
BRANCH  26  27
ATOM     27  C   UNL     1       9.973  29.860  12.607  1.00  0.00     0.169 C 
BRANCH  27  28
ATOM     28  C   UNL     1       9.519  28.921  11.502  1.00  0.00     0.119 C 
BRANCH  28  29
ATOM     29  N   UNL     1       8.856  27.747  12.022  1.00  0.00    -0.092 NA
ATOM     30  N   UNL     1       8.627  26.776  11.278  1.00  0.00     0.001 N 
ATOM     31  N   UNL     1       7.956  26.128  10.451  1.00  0.00    -0.003 NA
ENDBRANCH  28  29
ENDBRANCH  27  28
ENDBRANCH  26  27
ENDBRANCH  20  26
BRANCH  21  32
ATOM     32  O   UNL     1      15.088  28.208  13.721  1.00  0.00    -0.387 OA
ATOM     33  H   UNL     1      15.973  28.525  13.957  1.00  0.00     0.211 HD
ENDBRANCH  21  32
BRANCH  22  34
ATOM     34  O   UNL     1      12.260  27.216  14.699  1.00  0.00    -0.385 OA
ATOM     35  H   UNL     1      12.472  27.360  15.657  1.00  0.00     0.211 HD
ENDBRANCH  22  34
ENDBRANCH  16  17
ENDBRANCH  11  16
BRANCH  13  36
ATOM     36  O   UNL     1      17.588  29.529  15.809  1.00  0.00    -0.385 OA
ATOM     37  H   UNL     1      17.079  29.409  14.969  1.00  0.00     0.211 HD
ENDBRANCH  13  36
BRANCH  14  38
ATOM     38  O   UNL     1      16.682  30.889  18.923  1.00  0.00    -0.387 OA
ATOM     39  H   UNL     1      16.987  31.825  19.030  1.00  0.00     0.211 HD
ENDBRANCH  14  38
BRANCH  15  40
ATOM     40  O   UNL     1      18.295  28.395  19.503  1.00  0.00    -0.387 OA
ATOM     41  H   UNL     1      18.555  27.439  19.534  1.00  0.00     0.211 HD
ENDBRANCH  15  40
ENDBRANCH   9  10
ENDBRANCH   8   9
ENDBRANCH   3   8
BRANCH   3  42
ATOM     42  C   UNL     1      15.498  29.461  23.158  1.00  0.00     0.364 C 
ATOM     43  O   UNL     1      16.631  29.434  23.707  1.00  0.00    -0.246 OA
BRANCH  42  44
ATOM     44  O   UNL     1      14.438  29.082  24.017  1.00  0.00    -0.477 OA
ATOM     45  H   UNL     1      13.572  29.619  24.039  1.00  0.00     0.296 HD
ENDBRANCH  42  44
ENDBRANCH   3  42
BRANCH   6  46
ATOM     46  O   UNL     1      13.570  31.164  19.659  1.00  0.00    -0.391 OA
ATOM     47  H   UNL     1      14.351  31.770  19.851  1.00  0.00     0.211 HD
ENDBRANCH   6  46
BRANCH   7  48
ATOM     48  N   UNL     1      12.073  31.177  22.844  1.00  0.00    -0.348 N 
ATOM     49  C   UNL     1      10.767  31.700  22.934  1.00  0.00     0.217 C 
ATOM     50  H   UNL     1      12.375  30.429  23.472  1.00  0.00     0.163 HD
ATOM     51  C   UNL     1       9.816  31.147  23.936  1.00  0.00     0.114 C 
ATOM     52  O   UNL     1      10.383  32.637  22.165  1.00  0.00    -0.275 OA
ENDBRANCH   7  48
ENDBRANCH   1   2
BRANCH   1  53
ATOM     53  O   UNL     1      13.685  34.102  21.711  1.00  0.00    -0.388 OA
ATOM     54  H   UNL     1      13.057  33.389  21.388  1.00  0.00     0.211 HD
ENDBRANCH   1  53
BRANCH   1  55
ATOM     55  C   UNL     1      15.931  33.615  21.274  1.00  0.00     0.165 C 
BRANCH  55  56
ATOM     56  O   UNL     1      15.703  33.290  19.967  1.00  0.00    -0.388 OA
ATOM     57  H   UNL     1      15.093  33.893  19.490  1.00  0.00     0.211 HD
ENDBRANCH  55  56
BRANCH  55  58
ATOM     58  C   UNL     1      17.333  33.374  21.682  1.00  0.00     0.154 C 
BRANCH  58  59
ATOM     59  N   UNL     1      18.070  32.354  20.991  1.00  0.00    -0.319 N 
ATOM     60  C   UNL     1      18.938  31.421  21.617  1.00  0.00     0.407 C 
ATOM     61  H   UNL     1      17.976  32.254  19.956  1.00  0.00     0.167 HD
ATOM     62  O   UNL     1      19.093  31.444  22.843  1.00  0.00    -0.225 OA
BRANCH  60  63
ATOM     63  O   UNL     1      19.656  30.439  20.925  1.00  0.00    -0.443 OA
BRANCH  63  64
ATOM     64  C   UNL     1      20.964  30.072  21.370  1.00  0.00     0.294 C 
BRANCH  64  65
ATOM     65  C   UNL     1      21.193  28.611  21.305  1.00  0.00     0.120 A 
ATOM     66  C   UNL     1      22.435  28.039  21.122  1.00  0.00     0.141 A 
ATOM     67  N   UNL     1      20.322  27.598  21.392  1.00  0.00    -0.132 NA
ATOM     68  N   UNL     1      22.272  26.694  21.103  1.00  0.00    -0.226 N 
ATOM     69  N   UNL     1      20.978  26.461  21.270  1.00  0.00    -0.065 NA
BRANCH  68  70
ATOM     70  C   UNL     1      23.281  25.671  20.941  1.00  0.00     0.307 C 
BRANCH  70  71
ATOM     71  O   UNL     1      24.205  25.693  21.950  1.00  0.00    -0.355 OA
BRANCH  71  72
ATOM     72  C   UNL     1      24.281  24.447  22.551  1.00  0.00     0.198 C 
BRANCH  72  73
ATOM     73  C   UNL     1      23.707  24.544  23.940  1.00  0.00    -0.022 A 
ATOM     74  C   UNL     1      24.587  24.536  25.003  1.00  0.00     0.006 A 
ATOM     75  C   UNL     1      22.353  24.634  24.137  1.00  0.00     0.006 A 
ATOM     76  C   UNL     1      24.101  24.622  26.290  1.00  0.00     0.000 A 
ATOM     77  C   UNL     1      21.895  24.716  25.419  1.00  0.00     0.000 A 
ATOM     78  C   UNL     1      22.744  24.713  26.515  1.00  0.00     0.000 A 
ENDBRANCH  72  73
ENDBRANCH  71  72
ENDBRANCH  70  71
ENDBRANCH  68  70
ENDBRANCH  64  65
ENDBRANCH  63  64
ENDBRANCH  60  63
ENDBRANCH  58  59
ENDBRANCH  55  58
ENDBRANCH   1  55
TORSDOF 33
