REMARK VINA RESULT:    -6.696     17.722     22.038
REMARK INTER + INTRA:         -25.456
REMARK INTER:                 -18.622
REMARK INTRA:                  -6.834
REMARK UNBOUND:                -7.995
REMARK SMILES CC(=O)N[C@@H]1[C@@H](O)C[C@](OC[C@H]2O[C@@H](O[C@H]3[C@H](O)[C@@H](O)[C@H](OCCN=[N+]=[N-])O[C@@H]3CO)[C@H](O)[C@@H](O)[C@H]2O)(C(=O)O)O[C@H]1C(O)[C@H](O)CNC(=O)OCc1cn(-c2ccc(-c3c4ccc(=O)cc-4oc4cc(O)ccc34)c(C(=O)[O-])c2)nn1
REMARK SMILES IDX 9 1 8 2 6 3 5 4 42 5 41 6 10 7 11 8 12 9 14 10 13 11 32 12
REMARK SMILES IDX 34 13 36 14 15 15 16 16 29 17 28 18 21 19 17 20 19 21 30 22
REMARK SMILES IDX 31 23 22 25 23 26 24 27 25 28 26 29 27 30 18 31 20 33 33 35
REMARK SMILES IDX 35 37 37 39 38 41 39 42 40 43 7 45 43 47 44 48 45 50 46 51
REMARK SMILES IDX 47 53 48 54 49 55 50 57 51 58 52 59 53 60 54 61 82 62 55 63
REMARK SMILES IDX 81 64 56 65 80 66 57 67 76 68 58 69 59 70 77 71 78 72 79 73
REMARK SMILES IDX 60 74 75 75 61 76 74 77 69 78 67 79 62 80 73 81 70 82 68 83
REMARK SMILES IDX 66 84 63 85 71 86 64 87 65 88 72 89 4 91 2 92 1 94 3 95
REMARK H PARENT 31 24 18 32 20 34 33 36 35 38 37 40 40 44 7 46 44 49 46 52
REMARK H PARENT 48 56 72 90 4 93
REMARK Flexibility Score: inf
ROOT
ATOM      1  C   UNL     1       6.527  26.724  35.376  1.00  0.00     0.272 C 
ATOM      2  C   UNL     1       6.001  25.771  36.420  1.00  0.00     0.113 C 
ATOM      3  C   UNL     1       6.045  24.332  35.985  1.00  0.00     0.145 C 
ATOM      4  C   UNL     1       6.233  24.305  34.490  1.00  0.00     0.142 C 
ATOM      5  C   UNL     1       5.305  25.345  33.919  1.00  0.00     0.178 C 
ATOM      6  O   UNL     1       5.810  26.598  34.161  1.00  0.00    -0.332 OA
ENDROOT
BRANCH   1   7
ATOM      7  O   UNL     1       7.868  26.654  35.119  1.00  0.00    -0.338 OA
BRANCH   7   8
ATOM      8  C   UNL     1       8.321  27.550  34.217  1.00  0.00     0.199 C 
BRANCH   8   9
ATOM      9  C   UNL     1       9.762  27.986  34.522  1.00  0.00     0.179 C 
ATOM     10  C   UNL     1      11.612  27.389  35.761  1.00  0.00     0.282 C 
ATOM     11  O   UNL     1      10.250  27.433  35.648  1.00  0.00    -0.341 OA
ATOM     12  C   UNL     1      12.345  28.452  35.040  1.00  0.00     0.202 C 
ATOM     13  C   UNL     1      11.921  28.584  33.596  1.00  0.00     0.179 C 
ATOM     14  C   UNL     1      10.649  27.788  33.349  1.00  0.00     0.177 C 
BRANCH  10  15
ATOM     15  O   UNL     1      11.994  26.074  35.502  1.00  0.00    -0.341 OA
BRANCH  15  16
ATOM     16  C   UNL     1      11.402  25.161  36.312  1.00  0.00     0.184 C 
ATOM     17  C   UNL     1      12.367  24.502  37.248  1.00  0.00     0.178 C 
ATOM     18  O   UNL     1      11.679  23.917  38.320  1.00  0.00    -0.341 OA
ATOM     19  C   UNL     1      10.539  23.251  37.885  1.00  0.00     0.281 C 
ATOM     20  C   UNL     1      10.765  23.994  35.535  1.00  0.00     0.180 C 
ATOM     21  C   UNL     1      10.639  22.809  36.469  1.00  0.00     0.202 C 
BRANCH  17  22
ATOM     22  C   UNL     1      13.331  25.508  37.798  1.00  0.00     0.191 C 
BRANCH  22  23
ATOM     23  O   UNL     1      14.361  25.696  36.873  1.00  0.00    -0.394 OA
ATOM     24  H   UNL     1      14.270  24.988  36.198  1.00  0.00     0.210 HD
ENDBRANCH  22  23
ENDBRANCH  17  22
BRANCH  19  25
ATOM     25  O   UNL     1       9.404  24.000  38.113  1.00  0.00    -0.350 OA
BRANCH  25  26
ATOM     26  C   UNL     1       9.333  24.555  39.384  1.00  0.00     0.169 C 
BRANCH  26  27
ATOM     27  C   UNL     1       8.635  23.530  40.261  1.00  0.00     0.119 C 
BRANCH  27  28
ATOM     28  N   UNL     1       7.593  22.837  39.552  1.00  0.00    -0.092 NA
ATOM     29  N   UNL     1       6.425  23.223  39.687  1.00  0.00     0.001 N 
ATOM     30  N   UNL     1       5.266  23.582  39.478  1.00  0.00    -0.003 NA
ENDBRANCH  27  28
ENDBRANCH  26  27
ENDBRANCH  25  26
ENDBRANCH  19  25
BRANCH  20  31
ATOM     31  O   UNL     1       9.478  24.404  35.201  1.00  0.00    -0.387 OA
ATOM     32  H   UNL     1       8.797  24.159  35.865  1.00  0.00     0.211 HD
ENDBRANCH  20  31
BRANCH  21  33
ATOM     33  O   UNL     1      11.635  21.851  36.272  1.00  0.00    -0.385 OA
ATOM     34  H   UNL     1      12.478  22.378  36.114  1.00  0.00     0.211 HD
ENDBRANCH  21  33
ENDBRANCH  15  16
ENDBRANCH  10  15
BRANCH  12  35
ATOM     35  O   UNL     1      12.178  29.700  35.693  1.00  0.00    -0.385 OA
ATOM     36  H   UNL     1      11.233  30.004  35.550  1.00  0.00     0.211 HD
ENDBRANCH  12  35
BRANCH  13  37
ATOM     37  O   UNL     1      12.938  28.260  32.714  1.00  0.00    -0.387 OA
ATOM     38  H   UNL     1      12.586  28.354  31.799  1.00  0.00     0.211 HD
ENDBRANCH  13  37
BRANCH  14  39
ATOM     39  O   UNL     1      11.016  26.470  33.112  1.00  0.00    -0.387 OA
ATOM     40  H   UNL     1      11.963  26.394  33.431  1.00  0.00     0.211 HD
ENDBRANCH  14  39
ENDBRANCH   8   9
ENDBRANCH   7   8
ENDBRANCH   1   7
BRANCH   1  41
ATOM     41  C   UNL     1       6.101  28.096  35.864  1.00  0.00     0.364 C 
ATOM     42  O   UNL     1       5.373  28.864  35.211  1.00  0.00    -0.246 OA
BRANCH  41  43
ATOM     43  O   UNL     1       6.531  28.552  37.107  1.00  0.00    -0.477 OA
ATOM     44  H   UNL     1       7.421  29.018  37.211  1.00  0.00     0.296 HD
ENDBRANCH  41  43
ENDBRANCH   1  41
BRANCH   3  45
ATOM     45  O   UNL     1       7.026  23.667  36.694  1.00  0.00    -0.391 OA
ATOM     46  H   UNL     1       7.382  22.952  36.111  1.00  0.00     0.211 HD
ENDBRANCH   3  45
BRANCH   5  47
ATOM     47  C   UNL     1       5.217  25.209  32.396  1.00  0.00     0.176 C 
BRANCH  47  48
ATOM     48  O   UNL     1       5.204  26.516  31.851  1.00  0.00    -0.388 OA
ATOM     49  H   UNL     1       5.937  27.063  32.175  1.00  0.00     0.211 HD
ENDBRANCH  47  48
BRANCH  47  50
ATOM     50  C   UNL     1       3.923  24.585  31.988  1.00  0.00     0.165 C 
BRANCH  50  51
ATOM     51  O   UNL     1       4.086  23.208  31.832  1.00  0.00    -0.388 OA
ATOM     52  H   UNL     1       4.137  22.793  32.731  1.00  0.00     0.211 HD
ENDBRANCH  50  51
BRANCH  50  53
ATOM     53  C   UNL     1       3.263  25.186  30.797  1.00  0.00     0.154 C 
BRANCH  53  54
ATOM     54  N   UNL     1       2.712  24.184  29.914  1.00  0.00    -0.319 N 
ATOM     55  C   UNL     1       1.328  23.939  29.747  1.00  0.00     0.407 C 
ATOM     56  H   UNL     1       3.343  23.560  29.325  1.00  0.00     0.167 HD
ATOM     57  O   UNL     1       0.496  24.612  30.384  1.00  0.00    -0.225 OA
BRANCH  55  58
ATOM     58  O   UNL     1       0.835  22.964  28.889  1.00  0.00    -0.443 OA
BRANCH  58  59
ATOM     59  C   UNL     1       0.637  23.205  27.491  1.00  0.00     0.294 C 
BRANCH  59  60
ATOM     60  C   UNL     1       1.919  23.759  26.988  1.00  0.00     0.121 A 
ATOM     61  C   UNL     1       2.152  25.031  26.546  1.00  0.00     0.144 A 
ATOM     62  N   UNL     1       3.110  23.103  26.873  1.00  0.00    -0.131 NA
ATOM     63  N   UNL     1       3.445  25.141  26.173  1.00  0.00    -0.220 N 
ATOM     64  N   UNL     1       3.998  23.949  26.386  1.00  0.00    -0.062 NA
BRANCH  63  65
ATOM     65  C   UNL     1       4.064  26.311  25.663  1.00  0.00     0.067 A 
ATOM     66  C   UNL     1       5.419  26.384  25.443  1.00  0.00     0.039 A 
ATOM     67  C   UNL     1       3.281  27.401  25.376  1.00  0.00     0.029 A 
ATOM     68  C   UNL     1       5.971  27.540  24.942  1.00  0.00     0.007 A 
ATOM     69  C   UNL     1       3.837  28.559  24.873  1.00  0.00     0.012 A 
ATOM     70  C   UNL     1       5.190  28.655  24.646  1.00  0.00    -0.008 A 
BRANCH  68  71
ATOM     71  C   UNL     1       7.410  27.653  24.696  1.00  0.00     0.072 C 
ATOM     72  O   UNL     1       7.942  27.214  23.647  1.00  0.00    -0.545 OA
ATOM     73  O   UNL     1       8.207  28.255  25.638  1.00  0.00    -0.545 OA
ENDBRANCH  68  71
BRANCH  70  74
ATOM     74  C   UNL     1       5.784  29.868  24.114  1.00  0.00     0.004 A 
ATOM     75  C   UNL     1       5.890  30.015  22.754  1.00  0.00     0.026 A 
ATOM     76  C   UNL     1       6.246  30.872  24.927  1.00  0.00     0.026 A 
ATOM     77  C   UNL     1       5.455  29.061  21.864  1.00  0.00     0.016 A 
ATOM     78  C   UNL     1       6.465  31.181  22.261  1.00  0.00     0.139 A 
ATOM     79  C   UNL     1       6.849  32.095  24.354  1.00  0.00     0.139 A 
ATOM     80  C   UNL     1       6.173  30.797  26.294  1.00  0.00     0.016 A 
ATOM     81  C   UNL     1       5.567  29.219  20.495  1.00  0.00     0.047 A 
ATOM     82  C   UNL     1       6.572  31.331  20.900  1.00  0.00     0.093 A 
ATOM     83  O   UNL     1       6.906  32.142  23.049  1.00  0.00    -0.456 OA
ATOM     84  C   UNL     1       7.310  33.097  25.171  1.00  0.00     0.099 A 
ATOM     85  C   UNL     1       6.642  31.815  27.105  1.00  0.00     0.053 A 
ATOM     86  C   UNL     1       6.135  30.371  19.997  1.00  0.00     0.119 A 
ATOM     87  C   UNL     1       7.200  32.944  26.533  1.00  0.00     0.182 A 
ATOM     88  O   UNL     1       7.609  33.836  27.324  1.00  0.00    -0.290 OA
BRANCH  86  89
ATOM     89  O   UNL     1       6.242  30.522  18.623  1.00  0.00    -0.508 OA
ATOM     90  H   UNL     1       7.172  30.712  18.258  1.00  0.00     0.293 HD
ENDBRANCH  86  89
ENDBRANCH  70  74
ENDBRANCH  63  65
ENDBRANCH  59  60
ENDBRANCH  58  59
ENDBRANCH  55  58
ENDBRANCH  53  54
ENDBRANCH  50  53
ENDBRANCH  47  50
ENDBRANCH   5  47
BRANCH   4  91
ATOM     91  N   UNL     1       5.998  22.994  33.924  1.00  0.00    -0.348 N 
ATOM     92  C   UNL     1       7.084  22.301  33.352  1.00  0.00     0.217 C 
ATOM     93  H   UNL     1       5.062  22.534  33.916  1.00  0.00     0.163 HD
ATOM     94  C   UNL     1       6.958  20.954  32.743  1.00  0.00     0.114 C 
ATOM     95  O   UNL     1       8.257  22.811  33.329  1.00  0.00    -0.275 OA
ENDBRANCH   4  91
TORSDOF 33
