REMARK VINA RESULT:    -5.609     17.503     22.450
REMARK INTER + INTRA:         -20.989
REMARK INTER:                 -14.904
REMARK INTRA:                  -6.085
REMARK UNBOUND:                -6.855
REMARK SMILES CC(=O)N[C@@H]1[C@@H](O)C[C@](OC[C@H]2O[C@@H](O[C@H]3[C@H](O)[C@@H](O)[C@H](OCCN=[N+]=[N-])O[C@@H]3CO)[C@H](O)[C@@H](O)[C@H]2O)(C(=O)O)O[C@H]1C(O)[C@H](O)CNC(=O)OCc1cn(Cc2ccsc2)nn1
REMARK SMILES IDX 9 1 8 2 6 3 5 4 42 5 41 6 10 7 11 8 12 9 14 10 13 11 32 12
REMARK SMILES IDX 34 13 36 14 15 15 16 16 29 17 28 18 21 19 17 20 19 21 30 22
REMARK SMILES IDX 31 23 22 25 23 26 24 27 25 28 26 29 27 30 18 31 20 33 33 35
REMARK SMILES IDX 35 37 37 39 38 41 39 42 40 43 7 45 43 47 44 48 45 50 46 51
REMARK SMILES IDX 47 53 48 54 49 55 50 57 51 58 52 59 53 60 54 61 63 62 55 63
REMARK SMILES IDX 62 64 56 65 57 66 58 67 61 68 59 69 60 70 4 71 2 72 1 74
REMARK SMILES IDX 3 75
REMARK H PARENT 31 24 18 32 20 34 33 36 35 38 37 40 40 44 7 46 44 49 46 52
REMARK H PARENT 48 56 4 73
REMARK Flexibility Score: inf
ROOT
ATOM      1  C   UNL     1       1.784  20.991  31.676  1.00  0.00     0.272 C 
ATOM      2  C   UNL     1       0.831  21.052  32.832  1.00  0.00     0.113 C 
ATOM      3  C   UNL     1       1.262  20.279  34.050  1.00  0.00     0.145 C 
ATOM      4  C   UNL     1       2.698  20.442  34.366  1.00  0.00     0.142 C 
ATOM      5  C   UNL     1       3.580  20.747  33.171  1.00  0.00     0.178 C 
ATOM      6  O   UNL     1       3.031  21.511  32.204  1.00  0.00    -0.332 OA
ENDROOT
BRANCH   1   7
ATOM      7  O   UNL     1       1.463  21.936  30.767  1.00  0.00    -0.338 OA
BRANCH   7   8
ATOM      8  C   UNL     1       0.369  21.959  30.030  1.00  0.00     0.199 C 
BRANCH   8   9
ATOM      9  C   UNL     1       0.326  22.225  28.583  1.00  0.00     0.179 C 
ATOM     10  C   UNL     1       0.592  24.021  27.213  1.00  0.00     0.282 C 
ATOM     11  O   UNL     1       1.109  23.424  28.386  1.00  0.00    -0.341 OA
ATOM     12  C   UNL     1       0.478  23.062  26.079  1.00  0.00     0.202 C 
ATOM     13  C   UNL     1       1.044  21.706  26.294  1.00  0.00     0.179 C 
ATOM     14  C   UNL     1       1.081  21.229  27.718  1.00  0.00     0.177 C 
BRANCH  10  15
ATOM     15  O   UNL     1       1.361  25.122  26.931  1.00  0.00    -0.341 OA
BRANCH  15  16
ATOM     16  C   UNL     1       2.658  25.062  27.468  1.00  0.00     0.184 C 
ATOM     17  C   UNL     1       2.983  26.265  28.280  1.00  0.00     0.178 C 
ATOM     18  O   UNL     1       3.666  27.270  27.668  1.00  0.00    -0.341 OA
ATOM     19  C   UNL     1       3.900  27.079  26.296  1.00  0.00     0.281 C 
ATOM     20  C   UNL     1       3.673  24.678  26.439  1.00  0.00     0.180 C 
ATOM     21  C   UNL     1       4.689  25.802  26.195  1.00  0.00     0.202 C 
BRANCH  17  22
ATOM     22  C   UNL     1       3.700  25.918  29.575  1.00  0.00     0.191 C 
BRANCH  22  23
ATOM     23  O   UNL     1       5.063  26.093  29.339  1.00  0.00    -0.394 OA
ATOM     24  H   UNL     1       5.597  26.015  30.184  1.00  0.00     0.210 HD
ENDBRANCH  22  23
ENDBRANCH  17  22
BRANCH  19  25
ATOM     25  O   UNL     1       4.532  28.201  25.831  1.00  0.00    -0.350 OA
BRANCH  25  26
ATOM     26  C   UNL     1       5.651  28.562  26.555  1.00  0.00     0.169 C 
BRANCH  26  27
ATOM     27  C   UNL     1       6.846  28.957  25.751  1.00  0.00     0.119 C 
BRANCH  27  28
ATOM     28  N   UNL     1       7.445  27.816  25.114  1.00  0.00    -0.092 NA
ATOM     29  N   UNL     1       8.324  27.195  25.731  1.00  0.00     0.001 N 
ATOM     30  N   UNL     1       9.125  26.350  26.130  1.00  0.00    -0.003 NA
ENDBRANCH  27  28
ENDBRANCH  26  27
ENDBRANCH  25  26
ENDBRANCH  19  25
BRANCH  20  31
ATOM     31  O   UNL     1       4.313  23.483  26.687  1.00  0.00    -0.387 OA
ATOM     32  H   UNL     1       5.255  23.622  26.918  1.00  0.00     0.211 HD
ENDBRANCH  20  31
BRANCH  21  33
ATOM     33  O   UNL     1       5.340  25.673  24.995  1.00  0.00    -0.385 OA
ATOM     34  H   UNL     1       6.104  26.306  24.903  1.00  0.00     0.211 HD
ENDBRANCH  21  33
ENDBRANCH  15  16
ENDBRANCH  10  15
BRANCH  12  35
ATOM     35  O   UNL     1      -0.852  23.001  25.585  1.00  0.00    -0.385 OA
ATOM     36  H   UNL     1      -1.067  23.841  25.101  1.00  0.00     0.211 HD
ENDBRANCH  12  35
BRANCH  13  37
ATOM     37  O   UNL     1       2.374  21.691  25.825  1.00  0.00    -0.387 OA
ATOM     38  H   UNL     1       2.564  22.566  25.415  1.00  0.00     0.211 HD
ENDBRANCH  13  37
BRANCH  14  39
ATOM     39  O   UNL     1       2.408  21.257  28.214  1.00  0.00    -0.387 OA
ATOM     40  H   UNL     1       2.524  20.363  28.662  1.00  0.00     0.211 HD
ENDBRANCH  14  39
ENDBRANCH   8   9
ENDBRANCH   7   8
ENDBRANCH   1   7
BRANCH   1  41
ATOM     41  C   UNL     1       2.128  19.643  31.225  1.00  0.00     0.364 C 
ATOM     42  O   UNL     1       1.393  18.654  31.407  1.00  0.00    -0.246 OA
BRANCH  41  43
ATOM     43  O   UNL     1       3.329  19.367  30.545  1.00  0.00    -0.477 OA
ATOM     44  H   UNL     1       3.646  19.957  29.789  1.00  0.00     0.296 HD
ENDBRANCH  41  43
ENDBRANCH   1  41
BRANCH   3  45
ATOM     45  O   UNL     1       0.512  20.855  35.112  1.00  0.00    -0.391 OA
ATOM     46  H   UNL     1       1.043  20.825  35.956  1.00  0.00     0.211 HD
ENDBRANCH   3  45
BRANCH   5  47
ATOM     47  C   UNL     1       4.798  21.556  33.681  1.00  0.00     0.176 C 
BRANCH  47  48
ATOM     48  O   UNL     1       4.338  22.663  34.390  1.00  0.00    -0.388 OA
ATOM     49  H   UNL     1       4.934  22.846  35.151  1.00  0.00     0.211 HD
ENDBRANCH  47  48
BRANCH  47  50
ATOM     50  C   UNL     1       5.552  22.040  32.494  1.00  0.00     0.165 C 
BRANCH  50  51
ATOM     51  O   UNL     1       5.627  21.014  31.553  1.00  0.00    -0.388 OA
ATOM     52  H   UNL     1       5.666  21.377  30.635  1.00  0.00     0.211 HD
ENDBRANCH  50  51
BRANCH  50  53
ATOM     53  C   UNL     1       6.956  22.500  32.786  1.00  0.00     0.154 C 
BRANCH  53  54
ATOM     54  N   UNL     1       7.119  23.020  34.111  1.00  0.00    -0.319 N 
ATOM     55  C   UNL     1       8.269  23.652  34.599  1.00  0.00     0.407 C 
ATOM     56  H   UNL     1       6.297  22.917  34.778  1.00  0.00     0.167 HD
ATOM     57  O   UNL     1       9.255  23.791  33.844  1.00  0.00    -0.225 OA
BRANCH  55  58
ATOM     58  O   UNL     1       8.293  24.107  35.900  1.00  0.00    -0.443 OA
BRANCH  58  59
ATOM     59  C   UNL     1       7.169  24.183  36.728  1.00  0.00     0.294 C 
BRANCH  59  60
ATOM     60  C   UNL     1       6.261  25.232  36.220  1.00  0.00     0.120 A 
ATOM     61  C   UNL     1       6.520  26.564  36.133  1.00  0.00     0.138 A 
ATOM     62  N   UNL     1       5.021  25.020  35.757  1.00  0.00    -0.132 NA
ATOM     63  N   UNL     1       5.423  27.143  35.615  1.00  0.00    -0.248 N 
ATOM     64  N   UNL     1       4.525  26.206  35.392  1.00  0.00    -0.067 NA
BRANCH  63  65
ATOM     65  C   UNL     1       5.274  28.552  35.355  1.00  0.00     0.182 C 
BRANCH  65  66
ATOM     66  C   UNL     1       5.043  28.746  33.851  1.00  0.00    -0.016 A 
ATOM     67  C   UNL     1       3.852  28.891  33.305  1.00  0.00     0.017 A 
ATOM     68  C   UNL     1       6.170  28.767  33.031  1.00  0.00     0.070 A 
ATOM     69  C   UNL     1       3.701  29.063  31.942  1.00  0.00     0.065 A 
ATOM     70  S   UNL     1       5.448  29.008  31.396  1.00  0.00    -0.152 S 
ENDBRANCH  65  66
ENDBRANCH  63  65
ENDBRANCH  59  60
ENDBRANCH  58  59
ENDBRANCH  55  58
ENDBRANCH  53  54
ENDBRANCH  50  53
ENDBRANCH  47  50
ENDBRANCH   5  47
BRANCH   4  71
ATOM     71  N   UNL     1       3.287  19.340  35.066  1.00  0.00    -0.348 N 
ATOM     72  C   UNL     1       3.259  19.226  36.481  1.00  0.00     0.217 C 
ATOM     73  H   UNL     1       3.763  18.578  34.535  1.00  0.00     0.163 HD
ATOM     74  C   UNL     1       3.871  18.080  37.222  1.00  0.00     0.114 C 
ATOM     75  O   UNL     1       2.675  20.167  37.092  1.00  0.00    -0.275 OA
ENDBRANCH   4  71
TORSDOF 31
