REMARK VINA RESULT:    -6.454     17.112     21.854
REMARK INTER + INTRA:         -24.825
REMARK INTER:                 -17.611
REMARK INTRA:                  -7.214
REMARK UNBOUND:                -7.995
REMARK SMILES CC(=O)N[C@@H]1[C@@H](O)C[C@](OC[C@H]2O[C@@H](O[C@H]3[C@H](O)[C@@H](O)[C@H](OCCN=[N+]=[N-])O[C@@H]3CO)[C@H](O)[C@@H](O)[C@H]2O)(C(=O)O)O[C@H]1C(O)[C@H](O)CNC(=O)OCc1cn(-c2ccc(-c3c4ccc(=O)cc-4oc4cc(O)ccc34)c(C(=O)[O-])c2)nn1
REMARK SMILES IDX 9 1 8 2 6 3 5 4 42 5 41 6 10 7 11 8 12 9 14 10 13 11 32 12
REMARK SMILES IDX 34 13 36 14 15 15 16 16 29 17 28 18 21 19 17 20 19 21 30 22
REMARK SMILES IDX 31 23 22 25 23 26 24 27 25 28 26 29 27 30 18 31 20 33 33 35
REMARK SMILES IDX 35 37 37 39 38 41 39 42 40 43 7 45 43 47 44 48 45 50 46 51
REMARK SMILES IDX 47 53 48 54 49 55 50 57 51 58 52 59 53 60 54 61 82 62 55 63
REMARK SMILES IDX 81 64 56 65 80 66 57 67 76 68 58 69 59 70 77 71 78 72 79 73
REMARK SMILES IDX 60 74 75 75 61 76 74 77 69 78 67 79 62 80 73 81 70 82 68 83
REMARK SMILES IDX 66 84 63 85 71 86 64 87 65 88 72 89 4 91 2 92 1 94 3 95
REMARK H PARENT 31 24 18 32 20 34 33 36 35 38 37 40 40 44 7 46 44 49 46 52
REMARK H PARENT 48 56 72 90 4 93
REMARK Flexibility Score: inf
ROOT
ATOM      1  C   UNL     1       6.493  26.693  35.507  1.00  0.00     0.272 C 
ATOM      2  C   UNL     1       5.908  25.696  36.476  1.00  0.00     0.113 C 
ATOM      3  C   UNL     1       5.889  24.291  35.943  1.00  0.00     0.145 C 
ATOM      4  C   UNL     1       6.096  24.359  34.451  1.00  0.00     0.142 C 
ATOM      5  C   UNL     1       5.226  25.479  33.945  1.00  0.00     0.178 C 
ATOM      6  O   UNL     1       5.788  26.686  34.279  1.00  0.00    -0.332 OA
ENDROOT
BRANCH   1   7
ATOM      7  O   UNL     1       7.833  26.576  35.261  1.00  0.00    -0.338 OA
BRANCH   7   8
ATOM      8  C   UNL     1       8.317  27.435  34.339  1.00  0.00     0.199 C 
BRANCH   8   9
ATOM      9  C   UNL     1       9.772  27.829  34.637  1.00  0.00     0.179 C 
ATOM     10  C   UNL     1      11.609  27.180  35.870  1.00  0.00     0.282 C 
ATOM     11  O   UNL     1      10.248  27.263  35.763  1.00  0.00    -0.341 OA
ATOM     12  C   UNL     1      12.369  28.220  35.145  1.00  0.00     0.202 C 
ATOM     13  C   UNL     1      11.944  28.363  33.703  1.00  0.00     0.179 C 
ATOM     14  C   UNL     1      10.649  27.604  33.462  1.00  0.00     0.177 C 
BRANCH  10  15
ATOM     15  O   UNL     1      11.951  25.853  35.611  1.00  0.00    -0.341 OA
BRANCH  15  16
ATOM     16  C   UNL     1      11.298  24.956  36.391  1.00  0.00     0.184 C 
ATOM     17  C   UNL     1      12.207  24.251  37.351  1.00  0.00     0.178 C 
ATOM     18  O   UNL     1      11.461  23.683  38.393  1.00  0.00    -0.341 OA
ATOM     19  C   UNL     1      10.312  23.065  37.913  1.00  0.00     0.281 C 
ATOM     20  C   UNL     1      10.644  23.822  35.581  1.00  0.00     0.180 C 
ATOM     21  C   UNL     1      10.442  22.634  36.497  1.00  0.00     0.202 C 
BRANCH  17  22
ATOM     22  C   UNL     1      13.189  25.214  37.943  1.00  0.00     0.191 C 
BRANCH  22  23
ATOM     23  O   UNL     1      13.604  24.727  39.184  1.00  0.00    -0.394 OA
ATOM     24  H   UNL     1      13.118  23.887  39.337  1.00  0.00     0.210 HD
ENDBRANCH  22  23
ENDBRANCH  17  22
BRANCH  19  25
ATOM     25  O   UNL     1       9.199  23.854  38.113  1.00  0.00    -0.350 OA
BRANCH  25  26
ATOM     26  C   UNL     1       8.856  24.030  39.448  1.00  0.00     0.169 C 
BRANCH  26  27
ATOM     27  C   UNL     1       8.690  22.639  40.033  1.00  0.00     0.119 C 
BRANCH  27  28
ATOM     28  N   UNL     1       7.305  22.276  40.171  1.00  0.00    -0.092 NA
ATOM     29  N   UNL     1       6.441  23.127  39.924  1.00  0.00     0.001 N 
ATOM     30  N   UNL     1       5.446  23.714  39.499  1.00  0.00    -0.003 NA
ENDBRANCH  27  28
ENDBRANCH  26  27
ENDBRANCH  25  26
ENDBRANCH  19  25
BRANCH  20  31
ATOM     31  O   UNL     1       9.385  24.284  35.209  1.00  0.00    -0.387 OA
ATOM     32  H   UNL     1       9.133  25.135  35.630  1.00  0.00     0.211 HD
ENDBRANCH  20  31
BRANCH  21  33
ATOM     33  O   UNL     1      11.407  21.640  36.322  1.00  0.00    -0.385 OA
ATOM     34  H   UNL     1      11.506  21.209  37.226  1.00  0.00     0.211 HD
ENDBRANCH  21  33
ENDBRANCH  15  16
ENDBRANCH  10  15
BRANCH  12  35
ATOM     35  O   UNL     1      12.242  29.473  35.797  1.00  0.00    -0.385 OA
ATOM     36  H   UNL     1      12.763  29.435  36.654  1.00  0.00     0.211 HD
ENDBRANCH  12  35
BRANCH  13  37
ATOM     37  O   UNL     1      12.948  28.008  32.817  1.00  0.00    -0.387 OA
ATOM     38  H   UNL     1      12.841  27.052  32.606  1.00  0.00     0.211 HD
ENDBRANCH  13  37
BRANCH  14  39
ATOM     39  O   UNL     1      10.976  26.275  33.225  1.00  0.00    -0.387 OA
ATOM     40  H   UNL     1      10.194  25.744  33.557  1.00  0.00     0.211 HD
ENDBRANCH  14  39
ENDBRANCH   8   9
ENDBRANCH   7   8
ENDBRANCH   1   7
BRANCH   1  41
ATOM     41  C   UNL     1       6.127  28.047  36.086  1.00  0.00     0.364 C 
ATOM     42  O   UNL     1       6.643  28.518  37.116  1.00  0.00    -0.246 OA
BRANCH  41  43
ATOM     43  O   UNL     1       5.165  28.831  35.457  1.00  0.00    -0.477 OA
ATOM     44  H   UNL     1       5.079  29.816  35.665  1.00  0.00     0.296 HD
ENDBRANCH  41  43
ENDBRANCH   1  41
BRANCH   3  45
ATOM     45  O   UNL     1       6.827  23.531  36.614  1.00  0.00    -0.391 OA
ATOM     46  H   UNL     1       7.708  23.713  36.202  1.00  0.00     0.211 HD
ENDBRANCH   3  45
BRANCH   5  47
ATOM     47  C   UNL     1       5.153  25.454  32.415  1.00  0.00     0.176 C 
BRANCH  47  48
ATOM     48  O   UNL     1       5.455  26.758  31.952  1.00  0.00    -0.388 OA
ATOM     49  H   UNL     1       4.661  27.294  31.799  1.00  0.00     0.211 HD
ENDBRANCH  47  48
BRANCH  47  50
ATOM     50  C   UNL     1       3.763  25.169  31.951  1.00  0.00     0.165 C 
BRANCH  50  51
ATOM     51  O   UNL     1       3.717  23.923  31.322  1.00  0.00    -0.388 OA
ATOM     52  H   UNL     1       4.602  23.744  30.913  1.00  0.00     0.211 HD
ENDBRANCH  50  51
BRANCH  50  53
ATOM     53  C   UNL     1       3.135  26.221  31.106  1.00  0.00     0.154 C 
BRANCH  53  54
ATOM     54  N   UNL     1       3.048  25.826  29.718  1.00  0.00    -0.319 N 
ATOM     55  C   UNL     1       4.041  26.094  28.747  1.00  0.00     0.407 C 
ATOM     56  H   UNL     1       2.202  25.295  29.348  1.00  0.00     0.167 HD
ATOM     57  O   UNL     1       5.077  26.708  29.068  1.00  0.00    -0.225 OA
BRANCH  55  58
ATOM     58  O   UNL     1       3.921  25.702  27.419  1.00  0.00    -0.443 OA
BRANCH  58  59
ATOM     59  C   UNL     1       2.779  26.040  26.624  1.00  0.00     0.294 C 
BRANCH  59  60
ATOM     60  C   UNL     1       3.089  27.354  26.006  1.00  0.00     0.121 A 
ATOM     61  C   UNL     1       3.764  27.578  24.838  1.00  0.00     0.144 A 
ATOM     62  N   UNL     1       2.758  28.587  26.485  1.00  0.00    -0.131 NA
ATOM     63  N   UNL     1       3.839  28.908  24.619  1.00  0.00    -0.220 N 
ATOM     64  N   UNL     1       3.217  29.491  25.641  1.00  0.00    -0.062 NA
BRANCH  63  65
ATOM     65  C   UNL     1       4.462  29.531  23.507  1.00  0.00     0.067 A 
ATOM     66  C   UNL     1       3.981  30.696  22.957  1.00  0.00     0.039 A 
ATOM     67  C   UNL     1       5.584  28.952  22.968  1.00  0.00     0.029 A 
ATOM     68  C   UNL     1       4.624  31.263  21.882  1.00  0.00     0.007 A 
ATOM     69  C   UNL     1       6.227  29.523  21.891  1.00  0.00     0.012 A 
ATOM     70  C   UNL     1       5.763  30.688  21.324  1.00  0.00    -0.008 A 
BRANCH  68  71
ATOM     71  C   UNL     1       4.139  32.503  21.272  1.00  0.00     0.072 C 
ATOM     72  O   UNL     1       4.525  33.631  21.663  1.00  0.00    -0.545 OA
ATOM     73  O   UNL     1       3.234  32.435  20.242  1.00  0.00    -0.545 OA
ENDBRANCH  68  71
BRANCH  70  74
ATOM     74  C   UNL     1       6.435  31.299  20.191  1.00  0.00     0.004 A 
ATOM     75  C   UNL     1       6.078  30.916  18.922  1.00  0.00     0.026 A 
ATOM     76  C   UNL     1       7.417  32.243  20.347  1.00  0.00     0.026 A 
ATOM     77  C   UNL     1       5.105  29.977  18.672  1.00  0.00     0.016 A 
ATOM     78  C   UNL     1       6.733  31.508  17.849  1.00  0.00     0.139 A 
ATOM     79  C   UNL     1       8.085  32.845  19.172  1.00  0.00     0.139 A 
ATOM     80  C   UNL     1       7.826  32.675  21.583  1.00  0.00     0.016 A 
ATOM     81  C   UNL     1       4.753  29.599  17.389  1.00  0.00     0.047 A 
ATOM     82  C   UNL     1       6.378  31.128  16.578  1.00  0.00     0.093 A 
ATOM     83  O   UNL     1       7.676  32.416  18.006  1.00  0.00    -0.456 OA
ATOM     84  C   UNL     1       9.066  33.789  19.332  1.00  0.00     0.099 A 
ATOM     85  C   UNL     1       8.818  33.629  21.729  1.00  0.00     0.053 A 
ATOM     86  C   UNL     1       5.397  30.181  16.319  1.00  0.00     0.119 A 
ATOM     87  C   UNL     1       9.420  34.168  20.606  1.00  0.00     0.182 A 
ATOM     88  O   UNL     1      10.316  35.032  20.805  1.00  0.00    -0.290 OA
BRANCH  86  89
ATOM     89  O   UNL     1       5.038  29.796  15.036  1.00  0.00    -0.508 OA
ATOM     90  H   UNL     1       5.776  29.410  14.454  1.00  0.00     0.293 HD
ENDBRANCH  86  89
ENDBRANCH  70  74
ENDBRANCH  63  65
ENDBRANCH  59  60
ENDBRANCH  58  59
ENDBRANCH  55  58
ENDBRANCH  53  54
ENDBRANCH  50  53
ENDBRANCH  47  50
ENDBRANCH   5  47
BRANCH   4  91
ATOM     91  N   UNL     1       5.806  23.103  33.792  1.00  0.00    -0.348 N 
ATOM     92  C   UNL     1       6.872  22.376  33.226  1.00  0.00     0.217 C 
ATOM     93  H   UNL     1       4.844  22.707  33.714  1.00  0.00     0.163 HD
ATOM     94  C   UNL     1       6.692  21.080  32.527  1.00  0.00     0.114 C 
ATOM     95  O   UNL     1       8.075  22.808  33.288  1.00  0.00    -0.275 OA
ENDBRANCH   4  91
TORSDOF 33
