REMARK VINA RESULT:    -5.308      1.942      2.745
REMARK INTER + INTRA:         -20.665
REMARK INTER:                 -14.158
REMARK INTRA:                  -6.507
REMARK UNBOUND:                -7.600
REMARK SMILES CC(=O)N[C@@H]1[C@@H](O)C[C@](OC[C@H]2O[C@@H](O[C@H]3[C@H](O)[C@@H](O)[C@H](OCCN=[N+]=[N-])O[C@@H]3CO)[C@H](O)[C@@H](O)[C@H]2O)(C(=O)O)O[C@H]1C(O)[C@H](O)CNC(=O)OCc1cn(-c2ccc(Cl)cc2)nn1
REMARK SMILES IDX 9 1 8 2 6 3 5 4 42 5 41 6 10 7 11 8 12 9 14 10 13 11 32 12
REMARK SMILES IDX 34 13 36 14 15 15 16 16 29 17 28 18 21 19 17 20 19 21 30 22
REMARK SMILES IDX 31 23 22 25 23 26 24 27 25 28 26 29 27 30 18 31 20 33 33 35
REMARK SMILES IDX 35 37 37 39 38 41 39 42 40 43 7 45 43 47 44 48 45 50 46 51
REMARK SMILES IDX 47 53 48 54 49 55 50 57 51 58 52 59 53 60 54 61 64 62 55 63
REMARK SMILES IDX 63 64 56 65 57 66 62 67 58 68 61 69 59 70 60 71 4 72 2 73
REMARK SMILES IDX 1 75 3 76
REMARK H PARENT 31 24 18 32 20 34 33 36 35 38 37 40 40 44 7 46 44 49 46 52
REMARK H PARENT 48 56 4 74
REMARK Flexibility Score: inf
ROOT
ATOM      1  C   UNL     1      22.356  25.796  23.191  1.00  0.00     0.272 C 
ATOM      2  C   UNL     1      22.990  24.584  22.646  1.00  0.00     0.113 C 
ATOM      3  C   UNL     1      23.406  24.547  21.233  1.00  0.00     0.145 C 
ATOM      4  C   UNL     1      23.263  25.917  20.606  1.00  0.00     0.142 C 
ATOM      5  C   UNL     1      21.868  26.404  21.053  1.00  0.00     0.178 C 
ATOM      6  O   UNL     1      22.173  26.875  22.367  1.00  0.00    -0.332 OA
ENDROOT
BRANCH   1   7
ATOM      7  O   UNL     1      23.139  26.211  24.305  1.00  0.00    -0.338 OA
BRANCH   7   8
ATOM      8  C   UNL     1      23.943  25.222  24.803  1.00  0.00     0.199 C 
BRANCH   8   9
ATOM      9  C   UNL     1      24.902  25.751  25.866  1.00  0.00     0.179 C 
ATOM     10  C   UNL     1      25.109  27.898  26.805  1.00  0.00     0.282 C 
ATOM     11  O   UNL     1      25.193  27.066  25.688  1.00  0.00    -0.341 OA
ATOM     12  C   UNL     1      23.732  27.841  27.318  1.00  0.00     0.202 C 
ATOM     13  C   UNL     1      23.407  26.416  27.742  1.00  0.00     0.179 C 
ATOM     14  C   UNL     1      24.417  25.424  27.260  1.00  0.00     0.177 C 
BRANCH  10  15
ATOM     15  O   UNL     1      25.560  29.125  26.323  1.00  0.00    -0.341 OA
BRANCH  15  16
ATOM     16  C   UNL     1      24.807  29.750  25.423  1.00  0.00     0.184 C 
ATOM     17  C   UNL     1      25.483  29.997  24.122  1.00  0.00     0.178 C 
ATOM     18  O   UNL     1      24.568  30.358  23.139  1.00  0.00    -0.341 OA
ATOM     19  C   UNL     1      23.843  31.478  23.392  1.00  0.00     0.281 C 
ATOM     20  C   UNL     1      24.272  31.124  25.876  1.00  0.00     0.180 C 
ATOM     21  C   UNL     1      24.139  32.058  24.727  1.00  0.00     0.202 C 
BRANCH  17  22
ATOM     22  C   UNL     1      26.351  28.900  23.588  1.00  0.00     0.191 C 
BRANCH  22  23
ATOM     23  O   UNL     1      25.607  27.850  23.052  1.00  0.00    -0.394 OA
ATOM     24  H   UNL     1      26.060  27.512  22.244  1.00  0.00     0.210 HD
ENDBRANCH  22  23
ENDBRANCH  17  22
BRANCH  19  25
ATOM     25  O   UNL     1      22.474  31.191  23.344  1.00  0.00    -0.350 OA
BRANCH  25  26
ATOM     26  C   UNL     1      21.707  32.319  23.589  1.00  0.00     0.169 C 
BRANCH  26  27
ATOM     27  C   UNL     1      20.249  32.031  23.779  1.00  0.00     0.119 C 
BRANCH  27  28
ATOM     28  N   UNL     1      20.055  31.727  25.195  1.00  0.00    -0.092 NA
ATOM     29  N   UNL     1      20.057  30.517  25.484  1.00  0.00     0.001 N 
ATOM     30  N   UNL     1      20.402  29.376  25.858  1.00  0.00    -0.003 NA
ENDBRANCH  27  28
ENDBRANCH  26  27
ENDBRANCH  25  26
ENDBRANCH  19  25
BRANCH  20  31
ATOM     31  O   UNL     1      23.028  30.894  26.437  1.00  0.00    -0.387 OA
ATOM     32  H   UNL     1      23.188  30.735  27.422  1.00  0.00     0.211 HD
ENDBRANCH  20  31
BRANCH  21  33
ATOM     33  O   UNL     1      25.230  32.944  24.623  1.00  0.00    -0.385 OA
ATOM     34  H   UNL     1      25.919  32.446  24.129  1.00  0.00     0.211 HD
ENDBRANCH  21  33
ENDBRANCH  15  16
ENDBRANCH  10  15
BRANCH  12  35
ATOM     35  O   UNL     1      23.457  28.681  28.399  1.00  0.00    -0.385 OA
ATOM     36  H   UNL     1      22.667  29.281  28.204  1.00  0.00     0.211 HD
ENDBRANCH  12  35
BRANCH  13  37
ATOM     37  O   UNL     1      22.106  26.129  27.336  1.00  0.00    -0.387 OA
ATOM     38  H   UNL     1      22.037  25.645  26.498  1.00  0.00     0.211 HD
ENDBRANCH  13  37
BRANCH  14  39
ATOM     39  O   UNL     1      23.812  24.148  27.150  1.00  0.00    -0.387 OA
ATOM     40  H   UNL     1      23.711  23.970  26.198  1.00  0.00     0.211 HD
ENDBRANCH  14  39
ENDBRANCH   8   9
ENDBRANCH   7   8
ENDBRANCH   1   7
BRANCH   1  41
ATOM     41  C   UNL     1      21.020  25.417  23.777  1.00  0.00     0.364 C 
ATOM     42  O   UNL     1      20.444  26.132  24.627  1.00  0.00    -0.246 OA
BRANCH  41  43
ATOM     43  O   UNL     1      20.415  24.255  23.368  1.00  0.00    -0.477 OA
ATOM     44  H   UNL     1      19.515  24.220  22.894  1.00  0.00     0.296 HD
ENDBRANCH  41  43
ENDBRANCH   1  41
BRANCH   3  45
ATOM     45  O   UNL     1      24.748  24.188  21.108  1.00  0.00    -0.391 OA
ATOM     46  H   UNL     1      25.023  24.356  20.188  1.00  0.00     0.211 HD
ENDBRANCH   3  45
BRANCH   5  47
ATOM     47  C   UNL     1      21.364  27.549  20.250  1.00  0.00     0.176 C 
BRANCH  47  48
ATOM     48  O   UNL     1      19.990  27.624  20.429  1.00  0.00    -0.388 OA
ATOM     49  H   UNL     1      19.466  27.604  19.592  1.00  0.00     0.211 HD
ENDBRANCH  47  48
BRANCH  47  50
ATOM     50  C   UNL     1      21.999  28.867  20.378  1.00  0.00     0.165 C 
BRANCH  50  51
ATOM     51  O   UNL     1      21.142  29.602  21.276  1.00  0.00    -0.388 OA
ATOM     52  H   UNL     1      20.596  28.973  21.804  1.00  0.00     0.211 HD
ENDBRANCH  50  51
BRANCH  50  53
ATOM     53  C   UNL     1      21.916  29.706  19.111  1.00  0.00     0.154 C 
BRANCH  53  54
ATOM     54  N   UNL     1      20.612  30.246  18.845  1.00  0.00    -0.319 N 
ATOM     55  C   UNL     1      19.923  29.828  17.677  1.00  0.00     0.407 C 
ATOM     56  H   UNL     1      20.137  30.941  19.469  1.00  0.00     0.167 HD
ATOM     57  O   UNL     1      20.432  29.005  16.857  1.00  0.00    -0.225 OA
BRANCH  55  58
ATOM     58  O   UNL     1      18.659  30.307  17.390  1.00  0.00    -0.443 OA
BRANCH  58  59
ATOM     59  C   UNL     1      17.560  29.435  17.113  1.00  0.00     0.294 C 
BRANCH  59  60
ATOM     60  C   UNL     1      17.028  28.859  18.381  1.00  0.00     0.121 A 
ATOM     61  C   UNL     1      16.188  29.518  19.268  1.00  0.00     0.144 A 
ATOM     62  N   UNL     1      17.248  27.640  18.891  1.00  0.00    -0.131 NA
ATOM     63  N   UNL     1      15.928  28.683  20.283  1.00  0.00    -0.220 N 
ATOM     64  N   UNL     1      16.569  27.578  20.033  1.00  0.00    -0.062 NA
BRANCH  63  65
ATOM     65  C   UNL     1      15.088  29.044  21.382  1.00  0.00     0.066 A 
ATOM     66  C   UNL     1      15.617  29.397  22.598  1.00  0.00     0.030 A 
ATOM     67  C   UNL     1      13.728  29.046  21.242  1.00  0.00     0.030 A 
ATOM     68  C   UNL     1      14.823  29.754  23.690  1.00  0.00     0.023 A 
ATOM     69  C   UNL     1      12.915  29.397  22.310  1.00  0.00     0.023 A 
ATOM     70  C   UNL     1      13.462  29.754  23.543  1.00  0.00     0.041 A 
ATOM     71  Cl  UNL     1      12.416  30.197  24.894  1.00  0.00    -0.084 Cl
ENDBRANCH  63  65
ENDBRANCH  59  60
ENDBRANCH  58  59
ENDBRANCH  55  58
ENDBRANCH  53  54
ENDBRANCH  50  53
ENDBRANCH  47  50
ENDBRANCH   5  47
BRANCH   4  72
ATOM     72  N   UNL     1      23.456  25.874  19.207  1.00  0.00    -0.348 N 
ATOM     73  C   UNL     1      22.937  24.764  18.450  1.00  0.00     0.217 C 
ATOM     74  H   UNL     1      23.941  26.596  18.650  1.00  0.00     0.163 HD
ATOM     75  C   UNL     1      23.123  24.687  16.973  1.00  0.00     0.114 C 
ATOM     76  O   UNL     1      22.321  23.858  19.068  1.00  0.00    -0.275 OA
ENDBRANCH   4  72
TORSDOF 30
