REMARK VINA RESULT:    -6.705     16.935     22.351
REMARK INTER + INTRA:         -24.105
REMARK INTER:                 -15.928
REMARK INTRA:                  -8.177
REMARK UNBOUND:                -6.425
REMARK SMILES CC(=O)N[C@@H]1[C@@H](O)C[C@](OC[C@H]2O[C@@H](O[C@H]3[C@H](O)[C@@H](O)[C@H](OCCN=[N+]=[N-])O[C@@H]3CO)[C@H](O)[C@@H](O)[C@H]2O)(C(=O)O)O[C@H]1C(O)[C@H](O)CNC(=O)OCc1cn(-c2ccc(S(=O)(=O)Nc3nccs3)cc2)nn1
REMARK SMILES IDX 43 1 42 2 9 3 8 4 41 5 6 6 5 7 10 8 11 9 12 10 14 11 13 12
REMARK SMILES IDX 32 13 34 14 36 15 15 16 16 17 29 18 28 19 21 20 17 21 19 22
REMARK SMILES IDX 30 23 31 24 22 26 23 27 24 28 25 29 26 30 27 31 18 32 20 34
REMARK SMILES IDX 33 36 35 38 37 40 38 42 39 43 40 44 7 46 4 48 2 49 1 51 3 52
REMARK SMILES IDX 44 53 45 55 46 56 47 58 48 59 49 60 50 62 51 63 52 64 53 65
REMARK SMILES IDX 54 66 72 67 55 68 71 69 56 70 57 71 70 72 58 73 69 74 59 75
REMARK SMILES IDX 60 76 61 77 62 78 63 79 64 81 65 82 68 83 66 84 67 85
REMARK H PARENT 31 25 18 33 20 35 33 37 35 39 37 41 40 45 7 47 4 50 44 54
REMARK H PARENT 46 57 48 61 63 80
REMARK Flexibility Score: inf
ROOT
ATOM      1  C   UNL     1       5.402  23.220  33.031  1.00  0.00     0.176 C 
ENDROOT
BRANCH   1   2
ATOM      2  C   UNL     1       3.990  22.741  33.072  1.00  0.00     0.178 C 
ATOM      3  C   UNL     1       2.639  21.479  31.642  1.00  0.00     0.272 C 
ATOM      4  C   UNL     1       1.712  21.725  32.852  1.00  0.00     0.113 C 
ATOM      5  O   UNL     1       3.765  22.245  31.750  1.00  0.00    -0.332 OA
ATOM      6  C   UNL     1       1.586  23.157  33.212  1.00  0.00     0.145 C 
ATOM      7  C   UNL     1       2.958  23.834  33.217  1.00  0.00     0.142 C 
BRANCH   3   8
ATOM      8  O   UNL     1       1.991  21.817  30.480  1.00  0.00    -0.338 OA
BRANCH   8   9
ATOM      9  C   UNL     1       2.763  22.471  29.553  1.00  0.00     0.199 C 
BRANCH   9  10
ATOM     10  C   UNL     1       1.962  23.063  28.417  1.00  0.00     0.179 C 
ATOM     11  C   UNL     1       1.856  24.515  26.725  1.00  0.00     0.282 C 
ATOM     12  O   UNL     1       2.754  23.739  27.495  1.00  0.00    -0.341 OA
ATOM     13  C   UNL     1       1.236  23.573  25.722  1.00  0.00     0.202 C 
ATOM     14  C   UNL     1       1.484  22.122  26.148  1.00  0.00     0.179 C 
ATOM     15  C   UNL     1       1.236  21.978  27.638  1.00  0.00     0.177 C 
BRANCH  11  16
ATOM     16  O   UNL     1       2.458  25.555  26.103  1.00  0.00    -0.341 OA
BRANCH  16  17
ATOM     17  C   UNL     1       3.704  25.910  26.586  1.00  0.00     0.184 C 
ATOM     18  C   UNL     1       3.772  27.022  27.551  1.00  0.00     0.178 C 
ATOM     19  O   UNL     1       5.045  27.644  27.410  1.00  0.00    -0.341 OA
ATOM     20  C   UNL     1       5.078  28.447  26.262  1.00  0.00     0.281 C 
ATOM     21  C   UNL     1       4.689  26.128  25.445  1.00  0.00     0.180 C 
ATOM     22  C   UNL     1       4.774  27.600  25.040  1.00  0.00     0.202 C 
BRANCH  18  23
ATOM     23  C   UNL     1       3.761  26.600  29.021  1.00  0.00     0.191 C 
BRANCH  23  24
ATOM     24  O   UNL     1       4.690  25.659  29.345  1.00  0.00    -0.394 OA
ATOM     25  H   UNL     1       5.480  26.085  29.750  1.00  0.00     0.210 HD
ENDBRANCH  23  24
ENDBRANCH  18  23
BRANCH  20  26
ATOM     26  O   UNL     1       6.334  29.002  26.169  1.00  0.00    -0.350 OA
BRANCH  26  27
ATOM     27  C   UNL     1       6.714  29.402  24.914  1.00  0.00     0.169 C 
BRANCH  27  28
ATOM     28  C   UNL     1       8.194  29.254  24.653  1.00  0.00     0.119 C 
BRANCH  28  29
ATOM     29  N   UNL     1       8.447  27.859  24.399  1.00  0.00    -0.092 NA
ATOM     30  N   UNL     1       8.602  27.092  25.345  1.00  0.00     0.001 N 
ATOM     31  N   UNL     1       9.161  26.354  26.160  1.00  0.00    -0.003 NA
ENDBRANCH  28  29
ENDBRANCH  27  28
ENDBRANCH  26  27
ENDBRANCH  20  26
BRANCH  21  32
ATOM     32  O   UNL     1       5.977  25.745  25.819  1.00  0.00    -0.387 OA
ATOM     33  H   UNL     1       6.154  24.805  25.587  1.00  0.00     0.211 HD
ENDBRANCH  21  32
BRANCH  22  34
ATOM     34  O   UNL     1       3.630  28.007  24.365  1.00  0.00    -0.385 OA
ATOM     35  H   UNL     1       3.909  28.277  23.463  1.00  0.00     0.211 HD
ENDBRANCH  22  34
ENDBRANCH  16  17
ENDBRANCH  11  16
BRANCH  13  36
ATOM     36  O   UNL     1      -0.178  23.672  25.702  1.00  0.00    -0.385 OA
ATOM     37  H   UNL     1      -0.570  23.098  25.028  1.00  0.00     0.211 HD
ENDBRANCH  13  36
BRANCH  14  38
ATOM     38  O   UNL     1       2.754  21.711  25.770  1.00  0.00    -0.387 OA
ATOM     39  H   UNL     1       3.168  21.111  26.444  1.00  0.00     0.211 HD
ENDBRANCH  14  38
BRANCH  15  40
ATOM     40  O   UNL     1       1.648  20.711  28.017  1.00  0.00    -0.387 OA
ATOM     41  H   UNL     1       1.731  20.578  28.975  1.00  0.00     0.211 HD
ENDBRANCH  15  40
ENDBRANCH   9  10
ENDBRANCH   8   9
ENDBRANCH   3   8
BRANCH   3  42
ATOM     42  C   UNL     1       2.959  20.051  31.686  1.00  0.00     0.364 C 
ATOM     43  O   UNL     1       3.023  19.339  30.632  1.00  0.00    -0.246 OA
BRANCH  42  44
ATOM     44  O   UNL     1       3.217  19.376  32.867  1.00  0.00    -0.477 OA
ATOM     45  H   UNL     1       3.073  19.853  33.767  1.00  0.00     0.296 HD
ENDBRANCH  42  44
ENDBRANCH   3  42
BRANCH   6  46
ATOM     46  O   UNL     1       0.694  23.853  32.396  1.00  0.00    -0.391 OA
ATOM     47  H   UNL     1       0.822  23.576  31.458  1.00  0.00     0.211 HD
ENDBRANCH   6  46
BRANCH   7  48
ATOM     48  N   UNL     1       3.089  24.667  34.358  1.00  0.00    -0.348 N 
ATOM     49  C   UNL     1       3.217  24.091  35.654  1.00  0.00     0.217 C 
ATOM     50  H   UNL     1       3.097  25.703  34.290  1.00  0.00     0.163 HD
ATOM     51  C   UNL     1       3.358  24.882  36.887  1.00  0.00     0.114 C 
ATOM     52  O   UNL     1       3.212  22.817  35.766  1.00  0.00    -0.275 OA
ENDBRANCH   7  48
ENDBRANCH   1   2
BRANCH   1  53
ATOM     53  O   UNL     1       5.483  24.292  32.087  1.00  0.00    -0.388 OA
ATOM     54  H   UNL     1       4.769  24.939  32.237  1.00  0.00     0.211 HD
ENDBRANCH   1  53
BRANCH   1  55
ATOM     55  C   UNL     1       6.452  22.201  32.690  1.00  0.00     0.165 C 
BRANCH  55  56
ATOM     56  O   UNL     1       5.910  20.974  33.204  1.00  0.00    -0.388 OA
ATOM     57  H   UNL     1       6.660  20.370  33.439  1.00  0.00     0.211 HD
ENDBRANCH  55  56
BRANCH  55  58
ATOM     58  C   UNL     1       7.713  22.391  33.524  1.00  0.00     0.154 C 
BRANCH  58  59
ATOM     59  N   UNL     1       7.944  23.809  33.617  1.00  0.00    -0.319 N 
ATOM     60  C   UNL     1       9.092  24.378  34.228  1.00  0.00     0.407 C 
ATOM     61  H   UNL     1       7.235  24.504  33.214  1.00  0.00     0.167 HD
ATOM     62  O   UNL     1       9.978  23.659  34.704  1.00  0.00    -0.225 OA
BRANCH  60  63
ATOM     63  O   UNL     1       9.257  25.755  34.315  1.00  0.00    -0.443 OA
BRANCH  63  64
ATOM     64  C   UNL     1       8.411  26.648  34.985  1.00  0.00     0.294 C 
BRANCH  64  65
ATOM     65  C   UNL     1       7.109  26.881  34.338  1.00  0.00     0.121 A 
ATOM     66  C   UNL     1       6.831  27.843  33.363  1.00  0.00     0.144 A 
ATOM     67  N   UNL     1       5.950  26.251  34.522  1.00  0.00    -0.131 NA
ATOM     68  N   UNL     1       5.527  27.763  32.993  1.00  0.00    -0.220 N 
ATOM     69  N   UNL     1       5.017  26.784  33.717  1.00  0.00    -0.062 NA
BRANCH  68  70
ATOM     70  C   UNL     1       4.893  28.597  32.007  1.00  0.00     0.066 A 
ATOM     71  C   UNL     1       5.587  29.184  30.988  1.00  0.00     0.030 A 
ATOM     72  C   UNL     1       3.531  28.813  32.113  1.00  0.00     0.030 A 
ATOM     73  C   UNL     1       4.928  29.995  30.065  1.00  0.00     0.024 A 
ATOM     74  C   UNL     1       2.836  29.603  31.228  1.00  0.00     0.024 A 
ATOM     75  C   UNL     1       3.573  30.185  30.205  1.00  0.00     0.088 A 
BRANCH  75  76
ATOM     76  S   UNL     1       2.719  31.200  29.070  1.00  0.00     0.263 S 
ATOM     77  O   UNL     1       3.596  32.402  28.778  1.00  0.00    -0.201 OA
ATOM     78  O   UNL     1       1.487  31.699  29.771  1.00  0.00    -0.201 OA
BRANCH  76  79
ATOM     79  N   UNL     1       2.344  30.317  27.663  1.00  0.00    -0.255 N 
ATOM     80  H   UNL     1       3.097  30.150  26.973  1.00  0.00     0.182 HD
BRANCH  79  81
ATOM     81  C   UNL     1       1.058  29.844  27.467  1.00  0.00     0.196 A 
ATOM     82  N   UNL     1       0.039  30.061  26.730  1.00  0.00    -0.228 NA
ATOM     83  S   UNL     1       0.387  28.453  28.498  1.00  0.00    -0.105 S 
ATOM     84  C   UNL     1      -1.078  29.434  26.777  1.00  0.00     0.125 A 
ATOM     85  C   UNL     1      -1.249  28.425  27.687  1.00  0.00     0.089 A 
ENDBRANCH  79  81
ENDBRANCH  76  79
ENDBRANCH  75  76
ENDBRANCH  68  70
ENDBRANCH  64  65
ENDBRANCH  63  64
ENDBRANCH  60  63
ENDBRANCH  58  59
ENDBRANCH  55  58
ENDBRANCH   1  55
TORSDOF 33
