REMARK VINA RESULT:    -5.850     14.589     19.791
REMARK INTER + INTRA:         -20.596
REMARK INTER:                 -11.801
REMARK INTRA:                  -8.795
REMARK UNBOUND:                -5.342
REMARK SMILES CC(=O)N[C@@H]1[C@@H](O)C[C@](OC[C@H]2O[C@@H](O[C@H]3[C@H](O)[C@@H](O)[C@H](OCCN=[N+]=[N-])O[C@@H]3CO)[C@H](O)[C@@H](O)[C@H]2O)(C(=O)O)O[C@H]1C(O)[C@H](O)CNC(=O)OCc1cn(CCC(=O)O)nn1
REMARK SMILES IDX 43 1 42 2 9 3 8 4 41 5 6 6 5 7 10 8 11 9 12 10 14 11 13 12
REMARK SMILES IDX 32 13 34 14 36 15 15 16 16 17 29 18 28 19 21 20 17 21 19 22
REMARK SMILES IDX 30 23 31 24 22 26 23 27 24 28 25 29 26 30 27 31 18 32 20 34
REMARK SMILES IDX 33 36 35 38 37 40 38 42 39 43 40 44 7 46 4 48 2 49 1 51 3 52
REMARK SMILES IDX 44 53 45 55 46 56 47 58 48 59 49 60 50 62 51 63 52 64 53 65
REMARK SMILES IDX 54 66 62 67 55 68 61 69 56 70 57 71 58 72 59 73 60 74
REMARK H PARENT 31 25 18 33 20 35 33 37 35 39 37 41 40 45 7 47 4 50 44 54
REMARK H PARENT 46 57 48 61 60 75
REMARK Flexibility Score: inf
ROOT
ATOM      1  C   UNL     1      16.710  29.032  19.187  1.00  0.00     0.176 C 
ENDROOT
BRANCH   1   2
ATOM      2  C   UNL     1      18.044  29.008  18.478  1.00  0.00     0.178 C 
ATOM      3  C   UNL     1      20.346  29.167  18.902  1.00  0.00     0.272 C 
ATOM      4  C   UNL     1      20.259  28.780  17.437  1.00  0.00     0.113 C 
ATOM      5  O   UNL     1      19.022  29.692  19.151  1.00  0.00    -0.332 OA
ATOM      6  C   UNL     1      19.404  29.790  16.644  1.00  0.00     0.145 C 
ATOM      7  C   UNL     1      17.957  29.637  17.094  1.00  0.00     0.142 C 
BRANCH   3   8
ATOM      8  O   UNL     1      21.246  30.150  19.086  1.00  0.00    -0.338 OA
BRANCH   8   9
ATOM      9  C   UNL     1      21.282  31.080  19.999  1.00  0.00     0.199 C 
BRANCH   9  10
ATOM     10  C   UNL     1      21.947  31.022  21.305  1.00  0.00     0.179 C 
ATOM     11  C   UNL     1      22.219  30.040  23.364  1.00  0.00     0.282 C 
ATOM     12  O   UNL     1      21.473  30.126  22.224  1.00  0.00    -0.341 OA
ATOM     13  C   UNL     1      23.407  30.956  23.444  1.00  0.00     0.202 C 
ATOM     14  C   UNL     1      24.222  30.944  22.165  1.00  0.00     0.179 C 
ATOM     15  C   UNL     1      23.390  30.481  20.991  1.00  0.00     0.177 C 
BRANCH  11  16
ATOM     16  O   UNL     1      22.694  28.755  23.624  1.00  0.00    -0.341 OA
BRANCH  16  17
ATOM     17  C   UNL     1      22.116  28.167  24.747  1.00  0.00     0.184 C 
ATOM     18  C   UNL     1      23.158  27.382  25.464  1.00  0.00     0.178 C 
ATOM     19  O   UNL     1      22.936  25.994  25.448  1.00  0.00    -0.341 OA
ATOM     20  C   UNL     1      22.754  25.675  24.087  1.00  0.00     0.281 C 
ATOM     21  C   UNL     1      20.943  27.358  24.275  1.00  0.00     0.180 C 
ATOM     22  C   UNL     1      21.306  25.990  23.788  1.00  0.00     0.202 C 
BRANCH  18  23
ATOM     23  C   UNL     1      23.279  27.818  26.916  1.00  0.00     0.191 C 
BRANCH  23  24
ATOM     24  O   UNL     1      22.129  28.493  27.315  1.00  0.00    -0.394 OA
ATOM     25  H   UNL     1      21.650  28.796  26.507  1.00  0.00     0.210 HD
ENDBRANCH  23  24
ENDBRANCH  18  23
BRANCH  20  26
ATOM     26  O   UNL     1      23.070  24.364  23.820  1.00  0.00    -0.350 OA
BRANCH  26  27
ATOM     27  C   UNL     1      24.333  24.306  23.238  1.00  0.00     0.169 C 
BRANCH  27  28
ATOM     28  C   UNL     1      24.189  23.943  21.765  1.00  0.00     0.119 C 
BRANCH  28  29
ATOM     29  N   UNL     1      24.960  24.921  21.026  1.00  0.00    -0.092 NA
ATOM     30  N   UNL     1      25.057  26.059  21.483  1.00  0.00     0.001 N 
ATOM     31  N   UNL     1      25.392  27.231  21.757  1.00  0.00    -0.003 NA
ENDBRANCH  28  29
ENDBRANCH  27  28
ENDBRANCH  26  27
ENDBRANCH  20  26
BRANCH  21  32
ATOM     32  O   UNL     1      20.071  27.228  25.351  1.00  0.00    -0.387 OA
ATOM     33  H   UNL     1      19.743  26.307  25.372  1.00  0.00     0.211 HD
ENDBRANCH  21  32
BRANCH  22  34
ATOM     34  O   UNL     1      21.034  25.856  22.425  1.00  0.00    -0.385 OA
ATOM     35  H   UNL     1      20.784  24.915  22.215  1.00  0.00     0.211 HD
ENDBRANCH  22  34
ENDBRANCH  16  17
ENDBRANCH  11  16
BRANCH  13  36
ATOM     36  O   UNL     1      23.075  32.260  23.838  1.00  0.00    -0.385 OA
ATOM     37  H   UNL     1      23.718  32.579  24.491  1.00  0.00     0.211 HD
ENDBRANCH  13  36
BRANCH  14  38
ATOM     38  O   UNL     1      25.375  30.211  22.334  1.00  0.00    -0.387 OA
ATOM     39  H   UNL     1      25.255  29.288  22.032  1.00  0.00     0.211 HD
ENDBRANCH  14  38
BRANCH  15  40
ATOM     40  O   UNL     1      23.262  29.114  20.935  1.00  0.00    -0.387 OA
ATOM     41  H   UNL     1      22.462  28.751  21.383  1.00  0.00     0.211 HD
ENDBRANCH  15  40
ENDBRANCH   9  10
ENDBRANCH   8   9
ENDBRANCH   3   8
BRANCH   3  42
ATOM     42  C   UNL     1      20.494  28.027  19.812  1.00  0.00     0.364 C 
ATOM     43  O   UNL     1      21.272  27.086  19.521  1.00  0.00    -0.246 OA
BRANCH  42  44
ATOM     44  O   UNL     1      19.799  27.957  20.992  1.00  0.00    -0.477 OA
ATOM     45  H   UNL     1      20.116  28.291  21.880  1.00  0.00     0.296 HD
ENDBRANCH  42  44
ENDBRANCH   3  42
BRANCH   6  46
ATOM     46  O   UNL     1      19.838  31.050  16.995  1.00  0.00    -0.391 OA
ATOM     47  H   UNL     1      20.818  31.105  16.796  1.00  0.00     0.211 HD
ENDBRANCH   6  46
BRANCH   7  48
ATOM     48  N   UNL     1      17.225  28.828  16.175  1.00  0.00    -0.348 N 
ATOM     49  C   UNL     1      16.125  29.388  15.473  1.00  0.00     0.217 C 
ATOM     50  H   UNL     1      17.459  27.829  15.990  1.00  0.00     0.163 HD
ATOM     51  C   UNL     1      15.309  28.619  14.502  1.00  0.00     0.114 C 
ATOM     52  O   UNL     1      15.789  30.596  15.651  1.00  0.00    -0.275 OA
ENDBRANCH   7  48
ENDBRANCH   1   2
BRANCH   1  53
ATOM     53  O   UNL     1      16.890  28.499  20.464  1.00  0.00    -0.388 OA
ATOM     54  H   UNL     1      16.041  28.205  20.852  1.00  0.00     0.211 HD
ENDBRANCH   1  53
BRANCH   1  55
ATOM     55  C   UNL     1      16.096  30.389  19.317  1.00  0.00     0.165 C 
BRANCH  55  56
ATOM     56  O   UNL     1      16.590  30.994  20.477  1.00  0.00    -0.388 OA
ATOM     57  H   UNL     1      17.026  30.302  21.030  1.00  0.00     0.211 HD
ENDBRANCH  55  56
BRANCH  55  58
ATOM     58  C   UNL     1      14.593  30.172  19.527  1.00  0.00     0.154 C 
BRANCH  58  59
ATOM     59  N   UNL     1      14.208  30.521  20.867  1.00  0.00    -0.319 N 
ATOM     60  C   UNL     1      13.676  29.608  21.817  1.00  0.00     0.407 C 
ATOM     61  H   UNL     1      14.314  31.522  21.214  1.00  0.00     0.167 HD
ATOM     62  O   UNL     1      13.533  28.411  21.459  1.00  0.00    -0.225 OA
BRANCH  60  63
ATOM     63  O   UNL     1      13.319  29.991  23.097  1.00  0.00    -0.443 OA
BRANCH  63  64
ATOM     64  C   UNL     1      14.123  29.599  24.182  1.00  0.00     0.294 C 
BRANCH  64  65
ATOM     65  C   UNL     1      15.537  29.940  23.940  1.00  0.00     0.120 A 
ATOM     66  C   UNL     1      16.195  30.960  24.613  1.00  0.00     0.138 A 
ATOM     67  N   UNL     1      16.415  29.358  23.088  1.00  0.00    -0.132 NA
ATOM     68  N   UNL     1      17.463  30.953  24.136  1.00  0.00    -0.252 N 
ATOM     69  N   UNL     1      17.561  29.990  23.231  1.00  0.00    -0.067 NA
BRANCH  68  70
ATOM     70  C   UNL     1      18.536  31.835  24.543  1.00  0.00     0.158 C 
BRANCH  70  71
ATOM     71  C   UNL     1      18.527  32.141  26.024  1.00  0.00     0.146 C 
BRANCH  71  72
ATOM     72  C   UNL     1      19.152  31.014  26.729  1.00  0.00     0.305 C 
ATOM     73  O   UNL     1      19.973  30.287  26.130  1.00  0.00    -0.252 OA
BRANCH  72  74
ATOM     74  O   UNL     1      18.854  30.723  28.060  1.00  0.00    -0.481 OA
ATOM     75  H   UNL     1      18.051  31.104  28.548  1.00  0.00     0.296 HD
ENDBRANCH  72  74
ENDBRANCH  71  72
ENDBRANCH  70  71
ENDBRANCH  68  70
ENDBRANCH  64  65
ENDBRANCH  63  64
ENDBRANCH  60  63
ENDBRANCH  58  59
ENDBRANCH  55  58
ENDBRANCH   1  55
TORSDOF 33
