REMARK VINA RESULT:    -6.344      0.000      0.000
REMARK INTER + INTRA:         -23.939
REMARK INTER:                 -17.061
REMARK INTRA:                  -6.878
REMARK UNBOUND:                -6.283
REMARK SMILES CC(=O)N[C@@H]1[C@@H](O)C[C@](OC[C@H]2O[C@@H](O[C@H]3[C@H](O)[C@@H](O)[C@H](OCCN=[N+]=[N-])O[C@@H]3CO)[C@H](O)[C@@H](O)[C@H]2O)(C(=O)O)O[C@H]1C(O)[C@H](O)CNC(=O)OCc1cn(C[C@H](CC(=O)O)CC(C)C)nn1
REMARK SMILES IDX 43 1 42 2 9 3 8 4 41 5 6 6 5 7 10 8 11 9 12 10 14 11 13 12
REMARK SMILES IDX 32 13 34 14 36 15 15 16 16 17 29 18 28 19 21 20 17 21 19 22
REMARK SMILES IDX 30 23 31 24 22 26 23 27 24 28 25 29 26 30 27 31 18 32 20 34
REMARK SMILES IDX 33 36 35 38 37 40 38 42 39 43 40 44 7 46 4 48 2 49 1 51 3 52
REMARK SMILES IDX 44 53 45 55 46 56 47 58 48 59 49 60 50 62 51 63 52 64 53 65
REMARK SMILES IDX 54 66 67 67 55 68 66 69 56 70 57 71 58 72 59 73 60 74 61 75
REMARK SMILES IDX 62 77 63 78 64 79 65 80
REMARK H PARENT 31 25 18 33 20 35 33 37 35 39 37 41 40 45 7 47 4 50 44 54
REMARK H PARENT 46 57 48 61 61 76
REMARK Flexibility Score: inf
ROOT
ATOM      1  C   UNL     1       3.462  20.966  32.009  1.00  0.00     0.176 C 
ENDROOT
BRANCH   1   2
ATOM      2  C   UNL     1       2.312  20.814  32.965  1.00  0.00     0.178 C 
ATOM      3  C   UNL     1       1.038  22.759  33.601  1.00  0.00     0.272 C 
ATOM      4  C   UNL     1       1.801  22.871  34.871  1.00  0.00     0.113 C 
ATOM      5  O   UNL     1       1.498  21.877  32.737  1.00  0.00    -0.332 OA
ATOM      6  C   UNL     1       3.010  22.039  35.020  1.00  0.00     0.145 C 
ATOM      7  C   UNL     1       2.874  20.677  34.337  1.00  0.00     0.142 C 
BRANCH   3   8
ATOM      8  O   UNL     1       0.990  24.032  32.969  1.00  0.00    -0.338 OA
BRANCH   8   9
ATOM      9  C   UNL     1       1.798  24.160  31.883  1.00  0.00     0.199 C 
BRANCH   9  10
ATOM     10  C   UNL     1       2.647  25.446  32.000  1.00  0.00     0.179 C 
ATOM     11  C   UNL     1       4.426  26.353  33.183  1.00  0.00     0.282 C 
ATOM     12  O   UNL     1       3.805  25.206  32.712  1.00  0.00    -0.341 OA
ATOM     13  C   UNL     1       4.198  27.441  32.121  1.00  0.00     0.202 C 
ATOM     14  C   UNL     1       4.210  26.828  30.736  1.00  0.00     0.179 C 
ATOM     15  C   UNL     1       3.071  25.877  30.589  1.00  0.00     0.177 C 
BRANCH  11  16
ATOM     16  O   UNL     1       5.783  26.146  33.195  1.00  0.00    -0.341 OA
BRANCH  16  17
ATOM     17  C   UNL     1       6.251  25.205  34.073  1.00  0.00     0.184 C 
ATOM     18  C   UNL     1       7.206  25.730  35.105  1.00  0.00     0.178 C 
ATOM     19  O   UNL     1       8.476  25.239  35.031  1.00  0.00    -0.341 OA
ATOM     20  C   UNL     1       8.586  23.863  35.076  1.00  0.00     0.281 C 
ATOM     21  C   UNL     1       6.985  24.158  33.262  1.00  0.00     0.180 C 
ATOM     22  C   UNL     1       7.583  23.142  34.245  1.00  0.00     0.202 C 
BRANCH  18  23
ATOM     23  C   UNL     1       6.567  25.534  36.468  1.00  0.00     0.191 C 
BRANCH  23  24
ATOM     24  O   UNL     1       5.517  24.622  36.409  1.00  0.00    -0.394 OA
ATOM     25  H   UNL     1       5.050  24.640  35.529  1.00  0.00     0.210 HD
ENDBRANCH  23  24
ENDBRANCH  18  23
BRANCH  20  26
ATOM     26  O   UNL     1       8.606  23.485  36.411  1.00  0.00    -0.350 OA
BRANCH  26  27
ATOM     27  C   UNL     1       9.836  22.998  36.822  1.00  0.00     0.169 C 
BRANCH  27  28
ATOM     28  C   UNL     1      10.432  24.039  37.760  1.00  0.00     0.119 C 
BRANCH  28  29
ATOM     29  N   UNL     1      11.876  23.923  37.615  1.00  0.00    -0.092 NA
ATOM     30  N   UNL     1      12.401  24.409  36.641  1.00  0.00     0.001 N 
ATOM     31  N   UNL     1      13.163  24.668  35.700  1.00  0.00    -0.003 NA
ENDBRANCH  28  29
ENDBRANCH  27  28
ENDBRANCH  26  27
ENDBRANCH  20  26
BRANCH  21  32
ATOM     32  O   UNL     1       6.123  23.555  32.365  1.00  0.00    -0.387 OA
ATOM     33  H   UNL     1       5.224  23.500  32.819  1.00  0.00     0.211 HD
ENDBRANCH  21  32
BRANCH  22  34
ATOM     34  O   UNL     1       8.164  22.151  33.427  1.00  0.00    -0.385 OA
ATOM     35  H   UNL     1       8.580  22.611  32.667  1.00  0.00     0.211 HD
ENDBRANCH  22  34
ENDBRANCH  16  17
ENDBRANCH  11  16
BRANCH  13  36
ATOM     36  O   UNL     1       3.097  28.218  32.380  1.00  0.00    -0.385 OA
ATOM     37  H   UNL     1       3.293  29.091  32.762  1.00  0.00     0.211 HD
ENDBRANCH  13  36
BRANCH  14  38
ATOM     38  O   UNL     1       5.419  26.107  30.654  1.00  0.00    -0.387 OA
ATOM     39  H   UNL     1       6.192  26.657  30.855  1.00  0.00     0.211 HD
ENDBRANCH  14  38
BRANCH  15  40
ATOM     40  O   UNL     1       3.546  24.756  29.878  1.00  0.00    -0.387 OA
ATOM     41  H   UNL     1       2.814  24.264  29.472  1.00  0.00     0.211 HD
ENDBRANCH  15  40
ENDBRANCH   9  10
ENDBRANCH   8   9
ENDBRANCH   3   8
BRANCH   3  42
ATOM     42  C   UNL     1      -0.425  22.501  33.912  1.00  0.00     0.364 C 
ATOM     43  O   UNL     1      -1.300  23.265  33.487  1.00  0.00    -0.246 OA
BRANCH  42  44
ATOM     44  O   UNL     1      -0.792  21.424  34.666  1.00  0.00    -0.477 OA
ATOM     45  H   UNL     1      -1.176  20.568  34.267  1.00  0.00     0.296 HD
ENDBRANCH  42  44
ENDBRANCH   3  42
BRANCH   6  46
ATOM     46  O   UNL     1       4.211  22.613  34.663  1.00  0.00    -0.391 OA
ATOM     47  H   UNL     1       4.720  22.755  35.499  1.00  0.00     0.211 HD
ENDBRANCH   6  46
BRANCH   7  48
ATOM     48  N   UNL     1       2.121  19.863  35.253  1.00  0.00    -0.348 N 
ATOM     49  C   UNL     1       2.841  18.904  36.060  1.00  0.00     0.217 C 
ATOM     50  H   UNL     1       1.088  19.891  35.393  1.00  0.00     0.163 HD
ATOM     51  C   UNL     1       2.051  18.058  37.022  1.00  0.00     0.114 C 
ATOM     52  O   UNL     1       4.085  18.759  35.982  1.00  0.00    -0.275 OA
ENDBRANCH   7  48
ENDBRANCH   1   2
BRANCH   1  53
ATOM     53  O   UNL     1       3.559  22.341  31.642  1.00  0.00    -0.388 OA
ATOM     54  H   UNL     1       4.416  22.707  31.983  1.00  0.00     0.211 HD
ENDBRANCH   1  53
BRANCH   1  55
ATOM     55  C   UNL     1       3.351  20.254  30.680  1.00  0.00     0.165 C 
BRANCH  55  56
ATOM     56  O   UNL     1       4.692  20.478  30.140  1.00  0.00    -0.388 OA
ATOM     57  H   UNL     1       5.258  19.973  30.808  1.00  0.00     0.211 HD
ENDBRANCH  55  56
BRANCH  55  58
ATOM     58  C   UNL     1       2.488  20.976  29.704  1.00  0.00     0.154 C 
BRANCH  58  59
ATOM     59  N   UNL     1       3.221  21.875  28.887  1.00  0.00    -0.319 N 
ATOM     60  C   UNL     1       2.480  22.532  27.835  1.00  0.00     0.407 C 
ATOM     61  H   UNL     1       4.226  22.122  28.940  1.00  0.00     0.167 HD
ATOM     62  O   UNL     1       1.248  22.290  27.694  1.00  0.00    -0.225 OA
BRANCH  60  63
ATOM     63  O   UNL     1       3.046  23.423  26.950  1.00  0.00    -0.443 OA
BRANCH  63  64
ATOM     64  C   UNL     1       2.439  24.605  26.471  1.00  0.00     0.294 C 
BRANCH  64  65
ATOM     65  C   UNL     1       3.425  25.669  26.128  1.00  0.00     0.120 A 
ATOM     66  C   UNL     1       4.470  26.149  26.883  1.00  0.00     0.138 A 
ATOM     67  N   UNL     1       3.439  26.345  24.975  1.00  0.00    -0.132 NA
ATOM     68  N   UNL     1       5.106  27.122  26.161  1.00  0.00    -0.252 N 
ATOM     69  N   UNL     1       4.447  27.198  25.028  1.00  0.00    -0.067 NA
BRANCH  68  70
ATOM     70  C   UNL     1       6.219  27.901  26.564  1.00  0.00     0.150 C 
BRANCH  70  71
ATOM     71  C   UNL     1       6.877  28.676  25.503  1.00  0.00     0.022 C 
BRANCH  71  72
ATOM     72  C   UNL     1       8.173  28.165  24.993  1.00  0.00     0.128 C 
BRANCH  72  73
ATOM     73  C   UNL     1       8.407  26.719  25.091  1.00  0.00     0.303 C 
ATOM     74  O   UNL     1       9.147  26.276  26.008  1.00  0.00    -0.252 OA
BRANCH  73  75
ATOM     75  O   UNL     1       7.853  25.789  24.221  1.00  0.00    -0.481 OA
ATOM     76  H   UNL     1       6.971  25.350  24.439  1.00  0.00     0.296 HD
ENDBRANCH  73  75
ENDBRANCH  72  73
ENDBRANCH  71  72
BRANCH  71  77
ATOM     77  C   UNL     1       6.875  30.163  25.714  1.00  0.00     0.009 C 
BRANCH  77  78
ATOM     78  C   UNL     1       5.859  30.769  26.573  1.00  0.00    -0.017 C 
ATOM     79  C   UNL     1       6.291  31.602  27.726  1.00  0.00     0.007 C 
ATOM     80  C   UNL     1       4.776  31.526  25.827  1.00  0.00     0.007 C 
ENDBRANCH  77  78
ENDBRANCH  71  77
ENDBRANCH  70  71
ENDBRANCH  68  70
ENDBRANCH  64  65
ENDBRANCH  63  64
ENDBRANCH  60  63
ENDBRANCH  58  59
ENDBRANCH  55  58
ENDBRANCH   1  55
TORSDOF 36
