REMARK VINA RESULT:    -6.628     15.099     21.485
REMARK INTER + INTRA:         -22.428
REMARK INTER:                 -15.921
REMARK INTRA:                  -6.507
REMARK UNBOUND:                -5.144
REMARK SMILES CC(=O)N[C@@H]1[C@@H](O)C[C@](OC[C@H]2O[C@@H](O[C@H]3[C@H](O)[C@@H](O)[C@H](OCCN=[N+]=[N-])O[C@@H]3CO)[C@H](O)[C@@H](O)[C@H]2O)(C(=O)O)O[C@H]1C(O)[C@H](O)CNC(=O)OCc1cn(-c2cccc(C=CC(=O)O)c2)nn1
REMARK SMILES IDX 43 1 42 2 9 3 8 4 41 5 6 6 5 7 10 8 11 9 12 10 14 11 13 12
REMARK SMILES IDX 32 13 34 14 36 15 15 16 16 17 29 18 28 19 21 20 17 21 19 22
REMARK SMILES IDX 30 23 31 24 22 26 23 27 24 28 25 29 26 30 27 31 18 32 20 34
REMARK SMILES IDX 33 36 35 38 37 40 38 42 39 43 40 44 7 46 4 48 2 49 1 51 3 52
REMARK SMILES IDX 44 53 45 55 46 56 47 58 48 59 49 60 50 62 51 63 52 64 53 65
REMARK SMILES IDX 54 66 68 67 55 68 67 69 56 70 66 71 57 72 60 73 58 74 59 75
REMARK SMILES IDX 61 76 62 77 63 78 64 79 65 80
REMARK H PARENT 31 25 18 33 20 35 33 37 35 39 37 41 40 45 7 47 4 50 44 54
REMARK H PARENT 46 57 48 61 65 81
REMARK Flexibility Score: inf
ROOT
ATOM      1  C   UNL     1       5.255  22.363  32.661  1.00  0.00     0.176 C 
ENDROOT
BRANCH   1   2
ATOM      2  C   UNL     1       4.743  23.634  33.309  1.00  0.00     0.178 C 
ATOM      3  C   UNL     1       5.280  25.929  33.300  1.00  0.00     0.272 C 
ATOM      4  C   UNL     1       4.049  25.803  34.321  1.00  0.00     0.113 C 
ATOM      5  O   UNL     1       5.590  24.638  32.929  1.00  0.00    -0.332 OA
ATOM      6  C   UNL     1       4.523  24.882  35.389  1.00  0.00     0.145 C 
ATOM      7  C   UNL     1       4.742  23.500  34.806  1.00  0.00     0.142 C 
BRANCH   3   8
ATOM      8  O   UNL     1       6.249  26.414  34.085  1.00  0.00    -0.338 OA
BRANCH   8   9
ATOM      9  C   UNL     1       6.825  27.599  33.991  1.00  0.00     0.199 C 
BRANCH   9  10
ATOM     10  C   UNL     1       8.112  27.862  34.744  1.00  0.00     0.179 C 
ATOM     11  C   UNL     1       9.025  26.694  36.588  1.00  0.00     0.282 C 
ATOM     12  O   UNL     1       7.978  27.363  35.985  1.00  0.00    -0.341 OA
ATOM     13  C   UNL     1      10.312  27.252  36.126  1.00  0.00     0.202 C 
ATOM     14  C   UNL     1      10.519  27.256  34.642  1.00  0.00     0.179 C 
ATOM     15  C   UNL     1       9.181  27.108  33.965  1.00  0.00     0.177 C 
BRANCH  11  16
ATOM     16  O   UNL     1       8.791  25.351  36.389  1.00  0.00    -0.341 OA
BRANCH  16  17
ATOM     17  C   UNL     1       9.127  24.528  37.408  1.00  0.00     0.184 C 
ATOM     18  C   UNL     1       9.857  23.316  36.918  1.00  0.00     0.178 C 
ATOM     19  O   UNL     1      10.467  22.766  38.071  1.00  0.00    -0.341 OA
ATOM     20  C   UNL     1       9.493  22.166  38.874  1.00  0.00     0.281 C 
ATOM     21  C   UNL     1       7.905  23.978  38.150  1.00  0.00     0.180 C 
ATOM     22  C   UNL     1       8.407  23.107  39.282  1.00  0.00     0.202 C 
BRANCH  18  23
ATOM     23  C   UNL     1      10.899  23.576  35.891  1.00  0.00     0.191 C 
BRANCH  23  24
ATOM     24  O   UNL     1      10.303  23.610  34.632  1.00  0.00    -0.394 OA
ATOM     25  H   UNL     1      10.044  24.554  34.397  1.00  0.00     0.210 HD
ENDBRANCH  23  24
ENDBRANCH  18  23
BRANCH  20  26
ATOM     26  O   UNL     1      10.132  21.695  40.017  1.00  0.00    -0.350 OA
BRANCH  26  27
ATOM     27  C   UNL     1      10.667  22.730  40.779  1.00  0.00     0.169 C 
BRANCH  27  28
ATOM     28  C   UNL     1      11.609  22.123  41.794  1.00  0.00     0.119 C 
BRANCH  28  29
ATOM     29  N   UNL     1      12.972  22.391  41.403  1.00  0.00    -0.092 NA
ATOM     30  N   UNL     1      13.919  21.886  42.033  1.00  0.00     0.001 N 
ATOM     31  N   UNL     1      14.840  21.742  42.852  1.00  0.00    -0.003 NA
ENDBRANCH  28  29
ENDBRANCH  27  28
ENDBRANCH  26  27
ENDBRANCH  20  26
BRANCH  21  32
ATOM     32  O   UNL     1       7.138  24.984  38.724  1.00  0.00    -0.387 OA
ATOM     33  H   UNL     1       7.285  24.904  39.700  1.00  0.00     0.211 HD
ENDBRANCH  21  32
BRANCH  22  34
ATOM     34  O   UNL     1       7.303  22.316  39.676  1.00  0.00    -0.385 OA
ATOM     35  H   UNL     1       6.636  22.836  40.176  1.00  0.00     0.211 HD
ENDBRANCH  22  34
ENDBRANCH  16  17
ENDBRANCH  11  16
BRANCH  13  36
ATOM     36  O   UNL     1      10.413  28.607  36.558  1.00  0.00    -0.385 OA
ATOM     37  H   UNL     1      10.738  29.168  35.799  1.00  0.00     0.211 HD
ENDBRANCH  13  36
BRANCH  14  38
ATOM     38  O   UNL     1      11.432  26.297  34.196  1.00  0.00    -0.387 OA
ATOM     39  H   UNL     1      11.961  25.916  34.941  1.00  0.00     0.211 HD
ENDBRANCH  14  38
BRANCH  15  40
ATOM     40  O   UNL     1       8.867  25.767  33.869  1.00  0.00    -0.387 OA
ATOM     41  H   UNL     1       8.941  25.295  34.756  1.00  0.00     0.211 HD
ENDBRANCH  15  40
ENDBRANCH   9  10
ENDBRANCH   8   9
ENDBRANCH   3   8
BRANCH   3  42
ATOM     42  C   UNL     1       4.759  26.689  32.176  1.00  0.00     0.364 C 
ATOM     43  O   UNL     1       3.829  27.515  32.155  1.00  0.00    -0.246 OA
BRANCH  42  44
ATOM     44  O   UNL     1       5.373  26.483  30.916  1.00  0.00    -0.477 OA
ATOM     45  H   UNL     1       5.600  25.512  30.653  1.00  0.00     0.296 HD
ENDBRANCH  42  44
ENDBRANCH   3  42
BRANCH   6  46
ATOM     46  O   UNL     1       5.793  25.395  35.814  1.00  0.00    -0.391 OA
ATOM     47  H   UNL     1       6.430  24.638  35.937  1.00  0.00     0.211 HD
ENDBRANCH   6  46
BRANCH   7  48
ATOM     48  N   UNL     1       3.919  22.475  35.340  1.00  0.00    -0.348 N 
ATOM     49  C   UNL     1       2.525  22.439  35.431  1.00  0.00     0.217 C 
ATOM     50  H   UNL     1       4.410  21.606  35.765  1.00  0.00     0.163 HD
ATOM     51  C   UNL     1       1.862  21.231  36.065  1.00  0.00     0.114 C 
ATOM     52  O   UNL     1       1.761  23.352  35.015  1.00  0.00    -0.275 OA
ENDBRANCH   7  48
ENDBRANCH   1   2
BRANCH   1  53
ATOM     53  O   UNL     1       6.159  21.747  33.507  1.00  0.00    -0.388 OA
ATOM     54  H   UNL     1       5.818  20.966  33.978  1.00  0.00     0.211 HD
ENDBRANCH   1  53
BRANCH   1  55
ATOM     55  C   UNL     1       4.133  21.350  32.431  1.00  0.00     0.165 C 
BRANCH  55  56
ATOM     56  O   UNL     1       4.120  20.326  33.336  1.00  0.00    -0.388 OA
ATOM     57  H   UNL     1       3.236  19.920  33.489  1.00  0.00     0.211 HD
ENDBRANCH  55  56
BRANCH  55  58
ATOM     58  C   UNL     1       4.135  20.852  31.021  1.00  0.00     0.154 C 
BRANCH  58  59
ATOM     59  N   UNL     1       3.574  21.792  30.119  1.00  0.00    -0.319 N 
ATOM     60  C   UNL     1       2.451  21.502  29.311  1.00  0.00     0.407 C 
ATOM     61  H   UNL     1       3.987  22.759  30.020  1.00  0.00     0.167 HD
ATOM     62  O   UNL     1       1.891  20.372  29.357  1.00  0.00    -0.225 OA
BRANCH  60  63
ATOM     63  O   UNL     1       1.902  22.433  28.432  1.00  0.00    -0.443 OA
BRANCH  63  64
ATOM     64  C   UNL     1       0.847  23.252  28.948  1.00  0.00     0.294 C 
BRANCH  64  65
ATOM     65  C   UNL     1       1.378  24.623  29.057  1.00  0.00     0.121 A 
ATOM     66  C   UNL     1       2.473  25.170  28.391  1.00  0.00     0.144 A 
ATOM     67  N   UNL     1       0.884  25.606  29.826  1.00  0.00    -0.131 NA
ATOM     68  N   UNL     1       2.595  26.459  28.782  1.00  0.00    -0.220 N 
ATOM     69  N   UNL     1       1.626  26.690  29.645  1.00  0.00    -0.062 NA
BRANCH  68  70
ATOM     70  C   UNL     1       3.599  27.335  28.297  1.00  0.00     0.067 A 
ATOM     71  C   UNL     1       4.470  26.903  27.297  1.00  0.00     0.036 A 
ATOM     72  C   UNL     1       3.736  28.592  28.783  1.00  0.00     0.028 A 
ATOM     73  C   UNL     1       5.448  27.706  26.798  1.00  0.00    -0.023 A 
ATOM     74  C   UNL     1       4.722  29.450  28.303  1.00  0.00     0.003 A 
ATOM     75  C   UNL     1       5.559  28.982  27.316  1.00  0.00     0.008 A 
BRANCH  73  76
ATOM     76  C   UNL     1       6.355  27.259  25.763  1.00  0.00     0.015 C 
ATOM     77  C   UNL     1       7.646  27.197  25.972  1.00  0.00     0.094 C 
BRANCH  77  78
ATOM     78  C   UNL     1       8.526  26.739  24.895  1.00  0.00     0.328 C 
ATOM     79  O   UNL     1       9.751  26.900  24.950  1.00  0.00    -0.247 OA
BRANCH  78  80
ATOM     80  O   UNL     1       7.994  26.105  23.775  1.00  0.00    -0.478 OA
ATOM     81  H   UNL     1       7.677  25.140  23.891  1.00  0.00     0.297 HD
ENDBRANCH  78  80
ENDBRANCH  77  78
ENDBRANCH  73  76
ENDBRANCH  68  70
ENDBRANCH  64  65
ENDBRANCH  63  64
ENDBRANCH  60  63
ENDBRANCH  58  59
ENDBRANCH  55  58
ENDBRANCH   1  55
TORSDOF 33
