REMARK VINA RESULT:    -5.183      4.732     12.592
REMARK INTER + INTRA:         -20.057
REMARK INTER:                 -12.027
REMARK INTRA:                  -8.030
REMARK UNBOUND:                -6.390
REMARK SMILES CCOC(=O)Cn1cc(COC(=O)NC[C@@H](O)C(O)[C@@H]2O[C@@](OC[C@H]3O[C@@H](O[C@H]4[C@H](O)[C@@H](O)[C@H](OCCN=[N+]=[N-])O[C@@H]4CO)[C@H](O)[C@@H](O)[C@H]3O)(C(=O)O)C[C@H](O)[C@H]2NC(C)=O)nn1
REMARK SMILES IDX 18 1 20 2 22 3 54 4 21 5 55 6 57 7 23 8 24 9 25 10 27 11
REMARK SMILES IDX 26 12 45 13 47 14 49 15 28 16 29 17 42 18 41 19 34 20 30 21
REMARK SMILES IDX 32 22 43 23 44 24 35 26 36 27 37 28 38 29 39 30 40 31 31 32
REMARK SMILES IDX 33 34 46 36 48 38 50 40 51 42 52 43 53 44 56 46 58 48 59 49
REMARK SMILES IDX 60 51 61 52 19 53 16 55 17 56 15 58 14 59 12 60 13 62 11 63
REMARK SMILES IDX 10 64 9 65 8 66 62 67 7 68 63 69 6 70 4 71 5 72 3 73 2 74
REMARK SMILES IDX 1 75
REMARK H PARENT 44 25 31 33 33 35 46 37 48 39 50 41 53 45 56 47 58 50 19 54
REMARK H PARENT 17 57 14 61
REMARK Flexibility Score: inf
ROOT
ATOM      1  C   UNL     1      14.210  31.073  17.991  1.00  0.00     0.176 C 
ENDROOT
BRANCH   1   2
ATOM      2  C   UNL     1      13.227  30.409  17.067  1.00  0.00     0.178 C 
ATOM      3  C   UNL     1      13.010  29.674  14.858  1.00  0.00     0.272 C 
ATOM      4  C   UNL     1      11.572  29.587  15.240  1.00  0.00     0.113 C 
ATOM      5  O   UNL     1      13.846  29.848  15.981  1.00  0.00    -0.332 OA
ATOM      6  C   UNL     1      11.069  30.769  16.003  1.00  0.00     0.145 C 
ATOM      7  C   UNL     1      12.265  31.489  16.604  1.00  0.00     0.142 C 
BRANCH   3   8
ATOM      8  O   UNL     1      13.319  30.640  13.924  1.00  0.00    -0.338 OA
BRANCH   8   9
ATOM      9  C   UNL     1      12.563  30.722  12.806  1.00  0.00     0.199 C 
BRANCH   9  10
ATOM     10  C   UNL     1      13.503  30.940  11.605  1.00  0.00     0.179 C 
ATOM     11  C   UNL     1      15.734  30.900  10.970  1.00  0.00     0.282 C 
ATOM     12  O   UNL     1      14.807  30.966  11.986  1.00  0.00    -0.341 OA
ATOM     13  C   UNL     1      15.507  29.770  10.012  1.00  0.00     0.202 C 
ATOM     14  C   UNL     1      14.156  29.995   9.380  1.00  0.00     0.179 C 
ATOM     15  C   UNL     1      13.152  30.009  10.483  1.00  0.00     0.177 C 
BRANCH  11  16
ATOM     16  O   UNL     1      17.038  30.825  11.429  1.00  0.00    -0.341 OA
BRANCH  16  17
ATOM     17  C   UNL     1      17.178  30.714  12.788  1.00  0.00     0.184 C 
ATOM     18  C   UNL     1      17.823  31.926  13.427  1.00  0.00     0.178 C 
ATOM     19  O   UNL     1      19.100  31.642  13.890  1.00  0.00    -0.341 OA
ATOM     20  C   UNL     1      19.082  30.711  14.954  1.00  0.00     0.281 C 
ATOM     21  C   UNL     1      18.031  29.489  13.113  1.00  0.00     0.180 C 
ATOM     22  C   UNL     1      18.253  29.512  14.618  1.00  0.00     0.202 C 
BRANCH  18  23
ATOM     23  C   UNL     1      16.911  32.504  14.478  1.00  0.00     0.191 C 
BRANCH  23  24
ATOM     24  O   UNL     1      15.684  31.817  14.510  1.00  0.00    -0.394 OA
ATOM     25  H   UNL     1      15.289  31.751  13.618  1.00  0.00     0.210 HD
ENDBRANCH  23  24
ENDBRANCH  18  23
BRANCH  20  26
ATOM     26  O   UNL     1      18.691  31.315  16.120  1.00  0.00    -0.350 OA
BRANCH  26  27
ATOM     27  C   UNL     1      19.525  31.341  17.185  1.00  0.00     0.169 C 
BRANCH  27  28
ATOM     28  C   UNL     1      20.701  30.440  17.218  1.00  0.00     0.119 C 
BRANCH  28  29
ATOM     29  N   UNL     1      20.633  29.299  18.065  1.00  0.00    -0.092 NA
ATOM     30  N   UNL     1      19.584  28.630  18.168  1.00  0.00     0.001 N 
ATOM     31  N   UNL     1      18.528  28.003  17.971  1.00  0.00    -0.003 NA
ENDBRANCH  28  29
ENDBRANCH  27  28
ENDBRANCH  26  27
ENDBRANCH  20  26
BRANCH  21  32
ATOM     32  O   UNL     1      17.331  28.334  12.755  1.00  0.00    -0.387 OA
ATOM     33  H   UNL     1      17.764  27.572  13.252  1.00  0.00     0.211 HD
ENDBRANCH  21  32
BRANCH  22  34
ATOM     34  O   UNL     1      18.845  28.309  15.015  1.00  0.00    -0.385 OA
ATOM     35  H   UNL     1      18.291  27.514  14.817  1.00  0.00     0.211 HD
ENDBRANCH  22  34
ENDBRANCH  16  17
ENDBRANCH  11  16
BRANCH  13  36
ATOM     36  O   UNL     1      16.503  29.799   9.044  1.00  0.00    -0.385 OA
ATOM     37  H   UNL     1      17.339  30.207   9.316  1.00  0.00     0.211 HD
ENDBRANCH  13  36
BRANCH  14  38
ATOM     38  O   UNL     1      13.894  28.898   8.529  1.00  0.00    -0.387 OA
ATOM     39  H   UNL     1      13.931  28.051   9.040  1.00  0.00     0.211 HD
ENDBRANCH  14  38
BRANCH  15  40
ATOM     40  O   UNL     1      13.012  28.679  10.943  1.00  0.00    -0.387 OA
ATOM     41  H   UNL     1      13.284  28.120  10.164  1.00  0.00     0.211 HD
ENDBRANCH  15  40
ENDBRANCH   9  10
ENDBRANCH   8   9
ENDBRANCH   3   8
BRANCH   3  42
ATOM     42  C   UNL     1      13.412  28.347  14.331  1.00  0.00     0.364 C 
ATOM     43  O   UNL     1      14.614  28.130  14.060  1.00  0.00    -0.246 OA
BRANCH  42  44
ATOM     44  O   UNL     1      12.487  27.360  14.138  1.00  0.00    -0.477 OA
ATOM     45  H   UNL     1      11.515  27.561  13.916  1.00  0.00     0.296 HD
ENDBRANCH  42  44
ENDBRANCH   3  42
BRANCH   6  46
ATOM     46  O   UNL     1      10.255  31.618  15.292  1.00  0.00    -0.391 OA
ATOM     47  H   UNL     1       9.632  31.071  14.736  1.00  0.00     0.211 HD
ENDBRANCH   6  46
BRANCH   7  48
ATOM     48  N   UNL     1      11.851  32.339  17.712  1.00  0.00    -0.348 N 
ATOM     49  C   UNL     1      11.581  33.718  17.543  1.00  0.00     0.217 C 
ATOM     50  H   UNL     1      11.747  31.917  18.650  1.00  0.00     0.163 HD
ATOM     51  C   UNL     1      11.157  34.600  18.671  1.00  0.00     0.114 C 
ATOM     52  O   UNL     1      11.708  34.210  16.389  1.00  0.00    -0.275 OA
ENDBRANCH   7  48
ENDBRANCH   1   2
BRANCH   1  53
ATOM     53  O   UNL     1      13.792  30.973  19.303  1.00  0.00    -0.388 OA
ATOM     54  H   UNL     1      13.920  30.060  19.691  1.00  0.00     0.211 HD
ENDBRANCH   1  53
BRANCH   1  55
ATOM     55  C   UNL     1      15.611  30.499  17.880  1.00  0.00     0.165 C 
BRANCH  55  56
ATOM     56  O   UNL     1      15.639  29.127  17.967  1.00  0.00    -0.388 OA
ATOM     57  H   UNL     1      14.962  28.749  18.575  1.00  0.00     0.211 HD
ENDBRANCH  55  56
BRANCH  55  58
ATOM     58  C   UNL     1      16.467  31.135  18.925  1.00  0.00     0.154 C 
BRANCH  58  59
ATOM     59  N   UNL     1      17.121  30.224  19.795  1.00  0.00    -0.319 N 
ATOM     60  C   UNL     1      18.226  30.533  20.632  1.00  0.00     0.407 C 
ATOM     61  H   UNL     1      16.783  29.200  19.858  1.00  0.00     0.167 HD
ATOM     62  O   UNL     1      18.723  31.671  20.674  1.00  0.00    -0.225 OA
BRANCH  60  63
ATOM     63  O   UNL     1      18.775  29.524  21.443  1.00  0.00    -0.443 OA
BRANCH  63  64
ATOM     64  C   UNL     1      20.105  29.571  21.840  1.00  0.00     0.294 C 
BRANCH  64  65
ATOM     65  C   UNL     1      20.838  28.305  21.650  1.00  0.00     0.120 A 
ATOM     66  C   UNL     1      22.172  28.080  21.930  1.00  0.00     0.139 A 
ATOM     67  N   UNL     1      20.375  27.145  21.168  1.00  0.00    -0.132 NA
ATOM     68  N   UNL     1      22.486  26.801  21.614  1.00  0.00    -0.241 N 
ATOM     69  N   UNL     1      21.374  26.266  21.158  1.00  0.00    -0.066 NA
BRANCH  68  70
ATOM     70  C   UNL     1      23.809  26.209  21.770  1.00  0.00     0.268 C 
BRANCH  70  71
ATOM     71  C   UNL     1      23.626  24.883  22.462  1.00  0.00     0.327 C 
ATOM     72  O   UNL     1      23.575  23.809  21.834  1.00  0.00    -0.250 OA
BRANCH  71  73
ATOM     73  O   UNL     1      23.506  24.808  23.839  1.00  0.00    -0.465 OA
BRANCH  73  74
ATOM     74  C   UNL     1      22.298  24.662  24.527  1.00  0.00     0.229 C 
ATOM     75  C   UNL     1      22.464  24.711  26.026  1.00  0.00     0.049 C 
ENDBRANCH  73  74
ENDBRANCH  71  73
ENDBRANCH  70  71
ENDBRANCH  68  70
ENDBRANCH  64  65
ENDBRANCH  63  64
ENDBRANCH  60  63
ENDBRANCH  58  59
ENDBRANCH  55  58
ENDBRANCH   1  55
TORSDOF 33
