REMARK VINA RESULT:    -6.468      2.141      3.261
REMARK INTER + INTRA:         -22.689
REMARK INTER:                 -15.165
REMARK INTRA:                  -7.525
REMARK UNBOUND:                -5.634
REMARK SMILES CC(=O)N[C@@H]1[C@@H](O)C[C@](OC[C@H]2O[C@@H](O[C@H]3[C@H](O)[C@@H](O)[C@H](OCCN=[N+]=[N-])O[C@@H]3CO)[C@H](O)[C@@H](O)[C@H]2O)(C(=O)O)O[C@H]1C(O)[C@H](O)CNC(=O)OCc1cn(Cc2ccccc2OC(C)=O)nn1
REMARK SMILES IDX 43 1 42 2 9 3 8 4 41 5 6 6 5 7 10 8 11 9 12 10 14 11 13 12
REMARK SMILES IDX 32 13 34 14 36 15 15 16 16 17 29 18 28 19 21 20 17 21 19 22
REMARK SMILES IDX 30 23 31 24 22 26 23 27 24 28 25 29 26 30 27 31 18 32 20 34
REMARK SMILES IDX 33 36 35 38 37 40 38 42 39 43 40 44 7 46 4 48 2 49 1 51 3 52
REMARK SMILES IDX 44 53 45 55 46 56 47 58 48 59 49 60 50 62 51 63 52 64 53 65
REMARK SMILES IDX 54 66 68 67 55 68 67 69 56 70 57 71 62 72 58 73 61 74 59 75
REMARK SMILES IDX 60 76 63 77 64 78 66 79 65 80
REMARK H PARENT 31 25 18 33 20 35 33 37 35 39 37 41 40 45 7 47 4 50 44 54
REMARK H PARENT 46 57 48 61
REMARK Flexibility Score: inf
ROOT
ATOM      1  C   UNL     1      15.861  30.330  23.489  1.00  0.00     0.176 C 
ENDROOT
BRANCH   1   2
ATOM      2  C   UNL     1      15.370  29.613  22.242  1.00  0.00     0.178 C 
ATOM      3  C   UNL     1      15.922  29.297  19.999  1.00  0.00     0.272 C 
ATOM      4  C   UNL     1      14.467  28.841  20.017  1.00  0.00     0.113 C 
ATOM      5  O   UNL     1      16.183  29.998  21.200  1.00  0.00    -0.332 OA
ATOM      6  C   UNL     1      13.665  30.009  20.566  1.00  0.00     0.145 C 
ATOM      7  C   UNL     1      13.937  30.099  22.018  1.00  0.00     0.142 C 
BRANCH   3   8
ATOM      8  O   UNL     1      16.202  30.170  18.990  1.00  0.00    -0.338 OA
BRANCH   8   9
ATOM      9  C   UNL     1      16.184  29.719  17.709  1.00  0.00     0.199 C 
BRANCH   9  10
ATOM     10  C   UNL     1      17.621  29.798  17.165  1.00  0.00     0.179 C 
ATOM     11  C   UNL     1      19.680  28.799  17.372  1.00  0.00     0.282 C 
ATOM     12  O   UNL     1      18.294  28.716  17.741  1.00  0.00    -0.341 OA
ATOM     13  C   UNL     1      19.722  28.387  15.943  1.00  0.00     0.202 C 
ATOM     14  C   UNL     1      18.996  29.493  15.157  1.00  0.00     0.179 C 
ATOM     15  C   UNL     1      17.616  29.726  15.672  1.00  0.00     0.177 C 
BRANCH  11  16
ATOM     16  O   UNL     1      20.315  27.997  18.289  1.00  0.00    -0.341 OA
BRANCH  16  17
ATOM     17  C   UNL     1      21.221  28.735  19.073  1.00  0.00     0.184 C 
ATOM     18  C   UNL     1      22.492  29.062  18.382  1.00  0.00     0.178 C 
ATOM     19  O   UNL     1      23.621  28.827  19.173  1.00  0.00    -0.341 OA
ATOM     20  C   UNL     1      23.522  29.322  20.466  1.00  0.00     0.281 C 
ATOM     21  C   UNL     1      21.658  27.772  20.239  1.00  0.00     0.180 C 
ATOM     22  C   UNL     1      22.371  28.660  21.222  1.00  0.00     0.202 C 
BRANCH  18  23
ATOM     23  C   UNL     1      22.552  30.395  17.704  1.00  0.00     0.191 C 
BRANCH  23  24
ATOM     24  O   UNL     1      21.694  31.274  18.348  1.00  0.00    -0.394 OA
ATOM     25  H   UNL     1      21.525  30.977  19.266  1.00  0.00     0.210 HD
ENDBRANCH  23  24
ENDBRANCH  18  23
BRANCH  20  26
ATOM     26  O   UNL     1      23.306  30.654  20.474  1.00  0.00    -0.350 OA
BRANCH  26  27
ATOM     27  C   UNL     1      24.027  31.477  21.258  1.00  0.00     0.169 C 
BRANCH  27  28
ATOM     28  C   UNL     1      23.748  32.937  21.215  1.00  0.00     0.119 C 
BRANCH  28  29
ATOM     29  N   UNL     1      22.372  33.207  21.462  1.00  0.00    -0.092 NA
ATOM     30  N   UNL     1      21.958  34.305  21.761  1.00  0.00     0.001 N 
ATOM     31  N   UNL     1      21.627  35.494  21.794  1.00  0.00    -0.003 NA
ENDBRANCH  28  29
ENDBRANCH  27  28
ENDBRANCH  26  27
ENDBRANCH  20  26
BRANCH  21  32
ATOM     32  O   UNL     1      20.550  27.142  20.749  1.00  0.00    -0.387 OA
ATOM     33  H   UNL     1      20.502  26.195  20.403  1.00  0.00     0.211 HD
ENDBRANCH  21  32
BRANCH  22  34
ATOM     34  O   UNL     1      22.781  27.982  22.349  1.00  0.00    -0.385 OA
ATOM     35  H   UNL     1      22.422  27.052  22.279  1.00  0.00     0.211 HD
ENDBRANCH  22  34
ENDBRANCH  16  17
ENDBRANCH  11  16
BRANCH  13  36
ATOM     36  O   UNL     1      21.001  28.353  15.409  1.00  0.00    -0.385 OA
ATOM     37  H   UNL     1      21.486  29.202  15.460  1.00  0.00     0.211 HD
ENDBRANCH  13  36
BRANCH  14  38
ATOM     38  O   UNL     1      19.009  29.194  13.793  1.00  0.00    -0.387 OA
ATOM     39  H   UNL     1      19.640  29.846  13.372  1.00  0.00     0.211 HD
ENDBRANCH  14  38
BRANCH  15  40
ATOM     40  O   UNL     1      16.791  28.716  15.183  1.00  0.00    -0.387 OA
ATOM     41  H   UNL     1      17.140  28.281  14.382  1.00  0.00     0.211 HD
ENDBRANCH  15  40
ENDBRANCH   9  10
ENDBRANCH   8   9
ENDBRANCH   3   8
BRANCH   3  42
ATOM     42  C   UNL     1      16.734  28.060  19.985  1.00  0.00     0.364 C 
ATOM     43  O   UNL     1      16.297  26.987  19.576  1.00  0.00    -0.246 OA
BRANCH  42  44
ATOM     44  O   UNL     1      18.048  28.120  20.457  1.00  0.00    -0.477 OA
ATOM     45  H   UNL     1      18.370  27.518  21.229  1.00  0.00     0.296 HD
ENDBRANCH  42  44
ENDBRANCH   3  42
BRANCH   6  46
ATOM     46  O   UNL     1      14.190  31.151  19.952  1.00  0.00    -0.391 OA
ATOM     47  H   UNL     1      14.860  30.952  19.257  1.00  0.00     0.211 HD
ENDBRANCH   6  46
BRANCH   7  48
ATOM     48  N   UNL     1      13.052  29.454  22.895  1.00  0.00    -0.348 N 
ATOM     49  C   UNL     1      11.959  30.094  23.544  1.00  0.00     0.217 C 
ATOM     50  H   UNL     1      13.211  28.423  23.085  1.00  0.00     0.163 HD
ATOM     51  C   UNL     1      11.051  29.382  24.459  1.00  0.00     0.114 C 
ATOM     52  O   UNL     1      11.797  31.298  23.303  1.00  0.00    -0.275 OA
ENDBRANCH   7  48
ENDBRANCH   1   2
BRANCH   1  53
ATOM     53  O   UNL     1      15.524  29.528  24.564  1.00  0.00    -0.388 OA
ATOM     54  H   UNL     1      14.731  28.969  24.426  1.00  0.00     0.211 HD
ENDBRANCH   1  53
BRANCH   1  55
ATOM     55  C   UNL     1      17.296  30.735  23.426  1.00  0.00     0.165 C 
BRANCH  55  56
ATOM     56  O   UNL     1      18.064  29.569  23.353  1.00  0.00    -0.388 OA
ATOM     57  H   UNL     1      17.586  28.793  23.681  1.00  0.00     0.211 HD
ENDBRANCH  55  56
BRANCH  55  58
ATOM     58  C   UNL     1      17.721  31.593  24.593  1.00  0.00     0.154 C 
BRANCH  58  59
ATOM     59  N   UNL     1      18.783  31.048  25.374  1.00  0.00    -0.319 N 
ATOM     60  C   UNL     1      20.159  31.173  25.053  1.00  0.00     0.407 C 
ATOM     61  H   UNL     1      18.551  30.514  26.255  1.00  0.00     0.167 HD
ATOM     62  O   UNL     1      20.461  31.801  24.008  1.00  0.00    -0.225 OA
BRANCH  60  63
ATOM     63  O   UNL     1      21.172  30.645  25.816  1.00  0.00    -0.443 OA
BRANCH  63  64
ATOM     64  C   UNL     1      21.042  29.409  26.518  1.00  0.00     0.294 C 
BRANCH  64  65
ATOM     65  C   UNL     1      20.961  28.270  25.592  1.00  0.00     0.120 A 
ATOM     66  C   UNL     1      21.446  27.015  25.875  1.00  0.00     0.138 A 
ATOM     67  N   UNL     1      20.436  28.192  24.363  1.00  0.00    -0.132 NA
ATOM     68  N   UNL     1      21.211  26.216  24.832  1.00  0.00    -0.248 N 
ATOM     69  N   UNL     1      20.585  26.977  23.914  1.00  0.00    -0.067 NA
BRANCH  68  70
ATOM     70  C   UNL     1      21.535  24.817  24.632  1.00  0.00     0.185 C 
BRANCH  70  71
ATOM     71  C   UNL     1      22.471  24.627  23.519  1.00  0.00     0.016 A 
ATOM     72  C   UNL     1      23.812  24.670  23.690  1.00  0.00     0.135 A 
ATOM     73  C   UNL     1      21.915  24.383  22.261  1.00  0.00     0.009 A 
ATOM     74  C   UNL     1      24.640  24.465  22.585  1.00  0.00     0.047 A 
ATOM     75  C   UNL     1      22.737  24.184  21.182  1.00  0.00     0.001 A 
ATOM     76  C   UNL     1      24.104  24.223  21.335  1.00  0.00     0.004 A 
BRANCH  72  77
ATOM     77  O   UNL     1      24.408  24.910  24.911  1.00  0.00    -0.426 OA
BRANCH  77  78
ATOM     78  C   UNL     1      24.888  26.200  25.163  1.00  0.00     0.308 C 
ATOM     79  O   UNL     1      24.644  27.103  24.333  1.00  0.00    -0.252 OA
ATOM     80  C   UNL     1      25.658  26.468  26.380  1.00  0.00     0.139 C 
ENDBRANCH  77  78
ENDBRANCH  72  77
ENDBRANCH  70  71
ENDBRANCH  68  70
ENDBRANCH  64  65
ENDBRANCH  63  64
ENDBRANCH  60  63
ENDBRANCH  58  59
ENDBRANCH  55  58
ENDBRANCH   1  55
TORSDOF 33
