REMARK VINA RESULT:    -5.602      3.562      5.280
REMARK INTER + INTRA:         -21.335
REMARK INTER:                 -14.221
REMARK INTRA:                  -7.113
REMARK UNBOUND:                -7.546
REMARK SMILES CC(=O)N[C@@H]1[C@@H](O)C[C@](OC[C@H]2O[C@@H](O[C@H]3[C@H](O)[C@@H](O)[C@H](OCCN=[N+]=[N-])O[C@@H]3CO)[C@H](O)[C@@H](O)[C@H]2O)(C(=O)O)O[C@H]1C(O)[C@H](O)CNC(=O)OCc1cn(-c2ccc3[nH]ncc3c2)nn1
REMARK SMILES IDX 9 1 8 2 6 3 5 4 42 5 41 6 10 7 11 8 12 9 14 10 13 11 32 12
REMARK SMILES IDX 34 13 36 14 15 15 16 16 29 17 28 18 21 19 17 20 19 21 30 22
REMARK SMILES IDX 31 23 22 25 23 26 24 27 25 28 26 29 27 30 18 31 20 33 33 35
REMARK SMILES IDX 35 37 37 39 38 41 39 42 40 43 7 45 43 47 44 48 45 50 46 51
REMARK SMILES IDX 47 53 48 54 49 55 50 57 51 58 52 59 53 60 54 61 66 62 55 63
REMARK SMILES IDX 65 64 56 65 57 66 64 67 58 68 63 69 59 70 62 71 60 72 61 73
REMARK SMILES IDX 4 75 2 76 1 78 3 79
REMARK H PARENT 31 24 18 32 20 34 33 36 35 38 37 40 40 44 7 46 44 49 46 52
REMARK H PARENT 48 56 60 74 4 77
REMARK Flexibility Score: inf
ROOT
ATOM      1  C   UNL     1      16.111  29.821  19.724  1.00  0.00     0.272 C 
ATOM      2  C   UNL     1      16.360  30.792  20.820  1.00  0.00     0.113 C 
ATOM      3  C   UNL     1      17.570  30.511  21.674  1.00  0.00     0.145 C 
ATOM      4  C   UNL     1      18.758  30.506  20.676  1.00  0.00     0.142 C 
ATOM      5  C   UNL     1      18.398  29.496  19.656  1.00  0.00     0.178 C 
ATOM      6  O   UNL     1      17.257  29.659  18.949  1.00  0.00    -0.332 OA
ENDROOT
BRANCH   1   7
ATOM      7  O   UNL     1      15.092  30.342  18.896  1.00  0.00    -0.338 OA
BRANCH   7   8
ATOM      8  C   UNL     1      14.803  29.607  17.794  1.00  0.00     0.199 C 
BRANCH   8   9
ATOM      9  C   UNL     1      15.174  30.351  16.492  1.00  0.00     0.179 C 
ATOM     10  C   UNL     1      15.462  29.408  14.396  1.00  0.00     0.282 C 
ATOM     11  O   UNL     1      15.970  29.586  15.694  1.00  0.00    -0.341 OA
ATOM     12  C   UNL     1      14.171  28.672  14.547  1.00  0.00     0.202 C 
ATOM     13  C   UNL     1      13.174  29.668  15.156  1.00  0.00     0.179 C 
ATOM     14  C   UNL     1      13.903  30.813  15.805  1.00  0.00     0.177 C 
BRANCH  10  15
ATOM     15  O   UNL     1      16.415  28.784  13.610  1.00  0.00    -0.341 OA
BRANCH  15  16
ATOM     16  C   UNL     1      17.391  29.702  13.245  1.00  0.00     0.184 C 
ATOM     17  C   UNL     1      17.608  29.832  11.768  1.00  0.00     0.178 C 
ATOM     18  O   UNL     1      18.499  30.797  11.486  1.00  0.00    -0.341 OA
ATOM     19  C   UNL     1      19.364  31.263  12.424  1.00  0.00     0.281 C 
ATOM     20  C   UNL     1      18.761  29.218  13.759  1.00  0.00     0.180 C 
ATOM     21  C   UNL     1      19.730  30.324  13.523  1.00  0.00     0.202 C 
BRANCH  17  22
ATOM     22  C   UNL     1      16.341  30.068  10.971  1.00  0.00     0.191 C 
BRANCH  22  23
ATOM     23  O   UNL     1      15.555  31.061  11.525  1.00  0.00    -0.394 OA
ATOM     24  H   UNL     1      16.026  31.337  12.369  1.00  0.00     0.210 HD
ENDBRANCH  22  23
ENDBRANCH  17  22
BRANCH  19  25
ATOM     25  O   UNL     1      18.841  32.426  12.931  1.00  0.00    -0.350 OA
BRANCH  25  26
ATOM     26  C   UNL     1      19.691  33.459  13.120  1.00  0.00     0.169 C 
BRANCH  26  27
ATOM     27  C   UNL     1      19.710  34.001  14.513  1.00  0.00     0.119 C 
BRANCH  27  28
ATOM     28  N   UNL     1      20.184  33.100  15.521  1.00  0.00    -0.092 NA
ATOM     29  N   UNL     1      20.893  33.434  16.450  1.00  0.00     0.001 N 
ATOM     30  N   UNL     1      21.883  33.676  17.176  1.00  0.00    -0.003 NA
ENDBRANCH  27  28
ENDBRANCH  26  27
ENDBRANCH  25  26
ENDBRANCH  19  25
BRANCH  20  31
ATOM     31  O   UNL     1      18.706  28.832  15.071  1.00  0.00    -0.387 OA
ATOM     32  H   UNL     1      18.720  27.848  15.202  1.00  0.00     0.211 HD
ENDBRANCH  20  31
BRANCH  21  33
ATOM     33  O   UNL     1      20.987  29.736  13.295  1.00  0.00    -0.385 OA
ATOM     34  H   UNL     1      21.416  29.456  14.143  1.00  0.00     0.211 HD
ENDBRANCH  21  33
ENDBRANCH  15  16
ENDBRANCH  10  15
BRANCH  12  35
ATOM     35  O   UNL     1      13.664  28.102  13.407  1.00  0.00    -0.385 OA
ATOM     36  H   UNL     1      14.321  27.475  12.976  1.00  0.00     0.211 HD
ENDBRANCH  12  35
BRANCH  13  37
ATOM     37  O   UNL     1      12.251  29.043  15.969  1.00  0.00    -0.387 OA
ATOM     38  H   UNL     1      11.891  28.260  15.453  1.00  0.00     0.211 HD
ENDBRANCH  13  37
BRANCH  14  39
ATOM     39  O   UNL     1      13.045  31.310  16.819  1.00  0.00    -0.387 OA
ATOM     40  H   UNL     1      12.126  31.395  16.522  1.00  0.00     0.211 HD
ENDBRANCH  14  39
ENDBRANCH   8   9
ENDBRANCH   7   8
ENDBRANCH   1   7
BRANCH   1  41
ATOM     41  C   UNL     1      15.746  28.454  20.182  1.00  0.00     0.364 C 
ATOM     42  O   UNL     1      14.790  28.367  21.023  1.00  0.00    -0.246 OA
BRANCH  41  43
ATOM     43  O   UNL     1      16.318  27.277  19.808  1.00  0.00    -0.477 OA
ATOM     44  H   UNL     1      15.797  26.498  19.404  1.00  0.00     0.296 HD
ENDBRANCH  41  43
ENDBRANCH   1  41
BRANCH   3  45
ATOM     45  O   UNL     1      17.715  31.546  22.577  1.00  0.00    -0.391 OA
ATOM     46  H   UNL     1      16.849  31.763  23.038  1.00  0.00     0.211 HD
ENDBRANCH   3  45
BRANCH   5  47
ATOM     47  C   UNL     1      19.582  29.099  18.826  1.00  0.00     0.176 C 
BRANCH  47  48
ATOM     48  O   UNL     1      19.028  28.171  17.870  1.00  0.00    -0.388 OA
ATOM     49  H   UNL     1      18.443  28.640  17.241  1.00  0.00     0.211 HD
ENDBRANCH  47  48
BRANCH  47  50
ATOM     50  C   UNL     1      20.184  30.194  17.980  1.00  0.00     0.165 C 
BRANCH  50  51
ATOM     51  O   UNL     1      19.124  30.635  17.138  1.00  0.00    -0.388 OA
ATOM     52  H   UNL     1      18.742  31.478  17.439  1.00  0.00     0.211 HD
ENDBRANCH  50  51
BRANCH  50  53
ATOM     53  C   UNL     1      21.332  29.799  17.131  1.00  0.00     0.154 C 
BRANCH  53  54
ATOM     54  N   UNL     1      21.846  28.483  17.275  1.00  0.00    -0.319 N 
ATOM     55  C   UNL     1      21.915  27.474  16.285  1.00  0.00     0.407 C 
ATOM     56  H   UNL     1      22.236  28.187  18.226  1.00  0.00     0.167 HD
ATOM     57  O   UNL     1      21.519  27.674  15.133  1.00  0.00    -0.225 OA
BRANCH  55  58
ATOM     58  O   UNL     1      22.440  26.224  16.602  1.00  0.00    -0.443 OA
BRANCH  58  59
ATOM     59  C   UNL     1      23.447  25.973  17.534  1.00  0.00     0.294 C 
BRANCH  59  60
ATOM     60  C   UNL     1      23.022  25.218  18.720  1.00  0.00     0.121 A 
ATOM     61  C   UNL     1      23.089  25.642  20.028  1.00  0.00     0.144 A 
ATOM     62  N   UNL     1      22.502  23.972  18.730  1.00  0.00    -0.131 NA
ATOM     63  N   UNL     1      22.608  24.634  20.760  1.00  0.00    -0.220 N 
ATOM     64  N   UNL     1      22.261  23.642  19.962  1.00  0.00    -0.062 NA
BRANCH  63  65
ATOM     65  C   UNL     1      22.496  24.644  22.183  1.00  0.00     0.067 A 
ATOM     66  C   UNL     1      21.266  24.686  22.799  1.00  0.00     0.030 A 
ATOM     67  C   UNL     1      23.626  24.616  22.968  1.00  0.00     0.040 A 
ATOM     68  C   UNL     1      21.161  24.699  24.168  1.00  0.00     0.030 A 
ATOM     69  C   UNL     1      23.502  24.630  24.356  1.00  0.00     0.022 A 
ATOM     70  C   UNL     1      22.272  24.671  24.989  1.00  0.00     0.065 A 
ATOM     71  C   UNL     1      24.466  24.606  25.337  1.00  0.00     0.143 A 
ATOM     72  N   UNL     1      22.494  24.673  26.314  1.00  0.00    -0.278 N 
ATOM     73  N   UNL     1      23.794  24.633  26.500  1.00  0.00    -0.183 NA
ATOM     74  H   UNL     1      21.740  24.701  27.043  1.00  0.00     0.190 HD
ENDBRANCH  63  65
ENDBRANCH  59  60
ENDBRANCH  58  59
ENDBRANCH  55  58
ENDBRANCH  53  54
ENDBRANCH  50  53
ENDBRANCH  47  50
ENDBRANCH   5  47
BRANCH   4  75
ATOM     75  N   UNL     1      19.855  29.988  21.499  1.00  0.00    -0.348 N 
ATOM     76  C   UNL     1      20.833  30.872  21.961  1.00  0.00     0.217 C 
ATOM     77  H   UNL     1      19.928  28.987  21.747  1.00  0.00     0.163 HD
ATOM     78  C   UNL     1      21.990  30.422  22.803  1.00  0.00     0.114 C 
ATOM     79  O   UNL     1      20.748  32.109  21.666  1.00  0.00    -0.275 OA
ENDBRANCH   4  75
TORSDOF 30
