REMARK VINA RESULT:    -6.780      0.000      0.000
REMARK INTER + INTRA:         -23.407
REMARK INTER:                 -17.555
REMARK INTRA:                  -5.852
REMARK UNBOUND:                -6.520
REMARK SMILES CC(=O)N[C@@H]1[C@@H](O)C[C@](OC[C@H]2O[C@@H](O[C@H]3[C@H](O)[C@@H](O)[C@H](OCCN=[N+]=[N-])O[C@@H]3CO)[C@H](O)[C@@H](O)[C@H]2O)(C(=O)O)O[C@H]1C(O)[C@H](O)CNC(=O)OCc1cn(-c2nc(C)nc(N)n2)nn1
REMARK SMILES IDX 9 1 8 2 6 3 5 4 42 5 41 6 10 7 11 8 12 9 14 10 13 11 32 12
REMARK SMILES IDX 34 13 36 14 15 15 16 16 29 17 28 18 21 19 17 20 19 21 30 22
REMARK SMILES IDX 31 23 22 25 23 26 24 27 25 28 26 29 27 30 18 31 20 33 33 35
REMARK SMILES IDX 35 37 37 39 38 41 39 42 40 43 7 45 43 47 44 48 45 50 46 51
REMARK SMILES IDX 47 53 48 54 49 55 50 57 51 58 52 59 53 60 54 61 65 62 55 63
REMARK SMILES IDX 64 64 56 65 63 66 57 67 61 68 58 69 60 70 59 71 62 72 4 75
REMARK SMILES IDX 2 76 1 78 3 79
REMARK H PARENT 31 24 18 32 20 34 33 36 35 38 37 40 40 44 7 46 44 49 46 52
REMARK H PARENT 48 56 62 73 62 74 4 77
REMARK Flexibility Score: inf
ROOT
ATOM      1  C   UNL     1      17.982  29.320  20.470  1.00  0.00     0.272 C 
ATOM      2  C   UNL     1      16.619  28.794  20.759  1.00  0.00     0.113 C 
ATOM      3  C   UNL     1      15.970  28.240  19.528  1.00  0.00     0.145 C 
ATOM      4  C   UNL     1      15.946  29.315  18.473  1.00  0.00     0.142 C 
ATOM      5  C   UNL     1      17.260  30.050  18.345  1.00  0.00     0.178 C 
ATOM      6  O   UNL     1      17.847  30.360  19.511  1.00  0.00    -0.332 OA
ENDROOT
BRANCH   1   7
ATOM      7  O   UNL     1      18.945  28.499  20.235  1.00  0.00    -0.338 OA
BRANCH   7   8
ATOM      8  C   UNL     1      20.208  28.402  20.073  1.00  0.00     0.199 C 
BRANCH   8   9
ATOM      9  C   UNL     1      21.155  27.432  20.691  1.00  0.00     0.179 C 
ATOM     10  C   UNL     1      21.587  25.973  22.312  1.00  0.00     0.282 C 
ATOM     11  O   UNL     1      20.547  26.651  21.619  1.00  0.00    -0.341 OA
ATOM     12  C   UNL     1      21.961  24.845  21.384  1.00  0.00     0.202 C 
ATOM     13  C   UNL     1      22.573  25.419  20.130  1.00  0.00     0.179 C 
ATOM     14  C   UNL     1      22.144  26.789  19.775  1.00  0.00     0.177 C 
BRANCH  10  15
ATOM     15  O   UNL     1      21.158  25.506  23.525  1.00  0.00    -0.341 OA
BRANCH  15  16
ATOM     16  C   UNL     1      21.899  25.965  24.600  1.00  0.00     0.184 C 
ATOM     17  C   UNL     1      22.556  24.907  25.419  1.00  0.00     0.178 C 
ATOM     18  O   UNL     1      22.247  24.987  26.771  1.00  0.00    -0.341 OA
ATOM     19  C   UNL     1      22.446  26.243  27.329  1.00  0.00     0.281 C 
ATOM     20  C   UNL     1      20.889  26.720  25.485  1.00  0.00     0.180 C 
ATOM     21  C   UNL     1      21.674  27.320  26.627  1.00  0.00     0.202 C 
BRANCH  17  22
ATOM     22  C   UNL     1      24.039  24.770  25.204  1.00  0.00     0.191 C 
BRANCH  22  23
ATOM     23  O   UNL     1      24.510  23.872  26.188  1.00  0.00    -0.394 OA
ATOM     24  H   UNL     1      25.489  23.802  26.195  1.00  0.00     0.210 HD
ENDBRANCH  22  23
ENDBRANCH  17  22
BRANCH  19  25
ATOM     25  O   UNL     1      23.762  26.608  27.398  1.00  0.00    -0.350 OA
BRANCH  25  26
ATOM     26  C   UNL     1      24.413  26.401  28.577  1.00  0.00     0.169 C 
BRANCH  26  27
ATOM     27  C   UNL     1      25.900  26.238  28.426  1.00  0.00     0.119 C 
BRANCH  27  28
ATOM     28  N   UNL     1      26.454  25.881  29.740  1.00  0.00    -0.092 NA
ATOM     29  N   UNL     1      27.664  25.674  29.791  1.00  0.00     0.001 N 
ATOM     30  N   UNL     1      28.689  25.013  30.067  1.00  0.00    -0.003 NA
ENDBRANCH  27  28
ENDBRANCH  26  27
ENDBRANCH  25  26
ENDBRANCH  19  25
BRANCH  20  31
ATOM     31  O   UNL     1      20.224  27.666  24.733  1.00  0.00    -0.387 OA
ATOM     32  H   UNL     1      19.247  27.473  24.690  1.00  0.00     0.211 HD
ENDBRANCH  20  31
BRANCH  21  33
ATOM     33  O   UNL     1      20.755  27.941  27.473  1.00  0.00    -0.385 OA
ATOM     34  H   UNL     1      21.167  28.704  27.951  1.00  0.00     0.211 HD
ENDBRANCH  21  33
ENDBRANCH  15  16
ENDBRANCH  10  15
BRANCH  12  35
ATOM     35  O   UNL     1      22.816  23.919  21.977  1.00  0.00    -0.385 OA
ATOM     36  H   UNL     1      23.135  24.305  22.831  1.00  0.00     0.211 HD
ENDBRANCH  12  35
BRANCH  13  37
ATOM     37  O   UNL     1      22.367  24.482  19.114  1.00  0.00    -0.387 OA
ATOM     38  H   UNL     1      22.822  24.725  18.270  1.00  0.00     0.211 HD
ENDBRANCH  13  37
BRANCH  14  39
ATOM     39  O   UNL     1      21.826  26.852  18.422  1.00  0.00    -0.387 OA
ATOM     40  H   UNL     1      20.827  26.767  18.374  1.00  0.00     0.211 HD
ENDBRANCH  14  39
ENDBRANCH   8   9
ENDBRANCH   7   8
ENDBRANCH   1   7
BRANCH   1  41
ATOM     41  C   UNL     1      18.280  30.184  21.729  1.00  0.00     0.364 C 
ATOM     42  O   UNL     1      18.147  31.394  21.599  1.00  0.00    -0.246 OA
BRANCH  41  43
ATOM     43  O   UNL     1      18.665  29.593  22.892  1.00  0.00    -0.477 OA
ATOM     44  H   UNL     1      18.683  30.078  23.800  1.00  0.00     0.296 HD
ENDBRANCH  41  43
ENDBRANCH   1  41
BRANCH   3  45
ATOM     45  O   UNL     1      16.619  27.156  18.983  1.00  0.00    -0.391 OA
ATOM     46  H   UNL     1      16.369  26.313  19.400  1.00  0.00     0.211 HD
ENDBRANCH   3  45
BRANCH   5  47
ATOM     47  C   UNL     1      18.182  29.456  17.308  1.00  0.00     0.176 C 
BRANCH  47  48
ATOM     48  O   UNL     1      17.481  28.639  16.437  1.00  0.00    -0.388 OA
ATOM     49  H   UNL     1      17.947  28.409  15.614  1.00  0.00     0.211 HD
ENDBRANCH  47  48
BRANCH  47  50
ATOM     50  C   UNL     1      18.878  30.560  16.577  1.00  0.00     0.165 C 
BRANCH  50  51
ATOM     51  O   UNL     1      18.497  30.512  15.223  1.00  0.00    -0.388 OA
ATOM     52  H   UNL     1      17.569  30.795  15.154  1.00  0.00     0.211 HD
ENDBRANCH  50  51
BRANCH  50  53
ATOM     53  C   UNL     1      20.367  30.529  16.637  1.00  0.00     0.154 C 
BRANCH  53  54
ATOM     54  N   UNL     1      20.895  29.184  16.584  1.00  0.00    -0.319 N 
ATOM     55  C   UNL     1      21.169  28.484  15.393  1.00  0.00     0.407 C 
ATOM     56  H   UNL     1      21.103  28.659  17.485  1.00  0.00     0.167 HD
ATOM     57  O   UNL     1      20.963  29.010  14.295  1.00  0.00    -0.225 OA
BRANCH  55  58
ATOM     58  O   UNL     1      21.673  27.187  15.400  1.00  0.00    -0.443 OA
BRANCH  58  59
ATOM     59  C   UNL     1      22.914  26.826  14.848  1.00  0.00     0.294 C 
BRANCH  59  60
ATOM     60  C   UNL     1      23.361  25.482  15.322  1.00  0.00     0.121 A 
ATOM     61  C   UNL     1      23.603  24.376  14.534  1.00  0.00     0.148 A 
ATOM     62  N   UNL     1      23.608  25.105  16.591  1.00  0.00    -0.131 NA
ATOM     63  N   UNL     1      23.985  23.369  15.338  1.00  0.00    -0.185 N 
ATOM     64  N   UNL     1      23.979  23.836  16.570  1.00  0.00    -0.059 NA
BRANCH  63  65
ATOM     65  C   UNL     1      24.319  22.067  14.879  1.00  0.00     0.257 A 
ATOM     66  N   UNL     1      23.336  21.202  14.568  1.00  0.00    -0.175 NA
ATOM     67  N   UNL     1      25.581  21.627  14.726  1.00  0.00    -0.196 NA
ATOM     68  C   UNL     1      23.597  19.946  14.123  1.00  0.00     0.225 A 
ATOM     69  C   UNL     1      25.877  20.398  14.290  1.00  0.00     0.133 A 
ATOM     70  N   UNL     1      24.886  19.564  13.991  1.00  0.00    -0.198 NA
ATOM     71  C   UNL     1      27.305  19.947  14.134  1.00  0.00     0.090 C 
BRANCH  68  72
ATOM     72  N   UNL     1      22.527  19.078  13.810  1.00  0.00    -0.368 N 
ATOM     73  H   UNL     1      22.637  18.045  13.849  1.00  0.00     0.159 HD
ATOM     74  H   UNL     1      21.602  19.458  13.533  1.00  0.00     0.159 HD
ENDBRANCH  68  72
ENDBRANCH  63  65
ENDBRANCH  59  60
ENDBRANCH  58  59
ENDBRANCH  55  58
ENDBRANCH  53  54
ENDBRANCH  50  53
ENDBRANCH  47  50
ENDBRANCH   5  47
BRANCH   4  75
ATOM     75  N   UNL     1      14.882  30.246  18.784  1.00  0.00    -0.348 N 
ATOM     76  C   UNL     1      13.865  30.539  17.831  1.00  0.00     0.217 C 
ATOM     77  H   UNL     1      14.816  30.737  19.711  1.00  0.00     0.163 HD
ATOM     78  C   UNL     1      12.794  31.487  18.164  1.00  0.00     0.114 C 
ATOM     79  O   UNL     1      13.892  29.984  16.712  1.00  0.00    -0.275 OA
ENDBRANCH   4  75
TORSDOF 31
