REMARK VINA RESULT:    -4.707      6.106     10.593
REMARK INTER + INTRA:         -22.569
REMARK INTER:                 -14.638
REMARK INTRA:                  -7.931
REMARK UNBOUND:                -9.744
REMARK SMILES CC(=O)N[C@@H]1[C@@H](O)C[C@](OC[C@H]2O[C@@H](O[C@H]3[C@H](O)[C@@H](O)[C@H](OCCN=[N+]=[N-])O[C@@H]3CO)[C@H](O)[C@@H](O)[C@H]2O)(C(=O)O)O[C@H]1C(O)[C@H](O)CNC(=O)OCc1cn(CC(O)Cn2ccnc2[N+](=O)[O-])nn1
REMARK SMILES IDX 43 1 42 2 9 3 8 4 41 5 6 6 5 7 10 8 11 9 12 10 14 11 13 12
REMARK SMILES IDX 32 13 34 14 36 15 15 16 16 17 29 18 28 19 21 20 17 21 19 22
REMARK SMILES IDX 30 23 31 24 22 26 23 27 24 28 25 29 26 30 27 31 18 32 20 34
REMARK SMILES IDX 33 36 35 38 37 40 38 42 39 43 40 44 7 46 4 48 2 49 1 51 3 52
REMARK SMILES IDX 44 53 45 55 46 56 47 58 48 59 49 60 50 62 51 63 52 64 53 65
REMARK SMILES IDX 54 66 69 67 55 68 68 69 56 70 57 71 58 72 59 74 60 75 61 76
REMARK SMILES IDX 64 77 62 78 63 79 65 80 66 81 67 82
REMARK H PARENT 31 25 18 33 20 35 33 37 35 39 37 41 40 45 7 47 4 50 44 54
REMARK H PARENT 46 57 48 61 58 73
REMARK Flexibility Score: inf
ROOT
ATOM      1  C   UNL     1      26.013  23.795  21.286  1.00  0.00     0.176 C 
ENDROOT
BRANCH   1   2
ATOM      2  C   UNL     1      25.182  25.097  21.078  1.00  0.00     0.178 C 
ATOM      3  C   UNL     1      24.765  26.983  22.351  1.00  0.00     0.272 C 
ATOM      4  C   UNL     1      23.323  26.956  21.939  1.00  0.00     0.113 C 
ATOM      5  O   UNL     1      25.299  25.699  22.333  1.00  0.00    -0.332 OA
ATOM      6  C   UNL     1      22.823  25.529  21.757  1.00  0.00     0.145 C 
ATOM      7  C   UNL     1      23.769  24.750  20.852  1.00  0.00     0.142 C 
BRANCH   3   8
ATOM      8  O   UNL     1      24.950  27.393  23.666  1.00  0.00    -0.338 OA
BRANCH   8   9
ATOM      9  C   UNL     1      25.575  26.575  24.529  1.00  0.00     0.199 C 
BRANCH   9  10
ATOM     10  C   UNL     1      24.742  26.222  25.746  1.00  0.00     0.179 C 
ATOM     11  C   UNL     1      22.960  26.835  26.945  1.00  0.00     0.282 C 
ATOM     12  O   UNL     1      23.405  26.686  25.608  1.00  0.00    -0.341 OA
ATOM     13  C   UNL     1      23.012  25.514  27.672  1.00  0.00     0.202 C 
ATOM     14  C   UNL     1      23.228  24.433  26.613  1.00  0.00     0.179 C 
ATOM     15  C   UNL     1      24.580  24.735  25.959  1.00  0.00     0.177 C 
BRANCH  11  16
ATOM     16  O   UNL     1      21.683  27.352  27.007  1.00  0.00    -0.341 OA
BRANCH  16  17
ATOM     17  C   UNL     1      21.598  28.363  26.078  1.00  0.00     0.184 C 
ATOM     18  C   UNL     1      21.258  29.721  26.674  1.00  0.00     0.178 C 
ATOM     19  O   UNL     1      21.612  30.637  25.679  1.00  0.00    -0.341 OA
ATOM     20  C   UNL     1      20.833  30.580  24.556  1.00  0.00     0.281 C 
ATOM     21  C   UNL     1      20.505  28.110  25.050  1.00  0.00     0.180 C 
ATOM     22  C   UNL     1      20.379  29.242  24.101  1.00  0.00     0.202 C 
BRANCH  18  23
ATOM     23  C   UNL     1      21.954  30.017  27.953  1.00  0.00     0.191 C 
BRANCH  23  24
ATOM     24  O   UNL     1      21.235  29.434  28.989  1.00  0.00    -0.394 OA
ATOM     25  H   UNL     1      21.278  28.445  28.981  1.00  0.00     0.210 HD
ENDBRANCH  23  24
ENDBRANCH  18  23
BRANCH  20  26
ATOM     26  O   UNL     1      21.623  31.123  23.507  1.00  0.00    -0.350 OA
BRANCH  26  27
ATOM     27  C   UNL     1      22.110  30.161  22.659  1.00  0.00     0.169 C 
BRANCH  27  28
ATOM     28  C   UNL     1      21.955  30.729  21.241  1.00  0.00     0.119 C 
BRANCH  28  29
ATOM     29  N   UNL     1      20.807  30.202  20.570  1.00  0.00    -0.092 NA
ATOM     30  N   UNL     1      20.506  28.988  20.641  1.00  0.00     0.001 N 
ATOM     31  N   UNL     1      19.843  27.995  20.892  1.00  0.00    -0.003 NA
ENDBRANCH  28  29
ENDBRANCH  27  28
ENDBRANCH  26  27
ENDBRANCH  20  26
BRANCH  21  32
ATOM     32  O   UNL     1      20.820  26.942  24.325  1.00  0.00    -0.387 OA
ATOM     33  H   UNL     1      20.456  27.072  23.431  1.00  0.00     0.211 HD
ENDBRANCH  21  32
BRANCH  22  34
ATOM     34  O   UNL     1      18.995  29.361  23.813  1.00  0.00    -0.385 OA
ATOM     35  H   UNL     1      18.481  29.567  24.636  1.00  0.00     0.211 HD
ENDBRANCH  22  34
ENDBRANCH  16  17
ENDBRANCH  11  16
BRANCH  13  36
ATOM     36  O   UNL     1      24.077  25.544  28.572  1.00  0.00    -0.385 OA
ATOM     37  H   UNL     1      24.125  26.419  29.050  1.00  0.00     0.211 HD
ENDBRANCH  13  36
BRANCH  14  38
ATOM     38  O   UNL     1      22.276  24.626  25.629  1.00  0.00    -0.387 OA
ATOM     39  H   UNL     1      21.777  25.444  25.797  1.00  0.00     0.211 HD
ENDBRANCH  14  38
BRANCH  15  40
ATOM     40  O   UNL     1      24.587  24.022  24.780  1.00  0.00    -0.387 OA
ATOM     41  H   UNL     1      23.680  23.736  24.505  1.00  0.00     0.211 HD
ENDBRANCH  15  40
ENDBRANCH   9  10
ENDBRANCH   8   9
ENDBRANCH   3   8
BRANCH   3  42
ATOM     42  C   UNL     1      25.556  27.840  21.458  1.00  0.00     0.364 C 
ATOM     43  O   UNL     1      26.835  27.870  21.504  1.00  0.00    -0.246 OA
BRANCH  42  44
ATOM     44  O   UNL     1      25.006  28.678  20.508  1.00  0.00    -0.477 OA
ATOM     45  H   UNL     1      25.538  29.404  20.020  1.00  0.00     0.296 HD
ENDBRANCH  42  44
ENDBRANCH   3  42
BRANCH   6  46
ATOM     46  O   UNL     1      22.624  24.892  22.966  1.00  0.00    -0.391 OA
ATOM     47  H   UNL     1      23.002  23.977  22.964  1.00  0.00     0.211 HD
ENDBRANCH   6  46
BRANCH   7  48
ATOM     48  N   UNL     1      23.282  24.729  19.510  1.00  0.00    -0.348 N 
ATOM     49  C   UNL     1      23.461  25.674  18.505  1.00  0.00     0.217 C 
ATOM     50  H   UNL     1      22.688  23.848  19.199  1.00  0.00     0.163 HD
ATOM     51  C   UNL     1      22.889  25.460  17.113  1.00  0.00     0.114 C 
ATOM     52  O   UNL     1      24.081  26.729  18.654  1.00  0.00    -0.275 OA
ENDBRANCH   7  48
ENDBRANCH   1   2
BRANCH   1  53
ATOM     53  O   UNL     1      25.382  23.076  22.332  1.00  0.00    -0.388 OA
ATOM     54  H   UNL     1      25.205  23.629  23.108  1.00  0.00     0.211 HD
ENDBRANCH   1  53
BRANCH   1  55
ATOM     55  C   UNL     1      27.426  23.994  21.580  1.00  0.00     0.165 C 
BRANCH  55  56
ATOM     56  O   UNL     1      28.049  25.075  21.012  1.00  0.00    -0.388 OA
ATOM     57  H   UNL     1      27.739  25.289  20.103  1.00  0.00     0.211 HD
ENDBRANCH  55  56
BRANCH  55  58
ATOM     58  C   UNL     1      28.281  22.732  21.316  1.00  0.00     0.154 C 
BRANCH  58  59
ATOM     59  N   UNL     1      27.680  22.086  20.154  1.00  0.00    -0.319 N 
ATOM     60  C   UNL     1      28.131  22.363  18.822  1.00  0.00     0.407 C 
ATOM     61  H   UNL     1      26.901  21.401  20.275  1.00  0.00     0.167 HD
ATOM     62  O   UNL     1      29.064  23.175  18.643  1.00  0.00    -0.225 OA
BRANCH  60  63
ATOM     63  O   UNL     1      27.554  21.754  17.728  1.00  0.00    -0.443 OA
BRANCH  63  64
ATOM     64  C   UNL     1      27.215  22.348  16.513  1.00  0.00     0.294 C 
BRANCH  64  65
ATOM     65  C   UNL     1      26.776  21.311  15.546  1.00  0.00     0.120 A 
ATOM     66  C   UNL     1      25.838  21.461  14.541  1.00  0.00     0.138 A 
ATOM     67  N   UNL     1      27.188  20.039  15.437  1.00  0.00    -0.132 NA
ATOM     68  N   UNL     1      25.724  20.287  13.872  1.00  0.00    -0.249 N 
ATOM     69  N   UNL     1      26.552  19.445  14.437  1.00  0.00    -0.067 NA
BRANCH  68  70
ATOM     70  C   UNL     1      24.846  20.108  12.720  1.00  0.00     0.181 C 
BRANCH  70  71
ATOM     71  C   UNL     1      23.432  20.306  13.260  1.00  0.00     0.170 C 
BRANCH  71  72
ATOM     72  O   UNL     1      22.816  21.289  12.523  1.00  0.00    -0.388 OA
ATOM     73  H   UNL     1      22.415  20.905  11.707  1.00  0.00     0.211 HD
ENDBRANCH  71  72
BRANCH  71  74
ATOM     74  C   UNL     1      22.687  19.006  13.260  1.00  0.00     0.239 C 
BRANCH  74  75
ATOM     75  N   UNL     1      22.187  18.729  11.924  1.00  0.00    -0.227 N 
ATOM     76  C   UNL     1      22.962  18.115  10.972  1.00  0.00     0.204 A 
ATOM     77  C   UNL     1      20.978  18.976  11.418  1.00  0.00     0.434 A 
ATOM     78  C   UNL     1      22.186  17.985   9.842  1.00  0.00     0.245 A 
ATOM     79  N   UNL     1      20.982  18.515  10.136  1.00  0.00    -0.074 NA
BRANCH  77  80
ATOM     80  N   UNL     1      19.895  19.610  12.075  1.00  0.00    -0.047 N 
ATOM     81  O   UNL     1      19.869  20.873  12.218  1.00  0.00    -0.390 OA
ATOM     82  O   UNL     1      18.827  18.934  12.598  1.00  0.00    -0.390 OA
ENDBRANCH  77  80
ENDBRANCH  74  75
ENDBRANCH  71  74
ENDBRANCH  70  71
ENDBRANCH  68  70
ENDBRANCH  64  65
ENDBRANCH  63  64
ENDBRANCH  60  63
ENDBRANCH  58  59
ENDBRANCH  55  58
ENDBRANCH   1  55
TORSDOF 35
