REMARK VINA RESULT:    -5.788     22.830     26.111
REMARK INTER + INTRA:         -19.664
REMARK INTER:                 -13.906
REMARK INTRA:                  -5.757
REMARK UNBOUND:                -4.909
REMARK SMILES CC(=O)N[C@@H]1[C@@H](O)C[C@](OC[C@H]2O[C@@H](O[C@H]3[C@H](O)[C@@H](O)[C@H](OCCN=[N+]=[N-])O[C@@H]3CO)[C@H](O)[C@@H](O)[C@H]2O)(C(=O)O)O[C@H]1C(O)[C@H](O)CNC(=O)OCc1cn(CCO)nn1
REMARK SMILES IDX 9 1 8 2 6 3 5 4 42 5 41 6 10 7 11 8 12 9 14 10 13 11 32 12
REMARK SMILES IDX 34 13 36 14 15 15 16 16 29 17 28 18 21 19 17 20 19 21 30 22
REMARK SMILES IDX 31 23 22 25 23 26 24 27 25 28 26 29 27 30 18 31 20 33 33 35
REMARK SMILES IDX 35 37 37 39 38 41 39 42 40 43 7 45 43 47 44 48 45 50 46 51
REMARK SMILES IDX 47 53 48 54 49 55 50 57 51 58 52 59 53 60 54 61 60 62 55 63
REMARK SMILES IDX 59 64 56 65 57 66 58 67 4 69 2 70 1 72 3 73
REMARK H PARENT 31 24 18 32 20 34 33 36 35 38 37 40 40 44 7 46 44 49 46 52
REMARK H PARENT 48 56 58 68 4 71
REMARK Flexibility Score: inf
ROOT
ATOM      1  C   UNL     1      29.567  21.226  17.003  1.00  0.00     0.272 C 
ATOM      2  C   UNL     1      30.297  19.931  17.146  1.00  0.00     0.113 C 
ATOM      3  C   UNL     1      31.085  19.920  18.427  1.00  0.00     0.145 C 
ATOM      4  C   UNL     1      30.075  20.186  19.543  1.00  0.00     0.142 C 
ATOM      5  C   UNL     1      29.575  21.609  19.324  1.00  0.00     0.178 C 
ATOM      6  O   UNL     1      28.840  21.513  18.119  1.00  0.00    -0.332 OA
ENDROOT
BRANCH   1   7
ATOM      7  O   UNL     1      28.673  21.187  15.909  1.00  0.00    -0.338 OA
BRANCH   7   8
ATOM      8  C   UNL     1      27.354  21.189  16.223  1.00  0.00     0.199 C 
BRANCH   8   9
ATOM      9  C   UNL     1      26.532  21.935  15.160  1.00  0.00     0.179 C 
ATOM     10  C   UNL     1      24.394  22.128  14.280  1.00  0.00     0.282 C 
ATOM     11  O   UNL     1      25.265  21.399  15.090  1.00  0.00    -0.341 OA
ATOM     12  C   UNL     1      24.161  23.521  14.803  1.00  0.00     0.202 C 
ATOM     13  C   UNL     1      25.243  24.009  15.733  1.00  0.00     0.179 C 
ATOM     14  C   UNL     1      26.563  23.415  15.330  1.00  0.00     0.177 C 
BRANCH  10  15
ATOM     15  O   UNL     1      23.231  21.458  14.272  1.00  0.00    -0.341 OA
BRANCH  15  16
ATOM     16  C   UNL     1      22.845  20.736  13.208  1.00  0.00     0.184 C 
ATOM     17  C   UNL     1      23.795  20.217  12.224  1.00  0.00     0.178 C 
ATOM     18  O   UNL     1      23.244  20.232  10.955  1.00  0.00    -0.341 OA
ATOM     19  C   UNL     1      21.947  19.852  10.817  1.00  0.00     0.281 C 
ATOM     20  C   UNL     1      21.873  21.664  12.433  1.00  0.00     0.180 C 
ATOM     21  C   UNL     1      20.989  20.715  11.652  1.00  0.00     0.202 C 
BRANCH  17  22
ATOM     22  C   UNL     1      24.244  18.785  12.506  1.00  0.00     0.191 C 
BRANCH  22  23
ATOM     23  O   UNL     1      24.402  18.551  13.873  1.00  0.00    -0.394 OA
ATOM     24  H   UNL     1      24.908  19.294  14.253  1.00  0.00     0.210 HD
ENDBRANCH  22  23
ENDBRANCH  17  22
BRANCH  19  25
ATOM     25  O   UNL     1      21.670  18.521  10.952  1.00  0.00    -0.350 OA
BRANCH  25  26
ATOM     26  C   UNL     1      21.493  17.802   9.809  1.00  0.00     0.169 C 
BRANCH  26  27
ATOM     27  C   UNL     1      20.055  17.472   9.591  1.00  0.00     0.119 C 
BRANCH  27  28
ATOM     28  N   UNL     1      19.625  18.026   8.295  1.00  0.00    -0.092 NA
ATOM     29  N   UNL     1      19.409  19.251   8.300  1.00  0.00     0.001 N 
ATOM     30  N   UNL     1      19.705  20.429   8.034  1.00  0.00    -0.003 NA
ENDBRANCH  27  28
ENDBRANCH  26  27
ENDBRANCH  25  26
ENDBRANCH  19  25
BRANCH  20  31
ATOM     31  O   UNL     1      21.179  22.473  13.292  1.00  0.00    -0.387 OA
ATOM     32  H   UNL     1      21.569  22.495  14.202  1.00  0.00     0.211 HD
ENDBRANCH  20  31
BRANCH  21  33
ATOM     33  O   UNL     1      20.073  21.398  10.897  1.00  0.00    -0.385 OA
ATOM     34  H   UNL     1      19.433  20.803  10.435  1.00  0.00     0.211 HD
ENDBRANCH  21  33
ENDBRANCH  15  16
ENDBRANCH  10  15
BRANCH  12  35
ATOM     35  O   UNL     1      24.183  24.397  13.706  1.00  0.00    -0.385 OA
ATOM     36  H   UNL     1      23.756  24.027  12.908  1.00  0.00     0.211 HD
ENDBRANCH  12  35
BRANCH  13  37
ATOM     37  O   UNL     1      24.889  23.741  17.030  1.00  0.00    -0.387 OA
ATOM     38  H   UNL     1      25.608  24.016  17.682  1.00  0.00     0.211 HD
ENDBRANCH  13  37
BRANCH  14  39
ATOM     39  O   UNL     1      27.477  23.700  16.369  1.00  0.00    -0.387 OA
ATOM     40  H   UNL     1      27.109  23.428  17.246  1.00  0.00     0.211 HD
ENDBRANCH  14  39
ENDBRANCH   8   9
ENDBRANCH   7   8
ENDBRANCH   1   7
BRANCH   1  41
ATOM     41  C   UNL     1      30.537  22.280  16.635  1.00  0.00     0.364 C 
ATOM     42  O   UNL     1      31.571  22.052  15.979  1.00  0.00    -0.246 OA
BRANCH  41  43
ATOM     43  O   UNL     1      30.329  23.595  17.014  1.00  0.00    -0.477 OA
ATOM     44  H   UNL     1      30.325  23.898  18.003  1.00  0.00     0.296 HD
ENDBRANCH  41  43
ENDBRANCH   1  41
BRANCH   3  45
ATOM     45  O   UNL     1      31.611  18.633  18.675  1.00  0.00    -0.391 OA
ATOM     46  H   UNL     1      32.080  18.316  17.857  1.00  0.00     0.211 HD
ENDBRANCH   3  45
BRANCH   5  47
ATOM     47  C   UNL     1      28.548  21.928  20.362  1.00  0.00     0.176 C 
BRANCH  47  48
ATOM     48  O   UNL     1      29.133  22.311  21.570  1.00  0.00    -0.388 OA
ATOM     49  H   UNL     1      28.558  22.941  22.079  1.00  0.00     0.211 HD
ENDBRANCH  47  48
BRANCH  47  50
ATOM     50  C   UNL     1      27.441  22.846  20.013  1.00  0.00     0.165 C 
BRANCH  50  51
ATOM     51  O   UNL     1      28.125  23.866  19.219  1.00  0.00    -0.388 OA
ATOM     52  H   UNL     1      28.811  23.417  18.673  1.00  0.00     0.211 HD
ENDBRANCH  50  51
BRANCH  50  53
ATOM     53  C   UNL     1      26.932  23.683  21.173  1.00  0.00     0.154 C 
BRANCH  53  54
ATOM     54  N   UNL     1      25.512  23.818  21.209  1.00  0.00    -0.319 N 
ATOM     55  C   UNL     1      24.848  24.740  20.360  1.00  0.00     0.407 C 
ATOM     56  H   UNL     1      24.915  23.248  21.872  1.00  0.00     0.167 HD
ATOM     57  O   UNL     1      25.595  25.431  19.587  1.00  0.00    -0.225 OA
BRANCH  55  58
ATOM     58  O   UNL     1      23.497  24.952  20.295  1.00  0.00    -0.443 OA
BRANCH  58  59
ATOM     59  C   UNL     1      22.625  24.037  20.930  1.00  0.00     0.294 C 
BRANCH  59  60
ATOM     60  C   UNL     1      22.076  24.547  22.188  1.00  0.00     0.120 A 
ATOM     61  C   UNL     1      22.755  24.628  23.379  1.00  0.00     0.138 A 
ATOM     62  N   UNL     1      20.847  25.025  22.442  1.00  0.00    -0.132 NA
ATOM     63  N   UNL     1      21.940  25.144  24.320  1.00  0.00    -0.250 N 
ATOM     64  N   UNL     1      20.789  25.379  23.733  1.00  0.00    -0.067 NA
BRANCH  63  65
ATOM     65  C   UNL     1      22.301  25.388  25.724  1.00  0.00     0.174 C 
BRANCH  65  66
ATOM     66  C   UNL     1      23.593  24.663  26.010  1.00  0.00     0.179 C 
BRANCH  66  67
ATOM     67  O   UNL     1      23.472  24.076  27.280  1.00  0.00    -0.394 OA
ATOM     68  H   UNL     1      24.217  24.279  27.873  1.00  0.00     0.210 HD
ENDBRANCH  66  67
ENDBRANCH  65  66
ENDBRANCH  63  65
ENDBRANCH  59  60
ENDBRANCH  58  59
ENDBRANCH  55  58
ENDBRANCH  53  54
ENDBRANCH  50  53
ENDBRANCH  47  50
ENDBRANCH   5  47
BRANCH   4  69
ATOM     69  N   UNL     1      30.560  19.874  20.829  1.00  0.00    -0.348 N 
ATOM     70  C   UNL     1      30.060  18.855  21.672  1.00  0.00     0.217 C 
ATOM     71  H   UNL     1      31.373  20.416  21.218  1.00  0.00     0.163 HD
ATOM     72  C   UNL     1      30.666  18.642  23.002  1.00  0.00     0.114 C 
ATOM     73  O   UNL     1      29.117  18.135  21.312  1.00  0.00    -0.275 OA
ENDBRANCH   4  69
TORSDOF 32
