REMARK VINA RESULT:    -5.325     12.821     18.522
REMARK INTER + INTRA:         -21.042
REMARK INTER:                 -13.574
REMARK INTRA:                  -7.468
REMARK UNBOUND:                -7.468
REMARK SMILES CC(=O)N[C@@H]1[C@@H](O)C[C@](OC[C@H]2O[C@@H](O[C@H]3[C@H](O)[C@@H](O)[C@H](OCCN=[N+]=[N-])O[C@@H]3CO)[C@H](O)[C@@H](O)[C@H]2O)(C(=O)O)O[C@H]1C(O)[C@H](O)CNC(=O)OCc1cn(CC(=O)O)nn1
REMARK SMILES IDX 9 1 8 2 6 3 5 4 42 5 41 6 10 7 11 8 12 9 14 10 13 11 32 12
REMARK SMILES IDX 34 13 36 14 15 15 16 16 29 17 28 18 21 19 17 20 19 21 30 22
REMARK SMILES IDX 31 23 22 25 23 26 24 27 25 28 26 29 27 30 18 31 20 33 33 35
REMARK SMILES IDX 35 37 37 39 38 41 39 42 40 43 7 45 43 47 44 48 45 50 46 51
REMARK SMILES IDX 47 53 48 54 49 55 50 57 51 58 52 59 53 60 54 61 61 62 55 63
REMARK SMILES IDX 60 64 56 65 57 66 58 67 59 68 4 70 2 71 1 73 3 74
REMARK H PARENT 31 24 18 32 20 34 33 36 35 38 37 40 40 44 7 46 44 49 46 52
REMARK H PARENT 48 56 59 69 4 72
REMARK Flexibility Score: inf
ROOT
ATOM      1  C   UNL     1      17.924  29.255  20.244  1.00  0.00     0.272 C 
ATOM      2  C   UNL     1      18.511  30.208  19.243  1.00  0.00     0.113 C 
ATOM      3  C   UNL     1      18.138  31.624  19.378  1.00  0.00     0.145 C 
ATOM      4  C   UNL     1      16.913  31.916  20.238  1.00  0.00     0.142 C 
ATOM      5  C   UNL     1      16.099  30.659  20.249  1.00  0.00     0.178 C 
ATOM      6  O   UNL     1      16.915  29.768  20.997  1.00  0.00    -0.332 OA
ENDROOT
BRANCH   1   7
ATOM      7  O   UNL     1      18.911  28.739  21.112  1.00  0.00    -0.338 OA
BRANCH   7   8
ATOM      8  C   UNL     1      20.193  28.922  20.693  1.00  0.00     0.199 C 
BRANCH   8   9
ATOM      9  C   UNL     1      21.156  28.640  21.858  1.00  0.00     0.179 C 
ATOM     10  C   UNL     1      21.278  26.878  23.341  1.00  0.00     0.282 C 
ATOM     11  O   UNL     1      20.539  28.028  22.918  1.00  0.00    -0.341 OA
ATOM     12  C   UNL     1      21.177  25.930  22.204  1.00  0.00     0.202 C 
ATOM     13  C   UNL     1      22.161  26.443  21.139  1.00  0.00     0.179 C 
ATOM     14  C   UNL     1      22.386  27.916  21.347  1.00  0.00     0.177 C 
BRANCH  10  15
ATOM     15  O   UNL     1      20.769  26.482  24.543  1.00  0.00    -0.341 OA
BRANCH  15  16
ATOM     16  C   UNL     1      21.684  26.547  25.594  1.00  0.00     0.184 C 
ATOM     17  C   UNL     1      22.304  27.913  25.596  1.00  0.00     0.178 C 
ATOM     18  O   UNL     1      23.579  27.880  26.092  1.00  0.00    -0.341 OA
ATOM     19  C   UNL     1      23.823  27.014  27.127  1.00  0.00     0.281 C 
ATOM     20  C   UNL     1      22.787  25.523  25.426  1.00  0.00     0.180 C 
ATOM     21  C   UNL     1      23.622  25.567  26.709  1.00  0.00     0.202 C 
BRANCH  17  22
ATOM     22  C   UNL     1      21.455  28.846  26.439  1.00  0.00     0.191 C 
BRANCH  22  23
ATOM     23  O   UNL     1      20.230  28.957  25.777  1.00  0.00    -0.394 OA
ATOM     24  H   UNL     1      19.742  29.757  26.073  1.00  0.00     0.210 HD
ENDBRANCH  22  23
ENDBRANCH  17  22
BRANCH  19  25
ATOM     25  O   UNL     1      23.092  27.350  28.233  1.00  0.00    -0.350 OA
BRANCH  25  26
ATOM     26  C   UNL     1      23.793  27.318  29.412  1.00  0.00     0.169 C 
BRANCH  26  27
ATOM     27  C   UNL     1      23.631  26.049  30.208  1.00  0.00     0.119 C 
BRANCH  27  28
ATOM     28  N   UNL     1      24.926  25.409  30.449  1.00  0.00    -0.092 NA
ATOM     29  N   UNL     1      25.864  25.807  29.729  1.00  0.00     0.001 N 
ATOM     30  N   UNL     1      26.865  25.690  28.997  1.00  0.00    -0.003 NA
ENDBRANCH  27  28
ENDBRANCH  26  27
ENDBRANCH  25  26
ENDBRANCH  19  25
BRANCH  20  31
ATOM     31  O   UNL     1      22.327  24.237  25.286  1.00  0.00    -0.387 OA
ATOM     32  H   UNL     1      22.965  23.537  25.496  1.00  0.00     0.211 HD
ENDBRANCH  20  31
BRANCH  21  33
ATOM     33  O   UNL     1      24.850  24.962  26.528  1.00  0.00    -0.385 OA
ATOM     34  H   UNL     1      25.499  25.229  27.228  1.00  0.00     0.211 HD
ENDBRANCH  21  33
ENDBRANCH  15  16
ENDBRANCH  10  15
BRANCH  12  35
ATOM     35  O   UNL     1      21.344  24.603  22.476  1.00  0.00    -0.385 OA
ATOM     36  H   UNL     1      22.087  24.470  23.086  1.00  0.00     0.211 HD
ENDBRANCH  12  35
BRANCH  13  37
ATOM     37  O   UNL     1      21.580  26.199  19.904  1.00  0.00    -0.387 OA
ATOM     38  H   UNL     1      21.617  26.990  19.296  1.00  0.00     0.211 HD
ENDBRANCH  13  37
BRANCH  14  39
ATOM     39  O   UNL     1      22.704  28.445  20.096  1.00  0.00    -0.387 OA
ATOM     40  H   UNL     1      23.358  29.180  20.153  1.00  0.00     0.211 HD
ENDBRANCH  14  39
ENDBRANCH   8   9
ENDBRANCH   7   8
ENDBRANCH   1   7
BRANCH   1  41
ATOM     41  C   UNL     1      17.411  28.076  19.508  1.00  0.00     0.364 C 
ATOM     42  O   UNL     1      16.600  27.284  20.025  1.00  0.00    -0.246 OA
BRANCH  41  43
ATOM     43  O   UNL     1      17.808  27.798  18.211  1.00  0.00    -0.477 OA
ATOM     44  H   UNL     1      18.729  27.404  17.982  1.00  0.00     0.296 HD
ENDBRANCH  41  43
ENDBRANCH   1  41
BRANCH   3  45
ATOM     45  O   UNL     1      19.203  32.475  19.693  1.00  0.00    -0.391 OA
ATOM     46  H   UNL     1      19.733  32.179  20.452  1.00  0.00     0.211 HD
ENDBRANCH   3  45
BRANCH   5  47
ATOM     47  C   UNL     1      14.751  30.718  20.883  1.00  0.00     0.176 C 
BRANCH  47  48
ATOM     48  O   UNL     1      14.936  31.557  22.031  1.00  0.00    -0.388 OA
ATOM     49  H   UNL     1      15.904  31.564  22.279  1.00  0.00     0.211 HD
ENDBRANCH  47  48
BRANCH  47  50
ATOM     50  C   UNL     1      14.231  29.383  21.367  1.00  0.00     0.165 C 
BRANCH  50  51
ATOM     51  O   UNL     1      14.095  28.515  20.252  1.00  0.00    -0.388 OA
ATOM     52  H   UNL     1      14.574  28.933  19.504  1.00  0.00     0.211 HD
ENDBRANCH  50  51
BRANCH  50  53
ATOM     53  C   UNL     1      12.936  29.474  22.075  1.00  0.00     0.154 C 
BRANCH  53  54
ATOM     54  N   UNL     1      13.083  29.485  23.502  1.00  0.00    -0.319 N 
ATOM     55  C   UNL     1      12.865  30.572  24.377  1.00  0.00     0.407 C 
ATOM     56  H   UNL     1      13.392  28.587  24.023  1.00  0.00     0.167 HD
ATOM     57  O   UNL     1      12.517  31.679  23.959  1.00  0.00    -0.225 OA
BRANCH  55  58
ATOM     58  O   UNL     1      13.032  30.458  25.761  1.00  0.00    -0.443 OA
BRANCH  58  59
ATOM     59  C   UNL     1      13.612  31.509  26.515  1.00  0.00     0.294 C 
BRANCH  59  60
ATOM     60  C   UNL     1      15.105  31.420  26.478  1.00  0.00     0.120 A 
ATOM     61  C   UNL     1      15.938  31.892  25.474  1.00  0.00     0.139 A 
ATOM     62  N   UNL     1      15.920  30.876  27.394  1.00  0.00    -0.132 NA
ATOM     63  N   UNL     1      17.208  31.617  25.820  1.00  0.00    -0.241 N 
ATOM     64  N   UNL     1      17.172  30.998  26.990  1.00  0.00    -0.066 NA
BRANCH  63  65
ATOM     65  C   UNL     1      18.429  31.929  25.070  1.00  0.00     0.268 C 
BRANCH  65  66
ATOM     66  C   UNL     1      18.505  31.010  23.920  1.00  0.00     0.325 C 
ATOM     67  O   UNL     1      18.140  29.830  24.036  1.00  0.00    -0.250 OA
BRANCH  66  68
ATOM     68  O   UNL     1      18.986  31.466  22.710  1.00  0.00    -0.480 OA
ATOM     69  H   UNL     1      19.955  31.458  22.469  1.00  0.00     0.296 HD
ENDBRANCH  66  68
ENDBRANCH  65  66
ENDBRANCH  63  65
ENDBRANCH  59  60
ENDBRANCH  58  59
ENDBRANCH  55  58
ENDBRANCH  53  54
ENDBRANCH  50  53
ENDBRANCH  47  50
ENDBRANCH   5  47
BRANCH   4  70
ATOM     70  N   UNL     1      16.271  33.118  19.833  1.00  0.00    -0.348 N 
ATOM     71  C   UNL     1      16.138  34.253  20.706  1.00  0.00     0.217 C 
ATOM     72  H   UNL     1      15.886  33.224  18.873  1.00  0.00     0.163 HD
ATOM     73  C   UNL     1      15.456  35.466  20.199  1.00  0.00     0.114 C 
ATOM     74  O   UNL     1      16.589  34.224  21.874  1.00  0.00    -0.275 OA
ENDBRANCH   4  70
TORSDOF 32
