REMARK VINA RESULT:    -5.418     13.616     18.231
REMARK INTER + INTRA:         -21.174
REMARK INTER:                 -13.351
REMARK INTRA:                  -7.823
REMARK UNBOUND:                -7.364
REMARK SMILES CC(=O)N[C@@H]1[C@@H](O)C[C@](OC[C@H]2O[C@@H](O[C@H]3[C@H](O)[C@@H](O)[C@H](OCCN=[N+]=[N-])O[C@@H]3CO)[C@H](O)[C@@H](O)[C@H]2O)(C(=O)O)O[C@H]1C(O)[C@H](O)CNC(=O)OCc1cn([C@@H](C)C(=O)O)nn1
REMARK SMILES IDX 9 1 8 2 6 3 5 4 42 5 41 6 10 7 11 8 12 9 14 10 13 11 32 12
REMARK SMILES IDX 34 13 36 14 15 15 16 16 29 17 28 18 21 19 17 20 19 21 30 22
REMARK SMILES IDX 31 23 22 25 23 26 24 27 25 28 26 29 27 30 18 31 20 33 33 35
REMARK SMILES IDX 35 37 37 39 38 41 39 42 40 43 7 45 43 47 44 48 45 50 46 51
REMARK SMILES IDX 47 53 48 54 49 55 50 57 51 58 52 59 53 60 54 61 62 62 55 63
REMARK SMILES IDX 61 64 56 65 57 66 58 67 59 68 60 69 4 71 2 72 1 74 3 75
REMARK H PARENT 31 24 18 32 20 34 33 36 35 38 37 40 40 44 7 46 44 49 46 52
REMARK H PARENT 48 56 60 70 4 73
REMARK Flexibility Score: inf
ROOT
ATOM      1  C   UNL     1      14.441  30.678  22.232  1.00  0.00     0.272 C 
ATOM      2  C   UNL     1      13.321  30.960  23.156  1.00  0.00     0.113 C 
ATOM      3  C   UNL     1      13.634  32.267  23.849  1.00  0.00     0.145 C 
ATOM      4  C   UNL     1      14.782  31.861  24.841  1.00  0.00     0.142 C 
ATOM      5  C   UNL     1      15.742  30.991  24.185  1.00  0.00     0.178 C 
ATOM      6  O   UNL     1      15.692  30.889  22.820  1.00  0.00    -0.332 OA
ENDROOT
BRANCH   1   7
ATOM      7  O   UNL     1      14.336  31.348  21.053  1.00  0.00    -0.338 OA
BRANCH   7   8
ATOM      8  C   UNL     1      13.539  30.862  20.083  1.00  0.00     0.199 C 
BRANCH   8   9
ATOM      9  C   UNL     1      14.252  30.899  18.708  1.00  0.00     0.179 C 
ATOM     10  C   UNL     1      16.305  31.446  17.805  1.00  0.00     0.282 C 
ATOM     11  O   UNL     1      15.563  31.207  18.957  1.00  0.00    -0.341 OA
ATOM     12  C   UNL     1      15.561  31.089  16.552  1.00  0.00     0.202 C 
ATOM     13  C   UNL     1      14.895  29.733  16.689  1.00  0.00     0.179 C 
ATOM     14  C   UNL     1      14.126  29.598  17.993  1.00  0.00     0.177 C 
BRANCH  10  15
ATOM     15  O   UNL     1      17.515  30.739  17.782  1.00  0.00    -0.341 OA
BRANCH  15  16
ATOM     16  C   UNL     1      18.327  31.074  18.855  1.00  0.00     0.184 C 
ATOM     17  C   UNL     1      19.767  30.915  18.483  1.00  0.00     0.178 C 
ATOM     18  O   UNL     1      20.371  29.846  19.146  1.00  0.00    -0.341 OA
ATOM     19  C   UNL     1      19.626  28.672  18.996  1.00  0.00     0.281 C 
ATOM     20  C   UNL     1      17.972  30.162  20.005  1.00  0.00     0.180 C 
ATOM     21  C   UNL     1      18.339  28.723  19.769  1.00  0.00     0.202 C 
BRANCH  17  22
ATOM     22  C   UNL     1      20.572  32.158  18.784  1.00  0.00     0.191 C 
BRANCH  22  23
ATOM     23  O   UNL     1      20.230  32.717  20.013  1.00  0.00    -0.394 OA
ATOM     24  H   UNL     1      20.993  33.208  20.379  1.00  0.00     0.210 HD
ENDBRANCH  22  23
ENDBRANCH  17  22
BRANCH  19  25
ATOM     25  O   UNL     1      20.409  27.649  19.501  1.00  0.00    -0.350 OA
BRANCH  25  26
ATOM     26  C   UNL     1      20.840  27.985  20.767  1.00  0.00     0.169 C 
BRANCH  26  27
ATOM     27  C   UNL     1      21.668  26.866  21.364  1.00  0.00     0.119 C 
BRANCH  27  28
ATOM     28  N   UNL     1      20.765  25.931  22.031  1.00  0.00    -0.092 NA
ATOM     29  N   UNL     1      21.152  25.151  22.901  1.00  0.00     0.001 N 
ATOM     30  N   UNL     1      21.572  24.602  23.904  1.00  0.00    -0.003 NA
ENDBRANCH  27  28
ENDBRANCH  26  27
ENDBRANCH  25  26
ENDBRANCH  19  25
BRANCH  20  31
ATOM     31  O   UNL     1      18.531  30.591  21.207  1.00  0.00    -0.387 OA
ATOM     32  H   UNL     1      17.870  30.904  21.862  1.00  0.00     0.211 HD
ENDBRANCH  20  31
BRANCH  21  33
ATOM     33  O   UNL     1      17.351  28.091  19.017  1.00  0.00    -0.385 OA
ATOM     34  H   UNL     1      17.493  28.226  18.052  1.00  0.00     0.211 HD
ENDBRANCH  21  33
ENDBRANCH  15  16
ENDBRANCH  10  15
BRANCH  12  35
ATOM     35  O   UNL     1      14.711  32.067  16.096  1.00  0.00    -0.385 OA
ATOM     36  H   UNL     1      14.860  32.921  16.611  1.00  0.00     0.211 HD
ENDBRANCH  12  35
BRANCH  13  37
ATOM     37  O   UNL     1      15.930  28.772  16.674  1.00  0.00    -0.387 OA
ATOM     38  H   UNL     1      15.838  28.142  17.436  1.00  0.00     0.211 HD
ENDBRANCH  13  37
BRANCH  14  39
ATOM     39  O   UNL     1      14.623  28.544  18.757  1.00  0.00    -0.387 OA
ATOM     40  H   UNL     1      14.044  27.747  18.641  1.00  0.00     0.211 HD
ENDBRANCH  14  39
ENDBRANCH   8   9
ENDBRANCH   7   8
ENDBRANCH   1   7
BRANCH   1  41
ATOM     41  C   UNL     1      14.443  29.215  21.967  1.00  0.00     0.364 C 
ATOM     42  O   UNL     1      15.484  28.650  21.602  1.00  0.00    -0.246 OA
BRANCH  41  43
ATOM     43  O   UNL     1      13.293  28.454  22.119  1.00  0.00    -0.477 OA
ATOM     44  H   UNL     1      13.223  27.748  22.867  1.00  0.00     0.296 HD
ENDBRANCH  41  43
ENDBRANCH   1  41
BRANCH   3  45
ATOM     45  O   UNL     1      14.245  33.104  22.924  1.00  0.00    -0.391 OA
ATOM     46  H   UNL     1      14.373  34.013  23.246  1.00  0.00     0.211 HD
ENDBRANCH   3  45
BRANCH   5  47
ATOM     47  C   UNL     1      17.204  31.191  24.553  1.00  0.00     0.176 C 
BRANCH  47  48
ATOM     48  O   UNL     1      17.278  31.099  25.989  1.00  0.00    -0.388 OA
ATOM     49  H   UNL     1      16.719  31.789  26.383  1.00  0.00     0.211 HD
ENDBRANCH  47  48
BRANCH  47  50
ATOM     50  C   UNL     1      17.719  32.591  24.283  1.00  0.00     0.165 C 
BRANCH  50  51
ATOM     51  O   UNL     1      17.249  33.190  23.156  1.00  0.00    -0.388 OA
ATOM     52  H   UNL     1      17.661  32.933  22.301  1.00  0.00     0.211 HD
ENDBRANCH  50  51
BRANCH  50  53
ATOM     53  C   UNL     1      19.184  32.714  24.530  1.00  0.00     0.154 C 
BRANCH  53  54
ATOM     54  N   UNL     1      19.948  31.522  24.527  1.00  0.00    -0.319 N 
ATOM     55  C   UNL     1      20.841  31.074  23.519  1.00  0.00     0.407 C 
ATOM     56  H   UNL     1      19.837  30.890  25.380  1.00  0.00     0.167 HD
ATOM     57  O   UNL     1      21.015  31.771  22.513  1.00  0.00    -0.225 OA
BRANCH  55  58
ATOM     58  O   UNL     1      21.512  29.849  23.677  1.00  0.00    -0.443 OA
BRANCH  58  59
ATOM     59  C   UNL     1      20.920  28.793  24.385  1.00  0.00     0.294 C 
BRANCH  59  60
ATOM     60  C   UNL     1      21.876  28.010  25.176  1.00  0.00     0.120 A 
ATOM     61  C   UNL     1      21.691  27.356  26.374  1.00  0.00     0.139 A 
ATOM     62  N   UNL     1      23.167  27.811  24.799  1.00  0.00    -0.132 NA
ATOM     63  N   UNL     1      22.856  26.786  26.686  1.00  0.00    -0.238 N 
ATOM     64  N   UNL     1      23.748  27.056  25.742  1.00  0.00    -0.066 NA
BRANCH  63  65
ATOM     65  C   UNL     1      23.118  25.995  27.872  1.00  0.00     0.215 C 
ATOM     66  C   UNL     1      21.997  26.162  28.849  1.00  0.00     0.046 C 
BRANCH  65  67
ATOM     67  C   UNL     1      23.295  24.563  27.535  1.00  0.00     0.328 C 
ATOM     68  O   UNL     1      22.514  23.725  28.049  1.00  0.00    -0.250 OA
BRANCH  67  69
ATOM     69  O   UNL     1      24.288  24.118  26.675  1.00  0.00    -0.480 OA
ATOM     70  H   UNL     1      25.202  23.842  27.013  1.00  0.00     0.296 HD
ENDBRANCH  67  69
ENDBRANCH  65  67
ENDBRANCH  63  65
ENDBRANCH  59  60
ENDBRANCH  58  59
ENDBRANCH  55  58
ENDBRANCH  53  54
ENDBRANCH  50  53
ENDBRANCH  47  50
ENDBRANCH   5  47
BRANCH   4  71
ATOM     71  N   UNL     1      14.149  31.338  26.037  1.00  0.00    -0.348 N 
ATOM     72  C   UNL     1      14.366  31.751  27.350  1.00  0.00     0.217 C 
ATOM     73  H   UNL     1      13.449  30.557  25.879  1.00  0.00     0.163 HD
ATOM     74  C   UNL     1      13.655  31.131  28.495  1.00  0.00     0.114 C 
ATOM     75  O   UNL     1      15.181  32.665  27.571  1.00  0.00    -0.275 OA
ENDBRANCH   4  71
TORSDOF 32
