REMARK VINA RESULT:    -5.393      5.511     10.428
REMARK INTER + INTRA:         -22.468
REMARK INTER:                 -15.377
REMARK INTRA:                  -7.091
REMARK UNBOUND:                -8.562
REMARK SMILES CC(=O)N[C@@H]1[C@@H](O)C[C@](OC[C@H]2O[C@@H](O[C@H]3[C@H](O)[C@@H](O)[C@H](OCCN=[N+]=[N-])O[C@@H]3CO)[C@H](O)[C@@H](O)[C@H]2O)(C(=O)O)O[C@H]1C(O)[C@H](O)CNC(=O)OCc1cn(Cc2ccc(C#N)cc2)nn1
REMARK SMILES IDX 9 1 8 2 6 3 5 4 42 5 41 6 10 7 11 8 12 9 14 10 13 11 32 12
REMARK SMILES IDX 34 13 36 14 15 15 16 16 29 17 28 18 21 19 17 20 19 21 30 22
REMARK SMILES IDX 31 23 22 25 23 26 24 27 25 28 26 29 27 30 18 31 20 33 33 35
REMARK SMILES IDX 35 37 37 39 38 41 39 42 40 43 7 45 43 47 44 48 45 50 46 51
REMARK SMILES IDX 47 53 48 54 49 55 50 57 51 58 52 59 53 60 54 61 66 62 55 63
REMARK SMILES IDX 65 64 56 65 57 66 58 67 64 68 59 69 63 70 60 71 61 72 62 73
REMARK SMILES IDX 4 74 2 75 1 77 3 78
REMARK H PARENT 31 24 18 32 20 34 33 36 35 38 37 40 40 44 7 46 44 49 46 52
REMARK H PARENT 48 56 4 76
REMARK Flexibility Score: inf
ROOT
ATOM      1  C   UNL     1      22.354  26.482  25.665  1.00  0.00     0.272 C 
ATOM      2  C   UNL     1      22.412  25.040  26.029  1.00  0.00     0.113 C 
ATOM      3  C   UNL     1      23.580  24.294  25.490  1.00  0.00     0.145 C 
ATOM      4  C   UNL     1      23.975  24.941  24.152  1.00  0.00     0.142 C 
ATOM      5  C   UNL     1      22.724  25.553  23.599  1.00  0.00     0.178 C 
ATOM      6  O   UNL     1      22.420  26.698  24.279  1.00  0.00    -0.332 OA
ENDROOT
BRANCH   1   7
ATOM      7  O   UNL     1      23.243  27.309  26.317  1.00  0.00    -0.338 OA
BRANCH   7   8
ATOM      8  C   UNL     1      23.427  28.522  25.745  1.00  0.00     0.199 C 
BRANCH   8   9
ATOM      9  C   UNL     1      24.762  29.163  26.162  1.00  0.00     0.179 C 
ATOM     10  C   UNL     1      26.302  29.051  27.878  1.00  0.00     0.282 C 
ATOM     11  O   UNL     1      25.019  28.705  27.455  1.00  0.00    -0.341 OA
ATOM     12  C   UNL     1      27.380  28.452  27.035  1.00  0.00     0.202 C 
ATOM     13  C   UNL     1      26.756  27.680  25.897  1.00  0.00     0.179 C 
ATOM     14  C   UNL     1      25.810  28.652  25.208  1.00  0.00     0.177 C 
BRANCH  10  15
ATOM     15  O   UNL     1      26.443  28.564  29.175  1.00  0.00    -0.341 OA
BRANCH  15  16
ATOM     16  C   UNL     1      25.442  27.665  29.538  1.00  0.00     0.184 C 
ATOM     17  C   UNL     1      24.694  28.195  30.708  1.00  0.00     0.178 C 
ATOM     18  O   UNL     1      25.079  27.736  31.935  1.00  0.00    -0.341 OA
ATOM     19  C   UNL     1      26.242  27.009  31.982  1.00  0.00     0.281 C 
ATOM     20  C   UNL     1      25.947  26.265  29.678  1.00  0.00     0.180 C 
ATOM     21  C   UNL     1      26.090  25.791  31.099  1.00  0.00     0.202 C 
BRANCH  17  22
ATOM     22  C   UNL     1      23.196  28.015  30.470  1.00  0.00     0.191 C 
BRANCH  22  23
ATOM     23  O   UNL     1      23.028  27.576  29.157  1.00  0.00    -0.394 OA
ATOM     24  H   UNL     1      22.262  26.928  29.088  1.00  0.00     0.210 HD
ENDBRANCH  22  23
ENDBRANCH  17  22
BRANCH  19  25
ATOM     25  O   UNL     1      26.370  26.557  33.312  1.00  0.00    -0.350 OA
BRANCH  25  26
ATOM     26  C   UNL     1      25.137  26.542  33.948  1.00  0.00     0.169 C 
BRANCH  26  27
ATOM     27  C   UNL     1      25.304  26.382  35.446  1.00  0.00     0.119 C 
BRANCH  27  28
ATOM     28  N   UNL     1      24.056  26.046  36.105  1.00  0.00    -0.092 NA
ATOM     29  N   UNL     1      23.846  24.902  36.474  1.00  0.00     0.001 N 
ATOM     30  N   UNL     1      23.627  23.967  37.260  1.00  0.00    -0.003 NA
ENDBRANCH  27  28
ENDBRANCH  26  27
ENDBRANCH  25  26
ENDBRANCH  19  25
BRANCH  20  31
ATOM     31  O   UNL     1      25.219  25.343  28.916  1.00  0.00    -0.387 OA
ATOM     32  H   UNL     1      25.107  24.489  29.428  1.00  0.00     0.211 HD
ENDBRANCH  20  31
BRANCH  21  33
ATOM     33  O   UNL     1      27.177  24.927  31.253  1.00  0.00    -0.385 OA
ATOM     34  H   UNL     1      27.104  24.539  32.164  1.00  0.00     0.211 HD
ENDBRANCH  21  33
ENDBRANCH  15  16
ENDBRANCH  10  15
BRANCH  12  35
ATOM     35  O   UNL     1      28.272  29.360  26.510  1.00  0.00    -0.385 OA
ATOM     36  H   UNL     1      28.572  29.989  27.225  1.00  0.00     0.211 HD
ENDBRANCH  12  35
BRANCH  13  37
ATOM     37  O   UNL     1      26.094  26.584  26.427  1.00  0.00    -0.387 OA
ATOM     38  H   UNL     1      25.443  26.164  25.825  1.00  0.00     0.211 HD
ENDBRANCH  13  37
BRANCH  14  39
ATOM     39  O   UNL     1      25.283  28.165  24.037  1.00  0.00    -0.387 OA
ATOM     40  H   UNL     1      25.963  27.648  23.553  1.00  0.00     0.211 HD
ENDBRANCH  14  39
ENDBRANCH   8   9
ENDBRANCH   7   8
ENDBRANCH   1   7
BRANCH   1  41
ATOM     41  C   UNL     1      20.968  26.947  26.010  1.00  0.00     0.364 C 
ATOM     42  O   UNL     1      20.671  27.199  27.181  1.00  0.00    -0.246 OA
BRANCH  41  43
ATOM     43  O   UNL     1      20.048  27.084  24.997  1.00  0.00    -0.477 OA
ATOM     44  H   UNL     1      20.236  27.554  24.121  1.00  0.00     0.296 HD
ENDBRANCH  41  43
ENDBRANCH   1  41
BRANCH   3  45
ATOM     45  O   UNL     1      24.642  24.127  26.333  1.00  0.00    -0.391 OA
ATOM     46  H   UNL     1      24.388  23.622  27.132  1.00  0.00     0.211 HD
ENDBRANCH   3  45
BRANCH   5  47
ATOM     47  C   UNL     1      22.794  25.803  22.087  1.00  0.00     0.176 C 
BRANCH  47  48
ATOM     48  O   UNL     1      22.112  24.704  21.514  1.00  0.00    -0.388 OA
ATOM     49  H   UNL     1      22.626  24.408  20.722  1.00  0.00     0.211 HD
ENDBRANCH  47  48
BRANCH  47  50
ATOM     50  C   UNL     1      22.113  27.041  21.704  1.00  0.00     0.165 C 
BRANCH  50  51
ATOM     51  O   UNL     1      20.706  26.836  21.580  1.00  0.00    -0.388 OA
ATOM     52  H   UNL     1      20.319  27.400  22.320  1.00  0.00     0.211 HD
ENDBRANCH  50  51
BRANCH  50  53
ATOM     53  C   UNL     1      22.609  27.757  20.511  1.00  0.00     0.154 C 
BRANCH  53  54
ATOM     54  N   UNL     1      22.668  27.168  19.246  1.00  0.00    -0.319 N 
ATOM     55  C   UNL     1      23.646  26.329  18.680  1.00  0.00     0.407 C 
ATOM     56  H   UNL     1      21.845  27.373  18.579  1.00  0.00     0.167 HD
ATOM     57  O   UNL     1      24.657  25.952  19.288  1.00  0.00    -0.225 OA
BRANCH  55  58
ATOM     58  O   UNL     1      23.519  25.860  17.363  1.00  0.00    -0.443 OA
BRANCH  58  59
ATOM     59  C   UNL     1      22.970  24.576  17.117  1.00  0.00     0.294 C 
BRANCH  59  60
ATOM     60  C   UNL     1      24.018  23.746  16.423  1.00  0.00     0.120 A 
ATOM     61  C   UNL     1      25.375  23.885  16.628  1.00  0.00     0.138 A 
ATOM     62  N   UNL     1      23.871  22.768  15.510  1.00  0.00    -0.132 NA
ATOM     63  N   UNL     1      26.011  22.986  15.832  1.00  0.00    -0.248 N 
ATOM     64  N   UNL     1      25.079  22.356  15.196  1.00  0.00    -0.067 NA
BRANCH  63  65
ATOM     65  C   UNL     1      27.460  22.875  15.784  1.00  0.00     0.181 C 
BRANCH  65  66
ATOM     66  C   UNL     1      27.798  21.824  16.813  1.00  0.00    -0.026 A 
ATOM     67  C   UNL     1      27.852  22.200  18.132  1.00  0.00     0.007 A 
ATOM     68  C   UNL     1      28.046  20.510  16.412  1.00  0.00     0.007 A 
ATOM     69  C   UNL     1      28.156  21.312  19.138  1.00  0.00     0.020 A 
ATOM     70  C   UNL     1      28.349  19.624  17.416  1.00  0.00     0.020 A 
ATOM     71  C   UNL     1      28.403  20.001  18.718  1.00  0.00     0.052 A 
BRANCH  71  72
ATOM     72  C   UNL     1      28.747  19.044  19.764  1.00  0.00     0.099 C 
ATOM     73  N   UNL     1      29.035  18.294  20.606  1.00  0.00    -0.192 NA
ENDBRANCH  71  72
ENDBRANCH  65  66
ENDBRANCH  63  65
ENDBRANCH  59  60
ENDBRANCH  58  59
ENDBRANCH  55  58
ENDBRANCH  53  54
ENDBRANCH  50  53
ENDBRANCH  47  50
ENDBRANCH   5  47
BRANCH   4  74
ATOM     74  N   UNL     1      24.600  23.964  23.295  1.00  0.00    -0.348 N 
ATOM     75  C   UNL     1      25.744  24.348  22.547  1.00  0.00     0.217 C 
ATOM     76  H   UNL     1      24.251  22.998  23.205  1.00  0.00     0.163 HD
ATOM     77  C   UNL     1      26.437  23.405  21.651  1.00  0.00     0.114 C 
ATOM     78  O   UNL     1      26.213  25.533  22.627  1.00  0.00    -0.275 OA
ENDBRANCH   4  74
TORSDOF 32
