REMARK VINA RESULT:    -6.575     14.652     21.685
REMARK INTER + INTRA:         -23.986
REMARK INTER:                 -15.922
REMARK INTRA:                  -8.064
REMARK UNBOUND:                -7.033
REMARK SMILES CC(=O)N[C@@H]1[C@@H](O)C[C@](OC[C@H]2O[C@@H](O[C@H]3[C@H](O)[C@@H](O)[C@H](OCCN=[N+]=[N-])O[C@@H]3CO)[C@H](O)[C@@H](O)[C@H]2O)(C(=O)O)O[C@H]1C(O)[C@H](O)CNC(=O)OCc1cn(C(C)(C)C(=O)c2c[nH]c3ccccc23)nn1
REMARK SMILES IDX 9 1 8 2 6 3 5 4 42 5 41 6 10 7 11 8 12 9 14 10 13 11 32 12
REMARK SMILES IDX 34 13 36 14 15 15 16 16 29 17 28 18 21 19 17 20 19 21 30 22
REMARK SMILES IDX 31 23 22 25 23 26 24 27 25 28 26 29 27 30 18 31 20 33 33 35
REMARK SMILES IDX 35 37 37 39 38 41 39 42 40 43 7 45 43 47 44 48 45 50 46 51
REMARK SMILES IDX 47 53 48 54 49 55 50 57 51 58 52 59 53 60 54 61 71 62 55 63
REMARK SMILES IDX 70 64 56 65 57 66 58 67 59 68 60 69 61 70 62 71 69 72 63 73
REMARK SMILES IDX 64 74 68 75 65 77 67 78 66 79 4 80 2 81 1 83 3 84
REMARK H PARENT 31 24 18 32 20 34 33 36 35 38 37 40 40 44 7 46 44 49 46 52
REMARK H PARENT 48 56 63 76 4 82
REMARK Flexibility Score: inf
ROOT
ATOM      1  C   UNL     1       4.283  23.672  33.763  1.00  0.00     0.272 C 
ATOM      2  C   UNL     1       3.989  22.182  33.752  1.00  0.00     0.113 C 
ATOM      3  C   UNL     1       4.398  21.541  32.449  1.00  0.00     0.145 C 
ATOM      4  C   UNL     1       3.452  22.078  31.319  1.00  0.00     0.142 C 
ATOM      5  C   UNL     1       3.198  23.506  31.677  1.00  0.00     0.178 C 
ATOM      6  O   UNL     1       4.243  24.025  32.412  1.00  0.00    -0.332 OA
ENDROOT
BRANCH   1   7
ATOM      7  O   UNL     1       5.409  24.072  34.361  1.00  0.00    -0.338 OA
BRANCH   7   8
ATOM      8  C   UNL     1       6.363  24.893  34.076  1.00  0.00     0.199 C 
BRANCH   8   9
ATOM      9  C   UNL     1       6.286  26.247  34.784  1.00  0.00     0.179 C 
ATOM     10  C   UNL     1       8.555  26.927  34.669  1.00  0.00     0.282 C 
ATOM     11  O   UNL     1       7.463  26.562  35.373  1.00  0.00    -0.341 OA
ATOM     12  C   UNL     1       8.276  27.899  33.556  1.00  0.00     0.202 C 
ATOM     13  C   UNL     1       6.838  28.398  33.655  1.00  0.00     0.179 C 
ATOM     14  C   UNL     1       5.865  27.289  33.784  1.00  0.00     0.177 C 
BRANCH  10  15
ATOM     15  O   UNL     1       9.189  25.816  34.141  1.00  0.00    -0.341 OA
BRANCH  15  16
ATOM     16  C   UNL     1      10.036  25.197  35.015  1.00  0.00     0.184 C 
ATOM     17  C   UNL     1      11.496  25.367  34.799  1.00  0.00     0.178 C 
ATOM     18  O   UNL     1      12.120  25.047  36.022  1.00  0.00    -0.341 OA
ATOM     19  C   UNL     1      11.930  23.754  36.416  1.00  0.00     0.281 C 
ATOM     20  C   UNL     1       9.771  23.711  35.151  1.00  0.00     0.180 C 
ATOM     21  C   UNL     1      10.490  23.287  36.413  1.00  0.00     0.202 C 
BRANCH  17  22
ATOM     22  C   UNL     1      11.926  26.787  34.490  1.00  0.00     0.191 C 
BRANCH  22  23
ATOM     23  O   UNL     1      11.656  27.014  33.135  1.00  0.00    -0.394 OA
ATOM     24  H   UNL     1      12.057  27.850  32.802  1.00  0.00     0.210 HD
ENDBRANCH  22  23
ENDBRANCH  17  22
BRANCH  19  25
ATOM     25  O   UNL     1      12.362  23.646  37.742  1.00  0.00    -0.350 OA
BRANCH  25  26
ATOM     26  C   UNL     1      11.910  24.749  38.441  1.00  0.00     0.169 C 
BRANCH  26  27
ATOM     27  C   UNL     1      11.016  24.377  39.593  1.00  0.00     0.119 C 
BRANCH  27  28
ATOM     28  N   UNL     1      11.177  23.006  40.026  1.00  0.00    -0.092 NA
ATOM     29  N   UNL     1      10.255  22.177  39.888  1.00  0.00     0.001 N 
ATOM     30  N   UNL     1       9.555  21.344  39.308  1.00  0.00    -0.003 NA
ENDBRANCH  27  28
ENDBRANCH  26  27
ENDBRANCH  25  26
ENDBRANCH  19  25
BRANCH  20  31
ATOM     31  O   UNL     1       8.434  23.408  35.252  1.00  0.00    -0.387 OA
ATOM     32  H   UNL     1       8.075  23.857  36.047  1.00  0.00     0.211 HD
ENDBRANCH  20  31
BRANCH  21  33
ATOM     33  O   UNL     1      10.510  21.894  36.443  1.00  0.00    -0.385 OA
ATOM     34  H   UNL     1      11.277  21.520  35.928  1.00  0.00     0.211 HD
ENDBRANCH  21  33
ENDBRANCH  15  16
ENDBRANCH  10  15
BRANCH  12  35
ATOM     35  O   UNL     1       9.162  28.975  33.512  1.00  0.00    -0.385 OA
ATOM     36  H   UNL     1       8.715  29.748  33.106  1.00  0.00     0.211 HD
ENDBRANCH  12  35
BRANCH  13  37
ATOM     37  O   UNL     1       6.628  29.131  32.463  1.00  0.00    -0.387 OA
ATOM     38  H   UNL     1       7.488  29.394  32.055  1.00  0.00     0.211 HD
ENDBRANCH  13  37
BRANCH  14  39
ATOM     39  O   UNL     1       5.702  26.624  32.542  1.00  0.00    -0.387 OA
ATOM     40  H   UNL     1       6.584  26.559  32.090  1.00  0.00     0.211 HD
ENDBRANCH  14  39
ENDBRANCH   8   9
ENDBRANCH   7   8
ENDBRANCH   1   7
BRANCH   1  41
ATOM     41  C   UNL     1       3.169  24.340  34.471  1.00  0.00     0.364 C 
ATOM     42  O   UNL     1       2.867  25.518  34.150  1.00  0.00    -0.246 OA
BRANCH  41  43
ATOM     43  O   UNL     1       2.443  23.758  35.462  1.00  0.00    -0.477 OA
ATOM     44  H   UNL     1       1.431  23.771  35.569  1.00  0.00     0.296 HD
ENDBRANCH  41  43
ENDBRANCH   1  41
BRANCH   3  45
ATOM     45  O   UNL     1       5.654  21.865  31.994  1.00  0.00    -0.391 OA
ATOM     46  H   UNL     1       5.907  22.816  32.170  1.00  0.00     0.211 HD
ENDBRANCH   3  45
BRANCH   5  47
ATOM     47  C   UNL     1       2.946  24.457  30.566  1.00  0.00     0.176 C 
BRANCH  47  48
ATOM     48  O   UNL     1       3.948  25.384  30.392  1.00  0.00    -0.388 OA
ATOM     49  H   UNL     1       4.452  25.617  31.222  1.00  0.00     0.211 HD
ENDBRANCH  47  48
BRANCH  47  50
ATOM     50  C   UNL     1       2.412  23.873  29.276  1.00  0.00     0.165 C 
BRANCH  50  51
ATOM     51  O   UNL     1       3.299  23.920  28.251  1.00  0.00    -0.388 OA
ATOM     52  H   UNL     1       3.563  24.821  28.014  1.00  0.00     0.211 HD
ENDBRANCH  50  51
BRANCH  50  53
ATOM     53  C   UNL     1       1.052  24.439  29.031  1.00  0.00     0.154 C 
BRANCH  53  54
ATOM     54  N   UNL     1       0.804  25.762  29.465  1.00  0.00    -0.319 N 
ATOM     55  C   UNL     1      -0.024  26.094  30.593  1.00  0.00     0.407 C 
ATOM     56  H   UNL     1       1.240  26.587  28.951  1.00  0.00     0.167 HD
ATOM     57  O   UNL     1      -0.604  25.212  31.259  1.00  0.00    -0.225 OA
BRANCH  55  58
ATOM     58  O   UNL     1      -0.205  27.410  30.975  1.00  0.00    -0.443 OA
BRANCH  58  59
ATOM     59  C   UNL     1       0.564  28.006  31.980  1.00  0.00     0.294 C 
BRANCH  59  60
ATOM     60  C   UNL     1       1.892  28.371  31.394  1.00  0.00     0.120 A 
ATOM     61  C   UNL     1       2.088  29.279  30.337  1.00  0.00     0.139 A 
ATOM     62  N   UNL     1       3.126  27.940  31.685  1.00  0.00    -0.132 NA
ATOM     63  N   UNL     1       3.392  29.352  30.043  1.00  0.00    -0.239 N 
ATOM     64  N   UNL     1       4.009  28.538  30.866  1.00  0.00    -0.066 NA
BRANCH  63  65
ATOM     65  C   UNL     1       3.966  30.187  29.009  1.00  0.00     0.122 C 
ATOM     66  C   UNL     1       5.453  30.446  29.434  1.00  0.00     0.046 C 
ATOM     67  C   UNL     1       3.374  31.575  28.954  1.00  0.00     0.046 C 
BRANCH  65  68
ATOM     68  C   UNL     1       4.016  29.519  27.723  1.00  0.00     0.192 C 
ATOM     69  O   UNL     1       3.045  29.846  26.912  1.00  0.00    -0.291 OA
BRANCH  68  70
ATOM     70  C   UNL     1       4.943  28.566  27.195  1.00  0.00     0.045 A 
ATOM     71  C   UNL     1       4.916  27.201  27.511  1.00  0.00     0.095 A 
ATOM     72  C   UNL     1       6.012  28.746  26.341  1.00  0.00     0.010 A 
ATOM     73  N   UNL     1       5.915  26.618  26.878  1.00  0.00    -0.360 N 
ATOM     74  C   UNL     1       6.612  27.497  26.157  1.00  0.00     0.046 A 
ATOM     75  C   UNL     1       6.560  29.818  25.691  1.00  0.00     0.011 A 
ATOM     76  H   UNL     1       6.114  25.580  26.952  1.00  0.00     0.166 HD
ATOM     77  C   UNL     1       7.722  27.346  25.345  1.00  0.00     0.027 A 
ATOM     78  C   UNL     1       7.679  29.661  24.875  1.00  0.00     0.001 A 
ATOM     79  C   UNL     1       8.248  28.433  24.709  1.00  0.00     0.002 A 
ENDBRANCH  68  70
ENDBRANCH  65  68
ENDBRANCH  63  65
ENDBRANCH  59  60
ENDBRANCH  58  59
ENDBRANCH  55  58
ENDBRANCH  53  54
ENDBRANCH  50  53
ENDBRANCH  47  50
ENDBRANCH   5  47
BRANCH   4  80
ATOM     80  N   UNL     1       2.248  21.274  31.509  1.00  0.00    -0.348 N 
ATOM     81  C   UNL     1       2.097  19.948  31.030  1.00  0.00     0.217 C 
ATOM     82  H   UNL     1       1.433  21.697  32.030  1.00  0.00     0.163 HD
ATOM     83  C   UNL     1       0.867  19.135  31.222  1.00  0.00     0.114 C 
ATOM     84  O   UNL     1       3.096  19.457  30.401  1.00  0.00    -0.275 OA
ENDBRANCH   4  80
TORSDOF 32
