REMARK VINA RESULT:    -5.592      0.000      0.000
REMARK INTER + INTRA:         -24.205
REMARK INTER:                 -16.442
REMARK INTRA:                  -7.763
REMARK UNBOUND:                -9.623
REMARK SMILES CC(=O)N[C@@H]1[C@@H](O)C[C@](OC[C@H]2O[C@@H](O[C@H]3[C@H](O)[C@@H](O)[C@H](OCCN=[N+]=[N-])O[C@@H]3CO)[C@H](O)[C@@H](O)[C@H]2O)(C(=O)O)O[C@H]1C(O)[C@H](O)CNC(=O)OCc1cn(Cc2ccc(C(=O)O)cc2)nn1
REMARK SMILES IDX 43 1 42 2 9 3 8 4 41 5 6 6 5 7 10 8 11 9 12 10 14 11 13 12
REMARK SMILES IDX 32 13 34 14 36 15 15 16 16 17 29 18 28 19 21 20 17 21 19 22
REMARK SMILES IDX 30 23 31 24 22 26 23 27 24 28 25 29 26 30 27 31 18 32 20 34
REMARK SMILES IDX 33 36 35 38 37 40 38 42 39 43 40 44 7 46 4 48 2 49 1 51 3 52
REMARK SMILES IDX 44 53 45 55 46 56 47 58 48 59 49 60 50 62 51 63 52 64 53 65
REMARK SMILES IDX 54 66 67 67 55 68 66 69 56 70 57 71 58 72 65 73 59 74 64 75
REMARK SMILES IDX 60 76 61 77 62 78 63 79
REMARK H PARENT 31 25 18 33 20 35 33 37 35 39 37 41 40 45 7 47 4 50 44 54
REMARK H PARENT 46 57 48 61 63 80
REMARK Flexibility Score: inf
ROOT
ATOM      1  C   UNL     1      19.002  29.676  20.164  1.00  0.00     0.176 C 
ENDROOT
BRANCH   1   2
ATOM      2  C   UNL     1      17.725  29.927  19.333  1.00  0.00     0.178 C 
ATOM      3  C   UNL     1      15.447  30.014  19.969  1.00  0.00     0.272 C 
ATOM      4  C   UNL     1      15.177  28.931  19.002  1.00  0.00     0.113 C 
ATOM      5  O   UNL     1      16.775  30.242  20.225  1.00  0.00    -0.332 OA
ATOM      6  C   UNL     1      16.323  27.952  18.861  1.00  0.00     0.145 C 
ATOM      7  C   UNL     1      17.528  28.753  18.464  1.00  0.00     0.142 C 
BRANCH   3   8
ATOM      8  O   UNL     1      14.879  29.754  21.188  1.00  0.00    -0.338 OA
BRANCH   8   9
ATOM      9  C   UNL     1      13.679  29.141  21.260  1.00  0.00     0.199 C 
BRANCH   9  10
ATOM     10  C   UNL     1      13.058  29.352  22.662  1.00  0.00     0.179 C 
ATOM     11  C   UNL     1      13.663  29.933  24.836  1.00  0.00     0.282 C 
ATOM     12  O   UNL     1      14.066  29.534  23.563  1.00  0.00    -0.341 OA
ATOM     13  C   UNL     1      12.194  29.873  25.058  1.00  0.00     0.202 C 
ATOM     14  C   UNL     1      11.519  30.709  23.992  1.00  0.00     0.179 C 
ATOM     15  C   UNL     1      12.090  30.506  22.623  1.00  0.00     0.177 C 
BRANCH  11  16
ATOM     16  O   UNL     1      14.150  31.221  25.054  1.00  0.00    -0.341 OA
BRANCH  16  17
ATOM     17  C   UNL     1      15.511  31.246  25.145  1.00  0.00     0.184 C 
ATOM     18  C   UNL     1      15.994  31.686  26.478  1.00  0.00     0.178 C 
ATOM     19  O   UNL     1      17.368  31.442  26.623  1.00  0.00    -0.341 OA
ATOM     20  C   UNL     1      18.060  31.780  25.457  1.00  0.00     0.281 C 
ATOM     21  C   UNL     1      16.001  32.240  24.075  1.00  0.00     0.180 C 
ATOM     22  C   UNL     1      17.334  32.753  24.577  1.00  0.00     0.202 C 
BRANCH  18  23
ATOM     23  C   UNL     1      15.279  30.947  27.575  1.00  0.00     0.191 C 
BRANCH  23  24
ATOM     24  O   UNL     1      14.188  31.768  27.942  1.00  0.00    -0.394 OA
ATOM     25  H   UNL     1      13.514  31.244  28.415  1.00  0.00     0.210 HD
ENDBRANCH  23  24
ENDBRANCH  18  23
BRANCH  20  26
ATOM     26  O   UNL     1      18.406  30.628  24.791  1.00  0.00    -0.350 OA
BRANCH  26  27
ATOM     27  C   UNL     1      19.728  30.542  24.417  1.00  0.00     0.169 C 
BRANCH  27  28
ATOM     28  C   UNL     1      20.609  29.764  25.336  1.00  0.00     0.119 C 
BRANCH  28  29
ATOM     29  N   UNL     1      20.430  28.346  24.987  1.00  0.00    -0.092 NA
ATOM     30  N   UNL     1      20.812  27.875  23.921  1.00  0.00     0.001 N 
ATOM     31  N   UNL     1      21.157  27.674  22.762  1.00  0.00    -0.003 NA
ENDBRANCH  28  29
ENDBRANCH  27  28
ENDBRANCH  26  27
ENDBRANCH  20  26
BRANCH  21  32
ATOM     32  O   UNL     1      16.120  31.611  22.855  1.00  0.00    -0.387 OA
ATOM     33  H   UNL     1      15.380  30.936  22.712  1.00  0.00     0.211 HD
ENDBRANCH  21  32
BRANCH  22  34
ATOM     34  O   UNL     1      17.161  33.975  25.184  1.00  0.00    -0.385 OA
ATOM     35  H   UNL     1      17.560  34.016  26.072  1.00  0.00     0.211 HD
ENDBRANCH  22  34
ENDBRANCH  16  17
ENDBRANCH  11  16
BRANCH  13  36
ATOM     36  O   UNL     1      11.711  28.556  25.015  1.00  0.00    -0.385 OA
ATOM     37  H   UNL     1      11.707  28.298  24.054  1.00  0.00     0.211 HD
ENDBRANCH  13  36
BRANCH  14  38
ATOM     38  O   UNL     1      11.557  32.067  24.311  1.00  0.00    -0.387 OA
ATOM     39  H   UNL     1      11.466  32.585  23.463  1.00  0.00     0.211 HD
ENDBRANCH  14  38
BRANCH  15  40
ATOM     40  O   UNL     1      12.692  31.668  22.122  1.00  0.00    -0.387 OA
ATOM     41  H   UNL     1      12.899  32.245  22.902  1.00  0.00     0.211 HD
ENDBRANCH  15  40
ENDBRANCH   9  10
ENDBRANCH   8   9
ENDBRANCH   3   8
BRANCH   3  42
ATOM     42  C   UNL     1      14.918  31.305  19.394  1.00  0.00     0.364 C 
ATOM     43  O   UNL     1      14.653  31.401  18.170  1.00  0.00    -0.246 OA
BRANCH  42  44
ATOM     44  O   UNL     1      14.704  32.421  20.187  1.00  0.00    -0.477 OA
ATOM     45  H   UNL     1      15.421  33.162  20.155  1.00  0.00     0.296 HD
ENDBRANCH  42  44
ENDBRANCH   3  42
BRANCH   6  46
ATOM     46  O   UNL     1      16.454  27.288  20.061  1.00  0.00    -0.391 OA
ATOM     47  H   UNL     1      17.312  27.539  20.492  1.00  0.00     0.211 HD
ENDBRANCH   6  46
BRANCH   7  48
ATOM     48  N   UNL     1      17.350  29.193  17.086  1.00  0.00    -0.348 N 
ATOM     49  C   UNL     1      18.238  28.756  16.042  1.00  0.00     0.217 C 
ATOM     50  H   UNL     1      16.593  29.835  16.768  1.00  0.00     0.163 HD
ATOM     51  C   UNL     1      18.022  29.230  14.639  1.00  0.00     0.114 C 
ATOM     52  O   UNL     1      19.170  27.989  16.337  1.00  0.00    -0.275 OA
ENDBRANCH   7  48
ENDBRANCH   1   2
BRANCH   1  53
ATOM     53  O   UNL     1      18.778  29.042  21.342  1.00  0.00    -0.388 OA
ATOM     54  H   UNL     1      19.354  29.295  22.097  1.00  0.00     0.211 HD
ENDBRANCH   1  53
BRANCH   1  55
ATOM     55  C   UNL     1      20.083  29.036  19.326  1.00  0.00     0.165 C 
BRANCH  55  56
ATOM     56  O   UNL     1      20.626  27.993  20.007  1.00  0.00    -0.388 OA
ATOM     57  H   UNL     1      21.600  27.977  20.074  1.00  0.00     0.211 HD
ENDBRANCH  55  56
BRANCH  55  58
ATOM     58  C   UNL     1      20.986  30.073  18.779  1.00  0.00     0.154 C 
BRANCH  58  59
ATOM     59  N   UNL     1      22.371  29.713  18.902  1.00  0.00    -0.319 N 
ATOM     60  C   UNL     1      23.253  30.256  19.863  1.00  0.00     0.407 C 
ATOM     61  H   UNL     1      22.785  28.997  18.242  1.00  0.00     0.167 HD
ATOM     62  O   UNL     1      22.885  31.103  20.691  1.00  0.00    -0.225 OA
BRANCH  60  63
ATOM     63  O   UNL     1      24.607  29.877  19.954  1.00  0.00    -0.443 OA
BRANCH  63  64
ATOM     64  C   UNL     1      25.047  29.095  21.050  1.00  0.00     0.294 C 
BRANCH  64  65
ATOM     65  C   UNL     1      24.470  27.739  21.050  1.00  0.00     0.120 A 
ATOM     66  C   UNL     1      24.712  26.686  21.889  1.00  0.00     0.138 A 
ATOM     67  N   UNL     1      23.571  27.306  20.146  1.00  0.00    -0.132 NA
ATOM     68  N   UNL     1      23.957  25.647  21.471  1.00  0.00    -0.248 N 
ATOM     69  N   UNL     1      23.275  26.048  20.414  1.00  0.00    -0.067 NA
BRANCH  68  70
ATOM     70  C   UNL     1      23.930  24.347  22.090  1.00  0.00     0.181 C 
BRANCH  70  71
ATOM     71  C   UNL     1      23.619  24.460  23.529  1.00  0.00    -0.026 A 
ATOM     72  C   UNL     1      24.635  24.407  24.459  1.00  0.00     0.006 A 
ATOM     73  C   UNL     1      22.301  24.601  23.954  1.00  0.00     0.006 A 
ATOM     74  C   UNL     1      24.273  24.501  25.791  1.00  0.00     0.016 A 
ATOM     75  C   UNL     1      21.947  24.692  25.281  1.00  0.00     0.016 A 
ATOM     76  C   UNL     1      22.964  24.640  26.207  1.00  0.00     0.059 A 
BRANCH  76  77
ATOM     77  C   UNL     1      22.649  24.727  27.624  1.00  0.00     0.335 C 
ATOM     78  O   UNL     1      22.140  25.757  28.088  1.00  0.00    -0.246 OA
BRANCH  77  79
ATOM     79  O   UNL     1      22.919  23.660  28.451  1.00  0.00    -0.478 OA
ATOM     80  H   UNL     1      23.831  23.526  28.885  1.00  0.00     0.297 HD
ENDBRANCH  77  79
ENDBRANCH  76  77
ENDBRANCH  70  71
ENDBRANCH  68  70
ENDBRANCH  64  65
ENDBRANCH  63  64
ENDBRANCH  60  63
ENDBRANCH  58  59
ENDBRANCH  55  58
ENDBRANCH   1  55
TORSDOF 33
