REMARK VINA RESULT:    -4.727      4.332      8.455
REMARK INTER + INTRA:         -21.027
REMARK INTER:                 -13.879
REMARK INTRA:                  -7.148
REMARK UNBOUND:                -9.390
REMARK SMILES CC(=O)N[C@@H]1[C@@H](O)C[C@](OC[C@H]2O[C@@H](O[C@H]3[C@H](O)[C@@H](O)[C@H](OCCN=[N+]=[N-])O[C@@H]3CO)[C@H](O)[C@@H](O)[C@H]2O)(C(=O)O)O[C@H]1C(O)[C@H](O)CNC(=O)OCc1cn(-c2ccncc2)nn1
REMARK SMILES IDX 9 1 8 2 6 3 5 4 42 5 41 6 10 7 11 8 12 9 14 10 13 11 32 12
REMARK SMILES IDX 34 13 36 14 15 15 16 16 29 17 28 18 21 19 17 20 19 21 30 22
REMARK SMILES IDX 31 23 22 25 23 26 24 27 25 28 26 29 27 30 18 31 20 33 33 35
REMARK SMILES IDX 35 37 37 39 38 41 39 42 40 43 7 45 43 47 44 48 45 50 46 51
REMARK SMILES IDX 47 53 48 54 49 55 50 57 51 58 52 59 53 60 54 61 63 62 55 63
REMARK SMILES IDX 62 64 56 65 57 66 61 67 58 68 60 69 59 70 4 71 2 72 1 74
REMARK SMILES IDX 3 75
REMARK H PARENT 31 24 18 32 20 34 33 36 35 38 37 40 40 44 7 46 44 49 46 52
REMARK H PARENT 48 56 4 73
REMARK Flexibility Score: inf
ROOT
ATOM      1  C   UNL     1      14.802  30.812  20.175  1.00  0.00     0.272 C 
ATOM      2  C   UNL     1      14.082  31.872  21.033  1.00  0.00     0.113 C 
ATOM      3  C   UNL     1      15.099  32.644  21.881  1.00  0.00     0.145 C 
ATOM      4  C   UNL     1      15.635  31.618  22.937  1.00  0.00     0.142 C 
ATOM      5  C   UNL     1      16.082  30.422  22.148  1.00  0.00     0.178 C 
ATOM      6  O   UNL     1      16.064  30.744  20.797  1.00  0.00    -0.332 OA
ENDROOT
BRANCH   1   7
ATOM      7  O   UNL     1      15.038  31.275  18.963  1.00  0.00    -0.338 OA
BRANCH   7   8
ATOM      8  C   UNL     1      14.486  31.659  17.899  1.00  0.00     0.199 C 
BRANCH   8   9
ATOM      9  C   UNL     1      14.934  31.164  16.558  1.00  0.00     0.179 C 
ATOM     10  C   UNL     1      16.369  29.478  15.767  1.00  0.00     0.282 C 
ATOM     11  O   UNL     1      15.825  30.088  16.873  1.00  0.00    -0.341 OA
ATOM     12  C   UNL     1      15.308  28.824  14.937  1.00  0.00     0.202 C 
ATOM     13  C   UNL     1      14.228  29.849  14.587  1.00  0.00     0.179 C 
ATOM     14  C   UNL     1      13.754  30.478  15.863  1.00  0.00     0.177 C 
BRANCH  10  15
ATOM     15  O   UNL     1      17.222  28.488  16.319  1.00  0.00    -0.341 OA
BRANCH  15  16
ATOM     16  C   UNL     1      18.230  29.001  17.064  1.00  0.00     0.184 C 
ATOM     17  C   UNL     1      19.579  28.770  16.512  1.00  0.00     0.178 C 
ATOM     18  O   UNL     1      20.548  29.435  17.292  1.00  0.00    -0.341 OA
ATOM     19  C   UNL     1      20.684  28.540  18.420  1.00  0.00     0.281 C 
ATOM     20  C   UNL     1      18.164  28.330  18.471  1.00  0.00     0.180 C 
ATOM     21  C   UNL     1      19.440  28.678  19.215  1.00  0.00     0.202 C 
BRANCH  17  22
ATOM     22  C   UNL     1      19.723  29.176  15.094  1.00  0.00     0.191 C 
BRANCH  22  23
ATOM     23  O   UNL     1      20.924  28.725  14.525  1.00  0.00    -0.394 OA
ATOM     24  H   UNL     1      20.675  28.271  13.666  1.00  0.00     0.210 HD
ENDBRANCH  22  23
ENDBRANCH  17  22
BRANCH  19  25
ATOM     25  O   UNL     1      21.777  29.003  19.098  1.00  0.00    -0.350 OA
BRANCH  25  26
ATOM     26  C   UNL     1      22.929  28.362  18.761  1.00  0.00     0.169 C 
BRANCH  26  27
ATOM     27  C   UNL     1      22.997  26.901  19.068  1.00  0.00     0.119 C 
BRANCH  27  28
ATOM     28  N   UNL     1      23.331  26.095  17.911  1.00  0.00    -0.092 NA
ATOM     29  N   UNL     1      22.742  26.150  16.841  1.00  0.00     0.001 N 
ATOM     30  N   UNL     1      21.935  26.086  15.909  1.00  0.00    -0.003 NA
ENDBRANCH  27  28
ENDBRANCH  26  27
ENDBRANCH  25  26
ENDBRANCH  19  25
BRANCH  20  31
ATOM     31  O   UNL     1      17.104  28.912  19.124  1.00  0.00    -0.387 OA
ATOM     32  H   UNL     1      16.573  29.508  18.506  1.00  0.00     0.211 HD
ENDBRANCH  20  31
BRANCH  21  33
ATOM     33  O   UNL     1      19.532  27.933  20.381  1.00  0.00    -0.385 OA
ATOM     34  H   UNL     1      18.736  28.118  20.944  1.00  0.00     0.211 HD
ENDBRANCH  21  33
ENDBRANCH  15  16
ENDBRANCH  10  15
BRANCH  12  35
ATOM     35  O   UNL     1      15.840  28.365  13.708  1.00  0.00    -0.385 OA
ATOM     36  H   UNL     1      15.758  27.383  13.739  1.00  0.00     0.211 HD
ENDBRANCH  12  35
BRANCH  13  37
ATOM     37  O   UNL     1      13.166  29.295  13.912  1.00  0.00    -0.387 OA
ATOM     38  H   UNL     1      12.384  29.931  13.895  1.00  0.00     0.211 HD
ENDBRANCH  13  37
BRANCH  14  39
ATOM     39  O   UNL     1      13.298  29.505  16.766  1.00  0.00    -0.387 OA
ATOM     40  H   UNL     1      14.048  28.867  16.970  1.00  0.00     0.211 HD
ENDBRANCH  14  39
ENDBRANCH   8   9
ENDBRANCH   7   8
ENDBRANCH   1   7
BRANCH   1  41
ATOM     41  C   UNL     1      14.092  29.530  20.222  1.00  0.00     0.364 C 
ATOM     42  O   UNL     1      13.241  29.265  21.132  1.00  0.00    -0.246 OA
BRANCH  41  43
ATOM     43  O   UNL     1      14.286  28.526  19.303  1.00  0.00    -0.477 OA
ATOM     44  H   UNL     1      15.137  28.305  18.831  1.00  0.00     0.296 HD
ENDBRANCH  41  43
ENDBRANCH   1  41
BRANCH   3  45
ATOM     45  O   UNL     1      16.160  33.016  21.103  1.00  0.00    -0.391 OA
ATOM     46  H   UNL     1      16.978  32.532  21.330  1.00  0.00     0.211 HD
ENDBRANCH   3  45
BRANCH   5  47
ATOM     47  C   UNL     1      17.557  30.061  22.372  1.00  0.00     0.176 C 
BRANCH  47  48
ATOM     48  O   UNL     1      17.545  29.790  23.811  1.00  0.00    -0.388 OA
ATOM     49  H   UNL     1      18.174  30.453  24.225  1.00  0.00     0.211 HD
ENDBRANCH  47  48
BRANCH  47  50
ATOM     50  C   UNL     1      18.550  31.114  22.145  1.00  0.00     0.165 C 
BRANCH  50  51
ATOM     51  O   UNL     1      18.632  31.677  20.894  1.00  0.00    -0.388 OA
ATOM     52  H   UNL     1      19.164  31.110  20.275  1.00  0.00     0.211 HD
ENDBRANCH  50  51
BRANCH  50  53
ATOM     53  C   UNL     1      19.808  31.003  22.916  1.00  0.00     0.154 C 
BRANCH  53  54
ATOM     54  N   UNL     1      20.781  30.073  22.407  1.00  0.00    -0.319 N 
ATOM     55  C   UNL     1      20.987  28.818  23.028  1.00  0.00     0.407 C 
ATOM     56  H   UNL     1      21.333  30.365  21.581  1.00  0.00     0.167 HD
ATOM     57  O   UNL     1      20.286  28.555  24.030  1.00  0.00    -0.225 OA
BRANCH  55  58
ATOM     58  O   UNL     1      21.894  27.889  22.603  1.00  0.00    -0.443 OA
BRANCH  58  59
ATOM     59  C   UNL     1      21.713  26.489  22.596  1.00  0.00     0.294 C 
BRANCH  59  60
ATOM     60  C   UNL     1      22.135  25.867  23.894  1.00  0.00     0.121 A 
ATOM     61  C   UNL     1      22.994  26.348  24.858  1.00  0.00     0.144 A 
ATOM     62  N   UNL     1      21.719  24.663  24.355  1.00  0.00    -0.131 NA
ATOM     63  N   UNL     1      23.076  25.447  25.854  1.00  0.00    -0.220 N 
ATOM     64  N   UNL     1      22.286  24.424  25.524  1.00  0.00    -0.062 NA
BRANCH  63  65
ATOM     65  C   UNL     1      23.866  25.588  27.027  1.00  0.00     0.069 A 
ATOM     66  C   UNL     1      25.205  25.914  27.024  1.00  0.00     0.048 A 
ATOM     67  C   UNL     1      23.255  25.390  28.245  1.00  0.00     0.048 A 
ATOM     68  C   UNL     1      25.936  26.046  28.193  1.00  0.00     0.113 A 
ATOM     69  C   UNL     1      23.994  25.524  29.409  1.00  0.00     0.113 A 
ATOM     70  N   UNL     1      25.293  25.843  29.367  1.00  0.00    -0.265 NA
ENDBRANCH  63  65
ENDBRANCH  59  60
ENDBRANCH  58  59
ENDBRANCH  55  58
ENDBRANCH  53  54
ENDBRANCH  50  53
ENDBRANCH  47  50
ENDBRANCH   5  47
BRANCH   4  71
ATOM     71  N   UNL     1      14.476  31.378  23.760  1.00  0.00    -0.348 N 
ATOM     72  C   UNL     1      14.514  30.881  25.082  1.00  0.00     0.217 C 
ATOM     73  H   UNL     1      13.537  31.577  23.369  1.00  0.00     0.163 HD
ATOM     74  C   UNL     1      13.263  30.675  25.826  1.00  0.00     0.114 C 
ATOM     75  O   UNL     1      15.607  30.618  25.620  1.00  0.00    -0.275 OA
ENDBRANCH   4  71
TORSDOF 30
