REMARK VINA RESULT:    -5.130     12.370     17.303
REMARK INTER + INTRA:         -20.981
REMARK INTER:                 -13.531
REMARK INTRA:                  -7.449
REMARK UNBOUND:                -8.354
REMARK SMILES CC(=O)N[C@@H]1[C@@H](O)C[C@](OC[C@H]2O[C@@H](O[C@H]3[C@H](O)[C@@H](O)[C@H](OCCN=[N+]=[N-])O[C@@H]3CO)[C@H](O)[C@@H](O)[C@H]2O)(C(=O)O)O[C@H]1C(O)[C@H](O)CNC(=O)OCc1cn(-c2cccc(Cl)c2)nn1
REMARK SMILES IDX 9 1 8 2 6 3 5 4 42 5 41 6 10 7 11 8 12 9 14 10 13 11 32 12
REMARK SMILES IDX 34 13 36 14 15 15 16 16 29 17 28 18 21 19 17 20 19 21 30 22
REMARK SMILES IDX 31 23 22 25 23 26 24 27 25 28 26 29 27 30 18 31 20 33 33 35
REMARK SMILES IDX 35 37 37 39 38 41 39 42 40 43 7 45 43 47 44 48 45 50 46 51
REMARK SMILES IDX 47 53 48 54 49 55 50 57 51 58 52 59 53 60 54 61 64 62 55 63
REMARK SMILES IDX 63 64 56 65 57 66 62 67 58 68 60 69 59 70 61 71 4 72 2 73
REMARK SMILES IDX 1 75 3 76
REMARK H PARENT 31 24 18 32 20 34 33 36 35 38 37 40 40 44 7 46 44 49 46 52
REMARK H PARENT 48 56 4 74
REMARK Flexibility Score: inf
ROOT
ATOM      1  C   UNL     1      23.144  21.416  12.966  1.00  0.00     0.272 C 
ATOM      2  C   UNL     1      24.027  22.472  12.469  1.00  0.00     0.113 C 
ATOM      3  C   UNL     1      25.030  22.137  11.416  1.00  0.00     0.145 C 
ATOM      4  C   UNL     1      25.033  20.678  11.034  1.00  0.00     0.142 C 
ATOM      5  C   UNL     1      24.733  19.928  12.342  1.00  0.00     0.178 C 
ATOM      6  O   UNL     1      23.397  20.110  12.542  1.00  0.00    -0.332 OA
ENDROOT
BRANCH   1   7
ATOM      7  O   UNL     1      21.793  21.567  12.905  1.00  0.00    -0.338 OA
BRANCH   7   8
ATOM      8  C   UNL     1      21.123  21.929  11.812  1.00  0.00     0.199 C 
BRANCH   8   9
ATOM      9  C   UNL     1      20.220  20.960  11.123  1.00  0.00     0.179 C 
ATOM     10  C   UNL     1      20.230  19.189   9.642  1.00  0.00     0.282 C 
ATOM     11  O   UNL     1      21.029  20.029  10.438  1.00  0.00    -0.341 OA
ATOM     12  C   UNL     1      19.293  18.422  10.524  1.00  0.00     0.202 C 
ATOM     13  C   UNL     1      18.522  19.207  11.538  1.00  0.00     0.179 C 
ATOM     14  C   UNL     1      19.472  20.166  12.220  1.00  0.00     0.177 C 
BRANCH  10  15
ATOM     15  O   UNL     1      21.108  18.287   9.101  1.00  0.00    -0.341 OA
BRANCH  15  16
ATOM     16  C   UNL     1      21.471  18.454   7.766  1.00  0.00     0.184 C 
ATOM     17  C   UNL     1      20.769  19.521   7.064  1.00  0.00     0.178 C 
ATOM     18  O   UNL     1      20.291  19.170   5.825  1.00  0.00    -0.341 OA
ATOM     19  C   UNL     1      19.850  17.854   5.714  1.00  0.00     0.281 C 
ATOM     20  C   UNL     1      21.555  17.082   7.194  1.00  0.00     0.180 C 
ATOM     21  C   UNL     1      21.138  17.038   5.757  1.00  0.00     0.202 C 
BRANCH  17  22
ATOM     22  C   UNL     1      21.710  20.708   6.795  1.00  0.00     0.191 C 
BRANCH  22  23
ATOM     23  O   UNL     1      22.583  20.798   7.909  1.00  0.00    -0.394 OA
ATOM     24  H   UNL     1      22.814  19.898   8.202  1.00  0.00     0.210 HD
ENDBRANCH  22  23
ENDBRANCH  17  22
BRANCH  19  25
ATOM     25  O   UNL     1      19.238  17.702   4.504  1.00  0.00    -0.350 OA
BRANCH  25  26
ATOM     26  C   UNL     1      19.739  18.444   3.465  1.00  0.00     0.169 C 
BRANCH  26  27
ATOM     27  C   UNL     1      18.792  18.657   2.313  1.00  0.00     0.119 C 
BRANCH  27  28
ATOM     28  N   UNL     1      17.447  18.309   2.794  1.00  0.00    -0.092 NA
ATOM     29  N   UNL     1      16.601  19.229   2.773  1.00  0.00     0.001 N 
ATOM     30  N   UNL     1      15.636  19.924   2.408  1.00  0.00    -0.003 NA
ENDBRANCH  27  28
ENDBRANCH  26  27
ENDBRANCH  25  26
ENDBRANCH  19  25
BRANCH  20  31
ATOM     31  O   UNL     1      22.851  16.559   7.364  1.00  0.00    -0.387 OA
ATOM     32  H   UNL     1      22.745  15.574   7.347  1.00  0.00     0.211 HD
ENDBRANCH  20  31
BRANCH  21  33
ATOM     33  O   UNL     1      20.857  15.708   5.428  1.00  0.00    -0.385 OA
ATOM     34  H   UNL     1      21.351  15.081   5.980  1.00  0.00     0.211 HD
ENDBRANCH  21  33
ENDBRANCH  15  16
ENDBRANCH  10  15
BRANCH  12  35
ATOM     35  O   UNL     1      18.328  17.735   9.771  1.00  0.00    -0.385 OA
ATOM     36  H   UNL     1      17.429  17.824  10.159  1.00  0.00     0.211 HD
ENDBRANCH  12  35
BRANCH  13  37
ATOM     37  O   UNL     1      18.053  18.325  12.513  1.00  0.00    -0.387 OA
ATOM     38  H   UNL     1      17.199  18.576  12.903  1.00  0.00     0.211 HD
ENDBRANCH  13  37
BRANCH  14  39
ATOM     39  O   UNL     1      20.488  19.359  12.784  1.00  0.00    -0.387 OA
ATOM     40  H   UNL     1      20.619  19.521  13.731  1.00  0.00     0.211 HD
ENDBRANCH  14  39
ENDBRANCH   8   9
ENDBRANCH   7   8
ENDBRANCH   1   7
BRANCH   1  41
ATOM     41  C   UNL     1      23.413  21.321  14.475  1.00  0.00     0.364 C 
ATOM     42  O   UNL     1      23.925  22.247  15.129  1.00  0.00    -0.246 OA
BRANCH  41  43
ATOM     43  O   UNL     1      23.069  20.143  15.149  1.00  0.00    -0.477 OA
ATOM     44  H   UNL     1      23.788  19.415  15.240  1.00  0.00     0.296 HD
ENDBRANCH  41  43
ENDBRANCH   1  41
BRANCH   3  45
ATOM     45  O   UNL     1      24.907  22.894  10.265  1.00  0.00    -0.391 OA
ATOM     46  H   UNL     1      25.408  23.741  10.318  1.00  0.00     0.211 HD
ENDBRANCH   3  45
BRANCH   5  47
ATOM     47  C   UNL     1      25.186  18.480  12.266  1.00  0.00     0.176 C 
BRANCH  47  48
ATOM     48  O   UNL     1      25.056  18.021  13.603  1.00  0.00    -0.388 OA
ATOM     49  H   UNL     1      25.248  18.805  14.199  1.00  0.00     0.211 HD
ENDBRANCH  47  48
BRANCH  47  50
ATOM     50  C   UNL     1      24.170  17.693  11.464  1.00  0.00     0.165 C 
BRANCH  50  51
ATOM     51  O   UNL     1      23.228  17.142  12.316  1.00  0.00    -0.388 OA
ATOM     52  H   UNL     1      22.330  17.529  12.212  1.00  0.00     0.211 HD
ENDBRANCH  50  51
BRANCH  50  53
ATOM     53  C   UNL     1      24.884  16.532  10.765  1.00  0.00     0.154 C 
BRANCH  53  54
ATOM     54  N   UNL     1      26.297  16.762  10.645  1.00  0.00    -0.319 N 
ATOM     55  C   UNL     1      27.292  15.775  10.593  1.00  0.00     0.407 C 
ATOM     56  H   UNL     1      26.625  17.778  10.591  1.00  0.00     0.167 HD
ATOM     57  O   UNL     1      26.976  14.562  10.628  1.00  0.00    -0.225 OA
BRANCH  55  58
ATOM     58  O   UNL     1      28.673  16.109  10.499  1.00  0.00    -0.443 OA
BRANCH  58  59
ATOM     59  C   UNL     1      29.394  16.417  11.662  1.00  0.00     0.294 C 
BRANCH  59  60
ATOM     60  C   UNL     1      29.008  17.708  12.290  1.00  0.00     0.121 A 
ATOM     61  C   UNL     1      28.865  17.978  13.655  1.00  0.00     0.144 A 
ATOM     62  N   UNL     1      28.702  18.877  11.704  1.00  0.00    -0.131 NA
ATOM     63  N   UNL     1      28.489  19.258  13.827  1.00  0.00    -0.220 N 
ATOM     64  N   UNL     1      28.395  19.792  12.638  1.00  0.00    -0.062 NA
BRANCH  63  65
ATOM     65  C   UNL     1      28.252  19.831  15.106  1.00  0.00     0.068 A 
ATOM     66  C   UNL     1      27.635  21.046  15.297  1.00  0.00     0.028 A 
ATOM     67  C   UNL     1      28.652  19.153  16.270  1.00  0.00     0.049 A 
ATOM     68  C   UNL     1      27.425  21.565  16.571  1.00  0.00     0.004 A 
ATOM     69  C   UNL     1      28.444  19.668  17.527  1.00  0.00     0.043 A 
ATOM     70  C   UNL     1      27.825  20.885  17.701  1.00  0.00     0.020 A 
ATOM     71  Cl  UNL     1      28.950  18.806  18.973  1.00  0.00    -0.084 Cl
ENDBRANCH  63  65
ENDBRANCH  59  60
ENDBRANCH  58  59
ENDBRANCH  55  58
ENDBRANCH  53  54
ENDBRANCH  50  53
ENDBRANCH  47  50
ENDBRANCH   5  47
BRANCH   4  72
ATOM     72  N   UNL     1      26.244  20.263  10.406  1.00  0.00    -0.348 N 
ATOM     73  C   UNL     1      26.268  19.837   9.031  1.00  0.00     0.217 C 
ATOM     74  H   UNL     1      27.183  20.237  10.871  1.00  0.00     0.163 HD
ATOM     75  C   UNL     1      27.503  19.405   8.361  1.00  0.00     0.114 C 
ATOM     76  O   UNL     1      25.193  19.838   8.396  1.00  0.00    -0.275 OA
ENDBRANCH   4  72
TORSDOF 30
