REMARK VINA RESULT:    -5.356      8.415     13.882
REMARK INTER + INTRA:         -22.589
REMARK INTER:                 -16.084
REMARK INTRA:                  -6.505
REMARK UNBOUND:                -8.936
REMARK SMILES CC(=O)N[C@@H]1[C@@H](O)C[C@](OC[C@H]2O[C@@H](O[C@H]3[C@H](O)[C@@H](O)[C@H](OCCN=[N+]=[N-])O[C@@H]3CO)[C@H](O)[C@@H](O)[C@H]2O)(C(=O)O)O[C@H]1C(O)[C@H](O)CNC(=O)OCc1cn(-c2ccc(S(N)(=O)=O)cc2)nn1
REMARK SMILES IDX 9 1 8 2 6 3 5 4 42 5 41 6 10 7 11 8 12 9 14 10 13 11 32 12
REMARK SMILES IDX 34 13 36 14 15 15 16 16 29 17 28 18 21 19 17 20 19 21 30 22
REMARK SMILES IDX 31 23 22 25 23 26 24 27 25 28 26 29 27 30 18 31 20 33 33 35
REMARK SMILES IDX 35 37 37 39 38 41 39 42 40 43 7 45 43 47 44 48 45 50 46 51
REMARK SMILES IDX 47 53 48 54 49 55 50 57 51 58 52 59 53 60 54 61 67 62 55 63
REMARK SMILES IDX 66 64 56 65 57 66 65 67 58 68 64 69 59 70 60 71 62 72 63 73
REMARK SMILES IDX 61 74 4 77 2 78 1 80 3 81
REMARK H PARENT 31 24 18 32 20 34 33 36 35 38 37 40 40 44 7 46 44 49 46 52
REMARK H PARENT 48 56 61 75 61 76 4 79
REMARK Flexibility Score: inf
ROOT
ATOM      1  C   UNL     1      25.335  27.239  20.899  1.00  0.00     0.272 C 
ATOM      2  C   UNL     1      25.025  28.743  20.965  1.00  0.00     0.113 C 
ATOM      3  C   UNL     1      23.565  29.010  21.073  1.00  0.00     0.145 C 
ATOM      4  C   UNL     1      22.819  28.046  20.187  1.00  0.00     0.142 C 
ATOM      5  C   UNL     1      23.847  27.573  19.152  1.00  0.00     0.178 C 
ATOM      6  O   UNL     1      24.673  26.680  19.831  1.00  0.00    -0.332 OA
ENDROOT
BRANCH   1   7
ATOM      7  O   UNL     1      24.965  26.729  22.137  1.00  0.00    -0.338 OA
BRANCH   7   8
ATOM      8  C   UNL     1      25.599  25.571  22.487  1.00  0.00     0.199 C 
BRANCH   8   9
ATOM      9  C   UNL     1      24.523  24.584  22.973  1.00  0.00     0.179 C 
ATOM     10  C   UNL     1      22.403  24.739  23.949  1.00  0.00     0.282 C 
ATOM     11  O   UNL     1      23.724  25.271  23.832  1.00  0.00    -0.341 OA
ATOM     12  C   UNL     1      21.809  24.980  22.592  1.00  0.00     0.202 C 
ATOM     13  C   UNL     1      22.473  24.065  21.570  1.00  0.00     0.179 C 
ATOM     14  C   UNL     1      23.904  23.813  21.879  1.00  0.00     0.177 C 
BRANCH  10  15
ATOM     15  O   UNL     1      21.772  25.451  24.909  1.00  0.00    -0.341 OA
BRANCH  15  16
ATOM     16  C   UNL     1      22.623  26.016  25.895  1.00  0.00     0.184 C 
ATOM     17  C   UNL     1      22.292  25.411  27.182  1.00  0.00     0.178 C 
ATOM     18  O   UNL     1      22.277  26.244  28.282  1.00  0.00    -0.341 OA
ATOM     19  C   UNL     1      23.039  27.375  28.209  1.00  0.00     0.281 C 
ATOM     20  C   UNL     1      22.527  27.523  25.828  1.00  0.00     0.180 C 
ATOM     21  C   UNL     1      22.465  28.240  27.119  1.00  0.00     0.202 C 
BRANCH  17  22
ATOM     22  C   UNL     1      23.163  24.229  27.556  1.00  0.00     0.191 C 
BRANCH  22  23
ATOM     23  O   UNL     1      24.342  24.240  26.825  1.00  0.00    -0.394 OA
ATOM     24  H   UNL     1      24.942  23.494  27.076  1.00  0.00     0.210 HD
ENDBRANCH  22  23
ENDBRANCH  17  22
BRANCH  19  25
ATOM     25  O   UNL     1      24.394  27.186  28.082  1.00  0.00    -0.350 OA
BRANCH  25  26
ATOM     26  C   UNL     1      24.996  27.157  29.334  1.00  0.00     0.169 C 
BRANCH  26  27
ATOM     27  C   UNL     1      26.033  26.038  29.329  1.00  0.00     0.119 C 
BRANCH  27  28
ATOM     28  N   UNL     1      25.947  25.340  30.581  1.00  0.00    -0.092 NA
ATOM     29  N   UNL     1      26.860  25.394  31.435  1.00  0.00     0.001 N 
ATOM     30  N   UNL     1      27.862  24.936  32.011  1.00  0.00    -0.003 NA
ENDBRANCH  27  28
ENDBRANCH  26  27
ENDBRANCH  25  26
ENDBRANCH  19  25
BRANCH  20  31
ATOM     31  O   UNL     1      23.586  28.061  25.091  1.00  0.00    -0.387 OA
ATOM     32  H   UNL     1      24.118  27.326  24.708  1.00  0.00     0.211 HD
ENDBRANCH  20  31
BRANCH  21  33
ATOM     33  O   UNL     1      21.190  28.663  27.478  1.00  0.00    -0.385 OA
ATOM     34  H   UNL     1      21.307  29.058  28.401  1.00  0.00     0.211 HD
ENDBRANCH  21  33
ENDBRANCH  15  16
ENDBRANCH  10  15
BRANCH  12  35
ATOM     35  O   UNL     1      20.447  24.951  22.531  1.00  0.00    -0.385 OA
ATOM     36  H   UNL     1      20.060  25.094  21.646  1.00  0.00     0.211 HD
ENDBRANCH  12  35
BRANCH  13  37
ATOM     37  O   UNL     1      22.213  24.479  20.275  1.00  0.00    -0.387 OA
ATOM     38  H   UNL     1      21.268  24.614  20.058  1.00  0.00     0.211 HD
ENDBRANCH  13  37
BRANCH  14  39
ATOM     39  O   UNL     1      24.638  24.089  20.700  1.00  0.00    -0.387 OA
ATOM     40  H   UNL     1      24.849  23.190  20.313  1.00  0.00     0.211 HD
ENDBRANCH  14  39
ENDBRANCH   8   9
ENDBRANCH   7   8
ENDBRANCH   1   7
BRANCH   1  41
ATOM     41  C   UNL     1      26.835  27.188  20.733  1.00  0.00     0.364 C 
ATOM     42  O   UNL     1      27.573  28.064  21.246  1.00  0.00    -0.246 OA
BRANCH  41  43
ATOM     43  O   UNL     1      27.443  26.176  20.016  1.00  0.00    -0.477 OA
ATOM     44  H   UNL     1      27.139  25.228  20.180  1.00  0.00     0.296 HD
ENDBRANCH  41  43
ENDBRANCH   1  41
BRANCH   3  45
ATOM     45  O   UNL     1      23.194  28.929  22.413  1.00  0.00    -0.391 OA
ATOM     46  H   UNL     1      22.358  28.413  22.486  1.00  0.00     0.211 HD
ENDBRANCH   3  45
BRANCH   5  47
ATOM     47  C   UNL     1      23.173  26.852  18.016  1.00  0.00     0.176 C 
BRANCH  47  48
ATOM     48  O   UNL     1      23.092  27.585  16.850  1.00  0.00    -0.388 OA
ATOM     49  H   UNL     1      23.947  28.022  16.607  1.00  0.00     0.211 HD
ENDBRANCH  47  48
BRANCH  47  50
ATOM     50  C   UNL     1      23.864  25.536  17.745  1.00  0.00     0.165 C 
BRANCH  50  51
ATOM     51  O   UNL     1      25.068  25.753  17.042  1.00  0.00    -0.388 OA
ATOM     52  H   UNL     1      25.461  26.636  17.299  1.00  0.00     0.211 HD
ENDBRANCH  50  51
BRANCH  50  53
ATOM     53  C   UNL     1      22.986  24.585  16.971  1.00  0.00     0.154 C 
BRANCH  53  54
ATOM     54  N   UNL     1      23.725  23.874  15.955  1.00  0.00    -0.319 N 
ATOM     55  C   UNL     1      23.853  24.432  14.657  1.00  0.00     0.407 C 
ATOM     56  H   UNL     1      24.175  22.955  16.134  1.00  0.00     0.167 HD
ATOM     57  O   UNL     1      23.309  25.550  14.421  1.00  0.00    -0.225 OA
BRANCH  55  58
ATOM     58  O   UNL     1      24.542  23.833  13.617  1.00  0.00    -0.443 OA
BRANCH  58  59
ATOM     59  C   UNL     1      25.944  23.704  13.610  1.00  0.00     0.294 C 
BRANCH  59  60
ATOM     60  C   UNL     1      26.324  22.510  14.410  1.00  0.00     0.121 A 
ATOM     61  C   UNL     1      26.968  22.525  15.653  1.00  0.00     0.144 A 
ATOM     62  N   UNL     1      26.153  21.204  14.144  1.00  0.00    -0.131 NA
ATOM     63  N   UNL     1      27.154  21.249  16.073  1.00  0.00    -0.220 N 
ATOM     64  N   UNL     1      26.657  20.478  15.153  1.00  0.00    -0.062 NA
BRANCH  63  65
ATOM     65  C   UNL     1      27.779  20.833  17.292  1.00  0.00     0.066 A 
ATOM     66  C   UNL     1      28.381  19.600  17.400  1.00  0.00     0.030 A 
ATOM     67  C   UNL     1      27.799  21.656  18.396  1.00  0.00     0.030 A 
ATOM     68  C   UNL     1      28.990  19.199  18.588  1.00  0.00     0.024 A 
ATOM     69  C   UNL     1      28.406  21.265  19.588  1.00  0.00     0.024 A 
ATOM     70  C   UNL     1      29.009  20.027  19.692  1.00  0.00     0.082 A 
BRANCH  70  71
ATOM     71  S   UNL     1      29.789  19.491  21.179  1.00  0.00     0.238 S 
ATOM     72  O   UNL     1      31.167  18.942  20.899  1.00  0.00    -0.207 OA
ATOM     73  O   UNL     1      29.955  20.640  22.126  1.00  0.00    -0.207 OA
BRANCH  71  74
ATOM     74  N   UNL     1      28.845  18.265  21.967  1.00  0.00    -0.225 NA
ATOM     75  H   UNL     1      28.216  17.833  21.232  1.00  0.00     0.137 HD
ATOM     76  H   UNL     1      28.273  18.651  22.755  1.00  0.00     0.137 HD
ENDBRANCH  71  74
ENDBRANCH  70  71
ENDBRANCH  63  65
ENDBRANCH  59  60
ENDBRANCH  58  59
ENDBRANCH  55  58
ENDBRANCH  53  54
ENDBRANCH  50  53
ENDBRANCH  47  50
ENDBRANCH   5  47
BRANCH   4  77
ATOM     77  N   UNL     1      21.661  28.606  19.541  1.00  0.00    -0.348 N 
ATOM     78  C   UNL     1      20.366  28.282  19.997  1.00  0.00     0.217 C 
ATOM     79  H   UNL     1      21.760  29.253  18.737  1.00  0.00     0.163 HD
ATOM     80  C   UNL     1      19.198  28.878  19.303  1.00  0.00     0.114 C 
ATOM     81  O   UNL     1      20.158  27.512  20.962  1.00  0.00    -0.275 OA
ENDBRANCH   4  77
TORSDOF 32
