REMARK VINA RESULT:    -5.694      6.204     14.044
REMARK INTER + INTRA:         -21.453
REMARK INTER:                 -13.096
REMARK INTRA:                  -8.357
REMARK UNBOUND:                -6.938
REMARK SMILES CC(=O)N[C@@H]1[C@@H](O)C[C@](OC[C@H]2O[C@@H](O[C@H]3[C@H](O)[C@@H](O)[C@H](OCCN=[N+]=[N-])O[C@@H]3CO)[C@H](O)[C@@H](O)[C@H]2O)(C(=O)O)O[C@H]1C(O)[C@H](O)CNC(=O)OCc1cn(Cc2cc(Br)cc(Br)c2O)nn1
REMARK SMILES IDX 9 1 8 2 6 3 5 4 42 5 41 6 10 7 11 8 12 9 14 10 13 11 32 12
REMARK SMILES IDX 34 13 36 14 15 15 16 16 29 17 28 18 21 19 17 20 19 21 30 22
REMARK SMILES IDX 31 23 22 25 23 26 24 27 25 28 26 29 27 30 18 31 20 33 33 35
REMARK SMILES IDX 35 37 37 39 38 41 39 42 40 43 7 45 43 47 44 48 45 50 46 51
REMARK SMILES IDX 47 53 48 54 49 55 50 57 51 58 52 59 53 60 54 61 67 62 55 63
REMARK SMILES IDX 66 64 56 65 57 66 58 67 64 68 59 69 62 70 60 71 61 72 63 73
REMARK SMILES IDX 65 74 4 76 2 77 1 79 3 80
REMARK H PARENT 31 24 18 32 20 34 33 36 35 38 37 40 40 44 7 46 44 49 46 52
REMARK H PARENT 48 56 65 75 4 78
REMARK Flexibility Score: inf
ROOT
ATOM      1  C   UNL     1      24.482  23.241  14.269  1.00  0.00     0.272 C 
ATOM      2  C   UNL     1      24.300  21.802  14.953  1.00  0.00     0.113 C 
ATOM      3  C   UNL     1      23.144  21.105  14.362  1.00  0.00     0.145 C 
ATOM      4  C   UNL     1      23.299  21.011  12.867  1.00  0.00     0.142 C 
ATOM      5  C   UNL     1      24.250  21.995  12.256  1.00  0.00     0.178 C 
ATOM      6  O   UNL     1      24.702  23.030  12.955  1.00  0.00    -0.332 OA
ENDROOT
BRANCH   1   7
ATOM      7  O   UNL     1      25.613  23.644  14.894  1.00  0.00    -0.338 OA
BRANCH   7   8
ATOM      8  C   UNL     1      25.741  23.934  16.174  1.00  0.00     0.199 C 
BRANCH   8   9
ATOM      9  C   UNL     1      26.802  24.854  16.669  1.00  0.00     0.179 C 
ATOM     10  C   UNL     1      26.207  24.858  18.921  1.00  0.00     0.282 C 
ATOM     11  O   UNL     1      26.450  25.545  17.777  1.00  0.00    -0.341 OA
ATOM     12  C   UNL     1      27.207  23.776  19.170  1.00  0.00     0.202 C 
ATOM     13  C   UNL     1      28.437  23.984  18.330  1.00  0.00     0.179 C 
ATOM     14  C   UNL     1      28.136  24.129  16.867  1.00  0.00     0.177 C 
BRANCH  10  15
ATOM     15  O   UNL     1      24.876  24.414  18.972  1.00  0.00    -0.341 OA
BRANCH  15  16
ATOM     16  C   UNL     1      24.028  25.246  19.666  1.00  0.00     0.184 C 
ATOM     17  C   UNL     1      23.226  24.488  20.699  1.00  0.00     0.178 C 
ATOM     18  O   UNL     1      22.193  25.196  21.244  1.00  0.00    -0.341 OA
ATOM     19  C   UNL     1      22.200  26.561  21.022  1.00  0.00     0.281 C 
ATOM     20  C   UNL     1      22.967  25.856  18.742  1.00  0.00     0.180 C 
ATOM     21  C   UNL     1      22.280  26.921  19.563  1.00  0.00     0.202 C 
BRANCH  17  22
ATOM     22  C   UNL     1      24.093  23.899  21.792  1.00  0.00     0.191 C 
BRANCH  22  23
ATOM     23  O   UNL     1      25.089  24.772  22.174  1.00  0.00    -0.394 OA
ATOM     24  H   UNL     1      25.849  24.665  21.556  1.00  0.00     0.210 HD
ENDBRANCH  22  23
ENDBRANCH  17  22
BRANCH  19  25
ATOM     25  O   UNL     1      23.216  27.132  21.771  1.00  0.00    -0.350 OA
BRANCH  25  26
ATOM     26  C   UNL     1      22.717  28.005  22.700  1.00  0.00     0.169 C 
BRANCH  26  27
ATOM     27  C   UNL     1      23.085  27.734  24.118  1.00  0.00     0.119 C 
BRANCH  27  28
ATOM     28  N   UNL     1      23.489  26.361  24.345  1.00  0.00    -0.092 NA
ATOM     29  N   UNL     1      22.720  25.504  24.731  1.00  0.00     0.001 N 
ATOM     30  N   UNL     1      22.029  24.496  24.861  1.00  0.00    -0.003 NA
ENDBRANCH  27  28
ENDBRANCH  26  27
ENDBRANCH  25  26
ENDBRANCH  19  25
BRANCH  20  31
ATOM     31  O   UNL     1      23.471  26.322  17.559  1.00  0.00    -0.387 OA
ATOM     32  H   UNL     1      24.134  27.044  17.803  1.00  0.00     0.211 HD
ENDBRANCH  20  31
BRANCH  21  33
ATOM     33  O   UNL     1      21.003  27.193  19.084  1.00  0.00    -0.385 OA
ATOM     34  H   UNL     1      20.581  27.895  19.609  1.00  0.00     0.211 HD
ENDBRANCH  21  33
ENDBRANCH  15  16
ENDBRANCH  10  15
BRANCH  12  35
ATOM     35  O   UNL     1      27.547  23.820  20.544  1.00  0.00    -0.385 OA
ATOM     36  H   UNL     1      26.683  23.873  21.016  1.00  0.00     0.211 HD
ENDBRANCH  12  35
BRANCH  13  37
ATOM     37  O   UNL     1      29.393  22.993  18.549  1.00  0.00    -0.387 OA
ATOM     38  H   UNL     1      30.144  23.439  19.016  1.00  0.00     0.211 HD
ENDBRANCH  13  37
BRANCH  14  39
ATOM     39  O   UNL     1      28.068  22.880  16.278  1.00  0.00    -0.387 OA
ATOM     40  H   UNL     1      27.943  22.172  16.966  1.00  0.00     0.211 HD
ENDBRANCH  14  39
ENDBRANCH   8   9
ENDBRANCH   7   8
ENDBRANCH   1   7
BRANCH   1  41
ATOM     41  C   UNL     1      23.246  23.958  14.562  1.00  0.00     0.364 C 
ATOM     42  O   UNL     1      22.649  24.651  13.655  1.00  0.00    -0.246 OA
BRANCH  41  43
ATOM     43  O   UNL     1      22.616  23.963  15.779  1.00  0.00    -0.477 OA
ATOM     44  H   UNL     1      22.382  24.830  16.241  1.00  0.00     0.296 HD
ENDBRANCH  41  43
ENDBRANCH   1  41
BRANCH   3  45
ATOM     45  O   UNL     1      23.038  19.831  14.949  1.00  0.00    -0.391 OA
ATOM     46  H   UNL     1      23.844  19.303  14.748  1.00  0.00     0.211 HD
ENDBRANCH   3  45
BRANCH   5  47
ATOM     47  C   UNL     1      25.326  21.204  11.537  1.00  0.00     0.176 C 
BRANCH  47  48
ATOM     48  O   UNL     1      24.764  20.586  10.391  1.00  0.00    -0.388 OA
ATOM     49  H   UNL     1      25.461  20.184   9.836  1.00  0.00     0.211 HD
ENDBRANCH  47  48
BRANCH  47  50
ATOM     50  C   UNL     1      26.561  21.938  11.214  1.00  0.00     0.165 C 
BRANCH  50  51
ATOM     51  O   UNL     1      27.011  21.687   9.936  1.00  0.00    -0.388 OA
ATOM     52  H   UNL     1      27.997  21.630   9.867  1.00  0.00     0.211 HD
ENDBRANCH  50  51
BRANCH  50  53
ATOM     53  C   UNL     1      27.687  21.881  12.187  1.00  0.00     0.154 C 
BRANCH  53  54
ATOM     54  N   UNL     1      27.400  21.337  13.470  1.00  0.00    -0.319 N 
ATOM     55  C   UNL     1      28.113  20.154  13.863  1.00  0.00     0.407 C 
ATOM     56  H   UNL     1      26.700  21.718  14.127  1.00  0.00     0.167 HD
ATOM     57  O   UNL     1      28.965  19.650  13.054  1.00  0.00    -0.225 OA
BRANCH  55  58
ATOM     58  O   UNL     1      27.878  19.588  15.084  1.00  0.00    -0.443 OA
BRANCH  58  59
ATOM     59  C   UNL     1      28.895  19.021  15.869  1.00  0.00     0.294 C 
BRANCH  59  60
ATOM     60  C   UNL     1      28.689  19.341  17.299  1.00  0.00     0.120 A 
ATOM     61  C   UNL     1      29.026  18.604  18.428  1.00  0.00     0.138 A 
ATOM     62  N   UNL     1      28.121  20.454  17.792  1.00  0.00    -0.132 NA
ATOM     63  N   UNL     1      28.665  19.264  19.538  1.00  0.00    -0.248 N 
ATOM     64  N   UNL     1      28.110  20.401  19.109  1.00  0.00    -0.067 NA
BRANCH  63  65
ATOM     65  C   UNL     1      28.811  18.887  20.947  1.00  0.00     0.185 C 
BRANCH  65  66
ATOM     66  C   UNL     1      30.091  19.457  21.429  1.00  0.00     0.018 A 
ATOM     67  C   UNL     1      31.214  18.653  21.444  1.00  0.00     0.025 A 
ATOM     68  C   UNL     1      30.202  20.771  21.868  1.00  0.00     0.134 A 
ATOM     69  C   UNL     1      32.444  19.121  21.880  1.00  0.00     0.019 A 
ATOM     70  C   UNL     1      31.417  21.268  22.311  1.00  0.00     0.061 A 
ATOM     71  Br  UNL     1      33.966  17.977  21.882  1.00  0.00    -0.051 Br
ATOM     72  C   UNL     1      32.527  20.424  22.308  1.00  0.00     0.035 A 
ATOM     73  Br  UNL     1      31.542  23.058  22.900  1.00  0.00    -0.047 Br
BRANCH  68  74
ATOM     74  O   UNL     1      29.042  21.521  21.830  1.00  0.00    -0.506 OA
ATOM     75  H   UNL     1      28.291  21.240  21.222  1.00  0.00     0.293 HD
ENDBRANCH  68  74
ENDBRANCH  65  66
ENDBRANCH  63  65
ENDBRANCH  59  60
ENDBRANCH  58  59
ENDBRANCH  55  58
ENDBRANCH  53  54
ENDBRANCH  50  53
ENDBRANCH  47  50
ENDBRANCH   5  47
BRANCH   4  76
ATOM     76  N   UNL     1      21.993  20.979  12.242  1.00  0.00    -0.348 N 
ATOM     77  C   UNL     1      21.351  19.728  12.054  1.00  0.00     0.217 C 
ATOM     78  H   UNL     1      21.495  21.839  11.916  1.00  0.00     0.163 HD
ATOM     79  C   UNL     1      20.001  19.696  11.408  1.00  0.00     0.114 C 
ATOM     80  O   UNL     1      21.924  18.653  12.434  1.00  0.00    -0.275 OA
ENDBRANCH   4  76
TORSDOF 32
