REMARK VINA RESULT:    -4.971      3.903      9.253
REMARK INTER + INTRA:         -21.626
REMARK INTER:                 -12.626
REMARK INTRA:                  -9.001
REMARK UNBOUND:                -9.390
REMARK SMILES CC(=O)N[C@@H]1[C@@H](O)C[C@](OC[C@H]2O[C@@H](O[C@H]3[C@H](O)[C@@H](O)[C@H](OCCN=[N+]=[N-])O[C@@H]3CO)[C@H](O)[C@@H](O)[C@H]2O)(C(=O)O)O[C@H]1C(O)[C@H](O)CNC(=O)OCc1cn(-c2ccncc2)nn1
REMARK SMILES IDX 9 1 8 2 6 3 5 4 42 5 41 6 10 7 11 8 12 9 14 10 13 11 32 12
REMARK SMILES IDX 34 13 36 14 15 15 16 16 29 17 28 18 21 19 17 20 19 21 30 22
REMARK SMILES IDX 31 23 22 25 23 26 24 27 25 28 26 29 27 30 18 31 20 33 33 35
REMARK SMILES IDX 35 37 37 39 38 41 39 42 40 43 7 45 43 47 44 48 45 50 46 51
REMARK SMILES IDX 47 53 48 54 49 55 50 57 51 58 52 59 53 60 54 61 63 62 55 63
REMARK SMILES IDX 62 64 56 65 57 66 61 67 58 68 60 69 59 70 4 71 2 72 1 74
REMARK SMILES IDX 3 75
REMARK H PARENT 31 24 18 32 20 34 33 36 35 38 37 40 40 44 7 46 44 49 46 52
REMARK H PARENT 48 56 4 73
REMARK Flexibility Score: inf
ROOT
ATOM      1  C   UNL     1      16.026  29.899  20.441  1.00  0.00     0.272 C 
ATOM      2  C   UNL     1      15.350  29.089  19.316  1.00  0.00     0.113 C 
ATOM      3  C   UNL     1      16.220  27.885  18.937  1.00  0.00     0.145 C 
ATOM      4  C   UNL     1      17.493  28.483  18.247  1.00  0.00     0.142 C 
ATOM      5  C   UNL     1      18.025  29.512  19.201  1.00  0.00     0.178 C 
ATOM      6  O   UNL     1      17.343  29.401  20.405  1.00  0.00    -0.332 OA
ENDROOT
BRANCH   1   7
ATOM      7  O   UNL     1      15.553  29.544  21.619  1.00  0.00    -0.338 OA
BRANCH   7   8
ATOM      8  C   UNL     1      14.512  29.181  22.227  1.00  0.00     0.199 C 
BRANCH   8   9
ATOM      9  C   UNL     1      14.155  29.734  23.574  1.00  0.00     0.179 C 
ATOM     10  C   UNL     1      15.118  31.244  25.095  1.00  0.00     0.282 C 
ATOM     11  O   UNL     1      15.239  30.618  23.877  1.00  0.00    -0.341 OA
ATOM     12  C   UNL     1      13.918  32.137  25.125  1.00  0.00     0.202 C 
ATOM     13  C   UNL     1      12.673  31.335  24.737  1.00  0.00     0.179 C 
ATOM     14  C   UNL     1      12.946  30.663  23.424  1.00  0.00     0.177 C 
BRANCH  10  15
ATOM     15  O   UNL     1      16.298  32.026  25.186  1.00  0.00    -0.341 OA
BRANCH  15  16
ATOM     16  C   UNL     1      17.418  31.291  25.385  1.00  0.00     0.184 C 
ATOM     17  C   UNL     1      18.141  31.601  26.633  1.00  0.00     0.178 C 
ATOM     18  O   UNL     1      19.222  30.712  26.806  1.00  0.00    -0.341 OA
ATOM     19  C   UNL     1      20.210  31.269  25.909  1.00  0.00     0.281 C 
ATOM     20  C   UNL     1      18.381  31.567  24.189  1.00  0.00     0.180 C 
ATOM     21  C   UNL     1      19.737  30.979  24.534  1.00  0.00     0.202 C 
BRANCH  17  22
ATOM     22  C   UNL     1      17.285  31.579  27.841  1.00  0.00     0.191 C 
BRANCH  22  23
ATOM     23  O   UNL     1      16.460  32.710  27.937  1.00  0.00    -0.394 OA
ATOM     24  H   UNL     1      15.520  32.369  28.004  1.00  0.00     0.210 HD
ENDBRANCH  22  23
ENDBRANCH  17  22
BRANCH  19  25
ATOM     25  O   UNL     1      21.363  30.595  26.204  1.00  0.00    -0.350 OA
BRANCH  25  26
ATOM     26  C   UNL     1      21.182  29.252  26.332  1.00  0.00     0.169 C 
BRANCH  26  27
ATOM     27  C   UNL     1      22.360  28.386  26.027  1.00  0.00     0.119 C 
BRANCH  27  28
ATOM     28  N   UNL     1      22.625  28.271  24.607  1.00  0.00    -0.092 NA
ATOM     29  N   UNL     1      21.757  28.154  23.752  1.00  0.00     0.001 N 
ATOM     30  N   UNL     1      20.848  27.777  23.008  1.00  0.00    -0.003 NA
ENDBRANCH  27  28
ENDBRANCH  26  27
ENDBRANCH  25  26
ENDBRANCH  19  25
BRANCH  20  31
ATOM     31  O   UNL     1      17.868  30.880  23.115  1.00  0.00    -0.387 OA
ATOM     32  H   UNL     1      17.547  31.510  22.394  1.00  0.00     0.211 HD
ENDBRANCH  20  31
BRANCH  21  33
ATOM     33  O   UNL     1      20.684  31.385  23.606  1.00  0.00    -0.385 OA
ATOM     34  H   UNL     1      20.883  30.627  22.998  1.00  0.00     0.211 HD
ENDBRANCH  21  33
ENDBRANCH  15  16
ENDBRANCH  10  15
BRANCH  12  35
ATOM     35  O   UNL     1      13.686  32.628  26.432  1.00  0.00    -0.385 OA
ATOM     36  H   UNL     1      13.164  31.925  26.887  1.00  0.00     0.211 HD
ENDBRANCH  12  35
BRANCH  13  37
ATOM     37  O   UNL     1      11.545  32.114  24.641  1.00  0.00    -0.387 OA
ATOM     38  H   UNL     1      10.724  31.583  24.884  1.00  0.00     0.211 HD
ENDBRANCH  13  37
BRANCH  14  39
ATOM     39  O   UNL     1      13.310  31.599  22.443  1.00  0.00    -0.387 OA
ATOM     40  H   UNL     1      14.282  31.832  22.553  1.00  0.00     0.211 HD
ENDBRANCH  14  39
ENDBRANCH   8   9
ENDBRANCH   7   8
ENDBRANCH   1   7
BRANCH   1  41
ATOM     41  C   UNL     1      15.970  31.336  20.158  1.00  0.00     0.364 C 
ATOM     42  O   UNL     1      15.357  31.799  19.141  1.00  0.00    -0.246 OA
BRANCH  41  43
ATOM     43  O   UNL     1      16.566  32.286  20.953  1.00  0.00    -0.477 OA
ATOM     44  H   UNL     1      16.182  32.706  21.772  1.00  0.00     0.296 HD
ENDBRANCH  41  43
ENDBRANCH   1  41
BRANCH   3  45
ATOM     45  O   UNL     1      16.638  27.243  20.070  1.00  0.00    -0.391 OA
ATOM     46  H   UNL     1      15.929  27.164  20.738  1.00  0.00     0.211 HD
ENDBRANCH   3  45
BRANCH   5  47
ATOM     47  C   UNL     1      19.476  29.254  19.628  1.00  0.00     0.176 C 
BRANCH  47  48
ATOM     48  O   UNL     1      19.302  28.046  20.435  1.00  0.00    -0.388 OA
ATOM     49  H   UNL     1      19.798  28.208  21.292  1.00  0.00     0.211 HD
ENDBRANCH  47  48
BRANCH  47  50
ATOM     50  C   UNL     1      20.112  30.254  20.491  1.00  0.00     0.165 C 
BRANCH  50  51
ATOM     51  O   UNL     1      19.425  31.413  20.765  1.00  0.00    -0.388 OA
ATOM     52  H   UNL     1      18.618  31.235  21.316  1.00  0.00     0.211 HD
ENDBRANCH  50  51
BRANCH  50  53
ATOM     53  C   UNL     1      21.586  30.351  20.403  1.00  0.00     0.154 C 
BRANCH  53  54
ATOM     54  N   UNL     1      22.299  29.101  20.372  1.00  0.00    -0.319 N 
ATOM     55  C   UNL     1      22.980  28.679  19.204  1.00  0.00     0.407 C 
ATOM     56  H   UNL     1      22.282  28.520  21.228  1.00  0.00     0.167 HD
ATOM     57  O   UNL     1      22.936  29.438  18.211  1.00  0.00    -0.225 OA
BRANCH  55  58
ATOM     58  O   UNL     1      23.674  27.506  19.100  1.00  0.00    -0.443 OA
BRANCH  58  59
ATOM     59  C   UNL     1      23.124  26.231  18.849  1.00  0.00     0.294 C 
BRANCH  59  60
ATOM     60  C   UNL     1      22.919  25.454  20.117  1.00  0.00     0.121 A 
ATOM     61  C   UNL     1      23.275  25.773  21.408  1.00  0.00     0.144 A 
ATOM     62  N   UNL     1      22.318  24.243  20.202  1.00  0.00    -0.131 NA
ATOM     63  N   UNL     1      22.893  24.775  22.223  1.00  0.00    -0.220 N 
ATOM     64  N   UNL     1      22.309  23.849  21.461  1.00  0.00    -0.062 NA
BRANCH  63  65
ATOM     65  C   UNL     1      23.090  24.740  23.630  1.00  0.00     0.069 A 
ATOM     66  C   UNL     1      22.071  24.647  24.553  1.00  0.00     0.048 A 
ATOM     67  C   UNL     1      24.382  24.798  24.103  1.00  0.00     0.048 A 
ATOM     68  C   UNL     1      22.309  24.611  25.917  1.00  0.00     0.113 A 
ATOM     69  C   UNL     1      24.612  24.762  25.468  1.00  0.00     0.113 A 
ATOM     70  N   UNL     1      23.595  24.671  26.335  1.00  0.00    -0.265 NA
ENDBRANCH  63  65
ENDBRANCH  59  60
ENDBRANCH  58  59
ENDBRANCH  55  58
ENDBRANCH  53  54
ENDBRANCH  50  53
ENDBRANCH  47  50
ENDBRANCH   5  47
BRANCH   4  71
ATOM     71  N   UNL     1      16.960  29.035  17.026  1.00  0.00    -0.348 N 
ATOM     72  C   UNL     1      17.670  29.137  15.810  1.00  0.00     0.217 C 
ATOM     73  H   UNL     1      15.985  29.389  17.023  1.00  0.00     0.163 HD
ATOM     74  C   UNL     1      17.020  29.721  14.627  1.00  0.00     0.114 C 
ATOM     75  O   UNL     1      18.846  28.732  15.735  1.00  0.00    -0.275 OA
ENDBRANCH   4  71
TORSDOF 30
