REMARK VINA RESULT:    -5.953      0.000      0.000
REMARK INTER + INTRA:         -25.291
REMARK INTER:                 -19.430
REMARK INTRA:                  -5.861
REMARK UNBOUND:                -9.245
REMARK SMILES CC(=O)N[C@@H]1[C@@H](O)C[C@](OC[C@H]2O[C@@H](O[C@H]3[C@H](O)[C@@H](O)[C@H](OCCN=[N+]=[N-])O[C@@H]3CO)[C@H](O)[C@@H](O)[C@H]2O)(C(=O)O)O[C@H]1C(O)[C@H](O)CNC(=O)OCc1cn([C@@H](C)C(=O)OCc2ccccc2)nn1
REMARK SMILES IDX 43 1 42 2 9 3 8 4 41 5 6 6 5 7 10 8 11 9 12 10 14 11 13 12
REMARK SMILES IDX 32 13 34 14 36 15 15 16 16 17 29 18 28 19 21 20 17 21 19 22
REMARK SMILES IDX 30 23 31 24 22 26 23 27 24 28 25 29 26 30 27 31 18 32 20 34
REMARK SMILES IDX 33 36 35 38 37 40 38 42 39 43 40 44 7 46 4 48 2 49 1 51 3 52
REMARK SMILES IDX 44 53 45 55 46 56 47 58 48 59 49 60 50 62 51 63 52 64 53 65
REMARK SMILES IDX 54 66 69 67 55 68 68 69 56 70 57 71 58 72 59 73 60 74 61 75
REMARK SMILES IDX 62 76 63 77 67 78 64 79 66 80 65 81
REMARK H PARENT 31 25 18 33 20 35 33 37 35 39 37 41 40 45 7 47 4 50 44 54
REMARK H PARENT 46 57 48 61
REMARK Flexibility Score: inf
ROOT
ATOM      1  C   UNL     1      28.301  21.172  21.533  1.00  0.00     0.176 C 
ENDROOT
BRANCH   1   2
ATOM      2  C   UNL     1      29.736  20.957  21.813  1.00  0.00     0.178 C 
ATOM      3  C   UNL     1      30.477  19.855  19.894  1.00  0.00     0.272 C 
ATOM      4  C   UNL     1      30.721  18.646  20.713  1.00  0.00     0.113 C 
ATOM      5  O   UNL     1      30.581  21.018  20.737  1.00  0.00    -0.332 OA
ATOM      6  C   UNL     1      29.803  18.523  21.907  1.00  0.00     0.145 C 
ATOM      7  C   UNL     1      29.934  19.773  22.723  1.00  0.00     0.142 C 
BRANCH   3   8
ATOM      8  O   UNL     1      29.365  20.016  19.223  1.00  0.00    -0.338 OA
BRANCH   8   9
ATOM      9  C   UNL     1      28.767  19.315  18.304  1.00  0.00     0.199 C 
BRANCH   9  10
ATOM     10  C   UNL     1      28.898  19.596  16.834  1.00  0.00     0.179 C 
ATOM     11  C   UNL     1      27.537  19.719  14.949  1.00  0.00     0.282 C 
ATOM     12  O   UNL     1      27.791  19.131  16.187  1.00  0.00    -0.341 OA
ATOM     13  C   UNL     1      28.751  20.322  14.340  1.00  0.00     0.202 C 
ATOM     14  C   UNL     1      29.285  21.441  15.192  1.00  0.00     0.179 C 
ATOM     15  C   UNL     1      29.069  21.116  16.626  1.00  0.00     0.177 C 
BRANCH  11  16
ATOM     16  O   UNL     1      26.448  20.532  15.107  1.00  0.00    -0.341 OA
BRANCH  16  17
ATOM     17  C   UNL     1      25.801  20.884  13.960  1.00  0.00     0.184 C 
ATOM     18  C   UNL     1      24.831  21.998  14.257  1.00  0.00     0.178 C 
ATOM     19  O   UNL     1      24.050  22.265  13.127  1.00  0.00    -0.341 OA
ATOM     20  C   UNL     1      23.007  21.306  13.177  1.00  0.00     0.281 C 
ATOM     21  C   UNL     1      24.995  19.743  13.362  1.00  0.00     0.180 C 
ATOM     22  C   UNL     1      23.523  19.922  13.412  1.00  0.00     0.202 C 
BRANCH  18  23
ATOM     23  C   UNL     1      25.464  23.242  14.805  1.00  0.00     0.191 C 
BRANCH  23  24
ATOM     24  O   UNL     1      25.810  22.965  16.131  1.00  0.00    -0.394 OA
ATOM     25  H   UNL     1      25.957  23.779  16.670  1.00  0.00     0.210 HD
ENDBRANCH  23  24
ENDBRANCH  18  23
BRANCH  20  26
ATOM     26  O   UNL     1      22.258  21.451  12.053  1.00  0.00    -0.350 OA
BRANCH  26  27
ATOM     27  C   UNL     1      21.046  20.850  11.984  1.00  0.00     0.169 C 
BRANCH  27  28
ATOM     28  C   UNL     1      20.304  20.918  10.697  1.00  0.00     0.119 C 
BRANCH  28  29
ATOM     29  N   UNL     1      19.504  19.801  10.343  1.00  0.00    -0.092 NA
ATOM     30  N   UNL     1      18.935  19.108  11.178  1.00  0.00     0.001 N 
ATOM     31  N   UNL     1      18.200  18.474  11.957  1.00  0.00    -0.003 NA
ENDBRANCH  28  29
ENDBRANCH  27  28
ENDBRANCH  26  27
ENDBRANCH  20  26
BRANCH  21  32
ATOM     32  O   UNL     1      25.374  19.490  12.041  1.00  0.00    -0.387 OA
ATOM     33  H   UNL     1      25.717  18.578  11.905  1.00  0.00     0.211 HD
ENDBRANCH  21  32
BRANCH  22  34
ATOM     34  O   UNL     1      23.025  19.345  14.585  1.00  0.00    -0.385 OA
ATOM     35  H   UNL     1      23.812  19.156  15.163  1.00  0.00     0.211 HD
ENDBRANCH  22  34
ENDBRANCH  16  17
ENDBRANCH  11  16
BRANCH  13  36
ATOM     36  O   UNL     1      29.720  19.303  14.182  1.00  0.00    -0.385 OA
ATOM     37  H   UNL     1      30.595  19.760  14.375  1.00  0.00     0.211 HD
ENDBRANCH  13  36
BRANCH  14  38
ATOM     38  O   UNL     1      28.694  22.623  14.794  1.00  0.00    -0.387 OA
ATOM     39  H   UNL     1      27.703  22.550  14.730  1.00  0.00     0.211 HD
ENDBRANCH  14  38
BRANCH  15  40
ATOM     40  O   UNL     1      28.016  21.826  17.185  1.00  0.00    -0.387 OA
ATOM     41  H   UNL     1      27.441  21.195  17.719  1.00  0.00     0.211 HD
ENDBRANCH  15  40
ENDBRANCH   9  10
ENDBRANCH   8   9
ENDBRANCH   3   8
BRANCH   3  42
ATOM     42  C   UNL     1      31.712  20.080  19.044  1.00  0.00     0.364 C 
ATOM     43  O   UNL     1      32.334  21.151  19.075  1.00  0.00    -0.246 OA
BRANCH  42  44
ATOM     44  O   UNL     1      32.184  19.079  18.197  1.00  0.00    -0.477 OA
ATOM     45  H   UNL     1      32.356  18.124  18.493  1.00  0.00     0.296 HD
ENDBRANCH  42  44
ENDBRANCH   3  42
BRANCH   6  46
ATOM     46  O   UNL     1      28.486  18.248  21.551  1.00  0.00    -0.391 OA
ATOM     47  H   UNL     1      28.396  18.476  20.597  1.00  0.00     0.211 HD
ENDBRANCH   6  46
BRANCH   7  48
ATOM     48  N   UNL     1      31.254  19.789  23.341  1.00  0.00    -0.348 N 
ATOM     49  C   UNL     1      31.427  20.519  24.559  1.00  0.00     0.217 C 
ATOM     50  H   UNL     1      32.083  19.301  22.947  1.00  0.00     0.163 HD
ATOM     51  C   UNL     1      32.780  20.536  25.191  1.00  0.00     0.114 C 
ATOM     52  O   UNL     1      30.452  21.129  25.077  1.00  0.00    -0.275 OA
ENDBRANCH   7  48
ENDBRANCH   1   2
BRANCH   1  53
ATOM     53  O   UNL     1      27.545  20.572  22.569  1.00  0.00    -0.388 OA
ATOM     54  H   UNL     1      27.854  20.901  23.457  1.00  0.00     0.211 HD
ENDBRANCH   1  53
BRANCH   1  55
ATOM     55  C   UNL     1      27.877  22.649  21.589  1.00  0.00     0.165 C 
BRANCH  55  56
ATOM     56  O   UNL     1      26.660  22.820  22.169  1.00  0.00    -0.388 OA
ATOM     57  H   UNL     1      26.088  23.418  21.632  1.00  0.00     0.211 HD
ENDBRANCH  55  56
BRANCH  55  58
ATOM     58  C   UNL     1      28.068  23.309  20.261  1.00  0.00     0.154 C 
BRANCH  58  59
ATOM     59  N   UNL     1      26.832  23.355  19.531  1.00  0.00    -0.319 N 
ATOM     60  C   UNL     1      26.153  24.525  19.117  1.00  0.00     0.407 C 
ATOM     61  H   UNL     1      26.340  22.448  19.251  1.00  0.00     0.167 HD
ATOM     62  O   UNL     1      26.591  25.646  19.384  1.00  0.00    -0.225 OA
BRANCH  60  63
ATOM     63  O   UNL     1      24.956  24.447  18.387  1.00  0.00    -0.443 OA
BRANCH  63  64
ATOM     64  C   UNL     1      23.934  25.403  18.524  1.00  0.00     0.294 C 
BRANCH  64  65
ATOM     65  C   UNL     1      23.144  25.045  19.725  1.00  0.00     0.120 A 
ATOM     66  C   UNL     1      22.782  25.856  20.777  1.00  0.00     0.139 A 
ATOM     67  N   UNL     1      22.643  23.833  19.988  1.00  0.00    -0.132 NA
ATOM     68  N   UNL     1      22.066  25.112  21.665  1.00  0.00    -0.238 N 
ATOM     69  N   UNL     1      21.997  23.895  21.161  1.00  0.00    -0.066 NA
BRANCH  68  70
ATOM     70  C   UNL     1      21.546  25.668  22.890  1.00  0.00     0.215 C 
ATOM     71  C   UNL     1      20.800  24.622  23.697  1.00  0.00     0.046 C 
BRANCH  70  72
ATOM     72  C   UNL     1      22.662  26.242  23.723  1.00  0.00     0.331 C 
ATOM     73  O   UNL     1      22.475  27.312  24.327  1.00  0.00    -0.250 OA
BRANCH  72  74
ATOM     74  O   UNL     1      23.878  25.607  23.827  1.00  0.00    -0.459 OA
BRANCH  74  75
ATOM     75  C   UNL     1      24.152  24.520  24.678  1.00  0.00     0.268 C 
BRANCH  75  76
ATOM     76  C   UNL     1      23.992  24.835  26.113  1.00  0.00    -0.011 A 
ATOM     77  C   UNL     1      24.929  25.544  26.818  1.00  0.00     0.007 A 
ATOM     78  C   UNL     1      22.873  24.412  26.787  1.00  0.00     0.007 A 
ATOM     79  C   UNL     1      24.785  25.836  28.156  1.00  0.00     0.000 A 
ATOM     80  C   UNL     1      22.686  24.681  28.123  1.00  0.00     0.000 A 
ATOM     81  C   UNL     1      23.658  25.402  28.806  1.00  0.00     0.000 A 
ENDBRANCH  75  76
ENDBRANCH  74  75
ENDBRANCH  72  74
ENDBRANCH  70  72
ENDBRANCH  68  70
ENDBRANCH  64  65
ENDBRANCH  63  64
ENDBRANCH  60  63
ENDBRANCH  58  59
ENDBRANCH  55  58
ENDBRANCH   1  55
TORSDOF 34
