REMARK VINA RESULT:    -6.360      2.740      5.016
REMARK INTER + INTRA:         -22.404
REMARK INTER:                 -13.438
REMARK INTRA:                  -8.966
REMARK UNBOUND:                -5.634
REMARK SMILES CC(=O)N[C@@H]1[C@@H](O)C[C@](OC[C@H]2O[C@@H](O[C@H]3[C@H](O)[C@@H](O)[C@H](OCCN=[N+]=[N-])O[C@@H]3CO)[C@H](O)[C@@H](O)[C@H]2O)(C(=O)O)O[C@H]1C(O)[C@H](O)CNC(=O)OCc1cn(Cc2ccccc2OC(C)=O)nn1
REMARK SMILES IDX 43 1 42 2 9 3 8 4 41 5 6 6 5 7 10 8 11 9 12 10 14 11 13 12
REMARK SMILES IDX 32 13 34 14 36 15 15 16 16 17 29 18 28 19 21 20 17 21 19 22
REMARK SMILES IDX 30 23 31 24 22 26 23 27 24 28 25 29 26 30 27 31 18 32 20 34
REMARK SMILES IDX 33 36 35 38 37 40 38 42 39 43 40 44 7 46 4 48 2 49 1 51 3 52
REMARK SMILES IDX 44 53 45 55 46 56 47 58 48 59 49 60 50 62 51 63 52 64 53 65
REMARK SMILES IDX 54 66 68 67 55 68 67 69 56 70 57 71 62 72 58 73 61 74 59 75
REMARK SMILES IDX 60 76 63 77 64 78 66 79 65 80
REMARK H PARENT 31 25 18 33 20 35 33 37 35 39 37 41 40 45 7 47 4 50 44 54
REMARK H PARENT 46 57 48 61
REMARK Flexibility Score: inf
ROOT
ATOM      1  C   UNL     1      17.535  31.324  23.631  1.00  0.00     0.176 C 
ENDROOT
BRANCH   1   2
ATOM      2  C   UNL     1      16.115  30.977  23.209  1.00  0.00     0.178 C 
ATOM      3  C   UNL     1      14.878  30.397  21.320  1.00  0.00     0.272 C 
ATOM      4  C   UNL     1      13.773  30.799  22.291  1.00  0.00     0.113 C 
ATOM      5  O   UNL     1      16.113  30.855  21.838  1.00  0.00    -0.332 OA
ATOM      6  C   UNL     1      14.091  32.219  22.730  1.00  0.00     0.145 C 
ATOM      7  C   UNL     1      15.249  32.158  23.650  1.00  0.00     0.142 C 
BRANCH   3   8
ATOM      8  O   UNL     1      14.753  30.975  20.092  1.00  0.00    -0.338 OA
BRANCH   8   9
ATOM      9  C   UNL     1      14.143  30.278  19.098  1.00  0.00     0.199 C 
BRANCH   9  10
ATOM     10  C   UNL     1      15.065  30.315  17.867  1.00  0.00     0.179 C 
ATOM     11  C   UNL     1      16.789  29.164  16.874  1.00  0.00     0.282 C 
ATOM     12  O   UNL     1      15.816  29.138  17.932  1.00  0.00    -0.341 OA
ATOM     13  C   UNL     1      16.014  28.898  15.633  1.00  0.00     0.202 C 
ATOM     14  C   UNL     1      15.108  30.123  15.421  1.00  0.00     0.179 C 
ATOM     15  C   UNL     1      14.254  30.395  16.614  1.00  0.00     0.177 C 
BRANCH  11  16
ATOM     16  O   UNL     1      17.723  28.234  17.261  1.00  0.00    -0.341 OA
BRANCH  16  17
ATOM     17  C   UNL     1      18.969  28.835  17.514  1.00  0.00     0.184 C 
ATOM     18  C   UNL     1      20.073  28.320  16.667  1.00  0.00     0.178 C 
ATOM     19  O   UNL     1      21.237  28.044  17.391  1.00  0.00    -0.341 OA
ATOM     20  C   UNL     1      21.606  29.048  18.276  1.00  0.00     0.281 C 
ATOM     21  C   UNL     1      19.368  28.389  18.971  1.00  0.00     0.180 C 
ATOM     22  C   UNL     1      20.529  29.271  19.337  1.00  0.00     0.202 C 
BRANCH  18  23
ATOM     23  C   UNL     1      20.362  29.092  15.418  1.00  0.00     0.191 C 
BRANCH  23  24
ATOM     24  O   UNL     1      19.546  30.213  15.375  1.00  0.00    -0.394 OA
ATOM     25  H   UNL     1      19.994  30.944  14.899  1.00  0.00     0.210 HD
ENDBRANCH  23  24
ENDBRANCH  18  23
BRANCH  20  26
ATOM     26  O   UNL     1      21.807  30.222  17.641  1.00  0.00    -0.350 OA
BRANCH  26  27
ATOM     27  C   UNL     1      23.039  30.750  17.514  1.00  0.00     0.169 C 
BRANCH  27  28
ATOM     28  C   UNL     1      24.221  29.875  17.730  1.00  0.00     0.119 C 
BRANCH  28  29
ATOM     29  N   UNL     1      24.827  30.129  18.993  1.00  0.00    -0.092 NA
ATOM     30  N   UNL     1      24.639  29.435  19.967  1.00  0.00     0.001 N 
ATOM     31  N   UNL     1      24.584  28.522  20.797  1.00  0.00    -0.003 NA
ENDBRANCH  28  29
ENDBRANCH  27  28
ENDBRANCH  26  27
ENDBRANCH  20  26
BRANCH  21  32
ATOM     32  O   UNL     1      18.281  28.515  19.800  1.00  0.00    -0.387 OA
ATOM     33  H   UNL     1      17.521  28.961  19.305  1.00  0.00     0.211 HD
ENDBRANCH  21  32
BRANCH  22  34
ATOM     34  O   UNL     1      20.979  29.053  20.620  1.00  0.00    -0.385 OA
ATOM     35  H   UNL     1      20.993  28.063  20.762  1.00  0.00     0.211 HD
ENDBRANCH  22  34
ENDBRANCH  16  17
ENDBRANCH  11  16
BRANCH  13  36
ATOM     36  O   UNL     1      16.796  28.832  14.490  1.00  0.00    -0.385 OA
ATOM     37  H   UNL     1      17.645  28.358  14.604  1.00  0.00     0.211 HD
ENDBRANCH  13  36
BRANCH  14  38
ATOM     38  O   UNL     1      14.356  29.964  14.256  1.00  0.00    -0.387 OA
ATOM     39  H   UNL     1      13.439  29.697  14.551  1.00  0.00     0.211 HD
ENDBRANCH  14  38
BRANCH  15  40
ATOM     40  O   UNL     1      13.189  29.497  16.601  1.00  0.00    -0.387 OA
ATOM     41  H   UNL     1      13.205  28.862  17.341  1.00  0.00     0.211 HD
ENDBRANCH  15  40
ENDBRANCH   9  10
ENDBRANCH   8   9
ENDBRANCH   3   8
BRANCH   3  42
ATOM     42  C   UNL     1      14.888  28.918  21.307  1.00  0.00     0.364 C 
ATOM     43  O   UNL     1      15.898  28.266  21.055  1.00  0.00    -0.246 OA
BRANCH  42  44
ATOM     44  O   UNL     1      13.700  28.241  21.593  1.00  0.00    -0.477 OA
ATOM     45  H   UNL     1      12.881  28.732  21.980  1.00  0.00     0.296 HD
ENDBRANCH  42  44
ENDBRANCH   3  42
BRANCH   6  46
ATOM     46  O   UNL     1      14.489  32.893  21.571  1.00  0.00    -0.391 OA
ATOM     47  H   UNL     1      13.977  32.635  20.768  1.00  0.00     0.211 HD
ENDBRANCH   6  46
BRANCH   7  48
ATOM     48  N   UNL     1      14.993  32.098  25.028  1.00  0.00    -0.348 N 
ATOM     49  C   UNL     1      14.956  33.233  25.886  1.00  0.00     0.217 C 
ATOM     50  H   UNL     1      14.816  31.143  25.455  1.00  0.00     0.163 HD
ATOM     51  C   UNL     1      14.684  33.129  27.329  1.00  0.00     0.114 C 
ATOM     52  O   UNL     1      15.165  34.334  25.359  1.00  0.00    -0.275 OA
ENDBRANCH   7  48
ENDBRANCH   1   2
BRANCH   1  53
ATOM     53  O   UNL     1      17.730  30.746  24.872  1.00  0.00    -0.388 OA
ATOM     54  H   UNL     1      18.474  31.122  25.387  1.00  0.00     0.211 HD
ENDBRANCH   1  53
BRANCH   1  55
ATOM     55  C   UNL     1      18.566  30.989  22.606  1.00  0.00     0.165 C 
BRANCH  55  56
ATOM     56  O   UNL     1      18.530  29.607  22.401  1.00  0.00    -0.388 OA
ATOM     57  H   UNL     1      17.624  29.264  22.364  1.00  0.00     0.211 HD
ENDBRANCH  55  56
BRANCH  55  58
ATOM     58  C   UNL     1      19.953  31.443  22.991  1.00  0.00     0.154 C 
BRANCH  58  59
ATOM     59  N   UNL     1      20.643  30.563  23.875  1.00  0.00    -0.319 N 
ATOM     60  C   UNL     1      21.992  30.157  23.709  1.00  0.00     0.407 C 
ATOM     61  H   UNL     1      20.134  30.177  24.717  1.00  0.00     0.167 HD
ATOM     62  O   UNL     1      22.618  30.599  22.714  1.00  0.00    -0.225 OA
BRANCH  60  63
ATOM     63  O   UNL     1      22.645  29.308  24.570  1.00  0.00    -0.443 OA
BRANCH  63  64
ATOM     64  C   UNL     1      22.105  28.048  24.965  1.00  0.00     0.294 C 
BRANCH  64  65
ATOM     65  C   UNL     1      21.796  27.205  23.801  1.00  0.00     0.120 A 
ATOM     66  C   UNL     1      22.470  26.047  23.492  1.00  0.00     0.138 A 
ATOM     67  N   UNL     1      20.864  27.352  22.852  1.00  0.00    -0.132 NA
ATOM     68  N   UNL     1      21.943  25.525  22.382  1.00  0.00    -0.248 N 
ATOM     69  N   UNL     1      20.952  26.358  22.013  1.00  0.00    -0.067 NA
BRANCH  68  70
ATOM     70  C   UNL     1      22.303  24.326  21.649  1.00  0.00     0.185 C 
BRANCH  70  71
ATOM     71  C   UNL     1      23.728  24.307  21.301  1.00  0.00     0.016 A 
ATOM     72  C   UNL     1      24.214  24.953  20.217  1.00  0.00     0.135 A 
ATOM     73  C   UNL     1      24.576  23.596  22.155  1.00  0.00     0.009 A 
ATOM     74  C   UNL     1      25.585  24.901  19.959  1.00  0.00     0.047 A 
ATOM     75  C   UNL     1      25.921  23.552  21.892  1.00  0.00     0.001 A 
ATOM     76  C   UNL     1      26.436  24.203  20.794  1.00  0.00     0.004 A 
BRANCH  72  77
ATOM     77  O   UNL     1      23.416  25.665  19.345  1.00  0.00    -0.426 OA
BRANCH  77  78
ATOM     78  C   UNL     1      23.627  25.486  17.973  1.00  0.00     0.308 C 
ATOM     79  O   UNL     1      24.138  26.420  17.317  1.00  0.00    -0.252 OA
ATOM     80  C   UNL     1      23.249  24.223  17.334  1.00  0.00     0.139 C 
ENDBRANCH  77  78
ENDBRANCH  72  77
ENDBRANCH  70  71
ENDBRANCH  68  70
ENDBRANCH  64  65
ENDBRANCH  63  64
ENDBRANCH  60  63
ENDBRANCH  58  59
ENDBRANCH  55  58
ENDBRANCH   1  55
TORSDOF 33
