REMARK VINA RESULT:    -6.078      2.651      8.363
REMARK INTER + INTRA:         -21.192
REMARK INTER:                 -14.726
REMARK INTRA:                  -6.467
REMARK UNBOUND:                -5.342
REMARK SMILES CC(=O)N[C@@H]1[C@@H](O)C[C@](OC[C@H]2O[C@@H](O[C@H]3[C@H](O)[C@@H](O)[C@H](OCCN=[N+]=[N-])O[C@@H]3CO)[C@H](O)[C@@H](O)[C@H]2O)(C(=O)O)O[C@H]1C(O)[C@H](O)CNC(=O)OCc1cn(CCC(=O)O)nn1
REMARK SMILES IDX 43 1 42 2 9 3 8 4 41 5 6 6 5 7 10 8 11 9 12 10 14 11 13 12
REMARK SMILES IDX 32 13 34 14 36 15 15 16 16 17 29 18 28 19 21 20 17 21 19 22
REMARK SMILES IDX 30 23 31 24 22 26 23 27 24 28 25 29 26 30 27 31 18 32 20 34
REMARK SMILES IDX 33 36 35 38 37 40 38 42 39 43 40 44 7 46 4 48 2 49 1 51 3 52
REMARK SMILES IDX 44 53 45 55 46 56 47 58 48 59 49 60 50 62 51 63 52 64 53 65
REMARK SMILES IDX 54 66 62 67 55 68 61 69 56 70 57 71 58 72 59 73 60 74
REMARK H PARENT 31 25 18 33 20 35 33 37 35 39 37 41 40 45 7 47 4 50 44 54
REMARK H PARENT 46 57 48 61 60 75
REMARK Flexibility Score: inf
ROOT
ATOM      1  C   UNL     1       4.108  26.794  29.476  1.00  0.00     0.176 C 
ENDROOT
BRANCH   1   2
ATOM      2  C   UNL     1       3.637  26.270  28.140  1.00  0.00     0.178 C 
ATOM      3  C   UNL     1       2.084  24.784  27.201  1.00  0.00     0.272 C 
ATOM      4  C   UNL     1       2.674  25.514  26.008  1.00  0.00     0.113 C 
ATOM      5  O   UNL     1       3.083  25.019  28.219  1.00  0.00    -0.332 OA
ATOM      6  C   UNL     1       4.210  25.374  25.973  1.00  0.00     0.145 C 
ATOM      7  C   UNL     1       4.782  26.168  27.141  1.00  0.00     0.142 C 
BRANCH   3   8
ATOM      8  O   UNL     1       2.009  23.461  26.963  1.00  0.00    -0.338 OA
BRANCH   8   9
ATOM      9  C   UNL     1       1.274  22.555  27.545  1.00  0.00     0.199 C 
BRANCH   9  10
ATOM     10  C   UNL     1       1.625  21.736  28.711  1.00  0.00     0.179 C 
ATOM     11  C   UNL     1       3.097  21.170  30.381  1.00  0.00     0.282 C 
ATOM     12  O   UNL     1       2.886  21.865  29.225  1.00  0.00    -0.341 OA
ATOM     13  C   UNL     1       1.937  20.354  30.879  1.00  0.00     0.202 C 
ATOM     14  C   UNL     1       0.638  21.136  30.852  1.00  0.00     0.179 C 
ATOM     15  C   UNL     1       0.709  22.281  29.867  1.00  0.00     0.177 C 
BRANCH  11  16
ATOM     16  O   UNL     1       3.502  21.970  31.448  1.00  0.00    -0.341 OA
BRANCH  16  17
ATOM     17  C   UNL     1       4.152  21.262  32.456  1.00  0.00     0.184 C 
ATOM     18  C   UNL     1       3.414  21.464  33.733  1.00  0.00     0.178 C 
ATOM     19  O   UNL     1       4.133  22.189  34.698  1.00  0.00    -0.341 OA
ATOM     20  C   UNL     1       4.544  23.362  34.033  1.00  0.00     0.281 C 
ATOM     21  C   UNL     1       5.578  21.726  32.483  1.00  0.00     0.180 C 
ATOM     22  C   UNL     1       5.793  22.980  33.272  1.00  0.00     0.202 C 
BRANCH  18  23
ATOM     23  C   UNL     1       3.008  20.136  34.355  1.00  0.00     0.191 C 
BRANCH  23  24
ATOM     24  O   UNL     1       4.094  19.266  34.386  1.00  0.00    -0.394 OA
ATOM     25  H   UNL     1       4.905  19.773  34.147  1.00  0.00     0.210 HD
ENDBRANCH  23  24
ENDBRANCH  18  23
BRANCH  20  26
ATOM     26  O   UNL     1       4.761  24.400  34.908  1.00  0.00    -0.350 OA
BRANCH  26  27
ATOM     27  C   UNL     1       4.408  23.998  36.193  1.00  0.00     0.169 C 
BRANCH  27  28
ATOM     28  C   UNL     1       5.543  24.333  37.152  1.00  0.00     0.119 C 
BRANCH  28  29
ATOM     29  N   UNL     1       5.199  23.723  38.420  1.00  0.00    -0.092 NA
ATOM     30  N   UNL     1       4.731  22.586  38.417  1.00  0.00     0.001 N 
ATOM     31  N   UNL     1       4.339  21.435  38.705  1.00  0.00    -0.003 NA
ENDBRANCH  28  29
ENDBRANCH  27  28
ENDBRANCH  26  27
ENDBRANCH  20  26
BRANCH  21  32
ATOM     32  O   UNL     1       6.336  20.709  33.054  1.00  0.00    -0.387 OA
ATOM     33  H   UNL     1       6.144  19.877  32.578  1.00  0.00     0.211 HD
ENDBRANCH  21  32
BRANCH  22  34
ATOM     34  O   UNL     1       6.218  24.024  32.448  1.00  0.00    -0.385 OA
ATOM     35  H   UNL     1       7.139  23.844  32.112  1.00  0.00     0.211 HD
ENDBRANCH  22  34
ENDBRANCH  16  17
ENDBRANCH  11  16
BRANCH  13  36
ATOM     36  O   UNL     1       1.814  19.115  30.232  1.00  0.00    -0.385 OA
ATOM     37  H   UNL     1       1.346  19.230  29.390  1.00  0.00     0.211 HD
ENDBRANCH  13  36
BRANCH  14  38
ATOM     38  O   UNL     1       0.288  21.535  32.122  1.00  0.00    -0.387 OA
ATOM     39  H   UNL     1      -0.347  20.910  32.526  1.00  0.00     0.211 HD
ENDBRANCH  14  38
BRANCH  15  40
ATOM     40  O   UNL     1       1.371  23.375  30.370  1.00  0.00    -0.387 OA
ATOM     41  H   UNL     1       1.931  23.197  31.161  1.00  0.00     0.211 HD
ENDBRANCH  15  40
ENDBRANCH   9  10
ENDBRANCH   8   9
ENDBRANCH   3   8
BRANCH   3  42
ATOM     42  C   UNL     1       0.849  25.381  27.715  1.00  0.00     0.364 C 
ATOM     43  O   UNL     1       0.726  25.615  28.943  1.00  0.00    -0.246 OA
BRANCH  42  44
ATOM     44  O   UNL     1      -0.194  25.699  26.884  1.00  0.00    -0.477 OA
ATOM     45  H   UNL     1      -0.524  26.621  26.684  1.00  0.00     0.296 HD
ENDBRANCH  42  44
ENDBRANCH   3  42
BRANCH   6  46
ATOM     46  O   UNL     1       4.499  24.041  26.170  1.00  0.00    -0.391 OA
ATOM     47  H   UNL     1       3.631  23.546  26.245  1.00  0.00     0.211 HD
ENDBRANCH   6  46
BRANCH   7  48
ATOM     48  N   UNL     1       5.239  27.448  26.706  1.00  0.00    -0.348 N 
ATOM     49  C   UNL     1       6.485  27.554  26.034  1.00  0.00     0.217 C 
ATOM     50  H   UNL     1       4.696  28.325  26.861  1.00  0.00     0.163 HD
ATOM     51  C   UNL     1       7.036  28.843  25.552  1.00  0.00     0.114 C 
ATOM     52  O   UNL     1       7.193  26.527  25.815  1.00  0.00    -0.275 OA
ENDBRANCH   7  48
ENDBRANCH   1   2
BRANCH   1  53
ATOM     53  O   UNL     1       5.449  26.441  29.631  1.00  0.00    -0.388 OA
ATOM     54  H   UNL     1       5.920  26.435  28.773  1.00  0.00     0.211 HD
ENDBRANCH   1  53
BRANCH   1  55
ATOM     55  C   UNL     1       3.981  28.275  29.647  1.00  0.00     0.165 C 
BRANCH  55  56
ATOM     56  O   UNL     1       5.181  28.875  29.251  1.00  0.00    -0.388 OA
ATOM     57  H   UNL     1       5.884  28.628  29.899  1.00  0.00     0.211 HD
ENDBRANCH  55  56
BRANCH  55  58
ATOM     58  C   UNL     1       3.823  28.531  31.150  1.00  0.00     0.154 C 
BRANCH  58  59
ATOM     59  N   UNL     1       5.104  28.694  31.779  1.00  0.00    -0.319 N 
ATOM     60  C   UNL     1       5.727  27.721  32.607  1.00  0.00     0.407 C 
ATOM     61  H   UNL     1       5.663  29.590  31.638  1.00  0.00     0.167 HD
ATOM     62  O   UNL     1       5.111  26.642  32.803  1.00  0.00    -0.225 OA
BRANCH  60  63
ATOM     63  O   UNL     1       6.964  27.924  33.192  1.00  0.00    -0.443 OA
BRANCH  63  64
ATOM     64  C   UNL     1       7.073  27.905  34.594  1.00  0.00     0.294 C 
BRANCH  64  65
ATOM     65  C   UNL     1       7.775  26.691  35.050  1.00  0.00     0.120 A 
ATOM     66  C   UNL     1       8.429  26.609  36.272  1.00  0.00     0.138 A 
ATOM     67  N   UNL     1       7.898  25.496  34.422  1.00  0.00    -0.132 NA
ATOM     68  N   UNL     1       8.927  25.351  36.335  1.00  0.00    -0.252 N 
ATOM     69  N   UNL     1       8.595  24.715  35.221  1.00  0.00    -0.067 NA
BRANCH  68  70
ATOM     70  C   UNL     1       9.686  24.784  37.430  1.00  0.00     0.158 C 
BRANCH  70  71
ATOM     71  C   UNL     1       9.712  23.272  37.418  1.00  0.00     0.146 C 
BRANCH  71  72
ATOM     72  C   UNL     1      11.041  22.840  36.964  1.00  0.00     0.305 C 
ATOM     73  O   UNL     1      12.018  23.611  37.085  1.00  0.00    -0.252 OA
BRANCH  72  74
ATOM     74  O   UNL     1      11.252  21.586  36.393  1.00  0.00    -0.481 OA
ATOM     75  H   UNL     1      10.549  21.095  35.850  1.00  0.00     0.296 HD
ENDBRANCH  72  74
ENDBRANCH  71  72
ENDBRANCH  70  71
ENDBRANCH  68  70
ENDBRANCH  64  65
ENDBRANCH  63  64
ENDBRANCH  60  63
ENDBRANCH  58  59
ENDBRANCH  55  58
ENDBRANCH   1  55
TORSDOF 33
