REMARK VINA RESULT:    -4.665     15.570     20.194
REMARK INTER + INTRA:         -21.180
REMARK INTER:                 -13.276
REMARK INTRA:                  -7.903
REMARK UNBOUND:                -8.334
REMARK SMILES CC[N+](C)(CC)CCCn1cc(COC(=O)NC[C@@H](O)C(O)[C@@H]2O[C@@](OC[C@H]3O[C@@H](O[C@H]4[C@H](O)[C@@H](O)[C@H](OCCN=[N+]=[N-])O[C@@H]4CO)[C@H](O)[C@@H](O)[C@H]3O)(C(=O)O)C[C@H](O)[C@H]2NC(C)=O)nn1
REMARK SMILES IDX 21 1 23 2 25 3 57 4 24 5 58 6 60 7 26 8 27 9 28 10 30 11
REMARK SMILES IDX 29 12 48 13 50 14 52 15 31 16 32 17 45 18 44 19 37 20 33 21
REMARK SMILES IDX 35 22 46 23 47 24 38 26 39 27 40 28 41 29 42 30 43 31 34 32
REMARK SMILES IDX 36 34 49 36 51 38 53 40 54 42 55 43 56 44 59 46 61 48 62 49
REMARK SMILES IDX 63 51 64 52 22 53 19 55 20 56 18 58 17 59 15 60 16 62 14 63
REMARK SMILES IDX 13 64 12 65 11 66 65 67 10 68 66 69 9 70 8 71 7 72 3 73 4 74
REMARK SMILES IDX 2 75 1 76 5 77 6 78
REMARK H PARENT 47 25 34 33 36 35 49 37 51 39 53 41 56 45 59 47 61 50 22 54
REMARK H PARENT 20 57 17 61
REMARK Flexibility Score: inf
ROOT
ATOM      1  C   UNL     1       4.911  22.788  33.766  1.00  0.00     0.176 C 
ENDROOT
BRANCH   1   2
ATOM      2  C   UNL     1       3.811  22.024  33.035  1.00  0.00     0.178 C 
ATOM      3  C   UNL     1       2.962  21.748  30.852  1.00  0.00     0.272 C 
ATOM      4  C   UNL     1       1.660  21.567  31.558  1.00  0.00     0.113 C 
ATOM      5  O   UNL     1       3.778  22.499  31.743  1.00  0.00    -0.332 OA
ATOM      6  C   UNL     1       1.476  22.539  32.693  1.00  0.00     0.145 C 
ATOM      7  C   UNL     1       2.518  22.215  33.760  1.00  0.00     0.142 C 
BRANCH   3   8
ATOM      8  O   UNL     1       2.892  22.562  29.741  1.00  0.00    -0.338 OA
BRANCH   8   9
ATOM      9  C   UNL     1       2.118  22.223  28.696  1.00  0.00     0.199 C 
BRANCH   9  10
ATOM     10  C   UNL     1       1.015  23.286  28.452  1.00  0.00     0.179 C 
ATOM     11  C   UNL     1       2.257  25.077  27.551  1.00  0.00     0.282 C 
ATOM     12  O   UNL     1       1.459  24.546  28.556  1.00  0.00    -0.341 OA
ATOM     13  C   UNL     1       1.954  24.553  26.198  1.00  0.00     0.202 C 
ATOM     14  C   UNL     1       0.446  24.221  26.229  1.00  0.00     0.179 C 
ATOM     15  C   UNL     1       0.354  22.991  27.105  1.00  0.00     0.177 C 
BRANCH  11  16
ATOM     16  O   UNL     1       3.605  25.055  27.935  1.00  0.00    -0.341 OA
BRANCH  16  17
ATOM     17  C   UNL     1       4.025  26.243  28.459  1.00  0.00     0.184 C 
ATOM     18  C   UNL     1       5.087  27.008  27.798  1.00  0.00     0.178 C 
ATOM     19  O   UNL     1       5.141  28.282  28.335  1.00  0.00    -0.341 OA
ATOM     20  C   UNL     1       4.608  28.516  29.550  1.00  0.00     0.281 C 
ATOM     21  C   UNL     1       4.506  26.047  29.915  1.00  0.00     0.180 C 
ATOM     22  C   UNL     1       4.663  27.398  30.561  1.00  0.00     0.202 C 
BRANCH  18  23
ATOM     23  C   UNL     1       4.978  27.152  26.292  1.00  0.00     0.191 C 
BRANCH  23  24
ATOM     24  O   UNL     1       3.821  27.800  25.881  1.00  0.00    -0.394 OA
ATOM     25  H   UNL     1       3.552  27.363  25.010  1.00  0.00     0.210 HD
ENDBRANCH  23  24
ENDBRANCH  18  23
BRANCH  20  26
ATOM     26  O   UNL     1       3.348  29.076  29.448  1.00  0.00    -0.350 OA
BRANCH  26  27
ATOM     27  C   UNL     1       2.657  29.208  30.607  1.00  0.00     0.169 C 
BRANCH  27  28
ATOM     28  C   UNL     1       1.246  28.660  30.546  1.00  0.00     0.119 C 
BRANCH  28  29
ATOM     29  N   UNL     1       0.889  28.104  31.841  1.00  0.00    -0.092 NA
ATOM     30  N   UNL     1       1.605  27.315  32.452  1.00  0.00     0.001 N 
ATOM     31  N   UNL     1       2.320  26.541  33.093  1.00  0.00    -0.003 NA
ENDBRANCH  28  29
ENDBRANCH  27  28
ENDBRANCH  26  27
ENDBRANCH  20  26
BRANCH  21  32
ATOM     32  O   UNL     1       3.604  25.204  30.521  1.00  0.00    -0.387 OA
ATOM     33  H   UNL     1       3.375  25.419  31.438  1.00  0.00     0.211 HD
ENDBRANCH  21  32
BRANCH  22  34
ATOM     34  O   UNL     1       5.828  27.402  31.312  1.00  0.00    -0.385 OA
ATOM     35  H   UNL     1       5.906  28.176  31.929  1.00  0.00     0.211 HD
ENDBRANCH  22  34
ENDBRANCH  16  17
ENDBRANCH  11  16
BRANCH  13  36
ATOM     36  O   UNL     1       2.111  25.502  25.176  1.00  0.00    -0.385 OA
ATOM     37  H   UNL     1       1.366  25.375  24.550  1.00  0.00     0.211 HD
ENDBRANCH  13  36
BRANCH  14  38
ATOM     38  O   UNL     1       0.008  23.934  24.936  1.00  0.00    -0.387 OA
ATOM     39  H   UNL     1      -0.850  24.391  24.820  1.00  0.00     0.211 HD
ENDBRANCH  14  38
BRANCH  15  40
ATOM     40  O   UNL     1       1.129  22.016  26.480  1.00  0.00    -0.387 OA
ATOM     41  H   UNL     1       0.917  21.101  26.716  1.00  0.00     0.211 HD
ENDBRANCH  15  40
ENDBRANCH   9  10
ENDBRANCH   8   9
ENDBRANCH   3   8
BRANCH   3  42
ATOM     42  C   UNL     1       3.654  20.495  30.505  1.00  0.00     0.364 C 
ATOM     43  O   UNL     1       3.065  19.392  30.508  1.00  0.00    -0.246 OA
BRANCH  42  44
ATOM     44  O   UNL     1       4.985  20.495  30.164  1.00  0.00    -0.477 OA
ATOM     45  H   UNL     1       5.618  21.263  30.376  1.00  0.00     0.296 HD
ENDBRANCH  42  44
ENDBRANCH   3  42
BRANCH   6  46
ATOM     46  O   UNL     1       1.603  23.855  32.316  1.00  0.00    -0.391 OA
ATOM     47  H   UNL     1       1.957  24.428  33.063  1.00  0.00     0.211 HD
ENDBRANCH   6  46
BRANCH   7  48
ATOM     48  N   UNL     1       2.091  20.917  34.312  1.00  0.00    -0.348 N 
ATOM     49  C   UNL     1       2.072  20.678  35.714  1.00  0.00     0.217 C 
ATOM     50  H   UNL     1       1.790  20.117  33.720  1.00  0.00     0.163 HD
ATOM     51  C   UNL     1       1.647  19.389  36.314  1.00  0.00     0.114 C 
ATOM     52  O   UNL     1       2.427  21.597  36.472  1.00  0.00    -0.275 OA
ENDBRANCH   7  48
ENDBRANCH   1   2
BRANCH   1  53
ATOM     53  O   UNL     1       4.458  23.057  35.103  1.00  0.00    -0.388 OA
ATOM     54  H   UNL     1       4.313  22.171  35.528  1.00  0.00     0.211 HD
ENDBRANCH   1  53
BRANCH   1  55
ATOM     55  C   UNL     1       5.153  24.119  33.132  1.00  0.00     0.165 C 
BRANCH  55  56
ATOM     56  O   UNL     1       6.098  23.802  32.070  1.00  0.00    -0.388 OA
ATOM     57  H   UNL     1       6.124  24.603  31.461  1.00  0.00     0.211 HD
ENDBRANCH  55  56
BRANCH  55  58
ATOM     58  C   UNL     1       5.768  25.182  33.965  1.00  0.00     0.154 C 
BRANCH  58  59
ATOM     59  N   UNL     1       7.093  25.137  34.391  1.00  0.00    -0.319 N 
ATOM     60  C   UNL     1       7.631  24.497  35.532  1.00  0.00     0.407 C 
ATOM     61  H   UNL     1       7.834  25.667  33.771  1.00  0.00     0.167 HD
ATOM     62  O   UNL     1       6.951  23.854  36.347  1.00  0.00    -0.225 OA
BRANCH  60  63
ATOM     63  O   UNL     1       9.020  24.583  35.797  1.00  0.00    -0.443 OA
BRANCH  63  64
ATOM     64  C   UNL     1       9.906  24.258  34.709  1.00  0.00     0.294 C 
BRANCH  64  65
ATOM     65  C   UNL     1      10.896  25.399  34.731  1.00  0.00     0.120 A 
ATOM     66  C   UNL     1      10.667  26.695  34.336  1.00  0.00     0.138 A 
ATOM     67  N   UNL     1      12.157  25.396  35.176  1.00  0.00    -0.132 NA
ATOM     68  N   UNL     1      11.802  27.434  34.561  1.00  0.00    -0.252 N 
ATOM     69  N   UNL     1      12.687  26.598  35.072  1.00  0.00    -0.067 NA
BRANCH  68  70
ATOM     70  C   UNL     1      11.947  28.858  34.319  1.00  0.00     0.152 C 
BRANCH  70  71
ATOM     71  C   UNL     1      12.491  29.158  32.989  1.00  0.00     0.085 C 
BRANCH  71  72
ATOM     72  C   UNL     1      13.946  29.232  32.773  1.00  0.00     0.265 C 
BRANCH  72  73
ATOM     73  N   UNL     1      14.457  30.159  31.820  1.00  0.00    -0.326 N 
ATOM     74  C   UNL     1      15.166  29.465  30.779  1.00  0.00     0.334 C 
BRANCH  73  75
ATOM     75  C   UNL     1      15.245  31.233  32.356  1.00  0.00     0.260 C 
ATOM     76  C   UNL     1      14.429  32.233  33.140  1.00  0.00     0.071 C 
ENDBRANCH  73  75
BRANCH  73  77
ATOM     77  C   UNL     1      13.280  30.748  31.159  1.00  0.00     0.260 C 
ATOM     78  C   UNL     1      13.379  30.794  29.675  1.00  0.00     0.071 C 
ENDBRANCH  73  77
ENDBRANCH  72  73
ENDBRANCH  71  72
ENDBRANCH  70  71
ENDBRANCH  68  70
ENDBRANCH  64  65
ENDBRANCH  63  64
ENDBRANCH  60  63
ENDBRANCH  58  59
ENDBRANCH  55  58
ENDBRANCH   1  55
TORSDOF 35
