REMARK VINA RESULT:    -6.235     13.880     20.199
REMARK INTER + INTRA:         -21.929
REMARK INTER:                 -13.817
REMARK INTRA:                  -8.112
REMARK UNBOUND:                -6.033
REMARK SMILES CC(=O)N[C@@H]1[C@@H](O)C[C@](OC[C@H]2O[C@@H](O[C@H]3[C@H](O)[C@@H](O)[C@H](OCCN=[N+]=[N-])O[C@@H]3CO)[C@H](O)[C@@H](O)[C@H]2O)(C(=O)O)O[C@H]1C(O)[C@H](O)CNC(=O)OCc1cn(-c2cccc(S(N)(=O)=O)c2)nn1
REMARK SMILES IDX 9 1 8 2 6 3 5 4 42 5 41 6 10 7 11 8 12 9 14 10 13 11 32 12
REMARK SMILES IDX 34 13 36 14 15 15 16 16 29 17 28 18 21 19 17 20 19 21 30 22
REMARK SMILES IDX 31 23 22 25 23 26 24 27 25 28 26 29 27 30 18 31 20 33 33 35
REMARK SMILES IDX 35 37 37 39 38 41 39 42 40 43 7 45 43 47 44 48 45 50 46 51
REMARK SMILES IDX 47 53 48 54 49 55 50 57 51 58 52 59 53 60 54 61 67 62 55 63
REMARK SMILES IDX 66 64 56 65 65 66 57 67 60 68 58 69 59 70 61 71 63 72 64 73
REMARK SMILES IDX 62 74 4 77 2 78 1 80 3 81
REMARK H PARENT 31 24 18 32 20 34 33 36 35 38 37 40 40 44 7 46 44 49 46 52
REMARK H PARENT 48 56 62 75 62 76 4 79
REMARK Flexibility Score: inf
ROOT
ATOM      1  C   UNL     1      24.980  27.394  25.994  1.00  0.00     0.272 C 
ATOM      2  C   UNL     1      25.290  26.145  26.841  1.00  0.00     0.113 C 
ATOM      3  C   UNL     1      25.210  26.533  28.276  1.00  0.00     0.145 C 
ATOM      4  C   UNL     1      23.862  27.066  28.611  1.00  0.00     0.142 C 
ATOM      5  C   UNL     1      23.222  27.792  27.481  1.00  0.00     0.178 C 
ATOM      6  O   UNL     1      23.733  27.782  26.245  1.00  0.00    -0.332 OA
ENDROOT
BRANCH   1   7
ATOM      7  O   UNL     1      25.121  26.911  24.665  1.00  0.00    -0.338 OA
BRANCH   7   8
ATOM      8  C   UNL     1      24.740  25.605  24.633  1.00  0.00     0.199 C 
BRANCH   8   9
ATOM      9  C   UNL     1      23.471  25.379  23.841  1.00  0.00     0.179 C 
ATOM     10  C   UNL     1      21.570  26.428  23.304  1.00  0.00     0.282 C 
ATOM     11  O   UNL     1      22.981  26.566  23.301  1.00  0.00    -0.341 OA
ATOM     12  C   UNL     1      21.141  25.119  22.749  1.00  0.00     0.202 C 
ATOM     13  C   UNL     1      22.221  24.340  22.043  1.00  0.00     0.179 C 
ATOM     14  C   UNL     1      23.556  24.368  22.764  1.00  0.00     0.177 C 
BRANCH  10  15
ATOM     15  O   UNL     1      20.959  27.543  22.790  1.00  0.00    -0.341 OA
BRANCH  15  16
ATOM     16  C   UNL     1      21.654  28.192  21.797  1.00  0.00     0.184 C 
ATOM     17  C   UNL     1      21.660  29.674  22.083  1.00  0.00     0.178 C 
ATOM     18  O   UNL     1      21.438  30.409  20.912  1.00  0.00    -0.341 OA
ATOM     19  C   UNL     1      20.110  30.284  20.580  1.00  0.00     0.281 C 
ATOM     20  C   UNL     1      20.944  27.891  20.496  1.00  0.00     0.180 C 
ATOM     21  C   UNL     1      19.858  28.868  20.174  1.00  0.00     0.202 C 
BRANCH  17  22
ATOM     22  C   UNL     1      22.944  30.172  22.668  1.00  0.00     0.191 C 
BRANCH  22  23
ATOM     23  O   UNL     1      23.362  29.362  23.742  1.00  0.00    -0.394 OA
ATOM     24  H   UNL     1      23.521  28.435  23.448  1.00  0.00     0.210 HD
ENDBRANCH  22  23
ENDBRANCH  17  22
BRANCH  19  25
ATOM     25  O   UNL     1      19.740  31.122  19.528  1.00  0.00    -0.350 OA
BRANCH  25  26
ATOM     26  C   UNL     1      19.854  30.570  18.281  1.00  0.00     0.169 C 
BRANCH  26  27
ATOM     27  C   UNL     1      18.611  30.688  17.424  1.00  0.00     0.119 C 
BRANCH  27  28
ATOM     28  N   UNL     1      18.217  29.402  16.882  1.00  0.00    -0.092 NA
ATOM     29  N   UNL     1      17.734  28.512  17.577  1.00  0.00     0.001 N 
ATOM     30  N   UNL     1      17.258  27.564  18.177  1.00  0.00    -0.003 NA
ENDBRANCH  27  28
ENDBRANCH  26  27
ENDBRANCH  25  26
ENDBRANCH  19  25
BRANCH  20  31
ATOM     31  O   UNL     1      21.885  27.947  19.452  1.00  0.00    -0.387 OA
ATOM     32  H   UNL     1      21.883  28.823  18.993  1.00  0.00     0.211 HD
ENDBRANCH  20  31
BRANCH  21  33
ATOM     33  O   UNL     1      18.647  28.463  20.783  1.00  0.00    -0.385 OA
ATOM     34  H   UNL     1      18.709  28.705  21.736  1.00  0.00     0.211 HD
ENDBRANCH  21  33
ENDBRANCH  15  16
ENDBRANCH  10  15
BRANCH  12  35
ATOM     35  O   UNL     1      20.480  24.301  23.697  1.00  0.00    -0.385 OA
ATOM     36  H   UNL     1      20.841  24.632  24.581  1.00  0.00     0.211 HD
ENDBRANCH  12  35
BRANCH  13  37
ATOM     37  O   UNL     1      22.309  24.671  20.704  1.00  0.00    -0.387 OA
ATOM     38  H   UNL     1      23.274  24.924  20.541  1.00  0.00     0.211 HD
ENDBRANCH  13  37
BRANCH  14  39
ATOM     39  O   UNL     1      24.516  24.778  21.831  1.00  0.00    -0.387 OA
ATOM     40  H   UNL     1      24.674  24.092  21.136  1.00  0.00     0.211 HD
ENDBRANCH  14  39
ENDBRANCH   8   9
ENDBRANCH   7   8
ENDBRANCH   1   7
BRANCH   1  41
ATOM     41  C   UNL     1      26.071  28.357  26.287  1.00  0.00     0.364 C 
ATOM     42  O   UNL     1      27.283  27.952  26.156  1.00  0.00    -0.246 OA
BRANCH  41  43
ATOM     43  O   UNL     1      25.933  29.653  26.688  1.00  0.00    -0.477 OA
ATOM     44  H   UNL     1      26.598  30.393  26.429  1.00  0.00     0.296 HD
ENDBRANCH  41  43
ENDBRANCH   1  41
BRANCH   3  45
ATOM     45  O   UNL     1      25.479  25.342  29.008  1.00  0.00    -0.391 OA
ATOM     46  H   UNL     1      26.390  25.062  28.680  1.00  0.00     0.211 HD
ENDBRANCH   3  45
BRANCH   5  47
ATOM     47  C   UNL     1      21.739  27.351  27.432  1.00  0.00     0.176 C 
BRANCH  47  48
ATOM     48  O   UNL     1      21.650  26.192  26.684  1.00  0.00    -0.388 OA
ATOM     49  H   UNL     1      21.239  25.431  27.127  1.00  0.00     0.211 HD
ENDBRANCH  47  48
BRANCH  47  50
ATOM     50  C   UNL     1      20.876  28.475  27.006  1.00  0.00     0.165 C 
BRANCH  50  51
ATOM     51  O   UNL     1      21.144  28.776  25.673  1.00  0.00    -0.388 OA
ATOM     52  H   UNL     1      20.595  28.125  25.150  1.00  0.00     0.211 HD
ENDBRANCH  50  51
BRANCH  50  53
ATOM     53  C   UNL     1      21.123  29.738  27.815  1.00  0.00     0.154 C 
BRANCH  53  54
ATOM     54  N   UNL     1      20.646  30.861  27.044  1.00  0.00    -0.319 N 
ATOM     55  C   UNL     1      19.315  31.373  27.282  1.00  0.00     0.407 C 
ATOM     56  H   UNL     1      21.224  31.326  26.307  1.00  0.00     0.167 HD
ATOM     57  O   UNL     1      18.566  30.854  28.150  1.00  0.00    -0.225 OA
BRANCH  55  58
ATOM     58  O   UNL     1      18.926  32.450  26.513  1.00  0.00    -0.443 OA
BRANCH  58  59
ATOM     59  C   UNL     1      19.112  32.460  25.130  1.00  0.00     0.294 C 
BRANCH  59  60
ATOM     60  C   UNL     1      18.386  31.366  24.469  1.00  0.00     0.121 A 
ATOM     61  C   UNL     1      17.054  31.462  24.038  1.00  0.00     0.144 A 
ATOM     62  N   UNL     1      18.794  30.143  24.155  1.00  0.00    -0.131 NA
ATOM     63  N   UNL     1      16.735  30.294  23.491  1.00  0.00    -0.220 N 
ATOM     64  N   UNL     1      17.783  29.525  23.570  1.00  0.00    -0.062 NA
BRANCH  63  65
ATOM     65  C   UNL     1      15.450  30.006  22.922  1.00  0.00     0.068 A 
ATOM     66  C   UNL     1      14.312  30.560  23.514  1.00  0.00     0.050 A 
ATOM     67  C   UNL     1      15.332  29.209  21.823  1.00  0.00     0.028 A 
ATOM     68  C   UNL     1      13.060  30.317  23.007  1.00  0.00     0.084 A 
ATOM     69  C   UNL     1      14.099  28.961  21.313  1.00  0.00     0.004 A 
ATOM     70  C   UNL     1      12.947  29.504  21.888  1.00  0.00     0.022 A 
BRANCH  68  71
ATOM     71  S   UNL     1      11.602  30.975  23.692  1.00  0.00     0.238 S 
ATOM     72  O   UNL     1      10.808  29.854  24.302  1.00  0.00    -0.207 OA
ATOM     73  O   UNL     1      10.776  31.627  22.631  1.00  0.00    -0.207 OA
BRANCH  71  74
ATOM     74  N   UNL     1      12.038  32.132  24.916  1.00  0.00    -0.225 NA
ATOM     75  H   UNL     1      12.732  31.687  25.557  1.00  0.00     0.137 HD
ATOM     76  H   UNL     1      11.200  32.521  25.396  1.00  0.00     0.137 HD
ENDBRANCH  71  74
ENDBRANCH  68  71
ENDBRANCH  63  65
ENDBRANCH  59  60
ENDBRANCH  58  59
ENDBRANCH  55  58
ENDBRANCH  53  54
ENDBRANCH  50  53
ENDBRANCH  47  50
ENDBRANCH   5  47
BRANCH   4  77
ATOM     77  N   UNL     1      24.041  28.007  29.728  1.00  0.00    -0.348 N 
ATOM     78  C   UNL     1      23.947  27.610  31.089  1.00  0.00     0.217 C 
ATOM     79  H   UNL     1      24.244  29.007  29.521  1.00  0.00     0.163 HD
ATOM     80  C   UNL     1      24.139  28.606  32.173  1.00  0.00     0.114 C 
ATOM     81  O   UNL     1      23.697  26.394  31.336  1.00  0.00    -0.275 OA
ENDBRANCH   4  77
TORSDOF 32
