REMARK VINA RESULT:    -6.517      4.669      8.733
REMARK INTER + INTRA:         -23.838
REMARK INTER:                 -17.167
REMARK INTRA:                  -6.670
REMARK UNBOUND:                -7.033
REMARK SMILES CC(=O)N[C@@H]1[C@@H](O)C[C@](OC[C@H]2O[C@@H](O[C@H]3[C@H](O)[C@@H](O)[C@H](OCCN=[N+]=[N-])O[C@@H]3CO)[C@H](O)[C@@H](O)[C@H]2O)(C(=O)O)O[C@H]1C(O)[C@H](O)CNC(=O)OCc1cn(C(C)(C)C(=O)c2c[nH]c3ccccc23)nn1
REMARK SMILES IDX 9 1 8 2 6 3 5 4 42 5 41 6 10 7 11 8 12 9 14 10 13 11 32 12
REMARK SMILES IDX 34 13 36 14 15 15 16 16 29 17 28 18 21 19 17 20 19 21 30 22
REMARK SMILES IDX 31 23 22 25 23 26 24 27 25 28 26 29 27 30 18 31 20 33 33 35
REMARK SMILES IDX 35 37 37 39 38 41 39 42 40 43 7 45 43 47 44 48 45 50 46 51
REMARK SMILES IDX 47 53 48 54 49 55 50 57 51 58 52 59 53 60 54 61 71 62 55 63
REMARK SMILES IDX 70 64 56 65 57 66 58 67 59 68 60 69 61 70 62 71 69 72 63 73
REMARK SMILES IDX 64 74 68 75 65 77 67 78 66 79 4 80 2 81 1 83 3 84
REMARK H PARENT 31 24 18 32 20 34 33 36 35 38 37 40 40 44 7 46 44 49 46 52
REMARK H PARENT 48 56 63 76 4 82
REMARK Flexibility Score: inf
ROOT
ATOM      1  C   UNL     1      21.570  28.664  21.809  1.00  0.00     0.272 C 
ATOM      2  C   UNL     1      22.366  28.555  20.520  1.00  0.00     0.113 C 
ATOM      3  C   UNL     1      21.757  27.557  19.568  1.00  0.00     0.145 C 
ATOM      4  C   UNL     1      21.920  26.125  20.186  1.00  0.00     0.142 C 
ATOM      5  C   UNL     1      21.742  26.318  21.657  1.00  0.00     0.178 C 
ATOM      6  O   UNL     1      20.951  27.416  21.920  1.00  0.00    -0.332 OA
ENDROOT
BRANCH   1   7
ATOM      7  O   UNL     1      20.701  29.673  21.911  1.00  0.00    -0.338 OA
BRANCH   7   8
ATOM      8  C   UNL     1      19.424  29.809  21.782  1.00  0.00     0.199 C 
BRANCH   8   9
ATOM      9  C   UNL     1      18.854  31.122  22.322  1.00  0.00     0.179 C 
ATOM     10  C   UNL     1      16.561  30.855  21.776  1.00  0.00     0.282 C 
ATOM     11  O   UNL     1      17.743  31.492  21.642  1.00  0.00    -0.341 OA
ATOM     12  C   UNL     1      16.193  30.531  23.197  1.00  0.00     0.202 C 
ATOM     13  C   UNL     1      17.166  31.214  24.152  1.00  0.00     0.179 C 
ATOM     14  C   UNL     1      18.580  30.959  23.792  1.00  0.00     0.177 C 
BRANCH  10  15
ATOM     15  O   UNL     1      16.549  29.686  21.035  1.00  0.00    -0.341 OA
BRANCH  15  16
ATOM     16  C   UNL     1      16.045  29.838  19.775  1.00  0.00     0.184 C 
ATOM     17  C   UNL     1      14.753  29.175  19.463  1.00  0.00     0.178 C 
ATOM     18  O   UNL     1      14.237  29.822  18.322  1.00  0.00    -0.341 OA
ATOM     19  C   UNL     1      15.022  29.693  17.213  1.00  0.00     0.281 C 
ATOM     20  C   UNL     1      17.027  29.443  18.689  1.00  0.00     0.180 C 
ATOM     21  C   UNL     1      16.480  30.045  17.413  1.00  0.00     0.202 C 
BRANCH  17  22
ATOM     22  C   UNL     1      13.690  29.335  20.530  1.00  0.00     0.191 C 
BRANCH  22  23
ATOM     23  O   UNL     1      13.971  28.405  21.538  1.00  0.00    -0.394 OA
ATOM     24  H   UNL     1      14.058  27.486  21.194  1.00  0.00     0.210 HD
ENDBRANCH  22  23
ENDBRANCH  17  22
BRANCH  19  25
ATOM     25  O   UNL     1      14.544  30.585  16.248  1.00  0.00    -0.350 OA
BRANCH  25  26
ATOM     26  C   UNL     1      13.643  29.916  15.440  1.00  0.00     0.169 C 
BRANCH  26  27
ATOM     27  C   UNL     1      14.320  29.001  14.455  1.00  0.00     0.119 C 
BRANCH  27  28
ATOM     28  N   UNL     1      13.425  28.032  13.861  1.00  0.00    -0.092 NA
ATOM     29  N   UNL     1      12.200  28.252  13.786  1.00  0.00     0.001 N 
ATOM     30  N   UNL     1      11.154  28.705  13.314  1.00  0.00    -0.003 NA
ENDBRANCH  27  28
ENDBRANCH  26  27
ENDBRANCH  25  26
ENDBRANCH  19  25
BRANCH  20  31
ATOM     31  O   UNL     1      18.300  29.911  18.916  1.00  0.00    -0.387 OA
ATOM     32  H   UNL     1      18.289  30.446  19.738  1.00  0.00     0.211 HD
ENDBRANCH  20  31
BRANCH  21  33
ATOM     33  O   UNL     1      17.186  29.493  16.346  1.00  0.00    -0.385 OA
ATOM     34  H   UNL     1      18.020  29.999  16.148  1.00  0.00     0.211 HD
ENDBRANCH  21  33
ENDBRANCH  15  16
ENDBRANCH  10  15
BRANCH  12  35
ATOM     35  O   UNL     1      14.878  30.858  23.528  1.00  0.00    -0.385 OA
ATOM     36  H   UNL     1      14.803  31.829  23.640  1.00  0.00     0.211 HD
ENDBRANCH  12  35
BRANCH  13  37
ATOM     37  O   UNL     1      16.857  30.682  25.426  1.00  0.00    -0.387 OA
ATOM     38  H   UNL     1      17.298  31.202  26.141  1.00  0.00     0.211 HD
ENDBRANCH  13  37
BRANCH  14  39
ATOM     39  O   UNL     1      18.949  29.634  24.134  1.00  0.00    -0.387 OA
ATOM     40  H   UNL     1      19.186  29.601  25.098  1.00  0.00     0.211 HD
ENDBRANCH  14  39
ENDBRANCH   8   9
ENDBRANCH   7   8
ENDBRANCH   1   7
BRANCH   1  41
ATOM     41  C   UNL     1      22.537  28.824  22.917  1.00  0.00     0.364 C 
ATOM     42  O   UNL     1      22.113  29.198  24.041  1.00  0.00    -0.246 OA
BRANCH  41  43
ATOM     43  O   UNL     1      23.871  28.596  22.798  1.00  0.00    -0.477 OA
ATOM     44  H   UNL     1      24.418  27.892  23.288  1.00  0.00     0.296 HD
ENDBRANCH  41  43
ENDBRANCH   1  41
BRANCH   3  45
ATOM     45  O   UNL     1      20.399  27.668  19.377  1.00  0.00    -0.391 OA
ATOM     46  H   UNL     1      19.860  27.190  20.070  1.00  0.00     0.211 HD
ENDBRANCH   3  45
BRANCH   5  47
ATOM     47  C   UNL     1      21.174  25.188  22.432  1.00  0.00     0.176 C 
BRANCH  47  48
ATOM     48  O   UNL     1      21.421  23.954  21.875  1.00  0.00    -0.388 OA
ATOM     49  H   UNL     1      22.208  23.472  22.255  1.00  0.00     0.211 HD
ENDBRANCH  47  48
BRANCH  47  50
ATOM     50  C   UNL     1      21.349  25.235  23.935  1.00  0.00     0.165 C 
BRANCH  50  51
ATOM     51  O   UNL     1      21.340  26.492  24.444  1.00  0.00    -0.388 OA
ATOM     52  H   UNL     1      21.942  27.095  23.983  1.00  0.00     0.211 HD
ENDBRANCH  50  51
BRANCH  50  53
ATOM     53  C   UNL     1      22.499  24.355  24.302  1.00  0.00     0.154 C 
BRANCH  53  54
ATOM     54  N   UNL     1      23.803  24.860  24.096  1.00  0.00    -0.319 N 
ATOM     55  C   UNL     1      24.644  24.481  22.992  1.00  0.00     0.407 C 
ATOM     56  H   UNL     1      24.222  25.565  24.776  1.00  0.00     0.167 HD
ATOM     57  O   UNL     1      24.270  23.647  22.143  1.00  0.00    -0.225 OA
BRANCH  55  58
ATOM     58  O   UNL     1      25.902  25.032  22.839  1.00  0.00    -0.443 OA
BRANCH  58  59
ATOM     59  C   UNL     1      26.502  25.185  21.584  1.00  0.00     0.294 C 
BRANCH  59  60
ATOM     60  C   UNL     1      27.693  24.282  21.525  1.00  0.00     0.120 A 
ATOM     61  C   UNL     1      27.697  22.923  21.892  1.00  0.00     0.139 A 
ATOM     62  N   UNL     1      28.960  24.525  21.165  1.00  0.00    -0.132 NA
ATOM     63  N   UNL     1      28.930  22.421  21.743  1.00  0.00    -0.239 N 
ATOM     64  N   UNL     1      29.684  23.399  21.303  1.00  0.00    -0.066 NA
BRANCH  63  65
ATOM     65  C   UNL     1      29.309  21.053  22.025  1.00  0.00     0.122 C 
ATOM     66  C   UNL     1      27.970  20.247  22.150  1.00  0.00     0.046 C 
ATOM     67  C   UNL     1      29.953  20.870  23.379  1.00  0.00     0.046 C 
BRANCH  65  68
ATOM     68  C   UNL     1      30.052  20.449  20.935  1.00  0.00     0.192 C 
ATOM     69  O   UNL     1      31.347  20.442  21.110  1.00  0.00    -0.291 OA
BRANCH  68  70
ATOM     70  C   UNL     1      29.609  19.864  19.707  1.00  0.00     0.045 A 
ATOM     71  C   UNL     1      29.888  18.544  19.333  1.00  0.00     0.095 A 
ATOM     72  C   UNL     1      28.885  20.418  18.670  1.00  0.00     0.010 A 
ATOM     73  N   UNL     1      29.356  18.338  18.144  1.00  0.00    -0.360 N 
ATOM     74  C   UNL     1      28.740  19.431  17.692  1.00  0.00     0.046 A 
ATOM     75  C   UNL     1      28.327  21.643  18.427  1.00  0.00     0.011 A 
ATOM     76  H   UNL     1      29.428  17.411  17.635  1.00  0.00     0.166 HD
ATOM     77  C   UNL     1      28.055  19.680  16.515  1.00  0.00     0.027 A 
ATOM     78  C   UNL     1      27.638  21.890  17.241  1.00  0.00     0.001 A 
ATOM     79  C   UNL     1      27.509  20.912  16.299  1.00  0.00     0.002 A 
ENDBRANCH  68  70
ENDBRANCH  65  68
ENDBRANCH  63  65
ENDBRANCH  59  60
ENDBRANCH  58  59
ENDBRANCH  55  58
ENDBRANCH  53  54
ENDBRANCH  50  53
ENDBRANCH  47  50
ENDBRANCH   5  47
BRANCH   4  80
ATOM     80  N   UNL     1      23.308  25.802  19.868  1.00  0.00    -0.348 N 
ATOM     81  C   UNL     1      23.700  24.909  18.839  1.00  0.00     0.217 C 
ATOM     82  H   UNL     1      24.076  26.254  20.436  1.00  0.00     0.163 HD
ATOM     83  C   UNL     1      25.115  24.581  18.522  1.00  0.00     0.114 C 
ATOM     84  O   UNL     1      22.753  24.374  18.167  1.00  0.00    -0.275 OA
ENDBRANCH   4  80
TORSDOF 32
