REMARK VINA RESULT:    -5.629     14.550     19.733
REMARK INTER + INTRA:         -20.616
REMARK INTER:                 -14.577
REMARK INTRA:                  -6.039
REMARK UNBOUND:                -6.268
REMARK SMILES CC(=O)N[C@@H]1[C@@H](O)C[C@](OC[C@H]2O[C@@H](O[C@H]3[C@H](O)[C@@H](O)[C@H](OCCN=[N+]=[N-])O[C@@H]3CO)[C@H](O)[C@@H](O)[C@H]2O)(C(=O)O)O[C@H]1C(O)[C@H](O)CNC(=O)OCc1cn(C(C)(C)CO)nn1
REMARK SMILES IDX 9 1 8 2 6 3 5 4 42 5 41 6 10 7 11 8 12 9 14 10 13 11 32 12
REMARK SMILES IDX 34 13 36 14 15 15 16 16 29 17 28 18 21 19 17 20 19 21 30 22
REMARK SMILES IDX 31 23 22 25 23 26 24 27 25 28 26 29 27 30 18 31 20 33 33 35
REMARK SMILES IDX 35 37 37 39 38 41 39 42 40 43 7 45 43 47 44 48 45 50 46 51
REMARK SMILES IDX 47 53 48 54 49 55 50 57 51 58 52 59 53 60 54 61 62 62 55 63
REMARK SMILES IDX 61 64 56 65 57 66 58 67 59 68 60 69 4 71 2 72 1 74 3 75
REMARK H PARENT 31 24 18 32 20 34 33 36 35 38 37 40 40 44 7 46 44 49 46 52
REMARK H PARENT 48 56 60 70 4 73
REMARK Flexibility Score: inf
ROOT
ATOM      1  C   UNL     1       1.940  20.682  31.744  1.00  0.00     0.272 C 
ATOM      2  C   UNL     1       1.162  19.958  32.810  1.00  0.00     0.113 C 
ATOM      3  C   UNL     1       1.255  20.770  34.079  1.00  0.00     0.145 C 
ATOM      4  C   UNL     1       2.718  20.606  34.553  1.00  0.00     0.142 C 
ATOM      5  C   UNL     1       3.589  21.007  33.400  1.00  0.00     0.178 C 
ATOM      6  O   UNL     1       2.879  21.588  32.368  1.00  0.00    -0.332 OA
ENDROOT
BRANCH   1   7
ATOM      7  O   UNL     1       1.193  21.522  30.983  1.00  0.00    -0.338 OA
BRANCH   7   8
ATOM      8  C   UNL     1       0.164  21.142  30.245  1.00  0.00     0.199 C 
BRANCH   8   9
ATOM      9  C   UNL     1      -0.118  21.593  28.871  1.00  0.00     0.179 C 
ATOM     10  C   UNL     1      -0.150  23.526  27.612  1.00  0.00     0.282 C 
ATOM     11  O   UNL     1       0.358  22.942  28.743  1.00  0.00    -0.341 OA
ATOM     12  C   UNL     1      -0.640  22.606  26.552  1.00  0.00     0.202 C 
ATOM     13  C   UNL     1       0.110  21.294  26.474  1.00  0.00     0.179 C 
ATOM     14  C   UNL     1       0.686  20.880  27.790  1.00  0.00     0.177 C 
BRANCH  10  15
ATOM     15  O   UNL     1       0.790  24.454  27.154  1.00  0.00    -0.341 OA
BRANCH  15  16
ATOM     16  C   UNL     1       2.069  24.218  27.603  1.00  0.00     0.184 C 
ATOM     17  C   UNL     1       2.608  25.309  28.500  1.00  0.00     0.178 C 
ATOM     18  O   UNL     1       3.894  25.696  28.185  1.00  0.00    -0.341 OA
ATOM     19  C   UNL     1       4.072  26.226  26.936  1.00  0.00     0.281 C 
ATOM     20  C   UNL     1       2.953  24.168  26.343  1.00  0.00     0.180 C 
ATOM     21  C   UNL     1       3.105  25.624  25.942  1.00  0.00     0.202 C 
BRANCH  17  22
ATOM     22  C   UNL     1       2.667  24.706  29.898  1.00  0.00     0.191 C 
BRANCH  22  23
ATOM     23  O   UNL     1       3.055  23.368  29.813  1.00  0.00    -0.394 OA
ATOM     24  H   UNL     1       3.896  23.233  29.339  1.00  0.00     0.210 HD
ENDBRANCH  22  23
ENDBRANCH  17  22
BRANCH  19  25
ATOM     25  O   UNL     1       5.394  26.021  26.581  1.00  0.00    -0.350 OA
BRANCH  25  26
ATOM     26  C   UNL     1       5.727  26.369  25.309  1.00  0.00     0.169 C 
BRANCH  26  27
ATOM     27  C   UNL     1       6.074  27.840  25.137  1.00  0.00     0.119 C 
BRANCH  27  28
ATOM     28  N   UNL     1       7.383  28.135  25.686  1.00  0.00    -0.092 NA
ATOM     29  N   UNL     1       8.311  27.371  25.387  1.00  0.00     0.001 N 
ATOM     30  N   UNL     1       9.353  26.904  24.875  1.00  0.00    -0.003 NA
ENDBRANCH  27  28
ENDBRANCH  26  27
ENDBRANCH  25  26
ENDBRANCH  19  25
BRANCH  20  31
ATOM     31  O   UNL     1       4.163  23.610  26.766  1.00  0.00    -0.387 OA
ATOM     32  H   UNL     1       4.804  24.369  26.811  1.00  0.00     0.211 HD
ENDBRANCH  20  31
BRANCH  21  33
ATOM     33  O   UNL     1       1.860  26.241  26.154  1.00  0.00    -0.385 OA
ATOM     34  H   UNL     1       1.693  26.927  25.440  1.00  0.00     0.211 HD
ENDBRANCH  21  33
ENDBRANCH  15  16
ENDBRANCH  10  15
BRANCH  12  35
ATOM     35  O   UNL     1      -2.021  22.400  26.559  1.00  0.00    -0.385 OA
ATOM     36  H   UNL     1      -2.342  22.672  27.442  1.00  0.00     0.211 HD
ENDBRANCH  12  35
BRANCH  13  37
ATOM     37  O   UNL     1       1.102  21.341  25.480  1.00  0.00    -0.387 OA
ATOM     38  H   UNL     1       1.572  22.217  25.489  1.00  0.00     0.211 HD
ENDBRANCH  13  37
BRANCH  14  39
ATOM     39  O   UNL     1       1.994  21.414  27.844  1.00  0.00    -0.387 OA
ATOM     40  H   UNL     1       2.425  21.153  28.684  1.00  0.00     0.211 HD
ENDBRANCH  14  39
ENDBRANCH   8   9
ENDBRANCH   7   8
ENDBRANCH   1   7
BRANCH   1  41
ATOM     41  C   UNL     1       2.815  19.797  30.977  1.00  0.00     0.364 C 
ATOM     42  O   UNL     1       3.575  20.212  30.099  1.00  0.00    -0.246 OA
BRANCH  41  43
ATOM     43  O   UNL     1       2.849  18.407  31.189  1.00  0.00    -0.477 OA
ATOM     44  H   UNL     1       2.072  17.868  30.825  1.00  0.00     0.296 HD
ENDBRANCH  41  43
ENDBRANCH   1  41
BRANCH   3  45
ATOM     45  O   UNL     1       1.149  22.116  33.723  1.00  0.00    -0.391 OA
ATOM     46  H   UNL     1       1.743  22.337  32.977  1.00  0.00     0.211 HD
ENDBRANCH   3  45
BRANCH   5  47
ATOM     47  C   UNL     1       4.475  22.152  33.924  1.00  0.00     0.176 C 
BRANCH  47  48
ATOM     48  O   UNL     1       3.937  22.595  35.158  1.00  0.00    -0.388 OA
ATOM     49  H   UNL     1       4.367  22.169  35.917  1.00  0.00     0.211 HD
ENDBRANCH  47  48
BRANCH  47  50
ATOM     50  C   UNL     1       4.402  23.378  33.030  1.00  0.00     0.165 C 
BRANCH  50  51
ATOM     51  O   UNL     1       5.158  23.274  31.909  1.00  0.00    -0.388 OA
ATOM     52  H   UNL     1       4.713  22.898  31.114  1.00  0.00     0.211 HD
ENDBRANCH  50  51
BRANCH  50  53
ATOM     53  C   UNL     1       4.767  24.618  33.822  1.00  0.00     0.154 C 
BRANCH  53  54
ATOM     54  N   UNL     1       6.148  24.928  33.889  1.00  0.00    -0.319 N 
ATOM     55  C   UNL     1       6.999  24.539  34.928  1.00  0.00     0.407 C 
ATOM     56  H   UNL     1       6.595  25.504  33.096  1.00  0.00     0.167 HD
ATOM     57  O   UNL     1       6.604  23.864  35.893  1.00  0.00    -0.225 OA
BRANCH  55  58
ATOM     58  O   UNL     1       8.368  24.899  34.933  1.00  0.00    -0.443 OA
BRANCH  58  59
ATOM     59  C   UNL     1       9.373  23.960  34.623  1.00  0.00     0.294 C 
BRANCH  59  60
ATOM     60  C   UNL     1      10.557  24.048  35.501  1.00  0.00     0.120 A 
ATOM     61  C   UNL     1      11.198  25.191  35.934  1.00  0.00     0.139 A 
ATOM     62  N   UNL     1      11.235  23.027  36.050  1.00  0.00    -0.132 NA
ATOM     63  N   UNL     1      12.240  24.839  36.728  1.00  0.00    -0.244 N 
ATOM     64  N   UNL     1      12.239  23.518  36.781  1.00  0.00    -0.066 NA
BRANCH  63  65
ATOM     65  C   UNL     1      13.147  25.753  37.373  1.00  0.00     0.082 C 
ATOM     66  C   UNL     1      13.425  25.289  38.773  1.00  0.00     0.039 C 
ATOM     67  C   UNL     1      12.504  27.144  37.485  1.00  0.00     0.039 C 
BRANCH  65  68
ATOM     68  C   UNL     1      14.449  25.932  36.646  1.00  0.00     0.186 C 
BRANCH  68  69
ATOM     69  O   UNL     1      14.301  26.352  35.344  1.00  0.00    -0.394 OA
ATOM     70  H   UNL     1      15.093  26.735  34.938  1.00  0.00     0.210 HD
ENDBRANCH  68  69
ENDBRANCH  65  68
ENDBRANCH  63  65
ENDBRANCH  59  60
ENDBRANCH  58  59
ENDBRANCH  55  58
ENDBRANCH  53  54
ENDBRANCH  50  53
ENDBRANCH  47  50
ENDBRANCH   5  47
BRANCH   4  71
ATOM     71  N   UNL     1       2.835  19.246  34.971  1.00  0.00    -0.348 N 
ATOM     72  C   UNL     1       3.294  18.792  36.230  1.00  0.00     0.217 C 
ATOM     73  H   UNL     1       2.566  18.466  34.300  1.00  0.00     0.163 HD
ATOM     74  C   UNL     1       3.383  17.348  36.573  1.00  0.00     0.114 C 
ATOM     75  O   UNL     1       3.637  19.624  37.087  1.00  0.00    -0.275 OA
ENDBRANCH   4  71
TORSDOF 32
