REMARK VINA RESULT:    -6.065      6.035     13.952
REMARK INTER + INTRA:         -21.226
REMARK INTER:                 -15.028
REMARK INTRA:                  -6.199
REMARK UNBOUND:                -6.298
REMARK SMILES CC(=O)N[C@@H]1[C@@H](O)C[C@](OC[C@H]2O[C@@H](O[C@H]3[C@H](O)[C@@H](O)[C@H](OCCN=[N+]=[N-])O[C@@H]3CO)[C@H](O)[C@@H](O)[C@H]2O)(C(=O)O)O[C@H]1C(O)[C@H](O)CNC(=O)OCc1cn(-c2c(C)cc(C)cc2C)nn1
REMARK SMILES IDX 9 1 8 2 6 3 5 4 42 5 41 6 10 7 11 8 12 9 14 10 13 11 32 12
REMARK SMILES IDX 34 13 36 14 15 15 16 16 29 17 28 18 21 19 17 20 19 21 30 22
REMARK SMILES IDX 31 23 22 25 23 26 24 27 25 28 26 29 27 30 18 31 20 33 33 35
REMARK SMILES IDX 35 37 37 39 38 41 39 42 40 43 7 45 43 47 44 48 45 50 46 51
REMARK SMILES IDX 47 53 48 54 49 55 50 57 51 58 52 59 53 60 54 61 66 62 55 63
REMARK SMILES IDX 65 64 56 65 57 66 63 67 58 68 59 69 62 70 64 71 60 72 61 73
REMARK SMILES IDX 4 74 2 75 1 77 3 78
REMARK H PARENT 31 24 18 32 20 34 33 36 35 38 37 40 40 44 7 46 44 49 46 52
REMARK H PARENT 48 56 4 76
REMARK Flexibility Score: inf
ROOT
ATOM      1  C   UNL     1      25.331  28.679  22.673  1.00  0.00     0.272 C 
ATOM      2  C   UNL     1      25.075  29.457  23.904  1.00  0.00     0.113 C 
ATOM      3  C   UNL     1      23.631  29.627  24.305  1.00  0.00     0.145 C 
ATOM      4  C   UNL     1      22.771  29.726  23.085  1.00  0.00     0.142 C 
ATOM      5  C   UNL     1      23.701  30.217  21.968  1.00  0.00     0.178 C 
ATOM      6  O   UNL     1      24.509  29.101  21.619  1.00  0.00    -0.332 OA
ENDROOT
BRANCH   1   7
ATOM      7  O   UNL     1      25.306  27.320  22.763  1.00  0.00    -0.338 OA
BRANCH   7   8
ATOM      8  C   UNL     1      24.565  26.590  21.909  1.00  0.00     0.199 C 
BRANCH   8   9
ATOM      9  C   UNL     1      24.093  25.336  22.660  1.00  0.00     0.179 C 
ATOM     10  C   UNL     1      22.448  24.804  24.181  1.00  0.00     0.282 C 
ATOM     11  O   UNL     1      23.465  25.684  23.841  1.00  0.00    -0.341 OA
ATOM     12  C   UNL     1      21.348  25.032  23.176  1.00  0.00     0.202 C 
ATOM     13  C   UNL     1      21.894  24.552  21.839  1.00  0.00     0.179 C 
ATOM     14  C   UNL     1      23.369  24.363  21.805  1.00  0.00     0.177 C 
BRANCH  10  15
ATOM     15  O   UNL     1      22.090  24.847  25.474  1.00  0.00    -0.341 OA
BRANCH  15  16
ATOM     16  C   UNL     1      22.612  25.795  26.277  1.00  0.00     0.184 C 
ATOM     17  C   UNL     1      23.515  25.143  27.309  1.00  0.00     0.178 C 
ATOM     18  O   UNL     1      22.940  25.046  28.541  1.00  0.00    -0.341 OA
ATOM     19  C   UNL     1      22.635  26.260  29.136  1.00  0.00     0.281 C 
ATOM     20  C   UNL     1      21.468  26.516  26.996  1.00  0.00     0.180 C 
ATOM     21  C   UNL     1      21.997  27.241  28.221  1.00  0.00     0.202 C 
BRANCH  17  22
ATOM     22  C   UNL     1      24.881  25.807  27.334  1.00  0.00     0.191 C 
BRANCH  22  23
ATOM     23  O   UNL     1      25.084  26.558  26.179  1.00  0.00    -0.394 OA
ATOM     24  H   UNL     1      25.554  26.067  25.467  1.00  0.00     0.210 HD
ENDBRANCH  22  23
ENDBRANCH  17  22
BRANCH  19  25
ATOM     25  O   UNL     1      23.774  26.839  29.715  1.00  0.00    -0.350 OA
BRANCH  25  26
ATOM     26  C   UNL     1      23.782  26.790  31.086  1.00  0.00     0.169 C 
BRANCH  26  27
ATOM     27  C   UNL     1      24.639  25.717  31.682  1.00  0.00     0.119 C 
BRANCH  27  28
ATOM     28  N   UNL     1      25.760  25.368  30.826  1.00  0.00    -0.092 NA
ATOM     29  N   UNL     1      26.893  25.171  31.307  1.00  0.00     0.001 N 
ATOM     30  N   UNL     1      27.910  24.957  31.978  1.00  0.00    -0.003 NA
ENDBRANCH  27  28
ENDBRANCH  26  27
ENDBRANCH  25  26
ENDBRANCH  19  25
BRANCH  20  31
ATOM     31  O   UNL     1      20.826  27.435  26.204  1.00  0.00    -0.387 OA
ATOM     32  H   UNL     1      20.678  28.319  26.627  1.00  0.00     0.211 HD
ENDBRANCH  20  31
BRANCH  21  33
ATOM     33  O   UNL     1      20.898  27.811  28.859  1.00  0.00    -0.385 OA
ATOM     34  H   UNL     1      20.130  27.176  28.888  1.00  0.00     0.211 HD
ENDBRANCH  21  33
ENDBRANCH  15  16
ENDBRANCH  10  15
BRANCH  12  35
ATOM     35  O   UNL     1      20.210  24.280  23.449  1.00  0.00    -0.385 OA
ATOM     36  H   UNL     1      20.353  23.376  23.032  1.00  0.00     0.211 HD
ENDBRANCH  12  35
BRANCH  13  37
ATOM     37  O   UNL     1      21.525  25.411  20.805  1.00  0.00    -0.387 OA
ATOM     38  H   UNL     1      22.291  25.903  20.412  1.00  0.00     0.211 HD
ENDBRANCH  13  37
BRANCH  14  39
ATOM     39  O   UNL     1      23.782  24.513  20.459  1.00  0.00    -0.387 OA
ATOM     40  H   UNL     1      23.807  23.640  20.004  1.00  0.00     0.211 HD
ENDBRANCH  14  39
ENDBRANCH   8   9
ENDBRANCH   7   8
ENDBRANCH   1   7
BRANCH   1  41
ATOM     41  C   UNL     1      26.705  29.095  22.195  1.00  0.00     0.364 C 
ATOM     42  O   UNL     1      26.948  29.068  20.984  1.00  0.00    -0.246 OA
BRANCH  41  43
ATOM     43  O   UNL     1      27.685  29.500  23.080  1.00  0.00    -0.477 OA
ATOM     44  H   UNL     1      28.660  29.591  22.856  1.00  0.00     0.296 HD
ENDBRANCH  41  43
ENDBRANCH   1  41
BRANCH   3  45
ATOM     45  O   UNL     1      23.308  28.558  25.139  1.00  0.00    -0.391 OA
ATOM     46  H   UNL     1      24.147  28.018  25.303  1.00  0.00     0.211 HD
ENDBRANCH   3  45
BRANCH   5  47
ATOM     47  C   UNL     1      23.024  30.587  20.709  1.00  0.00     0.176 C 
BRANCH  47  48
ATOM     48  O   UNL     1      22.183  31.718  21.022  1.00  0.00    -0.388 OA
ATOM     49  H   UNL     1      22.668  32.300  21.661  1.00  0.00     0.211 HD
ENDBRANCH  47  48
BRANCH  47  50
ATOM     50  C   UNL     1      22.018  29.607  20.138  1.00  0.00     0.165 C 
BRANCH  50  51
ATOM     51  O   UNL     1      22.659  29.220  18.899  1.00  0.00    -0.388 OA
ATOM     52  H   UNL     1      22.113  29.528  18.150  1.00  0.00     0.211 HD
ENDBRANCH  50  51
BRANCH  50  53
ATOM     53  C   UNL     1      20.769  30.304  19.657  1.00  0.00     0.154 C 
BRANCH  53  54
ATOM     54  N   UNL     1      19.529  29.800  20.165  1.00  0.00    -0.319 N 
ATOM     55  C   UNL     1      19.015  28.564  19.668  1.00  0.00     0.407 C 
ATOM     56  H   UNL     1      18.985  30.333  20.901  1.00  0.00     0.167 HD
ATOM     57  O   UNL     1      19.700  27.984  18.781  1.00  0.00    -0.225 OA
BRANCH  55  58
ATOM     58  O   UNL     1      17.825  28.011  20.125  1.00  0.00    -0.443 OA
BRANCH  58  59
ATOM     59  C   UNL     1      16.571  28.405  19.620  1.00  0.00     0.294 C 
BRANCH  59  60
ATOM     60  C   UNL     1      15.853  29.377  20.489  1.00  0.00     0.121 A 
ATOM     61  C   UNL     1      14.553  29.325  20.938  1.00  0.00     0.144 A 
ATOM     62  N   UNL     1      16.364  30.529  21.012  1.00  0.00    -0.131 NA
ATOM     63  N   UNL     1      14.308  30.406  21.696  1.00  0.00    -0.220 N 
ATOM     64  N   UNL     1      15.440  31.108  21.711  1.00  0.00    -0.062 NA
BRANCH  63  65
ATOM     65  C   UNL     1      13.089  30.778  22.367  1.00  0.00     0.072 A 
ATOM     66  C   UNL     1      12.193  31.534  21.653  1.00  0.00    -0.025 A 
ATOM     67  C   UNL     1      12.869  30.386  23.642  1.00  0.00    -0.025 A 
ATOM     68  C   UNL     1      12.476  31.950  20.236  1.00  0.00     0.047 C 
ATOM     69  C   UNL     1      11.020  31.903  22.280  1.00  0.00     0.009 A 
ATOM     70  C   UNL     1      11.667  30.785  24.236  1.00  0.00     0.009 A 
ATOM     71  C   UNL     1      13.813  29.567  24.445  1.00  0.00     0.047 C 
ATOM     72  C   UNL     1      10.732  31.541  23.571  1.00  0.00    -0.050 A 
ATOM     73  C   UNL     1       9.452  31.969  24.187  1.00  0.00     0.044 C 
ENDBRANCH  63  65
ENDBRANCH  59  60
ENDBRANCH  58  59
ENDBRANCH  55  58
ENDBRANCH  53  54
ENDBRANCH  50  53
ENDBRANCH  47  50
ENDBRANCH   5  47
BRANCH   4  74
ATOM     74  N   UNL     1      21.590  30.465  23.204  1.00  0.00    -0.348 N 
ATOM     75  C   UNL     1      20.339  29.893  23.578  1.00  0.00     0.217 C 
ATOM     76  H   UNL     1      21.598  31.487  23.039  1.00  0.00     0.163 HD
ATOM     77  C   UNL     1      19.095  30.713  23.699  1.00  0.00     0.114 C 
ATOM     78  O   UNL     1      20.313  28.672  23.807  1.00  0.00    -0.275 OA
ENDBRANCH   4  74
TORSDOF 30
