REMARK VINA RESULT:    -5.016      5.505      9.778
REMARK INTER + INTRA:         -22.006
REMARK INTER:                 -15.091
REMARK INTRA:                  -6.915
REMARK UNBOUND:                -8.780
REMARK SMILES COc1ccc(Cn2cc(COC(=O)NC[C@@H](O)C(O)[C@@H]3O[C@@](OC[C@H]4O[C@@H](O[C@H]5[C@H](O)[C@@H](O)[C@H](OCCN=[N+]=[N-])O[C@@H]5CO)[C@H](O)[C@@H](O)[C@H]4O)(C(=O)O)C[C@H](O)[C@H]3NC(C)=O)nn2)cc1OC
REMARK SMILES IDX 23 1 55 2 56 3 58 4 21 5 22 6 24 7 25 8 26 9 28 10 27 11
REMARK SMILES IDX 46 12 48 13 50 14 29 15 30 16 43 17 42 18 35 19 31 20 33 21
REMARK SMILES IDX 44 22 45 23 36 25 37 26 38 27 39 28 40 29 41 30 32 31 34 33
REMARK SMILES IDX 47 35 49 37 51 39 52 41 53 42 54 43 57 45 19 47 20 48 17 50
REMARK SMILES IDX 18 51 16 53 15 54 13 55 14 57 12 58 11 59 10 60 9 61 63 62
REMARK SMILES IDX 8 63 64 64 7 65 6 66 65 67 5 68 66 69 4 70 3 71 67 72 68 73
REMARK SMILES IDX 2 74 1 75 59 76 60 77 61 79 62 80
REMARK H PARENT 45 24 32 32 34 34 47 36 49 38 51 40 54 44 57 46 20 49 18 52
REMARK H PARENT 15 56 59 78
REMARK Flexibility Score: inf
ROOT
ATOM      1  C   UNL     1      17.027  29.655  19.318  1.00  0.00     0.272 C 
ATOM      2  C   UNL     1      16.282  28.410  19.765  1.00  0.00     0.113 C 
ATOM      3  C   UNL     1      15.370  28.507  20.933  1.00  0.00     0.145 C 
ATOM      4  C   UNL     1      15.755  29.714  21.785  1.00  0.00     0.142 C 
ATOM      5  C   UNL     1      17.216  29.857  21.622  1.00  0.00     0.178 C 
ATOM      6  O   UNL     1      17.486  30.437  20.397  1.00  0.00    -0.332 OA
ENDROOT
BRANCH   1   7
ATOM      7  O   UNL     1      16.077  30.396  18.628  1.00  0.00    -0.338 OA
BRANCH   7   8
ATOM      8  C   UNL     1      15.363  29.758  17.660  1.00  0.00     0.199 C 
BRANCH   8   9
ATOM      9  C   UNL     1      14.310  30.661  17.079  1.00  0.00     0.179 C 
ATOM     10  C   UNL     1      12.375  30.798  15.895  1.00  0.00     0.282 C 
ATOM     11  O   UNL     1      13.133  29.947  16.789  1.00  0.00    -0.341 OA
ATOM     12  C   UNL     1      11.816  31.918  16.643  1.00  0.00     0.202 C 
ATOM     13  C   UNL     1      12.826  32.560  17.579  1.00  0.00     0.179 C 
ATOM     14  C   UNL     1      13.844  31.655  18.153  1.00  0.00     0.177 C 
BRANCH  10  15
ATOM     15  O   UNL     1      11.453  29.976  15.280  1.00  0.00    -0.341 OA
BRANCH  15  16
ATOM     16  C   UNL     1      11.849  29.698  13.971  1.00  0.00     0.184 C 
ATOM     17  C   UNL     1      10.817  30.011  12.962  1.00  0.00     0.178 C 
ATOM     18  O   UNL     1      11.415  29.961  11.705  1.00  0.00    -0.341 OA
ATOM     19  C   UNL     1      12.328  28.976  11.582  1.00  0.00     0.281 C 
ATOM     20  C   UNL     1      12.191  28.205  13.918  1.00  0.00     0.180 C 
ATOM     21  C   UNL     1      12.109  27.759  12.452  1.00  0.00     0.202 C 
BRANCH  17  22
ATOM     22  C   UNL     1      10.135  31.338  13.199  1.00  0.00     0.191 C 
BRANCH  22  23
ATOM     23  O   UNL     1      11.110  32.319  13.029  1.00  0.00    -0.394 OA
ATOM     24  H   UNL     1      11.683  32.073  12.242  1.00  0.00     0.210 HD
ENDBRANCH  22  23
ENDBRANCH  17  22
BRANCH  19  25
ATOM     25  O   UNL     1      13.609  29.503  11.980  1.00  0.00    -0.350 OA
BRANCH  25  26
ATOM     26  C   UNL     1      13.950  30.489  11.031  1.00  0.00     0.169 C 
BRANCH  26  27
ATOM     27  C   UNL     1      15.002  31.457  11.541  1.00  0.00     0.119 C 
BRANCH  27  28
ATOM     28  N   UNL     1      14.961  31.475  12.977  1.00  0.00    -0.092 NA
ATOM     29  N   UNL     1      14.371  32.358  13.607  1.00  0.00     0.001 N 
ATOM     30  N   UNL     1      13.867  33.447  13.946  1.00  0.00    -0.003 NA
ENDBRANCH  27  28
ENDBRANCH  26  27
ENDBRANCH  25  26
ENDBRANCH  19  25
BRANCH  20  31
ATOM     31  O   UNL     1      13.513  28.070  14.312  1.00  0.00    -0.387 OA
ATOM     32  H   UNL     1      13.738  27.092  14.309  1.00  0.00     0.211 HD
ENDBRANCH  20  31
BRANCH  21  33
ATOM     33  O   UNL     1      10.852  27.248  12.229  1.00  0.00    -0.385 OA
ATOM     34  H   UNL     1      10.761  26.847  11.322  1.00  0.00     0.211 HD
ENDBRANCH  21  33
ENDBRANCH  15  16
ENDBRANCH  10  15
BRANCH  12  35
ATOM     35  O   UNL     1      11.379  32.930  15.804  1.00  0.00    -0.385 OA
ATOM     36  H   UNL     1      10.921  33.664  16.308  1.00  0.00     0.211 HD
ENDBRANCH  12  35
BRANCH  13  37
ATOM     37  O   UNL     1      12.093  33.219  18.602  1.00  0.00    -0.387 OA
ATOM     38  H   UNL     1      12.403  34.163  18.605  1.00  0.00     0.211 HD
ENDBRANCH  13  37
BRANCH  14  39
ATOM     39  O   UNL     1      13.305  30.855  19.186  1.00  0.00    -0.387 OA
ATOM     40  H   UNL     1      13.690  29.914  19.149  1.00  0.00     0.211 HD
ENDBRANCH  14  39
ENDBRANCH   8   9
ENDBRANCH   7   8
ENDBRANCH   1   7
BRANCH   1  41
ATOM     41  C   UNL     1      18.204  29.227  18.519  1.00  0.00     0.364 C 
ATOM     42  O   UNL     1      18.665  29.932  17.618  1.00  0.00    -0.246 OA
BRANCH  41  43
ATOM     43  O   UNL     1      18.879  27.994  18.720  1.00  0.00    -0.477 OA
ATOM     44  H   UNL     1      19.737  28.049  19.318  1.00  0.00     0.296 HD
ENDBRANCH  41  43
ENDBRANCH   1  41
BRANCH   3  45
ATOM     45  O   UNL     1      14.059  28.649  20.548  1.00  0.00    -0.391 OA
ATOM     46  H   UNL     1      13.454  28.565  21.341  1.00  0.00     0.211 HD
ENDBRANCH   3  45
BRANCH   5  47
ATOM     47  C   UNL     1      17.906  30.400  22.786  1.00  0.00     0.176 C 
BRANCH  47  48
ATOM     48  O   UNL     1      18.032  29.556  23.883  1.00  0.00    -0.388 OA
ATOM     49  H   UNL     1      18.783  28.952  23.861  1.00  0.00     0.211 HD
ENDBRANCH  47  48
BRANCH  47  50
ATOM     50  C   UNL     1      19.483  30.495  22.411  1.00  0.00     0.165 C 
BRANCH  50  51
ATOM     51  O   UNL     1      19.880  29.263  22.061  1.00  0.00    -0.388 OA
ATOM     52  H   UNL     1      20.755  29.251  21.574  1.00  0.00     0.211 HD
ENDBRANCH  50  51
BRANCH  50  53
ATOM     53  C   UNL     1      20.178  31.311  23.378  1.00  0.00     0.154 C 
BRANCH  53  54
ATOM     54  N   UNL     1      20.488  30.912  24.710  1.00  0.00    -0.319 N 
ATOM     55  C   UNL     1      21.789  30.393  24.924  1.00  0.00     0.407 C 
ATOM     56  H   UNL     1      19.870  30.946  25.517  1.00  0.00     0.167 HD
ATOM     57  O   UNL     1      22.613  30.291  23.956  1.00  0.00    -0.225 OA
BRANCH  55  58
ATOM     58  O   UNL     1      22.292  29.960  26.146  1.00  0.00    -0.443 OA
BRANCH  58  59
ATOM     59  C   UNL     1      21.429  29.053  26.914  1.00  0.00     0.294 C 
BRANCH  59  60
ATOM     60  C   UNL     1      21.240  27.912  25.972  1.00  0.00     0.120 A 
ATOM     61  C   UNL     1      22.027  26.736  25.962  1.00  0.00     0.138 A 
ATOM     62  N   UNL     1      20.291  27.758  25.057  1.00  0.00    -0.132 NA
ATOM     63  N   UNL     1      21.472  25.940  25.018  1.00  0.00    -0.248 N 
ATOM     64  N   UNL     1      20.462  26.543  24.495  1.00  0.00    -0.067 NA
BRANCH  63  65
ATOM     65  C   UNL     1      21.942  24.562  24.712  1.00  0.00     0.181 C 
BRANCH  65  66
ATOM     66  C   UNL     1      22.595  24.726  23.338  1.00  0.00    -0.023 A 
ATOM     67  C   UNL     1      23.905  25.127  23.192  1.00  0.00     0.056 A 
ATOM     68  C   UNL     1      21.869  24.340  22.257  1.00  0.00     0.010 A 
ATOM     69  C   UNL     1      24.407  25.093  21.860  1.00  0.00     0.161 A 
ATOM     70  C   UNL     1      22.393  24.315  20.928  1.00  0.00     0.051 A 
ATOM     71  C   UNL     1      23.698  24.708  20.796  1.00  0.00     0.160 A 
BRANCH  69  72
ATOM     72  O   UNL     1      25.727  25.494  21.642  1.00  0.00    -0.493 OA
ATOM     73  C   UNL     1      26.826  24.591  21.804  1.00  0.00     0.278 C 
ENDBRANCH  69  72
BRANCH  71  74
ATOM     74  O   UNL     1      24.318  24.689  19.515  1.00  0.00    -0.493 OA
ATOM     75  C   UNL     1      23.471  24.780  18.350  1.00  0.00     0.278 C 
ENDBRANCH  71  74
ENDBRANCH  65  66
ENDBRANCH  63  65
ENDBRANCH  59  60
ENDBRANCH  58  59
ENDBRANCH  55  58
ENDBRANCH  53  54
ENDBRANCH  50  53
ENDBRANCH  47  50
ENDBRANCH   5  47
BRANCH   4  76
ATOM     76  N   UNL     1      15.309  29.481  23.132  1.00  0.00    -0.348 N 
ATOM     77  C   UNL     1      14.092  30.024  23.559  1.00  0.00     0.217 C 
ATOM     78  H   UNL     1      15.844  28.895  23.832  1.00  0.00     0.163 HD
ATOM     79  C   UNL     1      13.503  29.898  24.927  1.00  0.00     0.114 C 
ATOM     80  O   UNL     1      13.329  30.722  22.775  1.00  0.00    -0.275 OA
ENDBRANCH   4  76
TORSDOF 33
