REMARK VINA RESULT:    -5.486      5.961      8.924
REMARK INTER + INTRA:         -21.748
REMARK INTER:                 -16.070
REMARK INTRA:                  -5.678
REMARK UNBOUND:                -7.602
REMARK SMILES CC(=O)N[C@@H]1[C@@H](O)C[C@](OC[C@H]2O[C@@H](O[C@H]3[C@H](O)[C@@H](O)[C@H](OCCN=[N+]=[N-])O[C@@H]3CO)[C@H](O)[C@@H](O)[C@H]2O)(C(=O)O)O[C@H]1C(O)[C@H](O)CNC(=O)OCc1cn(CC(=O)Nc2ncccn2)nn1
REMARK SMILES IDX 9 1 8 2 6 3 5 4 42 5 41 6 10 7 11 8 12 9 14 10 13 11 32 12
REMARK SMILES IDX 34 13 36 14 15 15 16 16 29 17 28 18 21 19 17 20 19 21 30 22
REMARK SMILES IDX 31 23 22 25 23 26 24 27 25 28 26 29 27 30 18 31 20 33 33 35
REMARK SMILES IDX 35 37 37 39 38 41 39 42 40 43 7 45 43 47 44 48 45 50 46 51
REMARK SMILES IDX 47 53 48 54 49 55 50 57 51 58 52 59 53 60 54 61 67 62 55 63
REMARK SMILES IDX 66 64 56 65 57 66 58 67 59 68 60 70 61 71 65 72 62 73 64 74
REMARK SMILES IDX 63 75 4 76 2 77 1 79 3 80
REMARK H PARENT 31 24 18 32 20 34 33 36 35 38 37 40 40 44 7 46 44 49 46 52
REMARK H PARENT 48 56 59 69 4 78
REMARK Flexibility Score: inf
ROOT
ATOM      1  C   UNL     1      24.240  25.249  20.136  1.00  0.00     0.272 C 
ATOM      2  C   UNL     1      23.957  24.378  21.348  1.00  0.00     0.113 C 
ATOM      3  C   UNL     1      23.551  25.200  22.503  1.00  0.00     0.145 C 
ATOM      4  C   UNL     1      22.529  26.288  22.211  1.00  0.00     0.142 C 
ATOM      5  C   UNL     1      22.570  26.776  20.833  1.00  0.00     0.178 C 
ATOM      6  O   UNL     1      22.915  25.788  19.921  1.00  0.00    -0.332 OA
ENDROOT
BRANCH   1   7
ATOM      7  O   UNL     1      24.490  24.467  19.094  1.00  0.00    -0.338 OA
BRANCH   7   8
ATOM      8  C   UNL     1      25.272  24.393  18.094  1.00  0.00     0.199 C 
BRANCH   8   9
ATOM      9  C   UNL     1      24.951  24.575  16.648  1.00  0.00     0.179 C 
ATOM     10  C   UNL     1      23.548  23.607  15.051  1.00  0.00     0.282 C 
ATOM     11  O   UNL     1      24.028  23.491  16.318  1.00  0.00    -0.341 OA
ATOM     12  C   UNL     1      22.411  24.679  15.022  1.00  0.00     0.202 C 
ATOM     13  C   UNL     1      22.673  25.458  16.296  1.00  0.00     0.179 C 
ATOM     14  C   UNL     1      24.184  25.781  16.250  1.00  0.00     0.177 C 
BRANCH  10  15
ATOM     15  O   UNL     1      22.969  22.393  14.657  1.00  0.00    -0.341 OA
BRANCH  15  16
ATOM     16  C   UNL     1      23.265  22.059  13.342  1.00  0.00     0.184 C 
ATOM     17  C   UNL     1      21.945  22.046  12.559  1.00  0.00     0.178 C 
ATOM     18  O   UNL     1      21.788  20.857  11.863  1.00  0.00    -0.341 OA
ATOM     19  C   UNL     1      21.701  19.765  12.740  1.00  0.00     0.281 C 
ATOM     20  C   UNL     1      23.959  20.750  13.285  1.00  0.00     0.180 C 
ATOM     21  C   UNL     1      23.088  19.530  13.265  1.00  0.00     0.202 C 
BRANCH  17  22
ATOM     22  C   UNL     1      21.951  23.164  11.530  1.00  0.00     0.191 C 
BRANCH  22  23
ATOM     23  O   UNL     1      21.324  22.760  10.350  1.00  0.00    -0.394 OA
ATOM     24  H   UNL     1      20.336  22.699  10.453  1.00  0.00     0.210 HD
ENDBRANCH  22  23
ENDBRANCH  17  22
BRANCH  19  25
ATOM     25  O   UNL     1      21.280  18.697  11.971  1.00  0.00    -0.350 OA
BRANCH  25  26
ATOM     26  C   UNL     1      20.888  19.048  10.696  1.00  0.00     0.169 C 
BRANCH  26  27
ATOM     27  C   UNL     1      19.908  18.085  10.062  1.00  0.00     0.119 C 
BRANCH  27  28
ATOM     28  N   UNL     1      18.936  18.776   9.230  1.00  0.00    -0.092 NA
ATOM     29  N   UNL     1      19.266  19.381   8.206  1.00  0.00     0.001 N 
ATOM     30  N   UNL     1      19.796  20.034   7.312  1.00  0.00    -0.003 NA
ENDBRANCH  27  28
ENDBRANCH  26  27
ENDBRANCH  25  26
ENDBRANCH  19  25
BRANCH  20  31
ATOM     31  O   UNL     1      24.723  20.690  12.087  1.00  0.00    -0.387 OA
ATOM     32  H   UNL     1      24.219  20.162  11.403  1.00  0.00     0.211 HD
ENDBRANCH  20  31
BRANCH  21  33
ATOM     33  O   UNL     1      23.017  19.013  14.554  1.00  0.00    -0.385 OA
ATOM     34  H   UNL     1      23.191  18.042  14.532  1.00  0.00     0.211 HD
ENDBRANCH  21  33
ENDBRANCH  15  16
ENDBRANCH  10  15
BRANCH  12  35
ATOM     35  O   UNL     1      22.688  25.563  13.973  1.00  0.00    -0.385 OA
ATOM     36  H   UNL     1      22.622  26.478  14.357  1.00  0.00     0.211 HD
ENDBRANCH  12  35
BRANCH  13  37
ATOM     37  O   UNL     1      22.303  24.795  17.435  1.00  0.00    -0.387 OA
ATOM     38  H   UNL     1      22.982  24.800  18.137  1.00  0.00     0.211 HD
ENDBRANCH  13  37
BRANCH  14  39
ATOM     39  O   UNL     1      24.378  26.961  16.876  1.00  0.00    -0.387 OA
ATOM     40  H   UNL     1      24.833  26.857  17.747  1.00  0.00     0.211 HD
ENDBRANCH  14  39
ENDBRANCH   8   9
ENDBRANCH   7   8
ENDBRANCH   1   7
BRANCH   1  41
ATOM     41  C   UNL     1      25.153  26.352  20.344  1.00  0.00     0.364 C 
ATOM     42  O   UNL     1      25.095  27.380  19.587  1.00  0.00    -0.246 OA
BRANCH  41  43
ATOM     43  O   UNL     1      26.129  26.411  21.311  1.00  0.00    -0.477 OA
ATOM     44  H   UNL     1      26.022  26.151  22.262  1.00  0.00     0.296 HD
ENDBRANCH  41  43
ENDBRANCH   1  41
BRANCH   3  45
ATOM     45  O   UNL     1      23.021  24.312  23.473  1.00  0.00    -0.391 OA
ATOM     46  H   UNL     1      22.859  23.422  23.038  1.00  0.00     0.211 HD
ENDBRANCH   3  45
BRANCH   5  47
ATOM     47  C   UNL     1      21.220  27.315  20.293  1.00  0.00     0.176 C 
BRANCH  47  48
ATOM     48  O   UNL     1      20.351  27.738  21.223  1.00  0.00    -0.388 OA
ATOM     49  H   UNL     1      19.722  28.455  20.931  1.00  0.00     0.211 HD
ENDBRANCH  47  48
BRANCH  47  50
ATOM     50  C   UNL     1      21.257  27.920  18.976  1.00  0.00     0.165 C 
BRANCH  50  51
ATOM     51  O   UNL     1      22.638  28.495  18.900  1.00  0.00    -0.388 OA
ATOM     52  H   UNL     1      23.234  27.790  18.603  1.00  0.00     0.211 HD
ENDBRANCH  50  51
BRANCH  50  53
ATOM     53  C   UNL     1      20.372  28.948  18.466  1.00  0.00     0.154 C 
BRANCH  53  54
ATOM     54  N   UNL     1      19.030  28.845  18.124  1.00  0.00    -0.319 N 
ATOM     55  C   UNL     1      17.863  28.434  18.800  1.00  0.00     0.407 C 
ATOM     56  H   UNL     1      18.827  29.157  17.070  1.00  0.00     0.167 HD
ATOM     57  O   UNL     1      17.905  28.041  19.980  1.00  0.00    -0.225 OA
BRANCH  55  58
ATOM     58  O   UNL     1      16.635  28.458  18.188  1.00  0.00    -0.443 OA
BRANCH  58  59
ATOM     59  C   UNL     1      15.596  29.315  18.348  1.00  0.00     0.294 C 
BRANCH  59  60
ATOM     60  C   UNL     1      14.961  29.262  19.684  1.00  0.00     0.120 A 
ATOM     61  C   UNL     1      15.180  30.152  20.745  1.00  0.00     0.138 A 
ATOM     62  N   UNL     1      14.102  28.346  20.212  1.00  0.00    -0.132 NA
ATOM     63  N   UNL     1      14.489  29.769  21.824  1.00  0.00    -0.243 N 
ATOM     64  N   UNL     1      13.849  28.672  21.459  1.00  0.00    -0.067 NA
BRANCH  63  65
ATOM     65  C   UNL     1      14.411  30.378  23.137  1.00  0.00     0.246 C 
BRANCH  65  66
ATOM     66  C   UNL     1      15.784  30.276  23.769  1.00  0.00     0.248 C 
ATOM     67  O   UNL     1      16.309  29.167  24.033  1.00  0.00    -0.272 OA
ATOM     68  N   UNL     1      16.511  31.452  24.076  1.00  0.00    -0.293 N 
ATOM     69  H   UNL     1      16.023  32.351  23.834  1.00  0.00     0.173 HD
BRANCH  68  70
ATOM     70  C   UNL     1      17.798  31.512  24.651  1.00  0.00     0.229 A 
ATOM     71  N   UNL     1      18.059  31.334  25.958  1.00  0.00    -0.221 NA
ATOM     72  N   UNL     1      18.841  31.774  23.837  1.00  0.00    -0.221 NA
ATOM     73  C   UNL     1      19.320  31.410  26.476  1.00  0.00     0.117 A 
ATOM     74  C   UNL     1      20.093  31.858  24.289  1.00  0.00     0.117 A 
ATOM     75  C   UNL     1      20.365  31.679  25.618  1.00  0.00     0.040 A 
ENDBRANCH  68  70
ENDBRANCH  65  66
ENDBRANCH  63  65
ENDBRANCH  59  60
ENDBRANCH  58  59
ENDBRANCH  55  58
ENDBRANCH  53  54
ENDBRANCH  50  53
ENDBRANCH  47  50
ENDBRANCH   5  47
BRANCH   4  76
ATOM     76  N   UNL     1      22.673  27.251  23.261  1.00  0.00    -0.348 N 
ATOM     77  C   UNL     1      21.760  27.283  24.381  1.00  0.00     0.217 C 
ATOM     78  H   UNL     1      23.444  27.970  23.261  1.00  0.00     0.163 HD
ATOM     79  C   UNL     1      21.970  28.299  25.433  1.00  0.00     0.114 C 
ATOM     80  O   UNL     1      20.819  26.465  24.445  1.00  0.00    -0.275 OA
ENDBRANCH   4  76
TORSDOF 32
