REMARK VINA RESULT:    -6.956      0.000      0.000
REMARK INTER + INTRA:         -22.881
REMARK INTER:                 -16.830
REMARK INTRA:                  -6.052
REMARK UNBOUND:                -5.351
REMARK SMILES CC(=O)N[C@@H]1[C@@H](O)C[C@](OC[C@H]2O[C@@H](O[C@H]3[C@H](O)[C@@H](O)[C@H](OCCN=[N+]=[N-])O[C@@H]3CO)[C@H](O)[C@@H](O)[C@H]2O)(C(=O)O)O[C@H]1C(O)[C@H](O)CNC(=O)OCc1cn(-c2ccc([N+](=O)[O-])cc2)nn1
REMARK SMILES IDX 9 1 8 2 6 3 5 4 42 5 41 6 10 7 11 8 12 9 14 10 13 11 32 12
REMARK SMILES IDX 34 13 36 14 15 15 16 16 29 17 28 18 21 19 17 20 19 21 30 22
REMARK SMILES IDX 31 23 22 25 23 26 24 27 25 28 26 29 27 30 18 31 20 33 33 35
REMARK SMILES IDX 35 37 37 39 38 41 39 42 40 43 7 45 43 47 44 48 45 50 46 51
REMARK SMILES IDX 47 53 48 54 49 55 50 57 51 58 52 59 53 60 54 61 66 62 55 63
REMARK SMILES IDX 65 64 56 65 57 66 64 67 58 68 63 69 59 70 60 71 61 72 62 73
REMARK SMILES IDX 4 74 2 75 1 77 3 78
REMARK H PARENT 31 24 18 32 20 34 33 36 35 38 37 40 40 44 7 46 44 49 46 52
REMARK H PARENT 48 56 4 76
REMARK Flexibility Score: inf
ROOT
ATOM      1  C   UNL     1      20.430  20.231  10.669  1.00  0.00     0.272 C 
ATOM      2  C   UNL     1      19.607  20.312   9.424  1.00  0.00     0.113 C 
ATOM      3  C   UNL     1      20.264  21.175   8.435  1.00  0.00     0.145 C 
ATOM      4  C   UNL     1      21.425  22.037   8.963  1.00  0.00     0.142 C 
ATOM      5  C   UNL     1      21.120  22.460  10.323  1.00  0.00     0.178 C 
ATOM      6  O   UNL     1      20.569  21.511  11.178  1.00  0.00    -0.332 OA
ENDROOT
BRANCH   1   7
ATOM      7  O   UNL     1      21.599  19.546  10.561  1.00  0.00    -0.338 OA
BRANCH   7   8
ATOM      8  C   UNL     1      21.519  18.242  10.191  1.00  0.00     0.199 C 
BRANCH   8   9
ATOM      9  C   UNL     1      22.681  17.836   9.293  1.00  0.00     0.179 C 
ATOM     10  C   UNL     1      24.259  16.694  10.587  1.00  0.00     0.282 C 
ATOM     11  O   UNL     1      23.888  17.830   9.939  1.00  0.00    -0.341 OA
ATOM     12  C   UNL     1      23.376  15.516  10.514  1.00  0.00     0.202 C 
ATOM     13  C   UNL     1      22.773  15.361   9.142  1.00  0.00     0.179 C 
ATOM     14  C   UNL     1      22.431  16.634   8.455  1.00  0.00     0.177 C 
BRANCH  10  15
ATOM     15  O   UNL     1      24.627  17.052  11.880  1.00  0.00    -0.341 OA
BRANCH  15  16
ATOM     16  C   UNL     1      24.765  18.374  12.143  1.00  0.00     0.184 C 
ATOM     17  C   UNL     1      26.156  18.780  12.577  1.00  0.00     0.178 C 
ATOM     18  O   UNL     1      26.140  20.158  12.874  1.00  0.00    -0.341 OA
ATOM     19  C   UNL     1      25.463  20.353  14.078  1.00  0.00     0.281 C 
ATOM     20  C   UNL     1      23.889  18.660  13.378  1.00  0.00     0.180 C 
ATOM     21  C   UNL     1      23.985  20.132  13.729  1.00  0.00     0.202 C 
BRANCH  17  22
ATOM     22  C   UNL     1      27.213  18.597  11.520  1.00  0.00     0.191 C 
BRANCH  22  23
ATOM     23  O   UNL     1      26.612  19.041  10.316  1.00  0.00    -0.394 OA
ATOM     24  H   UNL     1      26.506  20.029  10.325  1.00  0.00     0.210 HD
ENDBRANCH  22  23
ENDBRANCH  17  22
BRANCH  19  25
ATOM     25  O   UNL     1      25.616  21.645  14.510  1.00  0.00    -0.350 OA
BRANCH  25  26
ATOM     26  C   UNL     1      26.322  21.812  15.674  1.00  0.00     0.169 C 
BRANCH  26  27
ATOM     27  C   UNL     1      27.816  21.746  15.528  1.00  0.00     0.119 C 
BRANCH  27  28
ATOM     28  N   UNL     1      28.325  20.741  16.465  1.00  0.00    -0.092 NA
ATOM     29  N   UNL     1      28.199  20.922  17.667  1.00  0.00     0.001 N 
ATOM     30  N   UNL     1      27.852  21.014  18.834  1.00  0.00    -0.003 NA
ENDBRANCH  27  28
ENDBRANCH  26  27
ENDBRANCH  25  26
ENDBRANCH  19  25
BRANCH  20  31
ATOM     31  O   UNL     1      22.603  18.227  13.210  1.00  0.00    -0.387 OA
ATOM     32  H   UNL     1      22.017  18.327  13.986  1.00  0.00     0.211 HD
ENDBRANCH  20  31
BRANCH  21  33
ATOM     33  O   UNL     1      23.154  20.418  14.778  1.00  0.00    -0.385 OA
ATOM     34  H   UNL     1      22.217  20.318  14.483  1.00  0.00     0.211 HD
ENDBRANCH  21  33
ENDBRANCH  15  16
ENDBRANCH  10  15
BRANCH  12  35
ATOM     35  O   UNL     1      24.154  14.355  10.689  1.00  0.00    -0.385 OA
ATOM     36  H   UNL     1      24.263  13.860   9.855  1.00  0.00     0.211 HD
ENDBRANCH  12  35
BRANCH  13  37
ATOM     37  O   UNL     1      21.651  14.501   9.234  1.00  0.00    -0.387 OA
ATOM     38  H   UNL     1      21.742  13.832   8.536  1.00  0.00     0.211 HD
ENDBRANCH  13  37
BRANCH  14  39
ATOM     39  O   UNL     1      21.150  16.685   7.923  1.00  0.00    -0.387 OA
ATOM     40  H   UNL     1      21.178  17.320   7.156  1.00  0.00     0.211 HD
ENDBRANCH  14  39
ENDBRANCH   8   9
ENDBRANCH   7   8
ENDBRANCH   1   7
BRANCH   1  41
ATOM     41  C   UNL     1      19.585  19.558  11.730  1.00  0.00     0.364 C 
ATOM     42  O   UNL     1      18.438  19.154  11.456  1.00  0.00    -0.246 OA
BRANCH  41  43
ATOM     43  O   UNL     1      20.086  19.400  12.992  1.00  0.00    -0.477 OA
ATOM     44  H   UNL     1      20.403  20.155  13.593  1.00  0.00     0.296 HD
ENDBRANCH  41  43
ENDBRANCH   1  41
BRANCH   3  45
ATOM     45  O   UNL     1      20.791  20.427   7.384  1.00  0.00    -0.391 OA
ATOM     46  H   UNL     1      21.003  19.517   7.672  1.00  0.00     0.211 HD
ENDBRANCH   3  45
BRANCH   5  47
ATOM     47  C   UNL     1      22.079  23.183  11.163  1.00  0.00     0.176 C 
BRANCH  47  48
ATOM     48  O   UNL     1      22.085  24.575  11.041  1.00  0.00    -0.388 OA
ATOM     49  H   UNL     1      22.347  24.910  10.167  1.00  0.00     0.211 HD
ENDBRANCH  47  48
BRANCH  47  50
ATOM     50  C   UNL     1      22.177  22.904  12.628  1.00  0.00     0.165 C 
BRANCH  50  51
ATOM     51  O   UNL     1      21.062  22.417  13.236  1.00  0.00    -0.388 OA
ATOM     52  H   UNL     1      20.226  22.844  12.911  1.00  0.00     0.211 HD
ENDBRANCH  50  51
BRANCH  50  53
ATOM     53  C   UNL     1      22.974  23.938  13.377  1.00  0.00     0.154 C 
BRANCH  53  54
ATOM     54  N   UNL     1      23.410  23.538  14.688  1.00  0.00    -0.319 N 
ATOM     55  C   UNL     1      23.215  24.299  15.865  1.00  0.00     0.407 C 
ATOM     56  H   UNL     1      23.912  22.620  14.824  1.00  0.00     0.167 HD
ATOM     57  O   UNL     1      22.643  25.392  15.802  1.00  0.00    -0.225 OA
BRANCH  55  58
ATOM     58  O   UNL     1      23.655  23.851  17.112  1.00  0.00    -0.443 OA
BRANCH  58  59
ATOM     59  C   UNL     1      24.313  24.658  18.054  1.00  0.00     0.294 C 
BRANCH  59  60
ATOM     60  C   UNL     1      23.592  24.643  19.344  1.00  0.00     0.121 A 
ATOM     61  C   UNL     1      24.123  24.629  20.632  1.00  0.00     0.144 A 
ATOM     62  N   UNL     1      22.241  24.658  19.543  1.00  0.00    -0.131 NA
ATOM     63  N   UNL     1      23.122  24.636  21.532  1.00  0.00    -0.220 N 
ATOM     64  N   UNL     1      22.003  24.653  20.842  1.00  0.00    -0.062 NA
BRANCH  63  65
ATOM     65  C   UNL     1      23.240  24.640  22.959  1.00  0.00     0.067 A 
ATOM     66  C   UNL     1      24.441  24.583  23.626  1.00  0.00     0.035 A 
ATOM     67  C   UNL     1      22.090  24.692  23.733  1.00  0.00     0.035 A 
ATOM     68  C   UNL     1      24.498  24.579  25.019  1.00  0.00     0.088 A 
ATOM     69  C   UNL     1      22.143  24.688  25.111  1.00  0.00     0.088 A 
ATOM     70  C   UNL     1      23.346  24.632  25.783  1.00  0.00     0.269 A 
BRANCH  70  71
ATOM     71  N   UNL     1      23.417  24.623  27.204  1.00  0.00     0.062 N 
ATOM     72  O   UNL     1      22.629  24.005  27.938  1.00  0.00    -0.258 OA
ATOM     73  O   UNL     1      24.419  25.348  27.798  1.00  0.00    -0.258 OA
ENDBRANCH  70  71
ENDBRANCH  63  65
ENDBRANCH  59  60
ENDBRANCH  58  59
ENDBRANCH  55  58
ENDBRANCH  53  54
ENDBRANCH  50  53
ENDBRANCH  47  50
ENDBRANCH   5  47
BRANCH   4  74
ATOM     74  N   UNL     1      21.336  23.192   8.054  1.00  0.00    -0.348 N 
ATOM     75  C   UNL     1      22.471  23.825   7.520  1.00  0.00     0.217 C 
ATOM     76  H   UNL     1      20.389  23.528   7.805  1.00  0.00     0.163 HD
ATOM     77  C   UNL     1      22.270  24.993   6.610  1.00  0.00     0.114 C 
ATOM     78  O   UNL     1      23.626  23.452   7.775  1.00  0.00    -0.275 OA
ENDBRANCH   4  74
TORSDOF 31
