REMARK VINA RESULT:    -5.875      2.347      5.101
REMARK INTER + INTRA:         -22.300
REMARK INTER:                 -14.521
REMARK INTRA:                  -7.779
REMARK UNBOUND:                -7.496
REMARK SMILES CC(=O)N[C@@H]1[C@@H](O)C[C@](OC[C@H]2O[C@@H](O[C@H]3[C@H](O)[C@@H](O)[C@H](OCCN=[N+]=[N-])O[C@@H]3CO)[C@H](O)[C@@H](O)[C@H]2O)(C(=O)O)O[C@H]1C(O)[C@H](O)CNC(=O)OCc1cn(-c2ccccc2C(N)=O)nn1
REMARK SMILES IDX 9 1 8 2 6 3 5 4 42 5 41 6 10 7 11 8 12 9 14 10 13 11 32 12
REMARK SMILES IDX 34 13 36 14 15 15 16 16 29 17 28 18 21 19 17 20 19 21 30 22
REMARK SMILES IDX 31 23 22 25 23 26 24 27 25 28 26 29 27 30 18 31 20 33 33 35
REMARK SMILES IDX 35 37 37 39 38 41 39 42 40 43 7 45 43 47 44 48 45 50 46 51
REMARK SMILES IDX 47 53 48 54 49 55 50 57 51 58 52 59 53 60 54 61 66 62 55 63
REMARK SMILES IDX 65 64 56 65 61 66 57 67 60 68 58 69 59 70 62 71 64 72 63 73
REMARK SMILES IDX 4 76 2 77 1 79 3 80
REMARK H PARENT 31 24 18 32 20 34 33 36 35 38 37 40 40 44 7 46 44 49 46 52
REMARK H PARENT 48 56 63 74 63 75 4 78
REMARK Flexibility Score: inf
ROOT
ATOM      1  C   UNL     1      20.857  31.366  22.668  1.00  0.00     0.272 C 
ATOM      2  C   UNL     1      19.461  31.799  22.135  1.00  0.00     0.113 C 
ATOM      3  C   UNL     1      18.595  30.578  22.257  1.00  0.00     0.145 C 
ATOM      4  C   UNL     1      18.999  29.578  21.248  1.00  0.00     0.142 C 
ATOM      5  C   UNL     1      20.521  29.729  21.069  1.00  0.00     0.178 C 
ATOM      6  O   UNL     1      21.116  30.065  22.271  1.00  0.00    -0.332 OA
ENDROOT
BRANCH   1   7
ATOM      7  O   UNL     1      20.715  31.431  24.041  1.00  0.00    -0.338 OA
BRANCH   7   8
ATOM      8  C   UNL     1      20.568  32.688  24.546  1.00  0.00     0.199 C 
BRANCH   8   9
ATOM      9  C   UNL     1      19.643  32.735  25.749  1.00  0.00     0.179 C 
ATOM     10  C   UNL     1      17.355  32.721  26.193  1.00  0.00     0.282 C 
ATOM     11  O   UNL     1      18.354  32.596  25.239  1.00  0.00    -0.341 OA
ATOM     12  C   UNL     1      17.817  32.822  27.599  1.00  0.00     0.202 C 
ATOM     13  C   UNL     1      19.007  31.982  27.956  1.00  0.00     0.179 C 
ATOM     14  C   UNL     1      19.866  31.634  26.732  1.00  0.00     0.177 C 
BRANCH  10  15
ATOM     15  O   UNL     1      16.514  31.634  26.042  1.00  0.00    -0.341 OA
BRANCH  15  16
ATOM     16  C   UNL     1      15.917  31.569  24.794  1.00  0.00     0.184 C 
ATOM     17  C   UNL     1      14.894  32.681  24.704  1.00  0.00     0.178 C 
ATOM     18  O   UNL     1      13.639  32.268  24.991  1.00  0.00    -0.341 OA
ATOM     19  C   UNL     1      13.128  31.379  24.117  1.00  0.00     0.281 C 
ATOM     20  C   UNL     1      15.207  30.222  24.727  1.00  0.00     0.180 C 
ATOM     21  C   UNL     1      14.040  30.260  23.807  1.00  0.00     0.202 C 
BRANCH  17  22
ATOM     22  C   UNL     1      14.950  33.320  23.343  1.00  0.00     0.191 C 
BRANCH  22  23
ATOM     23  O   UNL     1      14.199  34.499  23.297  1.00  0.00    -0.394 OA
ATOM     24  H   UNL     1      13.786  34.521  22.381  1.00  0.00     0.210 HD
ENDBRANCH  22  23
ENDBRANCH  17  22
BRANCH  19  25
ATOM     25  O   UNL     1      12.567  31.963  22.972  1.00  0.00    -0.350 OA
BRANCH  25  26
ATOM     26  C   UNL     1      12.320  31.074  21.956  1.00  0.00     0.169 C 
BRANCH  26  27
ATOM     27  C   UNL     1      12.832  31.611  20.662  1.00  0.00     0.119 C 
BRANCH  27  28
ATOM     28  N   UNL     1      13.468  30.552  19.919  1.00  0.00    -0.092 NA
ATOM     29  N   UNL     1      13.770  29.467  20.430  1.00  0.00     0.001 N 
ATOM     30  N   UNL     1      13.791  28.421  21.085  1.00  0.00    -0.003 NA
ENDBRANCH  27  28
ENDBRANCH  26  27
ENDBRANCH  25  26
ENDBRANCH  19  25
BRANCH  20  31
ATOM     31  O   UNL     1      16.094  29.238  24.300  1.00  0.00    -0.387 OA
ATOM     32  H   UNL     1      16.050  29.139  23.297  1.00  0.00     0.211 HD
ENDBRANCH  20  31
BRANCH  21  33
ATOM     33  O   UNL     1      13.335  29.041  23.966  1.00  0.00    -0.385 OA
ATOM     34  H   UNL     1      13.710  28.382  23.313  1.00  0.00     0.211 HD
ENDBRANCH  21  33
ENDBRANCH  15  16
ENDBRANCH  10  15
BRANCH  12  35
ATOM     35  O   UNL     1      17.992  34.160  28.012  1.00  0.00    -0.385 OA
ATOM     36  H   UNL     1      18.536  34.597  27.321  1.00  0.00     0.211 HD
ENDBRANCH  12  35
BRANCH  13  37
ATOM     37  O   UNL     1      18.606  30.771  28.521  1.00  0.00    -0.387 OA
ATOM     38  H   UNL     1      18.698  30.782  29.523  1.00  0.00     0.211 HD
ENDBRANCH  13  37
BRANCH  14  39
ATOM     39  O   UNL     1      19.378  30.441  26.169  1.00  0.00    -0.387 OA
ATOM     40  H   UNL     1      20.039  29.945  25.661  1.00  0.00     0.211 HD
ENDBRANCH  14  39
ENDBRANCH   8   9
ENDBRANCH   7   8
ENDBRANCH   1   7
BRANCH   1  41
ATOM     41  C   UNL     1      21.879  32.268  22.133  1.00  0.00     0.364 C 
ATOM     42  O   UNL     1      21.554  33.231  21.357  1.00  0.00    -0.246 OA
BRANCH  41  43
ATOM     43  O   UNL     1      23.224  32.085  22.467  1.00  0.00    -0.477 OA
ATOM     44  H   UNL     1      23.868  31.966  21.689  1.00  0.00     0.296 HD
ENDBRANCH  41  43
ENDBRANCH   1  41
BRANCH   3  45
ATOM     45  O   UNL     1      18.896  30.013  23.524  1.00  0.00    -0.391 OA
ATOM     46  H   UNL     1      18.088  30.071  24.097  1.00  0.00     0.211 HD
ENDBRANCH   3  45
BRANCH   5  47
ATOM     47  C   UNL     1      21.091  28.514  20.396  1.00  0.00     0.176 C 
BRANCH  47  48
ATOM     48  O   UNL     1      20.092  27.523  20.448  1.00  0.00    -0.388 OA
ATOM     49  H   UNL     1      19.198  27.951  20.546  1.00  0.00     0.211 HD
ENDBRANCH  47  48
BRANCH  47  50
ATOM     50  C   UNL     1      21.311  28.764  18.900  1.00  0.00     0.165 C 
BRANCH  50  51
ATOM     51  O   UNL     1      20.368  28.013  18.180  1.00  0.00    -0.388 OA
ATOM     52  H   UNL     1      19.633  28.645  17.961  1.00  0.00     0.211 HD
ENDBRANCH  50  51
BRANCH  50  53
ATOM     53  C   UNL     1      22.680  28.377  18.457  1.00  0.00     0.154 C 
BRANCH  53  54
ATOM     54  N   UNL     1      23.257  27.388  19.327  1.00  0.00    -0.319 N 
ATOM     55  C   UNL     1      23.031  25.994  19.204  1.00  0.00     0.407 C 
ATOM     56  H   UNL     1      23.887  27.736  20.106  1.00  0.00     0.167 HD
ATOM     57  O   UNL     1      22.340  25.447  18.344  1.00  0.00    -0.225 OA
BRANCH  55  58
ATOM     58  O   UNL     1      23.639  25.118  20.135  1.00  0.00    -0.443 OA
BRANCH  58  59
ATOM     59  C   UNL     1      22.853  24.101  20.761  1.00  0.00     0.294 C 
BRANCH  59  60
ATOM     60  C   UNL     1      22.260  24.594  22.018  1.00  0.00     0.121 A 
ATOM     61  C   UNL     1      22.833  24.669  23.264  1.00  0.00     0.144 A 
ATOM     62  N   UNL     1      21.013  25.070  22.175  1.00  0.00    -0.131 NA
ATOM     63  N   UNL     1      21.942  25.179  24.142  1.00  0.00    -0.220 N 
ATOM     64  N   UNL     1      20.833  25.414  23.434  1.00  0.00    -0.062 NA
BRANCH  63  65
ATOM     65  C   UNL     1      22.094  25.428  25.528  1.00  0.00     0.079 A 
ATOM     66  C   UNL     1      21.809  26.680  26.008  1.00  0.00     0.065 A 
ATOM     67  C   UNL     1      22.522  24.439  26.391  1.00  0.00     0.029 A 
ATOM     68  C   UNL     1      21.943  26.981  27.360  1.00  0.00     0.016 A 
ATOM     69  C   UNL     1      22.663  24.722  27.752  1.00  0.00     0.002 A 
ATOM     70  C   UNL     1      22.372  25.986  28.214  1.00  0.00     0.001 A 
BRANCH  66  71
ATOM     71  C   UNL     1      21.361  27.712  25.095  1.00  0.00     0.250 C 
ATOM     72  O   UNL     1      20.132  27.964  25.023  1.00  0.00    -0.269 OA
ATOM     73  N   UNL     1      22.225  28.463  24.271  1.00  0.00    -0.366 N 
ATOM     74  H   UNL     1      22.255  29.490  24.359  1.00  0.00     0.159 HD
ATOM     75  H   UNL     1      22.822  27.982  23.583  1.00  0.00     0.159 HD
ENDBRANCH  66  71
ENDBRANCH  63  65
ENDBRANCH  59  60
ENDBRANCH  58  59
ENDBRANCH  55  58
ENDBRANCH  53  54
ENDBRANCH  50  53
ENDBRANCH  47  50
ENDBRANCH   5  47
BRANCH   4  76
ATOM     76  N   UNL     1      18.411  29.667  19.969  1.00  0.00    -0.348 N 
ATOM     77  C   UNL     1      17.357  28.821  19.539  1.00  0.00     0.217 C 
ATOM     78  H   UNL     1      18.763  30.390  19.299  1.00  0.00     0.163 HD
ATOM     79  C   UNL     1      16.716  28.883  18.208  1.00  0.00     0.114 C 
ATOM     80  O   UNL     1      16.980  27.967  20.405  1.00  0.00    -0.275 OA
ENDBRANCH   4  76
TORSDOF 31
