REMARK VINA RESULT:    -6.390      2.944      9.136
REMARK INTER + INTRA:         -22.312
REMARK INTER:                 -16.683
REMARK INTRA:                  -5.629
REMARK UNBOUND:                -5.463
REMARK SMILES CC(=O)N[C@@H]1[C@@H](O)C[C@](OC[C@H]2O[C@@H](O[C@H]3[C@H](O)[C@@H](O)[C@H](OCCN=[N+]=[N-])O[C@@H]3CO)[C@H](O)[C@@H](O)[C@H]2O)(C(=O)O)O[C@H]1C(O)[C@H](O)CNC(=O)OCc1cn(COCc2ccccc2)nn1
REMARK SMILES IDX 43 1 42 2 9 3 8 4 41 5 6 6 5 7 10 8 11 9 12 10 14 11 13 12
REMARK SMILES IDX 32 13 34 14 36 15 15 16 16 17 29 18 28 19 21 20 17 21 19 22
REMARK SMILES IDX 30 23 31 24 22 26 23 27 24 28 25 29 26 30 27 31 18 32 20 34
REMARK SMILES IDX 33 36 35 38 37 40 38 42 39 43 40 44 7 46 4 48 2 49 1 51 3 52
REMARK SMILES IDX 44 53 45 55 46 56 47 58 48 59 49 60 50 62 51 63 52 64 53 65
REMARK SMILES IDX 54 66 66 67 55 68 65 69 56 70 57 71 58 72 59 73 60 74 64 75
REMARK SMILES IDX 61 76 63 77 62 78
REMARK H PARENT 31 25 18 33 20 35 33 37 35 39 37 41 40 45 7 47 4 50 44 54
REMARK H PARENT 46 57 48 61
REMARK Flexibility Score: inf
ROOT
ATOM      1  C   UNL     1      15.709  30.163  11.385  1.00  0.00     0.176 C 
ENDROOT
BRANCH   1   2
ATOM      2  C   UNL     1      14.623  30.374  12.463  1.00  0.00     0.178 C 
ATOM      3  C   UNL     1      14.571  30.950  14.715  1.00  0.00     0.272 C 
ATOM      4  C   UNL     1      13.482  29.908  14.945  1.00  0.00     0.113 C 
ATOM      5  O   UNL     1      15.312  30.486  13.672  1.00  0.00    -0.332 OA
ATOM      6  C   UNL     1      13.712  28.723  14.036  1.00  0.00     0.145 C 
ATOM      7  C   UNL     1      13.684  29.212  12.556  1.00  0.00     0.142 C 
BRANCH   3   8
ATOM      8  O   UNL     1      15.358  31.080  15.876  1.00  0.00    -0.338 OA
BRANCH   8   9
ATOM      9  C   UNL     1      14.764  30.838  17.055  1.00  0.00     0.199 C 
BRANCH   9  10
ATOM     10  C   UNL     1      15.796  30.575  18.126  1.00  0.00     0.179 C 
ATOM     11  C   UNL     1      16.333  30.707  20.324  1.00  0.00     0.282 C 
ATOM     12  O   UNL     1      15.296  30.944  19.392  1.00  0.00    -0.341 OA
ATOM     13  C   UNL     1      16.472  29.211  20.591  1.00  0.00     0.202 C 
ATOM     14  C   UNL     1      15.738  28.518  19.434  1.00  0.00     0.179 C 
ATOM     15  C   UNL     1      16.271  29.169  18.175  1.00  0.00     0.177 C 
BRANCH  11  16
ATOM     16  O   UNL     1      15.984  31.312  21.499  1.00  0.00    -0.341 OA
BRANCH  16  17
ATOM     17  C   UNL     1      15.866  30.438  22.571  1.00  0.00     0.184 C 
ATOM     18  C   UNL     1      14.535  30.487  23.233  1.00  0.00     0.178 C 
ATOM     19  O   UNL     1      14.412  31.643  23.942  1.00  0.00    -0.341 OA
ATOM     20  C   UNL     1      15.232  31.745  25.042  1.00  0.00     0.281 C 
ATOM     21  C   UNL     1      16.975  30.694  23.532  1.00  0.00     0.180 C 
ATOM     22  C   UNL     1      16.606  31.230  24.865  1.00  0.00     0.202 C 
BRANCH  18  23
ATOM     23  C   UNL     1      14.325  29.233  24.051  1.00  0.00     0.191 C 
BRANCH  23  24
ATOM     24  O   UNL     1      13.005  29.141  24.508  1.00  0.00    -0.394 OA
ATOM     25  H   UNL     1      12.971  29.393  25.465  1.00  0.00     0.210 HD
ENDBRANCH  23  24
ENDBRANCH  18  23
BRANCH  20  26
ATOM     26  O   UNL     1      14.611  31.039  26.078  1.00  0.00    -0.350 OA
BRANCH  26  27
ATOM     27  C   UNL     1      14.306  31.801  27.177  1.00  0.00     0.169 C 
BRANCH  27  28
ATOM     28  C   UNL     1      15.145  31.268  28.326  1.00  0.00     0.119 C 
BRANCH  28  29
ATOM     29  N   UNL     1      14.342  30.948  29.484  1.00  0.00    -0.092 NA
ATOM     30  N   UNL     1      13.424  31.710  29.840  1.00  0.00     0.001 N 
ATOM     31  N   UNL     1      12.949  32.687  30.450  1.00  0.00    -0.003 NA
ENDBRANCH  28  29
ENDBRANCH  27  28
ENDBRANCH  26  27
ENDBRANCH  20  26
BRANCH  21  32
ATOM     32  O   UNL     1      17.693  29.488  23.765  1.00  0.00    -0.387 OA
ATOM     33  H   UNL     1      18.078  29.130  22.951  1.00  0.00     0.211 HD
ENDBRANCH  21  32
BRANCH  22  34
ATOM     34  O   UNL     1      17.480  32.312  25.150  1.00  0.00    -0.385 OA
ATOM     35  H   UNL     1      17.605  32.302  26.135  1.00  0.00     0.211 HD
ENDBRANCH  22  34
ENDBRANCH  16  17
ENDBRANCH  11  16
BRANCH  13  36
ATOM     36  O   UNL     1      17.798  28.787  20.500  1.00  0.00    -0.385 OA
ATOM     37  H   UNL     1      18.209  29.271  19.742  1.00  0.00     0.211 HD
ENDBRANCH  13  36
BRANCH  14  38
ATOM     38  O   UNL     1      14.404  28.874  19.585  1.00  0.00    -0.387 OA
ATOM     39  H   UNL     1      14.228  29.421  20.391  1.00  0.00     0.211 HD
ENDBRANCH  14  38
BRANCH  15  40
ATOM     40  O   UNL     1      15.978  28.432  17.038  1.00  0.00    -0.387 OA
ATOM     41  H   UNL     1      15.351  28.892  16.422  1.00  0.00     0.211 HD
ENDBRANCH  15  40
ENDBRANCH   9  10
ENDBRANCH   8   9
ENDBRANCH   3   8
BRANCH   3  42
ATOM     42  C   UNL     1      14.038  32.286  14.454  1.00  0.00     0.364 C 
ATOM     43  O   UNL     1      14.689  33.347  14.263  1.00  0.00    -0.246 OA
BRANCH  42  44
ATOM     44  O   UNL     1      12.634  32.459  14.398  1.00  0.00    -0.477 OA
ATOM     45  H   UNL     1      12.194  32.864  13.572  1.00  0.00     0.296 HD
ENDBRANCH  42  44
ENDBRANCH   3  42
BRANCH   6  46
ATOM     46  O   UNL     1      14.858  28.029  14.201  1.00  0.00    -0.391 OA
ATOM     47  H   UNL     1      14.762  27.052  13.975  1.00  0.00     0.211 HD
ENDBRANCH   6  46
BRANCH   7  48
ATOM     48  N   UNL     1      12.306  29.582  12.342  1.00  0.00    -0.348 N 
ATOM     49  C   UNL     1      11.472  28.707  11.616  1.00  0.00     0.217 C 
ATOM     50  H   UNL     1      11.938  30.464  12.705  1.00  0.00     0.163 HD
ATOM     51  C   UNL     1      10.044  29.059  11.394  1.00  0.00     0.114 C 
ATOM     52  O   UNL     1      11.921  27.612  11.149  1.00  0.00    -0.275 OA
ENDBRANCH   7  48
ENDBRANCH   1   2
BRANCH   1  53
ATOM     53  O   UNL     1      15.178  29.141  10.508  1.00  0.00    -0.388 OA
ATOM     54  H   UNL     1      14.273  29.475  10.234  1.00  0.00     0.211 HD
ENDBRANCH   1  53
BRANCH   1  55
ATOM     55  C   UNL     1      17.002  29.629  11.890  1.00  0.00     0.165 C 
BRANCH  55  56
ATOM     56  O   UNL     1      17.004  28.370  12.421  1.00  0.00    -0.388 OA
ATOM     57  H   UNL     1      17.821  28.127  12.908  1.00  0.00     0.211 HD
ENDBRANCH  55  56
BRANCH  55  58
ATOM     58  C   UNL     1      17.959  30.531  12.568  1.00  0.00     0.154 C 
BRANCH  58  59
ATOM     59  N   UNL     1      19.117  29.946  13.184  1.00  0.00    -0.319 N 
ATOM     60  C   UNL     1      19.124  29.325  14.460  1.00  0.00     0.407 C 
ATOM     61  H   UNL     1      20.032  29.948  12.681  1.00  0.00     0.167 HD
ATOM     62  O   UNL     1      18.082  29.250  15.120  1.00  0.00    -0.225 OA
BRANCH  60  63
ATOM     63  O   UNL     1      20.265  28.768  15.049  1.00  0.00    -0.443 OA
BRANCH  63  64
ATOM     64  C   UNL     1      20.903  29.442  16.136  1.00  0.00     0.294 C 
BRANCH  64  65
ATOM     65  C   UNL     1      20.841  28.667  17.396  1.00  0.00     0.120 A 
ATOM     66  C   UNL     1      21.928  28.026  17.953  1.00  0.00     0.141 A 
ATOM     67  N   UNL     1      19.805  28.425  18.207  1.00  0.00    -0.132 NA
ATOM     68  N   UNL     1      21.509  27.413  19.087  1.00  0.00    -0.226 N 
ATOM     69  N   UNL     1      20.217  27.676  19.211  1.00  0.00    -0.065 NA
BRANCH  68  70
ATOM     70  C   UNL     1      22.284  26.622  20.017  1.00  0.00     0.307 C 
BRANCH  70  71
ATOM     71  O   UNL     1      21.578  25.556  20.503  1.00  0.00    -0.355 OA
BRANCH  71  72
ATOM     72  C   UNL     1      22.449  24.579  20.960  1.00  0.00     0.198 C 
BRANCH  72  73
ATOM     73  C   UNL     1      22.442  24.590  22.466  1.00  0.00    -0.022 A 
ATOM     74  C   UNL     1      21.221  24.656  23.105  1.00  0.00     0.006 A 
ATOM     75  C   UNL     1      23.615  24.537  23.174  1.00  0.00     0.006 A 
ATOM     76  C   UNL     1      21.174  24.670  24.482  1.00  0.00     0.000 A 
ATOM     77  C   UNL     1      23.544  24.552  24.536  1.00  0.00     0.000 A 
ATOM     78  C   UNL     1      22.339  24.617  25.217  1.00  0.00     0.000 A 
ENDBRANCH  72  73
ENDBRANCH  71  72
ENDBRANCH  70  71
ENDBRANCH  68  70
ENDBRANCH  64  65
ENDBRANCH  63  64
ENDBRANCH  60  63
ENDBRANCH  58  59
ENDBRANCH  55  58
ENDBRANCH   1  55
TORSDOF 33
