REMARK VINA RESULT:    -5.711     12.393     17.324
REMARK INTER + INTRA:         -20.654
REMARK INTER:                 -14.938
REMARK INTRA:                  -5.715
REMARK UNBOUND:                -6.597
REMARK SMILES CC(=O)N[C@@H]1[C@@H](O)C[C@](OC[C@H]2O[C@@H](O[C@H]3[C@H](O)[C@@H](O)[C@H](OCCN=[N+]=[N-])O[C@@H]3CO)[C@H](O)[C@@H](O)[C@H]2O)(C(=O)O)O[C@H]1C(O)[C@H](O)CNC(=O)OCc1cn(-c2ccccc2)nn1
REMARK SMILES IDX 9 1 8 2 6 3 5 4 42 5 41 6 10 7 11 8 12 9 14 10 13 11 32 12
REMARK SMILES IDX 34 13 36 14 15 15 16 16 29 17 28 18 21 19 17 20 19 21 30 22
REMARK SMILES IDX 31 23 22 25 23 26 24 27 25 28 26 29 27 30 18 31 20 33 33 35
REMARK SMILES IDX 35 37 37 39 38 41 39 42 40 43 7 45 43 47 44 48 45 50 46 51
REMARK SMILES IDX 47 53 48 54 49 55 50 57 51 58 52 59 53 60 54 61 63 62 55 63
REMARK SMILES IDX 62 64 56 65 57 66 61 67 58 68 60 69 59 70 4 71 2 72 1 74
REMARK SMILES IDX 3 75
REMARK H PARENT 31 24 18 32 20 34 33 36 35 38 37 40 40 44 7 46 44 49 46 52
REMARK H PARENT 48 56 4 73
REMARK Flexibility Score: inf
ROOT
ATOM      1  C   UNL     1       1.802  20.526  31.284  1.00  0.00     0.272 C 
ATOM      2  C   UNL     1       1.170  19.921  32.482  1.00  0.00     0.113 C 
ATOM      3  C   UNL     1       1.910  20.112  33.752  1.00  0.00     0.145 C 
ATOM      4  C   UNL     1       2.457  21.525  33.843  1.00  0.00     0.142 C 
ATOM      5  C   UNL     1       3.341  21.710  32.630  1.00  0.00     0.178 C 
ATOM      6  O   UNL     1       2.490  21.748  31.556  1.00  0.00    -0.332 OA
ENDROOT
BRANCH   1   7
ATOM      7  O   UNL     1       0.941  20.905  30.296  1.00  0.00    -0.338 OA
BRANCH   7   8
ATOM      8  C   UNL     1       0.612  22.154  30.025  1.00  0.00     0.199 C 
BRANCH   8   9
ATOM      9  C   UNL     1       0.848  22.792  28.711  1.00  0.00     0.179 C 
ATOM     10  C   UNL     1       1.589  24.833  27.857  1.00  0.00     0.282 C 
ATOM     11  O   UNL     1       1.136  24.161  29.013  1.00  0.00    -0.341 OA
ATOM     12  C   UNL     1       1.478  24.035  26.600  1.00  0.00     0.202 C 
ATOM     13  C   UNL     1       2.254  22.740  26.701  1.00  0.00     0.179 C 
ATOM     14  C   UNL     1       2.145  22.236  28.111  1.00  0.00     0.177 C 
BRANCH  10  15
ATOM     15  O   UNL     1       2.877  25.170  28.056  1.00  0.00    -0.341 OA
BRANCH  15  16
ATOM     16  C   UNL     1       3.297  26.448  28.044  1.00  0.00     0.184 C 
ATOM     17  C   UNL     1       2.554  27.364  27.099  1.00  0.00     0.178 C 
ATOM     18  O   UNL     1       3.445  28.418  26.815  1.00  0.00    -0.341 OA
ATOM     19  C   UNL     1       4.278  27.925  25.787  1.00  0.00     0.281 C 
ATOM     20  C   UNL     1       4.793  26.584  27.758  1.00  0.00     0.180 C 
ATOM     21  C   UNL     1       5.029  26.699  26.266  1.00  0.00     0.202 C 
BRANCH  17  22
ATOM     22  C   UNL     1       1.332  27.986  27.739  1.00  0.00     0.191 C 
BRANCH  22  23
ATOM     23  O   UNL     1       1.757  28.975  28.631  1.00  0.00    -0.394 OA
ATOM     24  H   UNL     1       1.676  29.894  28.224  1.00  0.00     0.210 HD
ENDBRANCH  22  23
ENDBRANCH  17  22
BRANCH  19  25
ATOM     25  O   UNL     1       5.177  28.853  25.361  1.00  0.00    -0.350 OA
BRANCH  25  26
ATOM     26  C   UNL     1       5.753  28.668  24.134  1.00  0.00     0.169 C 
BRANCH  26  27
ATOM     27  C   UNL     1       7.244  28.783  24.105  1.00  0.00     0.119 C 
BRANCH  27  28
ATOM     28  N   UNL     1       7.881  27.569  24.459  1.00  0.00    -0.092 NA
ATOM     29  N   UNL     1       9.047  27.537  24.895  1.00  0.00     0.001 N 
ATOM     30  N   UNL     1      10.279  27.659  24.983  1.00  0.00    -0.003 NA
ENDBRANCH  27  28
ENDBRANCH  26  27
ENDBRANCH  25  26
ENDBRANCH  19  25
BRANCH  20  31
ATOM     31  O   UNL     1       5.360  27.704  28.349  1.00  0.00    -0.387 OA
ATOM     32  H   UNL     1       6.347  27.680  28.303  1.00  0.00     0.211 HD
ENDBRANCH  20  31
BRANCH  21  33
ATOM     33  O   UNL     1       4.628  25.573  25.577  1.00  0.00    -0.385 OA
ATOM     34  H   UNL     1       4.465  24.794  26.154  1.00  0.00     0.211 HD
ENDBRANCH  21  33
ENDBRANCH  15  16
ENDBRANCH  10  15
BRANCH  12  35
ATOM     35  O   UNL     1       0.184  23.875  26.123  1.00  0.00    -0.385 OA
ATOM     36  H   UNL     1      -0.423  24.350  26.747  1.00  0.00     0.211 HD
ENDBRANCH  12  35
BRANCH  13  37
ATOM     37  O   UNL     1       3.584  22.996  26.423  1.00  0.00    -0.387 OA
ATOM     38  H   UNL     1       4.080  23.424  27.165  1.00  0.00     0.211 HD
ENDBRANCH  13  37
BRANCH  14  39
ATOM     39  O   UNL     1       3.186  22.756  28.916  1.00  0.00    -0.387 OA
ATOM     40  H   UNL     1       2.987  23.668  29.210  1.00  0.00     0.211 HD
ENDBRANCH  14  39
ENDBRANCH   8   9
ENDBRANCH   7   8
ENDBRANCH   1   7
BRANCH   1  41
ATOM     41  C   UNL     1       2.903  19.659  30.804  1.00  0.00     0.364 C 
ATOM     42  O   UNL     1       3.868  20.112  30.189  1.00  0.00    -0.246 OA
BRANCH  41  43
ATOM     43  O   UNL     1       2.866  18.270  31.045  1.00  0.00    -0.477 OA
ATOM     44  H   UNL     1       2.789  17.646  30.244  1.00  0.00     0.296 HD
ENDBRANCH  41  43
ENDBRANCH   1  41
BRANCH   3  45
ATOM     45  O   UNL     1       1.077  19.817  34.829  1.00  0.00    -0.391 OA
ATOM     46  H   UNL     1       1.217  20.508  35.498  1.00  0.00     0.211 HD
ENDBRANCH   3  45
BRANCH   5  47
ATOM     47  C   UNL     1       4.050  23.059  32.668  1.00  0.00     0.176 C 
BRANCH  47  48
ATOM     48  O   UNL     1       5.246  22.923  32.015  1.00  0.00    -0.388 OA
ATOM     49  H   UNL     1       5.173  22.609  31.087  1.00  0.00     0.211 HD
ENDBRANCH  47  48
BRANCH  47  50
ATOM     50  C   UNL     1       3.266  24.210  32.190  1.00  0.00     0.165 C 
BRANCH  50  51
ATOM     51  O   UNL     1       3.765  24.517  30.885  1.00  0.00    -0.388 OA
ATOM     52  H   UNL     1       4.557  25.067  31.023  1.00  0.00     0.211 HD
ENDBRANCH  50  51
BRANCH  50  53
ATOM     53  C   UNL     1       3.573  25.487  32.991  1.00  0.00     0.154 C 
BRANCH  53  54
ATOM     54  N   UNL     1       4.347  25.209  34.174  1.00  0.00    -0.319 N 
ATOM     55  C   UNL     1       5.508  25.986  34.516  1.00  0.00     0.407 C 
ATOM     56  H   UNL     1       4.115  24.444  34.842  1.00  0.00     0.167 HD
ATOM     57  O   UNL     1       5.874  26.942  33.795  1.00  0.00    -0.225 OA
BRANCH  55  58
ATOM     58  O   UNL     1       6.246  25.700  35.649  1.00  0.00    -0.443 OA
BRANCH  58  59
ATOM     59  C   UNL     1       6.846  24.424  35.839  1.00  0.00     0.294 C 
BRANCH  59  60
ATOM     60  C   UNL     1       8.177  24.502  35.170  1.00  0.00     0.121 A 
ATOM     61  C   UNL     1       9.193  25.351  35.589  1.00  0.00     0.144 A 
ATOM     62  N   UNL     1       8.669  23.847  34.115  1.00  0.00    -0.131 NA
ATOM     63  N   UNL     1      10.270  25.186  34.778  1.00  0.00    -0.220 N 
ATOM     64  N   UNL     1       9.918  24.272  33.901  1.00  0.00    -0.062 NA
BRANCH  63  65
ATOM     65  C   UNL     1      11.511  25.867  34.863  1.00  0.00     0.066 A 
ATOM     66  C   UNL     1      11.764  27.007  34.136  1.00  0.00     0.028 A 
ATOM     67  C   UNL     1      12.500  25.393  35.696  1.00  0.00     0.028 A 
ATOM     68  C   UNL     1      12.965  27.679  34.219  1.00  0.00     0.002 A 
ATOM     69  C   UNL     1      13.707  26.072  35.776  1.00  0.00     0.002 A 
ATOM     70  C   UNL     1      13.978  27.211  35.058  1.00  0.00     0.000 A 
ENDBRANCH  63  65
ENDBRANCH  59  60
ENDBRANCH  58  59
ENDBRANCH  55  58
ENDBRANCH  53  54
ENDBRANCH  50  53
ENDBRANCH  47  50
ENDBRANCH   5  47
BRANCH   4  71
ATOM     71  N   UNL     1       3.052  21.787  35.105  1.00  0.00    -0.348 N 
ATOM     72  C   UNL     1       2.522  22.824  35.917  1.00  0.00     0.217 C 
ATOM     73  H   UNL     1       3.854  21.240  35.467  1.00  0.00     0.163 HD
ATOM     74  C   UNL     1       3.128  23.122  37.250  1.00  0.00     0.114 C 
ATOM     75  O   UNL     1       1.532  23.531  35.558  1.00  0.00    -0.275 OA
ENDBRANCH   4  71
TORSDOF 30
