REMARK VINA RESULT:    -5.598      4.077      8.916
REMARK INTER + INTRA:         -23.771
REMARK INTER:                 -13.370
REMARK INTRA:                 -10.401
REMARK UNBOUND:                -8.356
REMARK SMILES CC(=O)N[C@@H]1[C@@H](O)C[C@](OC[C@H]2O[C@@H](O[C@H]3[C@H](O)[C@@H](O)[C@H](OCCN=[N+]=[N-])O[C@@H]3CO)[C@H](O)[C@@H](O)[C@H]2O)(C(=O)O)O[C@H]1C(O)[C@H](O)CNC(=O)OCc1cn([C@@H](CCC(=O)O)C(=O)O)nn1
REMARK SMILES IDX 43 1 42 2 9 3 8 4 41 5 6 6 5 7 10 8 11 9 12 10 14 11 13 12
REMARK SMILES IDX 32 13 34 14 36 15 15 16 16 17 29 18 28 19 21 20 17 21 19 22
REMARK SMILES IDX 30 23 31 24 22 26 23 27 24 28 25 29 26 30 27 31 18 32 20 34
REMARK SMILES IDX 33 36 35 38 37 40 38 42 39 43 40 44 7 46 4 48 2 49 1 51 3 52
REMARK SMILES IDX 44 53 45 55 46 56 47 58 48 59 49 60 50 62 51 63 52 64 53 65
REMARK SMILES IDX 54 66 66 67 55 68 65 69 56 70 57 71 58 72 59 73 60 74 61 75
REMARK SMILES IDX 62 77 63 78 64 79
REMARK H PARENT 31 25 18 33 20 35 33 37 35 39 37 41 40 45 7 47 4 50 44 54
REMARK H PARENT 46 57 48 61 61 76 64 80
REMARK Flexibility Score: inf
ROOT
ATOM      1  C   UNL     1      22.137  28.093  23.623  1.00  0.00     0.176 C 
ENDROOT
BRANCH   1   2
ATOM      2  C   UNL     1      22.744  26.691  23.549  1.00  0.00     0.178 C 
ATOM      3  C   UNL     1      23.476  25.302  21.795  1.00  0.00     0.272 C 
ATOM      4  C   UNL     1      22.534  24.208  22.101  1.00  0.00     0.113 C 
ATOM      5  O   UNL     1      22.798  26.481  22.171  1.00  0.00    -0.332 OA
ATOM      6  C   UNL     1      21.457  24.633  23.062  1.00  0.00     0.145 C 
ATOM      7  C   UNL     1      21.831  25.632  24.097  1.00  0.00     0.142 C 
BRANCH   3   8
ATOM      8  O   UNL     1      23.704  25.416  20.439  1.00  0.00    -0.338 OA
BRANCH   8   9
ATOM      9  C   UNL     1      22.807  25.264  19.500  1.00  0.00     0.199 C 
BRANCH   9  10
ATOM     10  C   UNL     1      22.590  26.241  18.377  1.00  0.00     0.179 C 
ATOM     11  C   UNL     1      22.065  28.514  18.367  1.00  0.00     0.282 C 
ATOM     12  O   UNL     1      21.710  27.233  18.702  1.00  0.00    -0.341 OA
ATOM     13  C   UNL     1      23.369  28.847  19.057  1.00  0.00     0.202 C 
ATOM     14  C   UNL     1      24.441  27.963  18.507  1.00  0.00     0.179 C 
ATOM     15  C   UNL     1      23.923  26.742  17.834  1.00  0.00     0.177 C 
BRANCH  11  16
ATOM     16  O   UNL     1      21.079  29.384  18.840  1.00  0.00    -0.341 OA
BRANCH  16  17
ATOM     17  C   UNL     1      19.852  28.812  19.060  1.00  0.00     0.184 C 
ATOM     18  C   UNL     1      18.770  29.450  18.194  1.00  0.00     0.178 C 
ATOM     19  O   UNL     1      17.805  30.021  19.020  1.00  0.00    -0.341 OA
ATOM     20  C   UNL     1      18.351  31.158  19.680  1.00  0.00     0.281 C 
ATOM     21  C   UNL     1      19.482  29.084  20.504  1.00  0.00     0.180 C 
ATOM     22  C   UNL     1      19.362  30.616  20.645  1.00  0.00     0.202 C 
BRANCH  18  23
ATOM     23  C   UNL     1      18.082  28.373  17.374  1.00  0.00     0.191 C 
BRANCH  23  24
ATOM     24  O   UNL     1      17.383  27.483  18.168  1.00  0.00    -0.394 OA
ATOM     25  H   UNL     1      17.985  26.832  18.615  1.00  0.00     0.210 HD
ENDBRANCH  23  24
ENDBRANCH  18  23
BRANCH  20  26
ATOM     26  O   UNL     1      17.304  31.844  20.225  1.00  0.00    -0.350 OA
BRANCH  26  27
ATOM     27  C   UNL     1      17.598  33.085  20.717  1.00  0.00     0.169 C 
BRANCH  27  28
ATOM     28  C   UNL     1      18.177  34.038  19.692  1.00  0.00     0.119 C 
BRANCH  28  29
ATOM     29  N   UNL     1      19.378  34.694  20.170  1.00  0.00    -0.092 NA
ATOM     30  N   UNL     1      20.073  34.267  21.086  1.00  0.00     0.001 N 
ATOM     31  N   UNL     1      20.786  33.676  21.867  1.00  0.00    -0.003 NA
ENDBRANCH  28  29
ENDBRANCH  27  28
ENDBRANCH  26  27
ENDBRANCH  20  26
BRANCH  21  32
ATOM     32  O   UNL     1      18.295  28.468  20.880  1.00  0.00    -0.387 OA
ATOM     33  H   UNL     1      18.171  28.447  21.881  1.00  0.00     0.211 HD
ENDBRANCH  21  32
BRANCH  22  34
ATOM     34  O   UNL     1      20.627  31.092  20.220  1.00  0.00    -0.385 OA
ATOM     35  H   UNL     1      21.174  30.300  19.981  1.00  0.00     0.211 HD
ENDBRANCH  22  34
ENDBRANCH  16  17
ENDBRANCH  11  16
BRANCH  13  36
ATOM     36  O   UNL     1      23.694  30.192  18.869  1.00  0.00    -0.385 OA
ATOM     37  H   UNL     1      24.695  30.215  18.740  1.00  0.00     0.211 HD
ENDBRANCH  13  36
BRANCH  14  38
ATOM     38  O   UNL     1      25.393  27.619  19.472  1.00  0.00    -0.387 OA
ATOM     39  H   UNL     1      24.982  27.718  20.381  1.00  0.00     0.211 HD
ENDBRANCH  14  38
BRANCH  15  40
ATOM     40  O   UNL     1      24.878  25.741  18.025  1.00  0.00    -0.387 OA
ATOM     41  H   UNL     1      25.381  25.572  17.197  1.00  0.00     0.211 HD
ENDBRANCH  15  40
ENDBRANCH   9  10
ENDBRANCH   8   9
ENDBRANCH   3   8
BRANCH   3  42
ATOM     42  C   UNL     1      24.776  25.301  22.454  1.00  0.00     0.364 C 
ATOM     43  O   UNL     1      25.015  24.371  23.307  1.00  0.00    -0.246 OA
BRANCH  42  44
ATOM     44  O   UNL     1      25.825  26.186  22.294  1.00  0.00    -0.477 OA
ATOM     45  H   UNL     1      26.553  26.034  21.636  1.00  0.00     0.296 HD
ENDBRANCH  42  44
ENDBRANCH   3  42
BRANCH   6  46
ATOM     46  O   UNL     1      20.438  25.246  22.280  1.00  0.00    -0.391 OA
ATOM     47  H   UNL     1      19.998  24.583  21.690  1.00  0.00     0.211 HD
ENDBRANCH   6  46
BRANCH   7  48
ATOM     48  N   UNL     1      22.257  24.918  25.250  1.00  0.00    -0.348 N 
ATOM     49  C   UNL     1      22.211  25.434  26.568  1.00  0.00     0.217 C 
ATOM     50  H   UNL     1      22.614  23.945  25.182  1.00  0.00     0.163 HD
ATOM     51  C   UNL     1      22.684  24.622  27.745  1.00  0.00     0.114 C 
ATOM     52  O   UNL     1      21.780  26.565  26.781  1.00  0.00    -0.275 OA
ENDBRANCH   7  48
ENDBRANCH   1   2
BRANCH   1  53
ATOM     53  O   UNL     1      20.752  27.997  23.575  1.00  0.00    -0.388 OA
ATOM     54  H   UNL     1      20.437  28.096  22.637  1.00  0.00     0.211 HD
ENDBRANCH   1  53
BRANCH   1  55
ATOM     55  C   UNL     1      22.634  29.084  22.678  1.00  0.00     0.165 C 
BRANCH  55  56
ATOM     56  O   UNL     1      24.031  28.858  22.492  1.00  0.00    -0.388 OA
ATOM     57  H   UNL     1      24.427  28.700  23.381  1.00  0.00     0.211 HD
ENDBRANCH  55  56
BRANCH  55  58
ATOM     58  C   UNL     1      22.527  30.533  23.046  1.00  0.00     0.154 C 
BRANCH  58  59
ATOM     59  N   UNL     1      21.232  30.897  23.570  1.00  0.00    -0.319 N 
ATOM     60  C   UNL     1      21.021  31.378  24.896  1.00  0.00     0.407 C 
ATOM     61  H   UNL     1      20.401  30.798  22.966  1.00  0.00     0.167 HD
ATOM     62  O   UNL     1      21.963  31.509  25.676  1.00  0.00    -0.225 OA
BRANCH  60  63
ATOM     63  O   UNL     1      19.739  31.687  25.275  1.00  0.00    -0.443 OA
BRANCH  63  64
ATOM     64  C   UNL     1      18.791  32.258  24.421  1.00  0.00     0.294 C 
BRANCH  64  65
ATOM     65  C   UNL     1      17.805  31.227  24.010  1.00  0.00     0.120 A 
ATOM     66  C   UNL     1      16.459  31.363  23.747  1.00  0.00     0.139 A 
ATOM     67  N   UNL     1      18.074  29.905  23.837  1.00  0.00    -0.132 NA
ATOM     68  N   UNL     1      15.948  30.140  23.424  1.00  0.00    -0.238 N 
ATOM     69  N   UNL     1      16.967  29.282  23.491  1.00  0.00    -0.066 NA
BRANCH  68  70
ATOM     70  C   UNL     1      14.608  29.852  23.064  1.00  0.00     0.219 C 
BRANCH  70  71
ATOM     71  C   UNL     1      13.613  30.952  23.006  1.00  0.00     0.051 C 
BRANCH  71  72
ATOM     72  C   UNL     1      12.568  31.054  24.038  1.00  0.00     0.125 C 
BRANCH  72  73
ATOM     73  C   UNL     1      11.797  29.883  24.399  1.00  0.00     0.303 C 
ATOM     74  O   UNL     1      10.580  29.676  24.250  1.00  0.00    -0.252 OA
BRANCH  73  75
ATOM     75  O   UNL     1      12.474  28.783  25.016  1.00  0.00    -0.481 OA
ATOM     76  H   UNL     1      13.360  28.948  25.467  1.00  0.00     0.296 HD
ENDBRANCH  73  75
ENDBRANCH  72  73
ENDBRANCH  71  72
ENDBRANCH  70  71
BRANCH  70  77
ATOM     77  C   UNL     1      14.612  29.157  21.738  1.00  0.00     0.328 C 
ATOM     78  O   UNL     1      13.682  28.390  21.425  1.00  0.00    -0.250 OA
BRANCH  77  79
ATOM     79  O   UNL     1      15.633  29.336  20.822  1.00  0.00    -0.480 OA
ATOM     80  H   UNL     1      16.357  28.630  20.680  1.00  0.00     0.296 HD
ENDBRANCH  77  79
ENDBRANCH  70  77
ENDBRANCH  68  70
ENDBRANCH  64  65
ENDBRANCH  63  64
ENDBRANCH  60  63
ENDBRANCH  58  59
ENDBRANCH  55  58
ENDBRANCH   1  55
TORSDOF 36
