REMARK VINA RESULT:    -4.629      4.528     13.491
REMARK INTER + INTRA:         -21.697
REMARK INTER:                 -15.696
REMARK INTRA:                  -6.001
REMARK UNBOUND:                -8.679
REMARK SMILES CCOC(CCn1cc(COC(=O)NC[C@@H](O)C(O)[C@@H]2O[C@@](OC[C@H]3O[C@@H](O[C@H]4[C@H](O)[C@@H](O)[C@H](OCCN=[N+]=[N-])O[C@@H]4CO)[C@H](O)[C@@H](O)[C@H]3O)(C(=O)O)C[C@H](O)[C@H]2NC(C)=O)nn1)OCC
REMARK SMILES IDX 18 1 20 2 22 3 54 4 21 5 55 6 57 7 23 8 24 9 25 10 27 11
REMARK SMILES IDX 26 12 45 13 47 14 49 15 28 16 29 17 42 18 41 19 34 20 30 21
REMARK SMILES IDX 32 22 43 23 44 24 35 26 36 27 37 28 38 29 39 30 40 31 31 32
REMARK SMILES IDX 33 34 46 36 48 38 50 40 51 42 52 43 53 44 56 46 58 48 59 49
REMARK SMILES IDX 60 51 61 52 19 53 16 55 17 56 15 58 14 59 12 60 13 62 11 63
REMARK SMILES IDX 10 64 9 65 8 66 62 67 7 68 63 69 6 70 5 71 4 72 3 73 2 74
REMARK SMILES IDX 1 75 64 76 65 77 66 78
REMARK H PARENT 44 25 31 33 33 35 46 37 48 39 50 41 53 45 56 47 58 50 19 54
REMARK H PARENT 17 57 14 61
REMARK Flexibility Score: inf
ROOT
ATOM      1  C   UNL     1      21.282  26.945  24.627  1.00  0.00     0.176 C 
ENDROOT
BRANCH   1   2
ATOM      2  C   UNL     1      21.849  26.164  25.775  1.00  0.00     0.178 C 
ATOM      3  C   UNL     1      22.772  26.339  27.889  1.00  0.00     0.272 C 
ATOM      4  C   UNL     1      22.679  24.860  27.758  1.00  0.00     0.113 C 
ATOM      5  O   UNL     1      22.309  27.036  26.750  1.00  0.00    -0.332 OA
ATOM      6  C   UNL     1      23.152  24.285  26.468  1.00  0.00     0.145 C 
ATOM      7  C   UNL     1      23.081  25.350  25.367  1.00  0.00     0.142 C 
BRANCH   3   8
ATOM      8  O   UNL     1      23.938  26.880  28.254  1.00  0.00    -0.338 OA
BRANCH   8   9
ATOM      9  C   UNL     1      24.128  28.211  28.296  1.00  0.00     0.199 C 
BRANCH   9  10
ATOM     10  C   UNL     1      25.471  28.592  27.716  1.00  0.00     0.179 C 
ATOM     11  C   UNL     1      27.651  28.086  27.529  1.00  0.00     0.282 C 
ATOM     12  O   UNL     1      26.345  27.529  27.587  1.00  0.00    -0.341 OA
ATOM     13  C   UNL     1      27.804  28.762  26.217  1.00  0.00     0.202 C 
ATOM     14  C   UNL     1      26.725  29.806  26.053  1.00  0.00     0.179 C 
ATOM     15  C   UNL     1      25.339  29.314  26.378  1.00  0.00     0.177 C 
BRANCH  11  16
ATOM     16  O   UNL     1      28.582  27.075  27.791  1.00  0.00    -0.341 OA
BRANCH  16  17
ATOM     17  C   UNL     1      28.834  27.040  29.126  1.00  0.00     0.184 C 
ATOM     18  C   UNL     1      30.229  27.192  29.595  1.00  0.00     0.178 C 
ATOM     19  O   UNL     1      30.194  27.516  30.958  1.00  0.00    -0.341 OA
ATOM     20  C   UNL     1      29.722  26.426  31.706  1.00  0.00     0.281 C 
ATOM     21  C   UNL     1      28.374  25.675  29.732  1.00  0.00     0.180 C 
ATOM     22  C   UNL     1      28.361  25.955  31.242  1.00  0.00     0.202 C 
BRANCH  18  23
ATOM     23  C   UNL     1      30.936  28.297  28.871  1.00  0.00     0.191 C 
BRANCH  23  24
ATOM     24  O   UNL     1      31.237  27.960  27.551  1.00  0.00    -0.394 OA
ATOM     25  H   UNL     1      30.627  27.299  27.179  1.00  0.00     0.210 HD
ENDBRANCH  23  24
ENDBRANCH  18  23
BRANCH  20  26
ATOM     26  O   UNL     1      29.597  26.868  33.011  1.00  0.00    -0.350 OA
BRANCH  26  27
ATOM     27  C   UNL     1      28.799  27.952  33.216  1.00  0.00     0.169 C 
BRANCH  27  28
ATOM     28  C   UNL     1      28.066  27.825  34.525  1.00  0.00     0.119 C 
BRANCH  28  29
ATOM     29  N   UNL     1      27.256  26.610  34.505  1.00  0.00    -0.092 NA
ATOM     30  N   UNL     1      27.804  25.611  35.017  1.00  0.00     0.001 N 
ATOM     31  N   UNL     1      28.270  24.473  35.106  1.00  0.00    -0.003 NA
ENDBRANCH  28  29
ENDBRANCH  27  28
ENDBRANCH  26  27
ENDBRANCH  20  26
BRANCH  21  32
ATOM     32  O   UNL     1      27.123  25.333  29.292  1.00  0.00    -0.387 OA
ATOM     33  H   UNL     1      26.455  26.049  29.426  1.00  0.00     0.211 HD
ENDBRANCH  21  32
BRANCH  22  34
ATOM     34  O   UNL     1      28.004  24.839  31.950  1.00  0.00    -0.385 OA
ATOM     35  H   UNL     1      28.857  24.363  32.196  1.00  0.00     0.211 HD
ENDBRANCH  22  34
ENDBRANCH  16  17
ENDBRANCH  11  16
BRANCH  13  36
ATOM     36  O   UNL     1      29.021  29.457  26.137  1.00  0.00    -0.385 OA
ATOM     37  H   UNL     1      29.448  29.343  25.259  1.00  0.00     0.211 HD
ENDBRANCH  13  36
BRANCH  14  38
ATOM     38  O   UNL     1      26.789  30.429  24.812  1.00  0.00    -0.387 OA
ATOM     39  H   UNL     1      25.880  30.612  24.453  1.00  0.00     0.211 HD
ENDBRANCH  14  38
BRANCH  15  40
ATOM     40  O   UNL     1      24.849  28.433  25.427  1.00  0.00    -0.387 OA
ATOM     41  H   UNL     1      25.543  28.197  24.772  1.00  0.00     0.211 HD
ENDBRANCH  15  40
ENDBRANCH   9  10
ENDBRANCH   8   9
ENDBRANCH   3   8
BRANCH   3  42
ATOM     42  C   UNL     1      21.781  26.729  28.944  1.00  0.00     0.364 C 
ATOM     43  O   UNL     1      21.773  26.191  30.066  1.00  0.00    -0.246 OA
BRANCH  42  44
ATOM     44  O   UNL     1      20.825  27.712  28.709  1.00  0.00    -0.477 OA
ATOM     45  H   UNL     1      21.107  28.545  28.204  1.00  0.00     0.296 HD
ENDBRANCH  42  44
ENDBRANCH   3  42
BRANCH   6  46
ATOM     46  O   UNL     1      24.397  23.706  26.512  1.00  0.00    -0.391 OA
ATOM     47  H   UNL     1      25.080  24.246  26.982  1.00  0.00     0.211 HD
ENDBRANCH   6  46
BRANCH   7  48
ATOM     48  N   UNL     1      22.979  24.780  24.063  1.00  0.00    -0.348 N 
ATOM     49  C   UNL     1      24.175  24.599  23.312  1.00  0.00     0.217 C 
ATOM     50  H   UNL     1      22.080  24.488  23.635  1.00  0.00     0.163 HD
ATOM     51  C   UNL     1      24.102  24.009  21.951  1.00  0.00     0.114 C 
ATOM     52  O   UNL     1      25.313  24.935  23.786  1.00  0.00    -0.275 OA
ENDBRANCH   7  48
ENDBRANCH   1   2
BRANCH   1  53
ATOM     53  O   UNL     1      20.064  27.487  25.076  1.00  0.00    -0.388 OA
ATOM     54  H   UNL     1      19.482  27.728  24.298  1.00  0.00     0.211 HD
ENDBRANCH   1  53
BRANCH   1  55
ATOM     55  C   UNL     1      22.207  28.115  24.358  1.00  0.00     0.165 C 
BRANCH  55  56
ATOM     56  O   UNL     1      21.850  29.208  25.093  1.00  0.00    -0.388 OA
ATOM     57  H   UNL     1      21.227  29.828  24.637  1.00  0.00     0.211 HD
ENDBRANCH  55  56
BRANCH  55  58
ATOM     58  C   UNL     1      22.223  28.443  22.891  1.00  0.00     0.154 C 
BRANCH  58  59
ATOM     59  N   UNL     1      20.968  28.310  22.210  1.00  0.00    -0.319 N 
ATOM     60  C   UNL     1      20.813  28.112  20.829  1.00  0.00     0.407 C 
ATOM     61  H   UNL     1      20.103  28.372  22.830  1.00  0.00     0.167 HD
ATOM     62  O   UNL     1      21.770  28.022  20.043  1.00  0.00    -0.225 OA
BRANCH  60  63
ATOM     63  O   UNL     1      19.522  28.004  20.263  1.00  0.00    -0.443 OA
BRANCH  63  64
ATOM     64  C   UNL     1      18.820  29.203  19.906  1.00  0.00     0.294 C 
BRANCH  64  65
ATOM     65  C   UNL     1      17.372  28.995  20.164  1.00  0.00     0.120 A 
ATOM     66  C   UNL     1      16.432  29.947  20.477  1.00  0.00     0.138 A 
ATOM     67  N   UNL     1      16.732  27.823  20.144  1.00  0.00    -0.132 NA
ATOM     68  N   UNL     1      15.257  29.303  20.633  1.00  0.00    -0.252 N 
ATOM     69  N   UNL     1      15.474  28.018  20.423  1.00  0.00    -0.067 NA
BRANCH  68  70
ATOM     70  C   UNL     1      14.022  29.951  20.965  1.00  0.00     0.151 C 
BRANCH  70  71
ATOM     71  C   UNL     1      13.122  29.163  21.874  1.00  0.00     0.086 C 
BRANCH  71  72
ATOM     72  C   UNL     1      13.031  29.874  23.223  1.00  0.00     0.251 C 
BRANCH  72  73
ATOM     73  O   UNL     1      12.891  31.221  22.950  1.00  0.00    -0.353 OA
BRANCH  73  74
ATOM     74  C   UNL     1      11.585  31.663  23.119  1.00  0.00     0.160 C 
ATOM     75  C   UNL     1      11.367  32.236  24.506  1.00  0.00     0.035 C 
ENDBRANCH  73  74
ENDBRANCH  72  73
BRANCH  72  76
ATOM     76  O   UNL     1      14.055  29.535  24.056  1.00  0.00    -0.353 OA
BRANCH  76  77
ATOM     77  C   UNL     1      14.772  30.555  24.619  1.00  0.00     0.160 C 
ATOM     78  C   UNL     1      16.208  30.466  24.159  1.00  0.00     0.035 C 
ENDBRANCH  76  77
ENDBRANCH  72  76
ENDBRANCH  71  72
ENDBRANCH  70  71
ENDBRANCH  68  70
ENDBRANCH  64  65
ENDBRANCH  63  64
ENDBRANCH  60  63
ENDBRANCH  58  59
ENDBRANCH  55  58
ENDBRANCH   1  55
TORSDOF 36
