REMARK VINA RESULT:    -6.672      0.000      0.000
REMARK INTER + INTRA:         -26.380
REMARK INTER:                 -17.368
REMARK INTRA:                  -9.012
REMARK UNBOUND:                -8.981
REMARK SMILES CC(=O)N[C@@H]1[C@@H](O)C[C@](OC[C@H]2O[C@@H](O[C@H]3[C@H](O)[C@@H](O)[C@H](OCCN=[N+]=[N-])O[C@@H]3CO)[C@H](O)[C@@H](O)[C@H]2O)(C(=O)O)O[C@H]1C(O)[C@H](O)CNC(=O)OCc1cn(-c2cc(C(=O)O)nc(-c3ccccc3)c2)nn1
REMARK SMILES IDX 9 1 8 2 6 3 5 4 42 5 41 6 10 7 11 8 12 9 14 10 13 11 32 12
REMARK SMILES IDX 34 13 36 14 15 15 16 16 29 17 28 18 21 19 17 20 19 21 30 22
REMARK SMILES IDX 31 23 22 25 23 26 24 27 25 28 26 29 27 30 18 31 20 33 33 35
REMARK SMILES IDX 35 37 37 39 38 41 39 42 40 43 7 45 43 47 44 48 45 50 46 51
REMARK SMILES IDX 47 53 48 54 49 55 50 57 51 58 52 59 53 60 54 61 72 62 55 63
REMARK SMILES IDX 71 64 56 65 57 66 70 67 58 68 63 69 62 70 59 71 60 72 61 73
REMARK SMILES IDX 64 75 65 76 69 77 66 78 68 79 67 80 4 81 2 82 1 84 3 85
REMARK H PARENT 31 24 18 32 20 34 33 36 35 38 37 40 40 44 7 46 44 49 46 52
REMARK H PARENT 48 56 61 74 4 83
REMARK Flexibility Score: inf
ROOT
ATOM      1  C   UNL     1      27.526  22.056  16.299  1.00  0.00     0.272 C 
ATOM      2  C   UNL     1      28.396  22.854  15.307  1.00  0.00     0.113 C 
ATOM      3  C   UNL     1      28.605  22.177  14.003  1.00  0.00     0.145 C 
ATOM      4  C   UNL     1      28.849  20.678  14.133  1.00  0.00     0.142 C 
ATOM      5  C   UNL     1      28.965  20.445  15.643  1.00  0.00     0.178 C 
ATOM      6  O   UNL     1      27.706  20.682  16.149  1.00  0.00    -0.332 OA
ENDROOT
BRANCH   1   7
ATOM      7  O   UNL     1      26.244  22.380  15.992  1.00  0.00    -0.338 OA
BRANCH   7   8
ATOM      8  C   UNL     1      25.857  23.681  16.004  1.00  0.00     0.199 C 
BRANCH   8   9
ATOM      9  C   UNL     1      24.964  23.993  14.778  1.00  0.00     0.179 C 
ATOM     10  C   UNL     1      24.096  22.897  12.903  1.00  0.00     0.282 C 
ATOM     11  O   UNL     1      24.894  22.870  14.018  1.00  0.00    -0.341 OA
ATOM     12  C   UNL     1      23.215  24.130  12.962  1.00  0.00     0.202 C 
ATOM     13  C   UNL     1      22.556  24.326  14.306  1.00  0.00     0.179 C 
ATOM     14  C   UNL     1      23.594  24.283  15.370  1.00  0.00     0.177 C 
BRANCH  10  15
ATOM     15  O   UNL     1      23.344  21.737  12.893  1.00  0.00    -0.341 OA
BRANCH  15  16
ATOM     16  C   UNL     1      24.060  20.577  12.649  1.00  0.00     0.184 C 
ATOM     17  C   UNL     1      24.344  20.343  11.212  1.00  0.00     0.178 C 
ATOM     18  O   UNL     1      23.767  19.171  10.752  1.00  0.00    -0.341 OA
ATOM     19  C   UNL     1      22.408  19.098  11.049  1.00  0.00     0.281 C 
ATOM     20  C   UNL     1      23.338  19.452  13.332  1.00  0.00     0.180 C 
ATOM     21  C   UNL     1      22.309  18.750  12.518  1.00  0.00     0.202 C 
BRANCH  17  22
ATOM     22  C   UNL     1      25.839  20.205  11.009  1.00  0.00     0.191 C 
BRANCH  22  23
ATOM     23  O   UNL     1      26.318  18.987  11.454  1.00  0.00    -0.394 OA
ATOM     24  H   UNL     1      25.623  18.290  11.319  1.00  0.00     0.210 HD
ENDBRANCH  22  23
ENDBRANCH  17  22
BRANCH  19  25
ATOM     25  O   UNL     1      21.887  18.054  10.299  1.00  0.00    -0.350 OA
BRANCH  25  26
ATOM     26  C   UNL     1      21.109  18.514   9.235  1.00  0.00     0.169 C 
BRANCH  26  27
ATOM     27  C   UNL     1      19.888  17.647   9.059  1.00  0.00     0.119 C 
BRANCH  27  28
ATOM     28  N   UNL     1      18.734  18.335   9.592  1.00  0.00    -0.092 NA
ATOM     29  N   UNL     1      18.568  18.348  10.804  1.00  0.00     0.001 N 
ATOM     30  N   UNL     1      18.284  18.746  11.946  1.00  0.00    -0.003 NA
ENDBRANCH  27  28
ENDBRANCH  26  27
ENDBRANCH  25  26
ENDBRANCH  19  25
BRANCH  20  31
ATOM     31  O   UNL     1      24.314  18.487  13.675  1.00  0.00    -0.387 OA
ATOM     32  H   UNL     1      24.099  17.615  13.260  1.00  0.00     0.211 HD
ENDBRANCH  20  31
BRANCH  21  33
ATOM     33  O   UNL     1      21.038  19.072  13.038  1.00  0.00    -0.385 OA
ATOM     34  H   UNL     1      21.109  19.506  13.932  1.00  0.00     0.211 HD
ENDBRANCH  21  33
ENDBRANCH  15  16
ENDBRANCH  10  15
BRANCH  12  35
ATOM     35  O   UNL     1      23.885  25.302  12.633  1.00  0.00    -0.385 OA
ATOM     36  H   UNL     1      24.806  25.187  13.002  1.00  0.00     0.211 HD
ENDBRANCH  12  35
BRANCH  13  37
ATOM     37  O   UNL     1      21.600  23.319  14.435  1.00  0.00    -0.387 OA
ATOM     38  H   UNL     1      20.854  23.697  14.968  1.00  0.00     0.211 HD
ENDBRANCH  13  37
BRANCH  14  39
ATOM     39  O   UNL     1      23.256  23.214  16.225  1.00  0.00    -0.387 OA
ATOM     40  H   UNL     1      22.343  22.908  16.101  1.00  0.00     0.211 HD
ENDBRANCH  14  39
ENDBRANCH   8   9
ENDBRANCH   7   8
ENDBRANCH   1   7
BRANCH   1  41
ATOM     41  C   UNL     1      27.960  22.398  17.677  1.00  0.00     0.364 C 
ATOM     42  O   UNL     1      27.528  21.786  18.692  1.00  0.00    -0.246 OA
BRANCH  41  43
ATOM     43  O   UNL     1      28.865  23.413  17.892  1.00  0.00    -0.477 OA
ATOM     44  H   UNL     1      28.731  24.376  17.560  1.00  0.00     0.296 HD
ENDBRANCH  41  43
ENDBRANCH   1  41
BRANCH   3  45
ATOM     45  O   UNL     1      27.647  22.479  13.060  1.00  0.00    -0.391 OA
ATOM     46  H   UNL     1      27.895  23.310  12.605  1.00  0.00     0.211 HD
ENDBRANCH   3  45
BRANCH   5  47
ATOM     47  C   UNL     1      29.592  19.153  16.005  1.00  0.00     0.176 C 
BRANCH  47  48
ATOM     48  O   UNL     1      28.811  18.105  15.466  1.00  0.00    -0.388 OA
ATOM     49  H   UNL     1      28.376  17.588  16.215  1.00  0.00     0.211 HD
ENDBRANCH  47  48
BRANCH  47  50
ATOM     50  C   UNL     1      29.824  18.918  17.472  1.00  0.00     0.165 C 
BRANCH  50  51
ATOM     51  O   UNL     1      28.622  18.970  18.148  1.00  0.00    -0.388 OA
ATOM     52  H   UNL     1      28.158  19.842  18.035  1.00  0.00     0.211 HD
ENDBRANCH  50  51
BRANCH  50  53
ATOM     53  C   UNL     1      30.784  19.986  17.937  1.00  0.00     0.154 C 
BRANCH  53  54
ATOM     54  N   UNL     1      30.395  20.725  19.083  1.00  0.00    -0.319 N 
ATOM     55  C   UNL     1      31.086  20.612  20.317  1.00  0.00     0.407 C 
ATOM     56  H   UNL     1      29.578  21.382  19.049  1.00  0.00     0.167 HD
ATOM     57  O   UNL     1      32.050  19.829  20.408  1.00  0.00    -0.225 OA
BRANCH  55  58
ATOM     58  O   UNL     1      30.697  21.374  21.436  1.00  0.00    -0.443 OA
BRANCH  58  59
ATOM     59  C   UNL     1      30.978  22.751  21.442  1.00  0.00     0.294 C 
BRANCH  59  60
ATOM     60  C   UNL     1      29.763  23.550  21.158  1.00  0.00     0.121 A 
ATOM     61  C   UNL     1      28.477  23.404  21.624  1.00  0.00     0.144 A 
ATOM     62  N   UNL     1      29.679  24.619  20.313  1.00  0.00    -0.131 NA
ATOM     63  N   UNL     1      27.663  24.337  21.084  1.00  0.00    -0.220 N 
ATOM     64  N   UNL     1      28.441  25.066  20.284  1.00  0.00    -0.062 NA
BRANCH  63  65
ATOM     65  C   UNL     1      26.271  24.480  21.305  1.00  0.00     0.071 A 
ATOM     66  C   UNL     1      25.457  24.602  20.190  1.00  0.00     0.064 A 
ATOM     67  C   UNL     1      25.656  24.492  22.540  1.00  0.00     0.057 A 
ATOM     68  C   UNL     1      24.091  24.728  20.361  1.00  0.00     0.151 A 
ATOM     69  C   UNL     1      24.312  24.615  22.701  1.00  0.00     0.073 A 
ATOM     70  N   UNL     1      23.549  24.733  21.596  1.00  0.00    -0.241 NA
BRANCH  68  71
ATOM     71  C   UNL     1      23.209  24.855  19.209  1.00  0.00     0.354 C 
ATOM     72  O   UNL     1      23.226  25.936  18.569  1.00  0.00    -0.245 OA
BRANCH  71  73
ATOM     73  O   UNL     1      22.360  23.863  18.780  1.00  0.00    -0.477 OA
ATOM     74  H   UNL     1      22.693  22.947  18.454  1.00  0.00     0.297 HD
ENDBRANCH  71  73
ENDBRANCH  68  71
BRANCH  69  75
ATOM     75  C   UNL     1      23.683  24.618  24.016  1.00  0.00     0.000 A 
ATOM     76  C   UNL     1      24.511  24.556  25.135  1.00  0.00     0.010 A 
ATOM     77  C   UNL     1      22.334  24.678  24.215  1.00  0.00     0.010 A 
ATOM     78  C   UNL     1      24.008  24.557  26.409  1.00  0.00     0.001 A 
ATOM     79  C   UNL     1      21.837  24.677  25.507  1.00  0.00     0.001 A 
ATOM     80  C   UNL     1      22.640  24.617  26.608  1.00  0.00     0.000 A 
ENDBRANCH  69  75
ENDBRANCH  63  65
ENDBRANCH  59  60
ENDBRANCH  58  59
ENDBRANCH  55  58
ENDBRANCH  53  54
ENDBRANCH  50  53
ENDBRANCH  47  50
ENDBRANCH   5  47
BRANCH   4  81
ATOM     81  N   UNL     1      29.999  20.253  13.404  1.00  0.00    -0.348 N 
ATOM     82  C   UNL     1      29.920  19.129  12.542  1.00  0.00     0.217 C 
ATOM     83  H   UNL     1      30.895  20.782  13.518  1.00  0.00     0.163 HD
ATOM     84  C   UNL     1      31.084  18.641  11.757  1.00  0.00     0.114 C 
ATOM     85  O   UNL     1      28.823  18.489  12.408  1.00  0.00    -0.275 OA
ENDBRANCH   4  81
TORSDOF 33
