REMARK VINA RESULT:    -5.154      5.810     11.418
REMARK INTER + INTRA:         -19.842
REMARK INTER:                 -12.446
REMARK INTRA:                  -7.396
REMARK UNBOUND:                -6.855
REMARK SMILES CC(=O)N[C@@H]1[C@@H](O)C[C@](OC[C@H]2O[C@@H](O[C@H]3[C@H](O)[C@@H](O)[C@H](OCCN=[N+]=[N-])O[C@@H]3CO)[C@H](O)[C@@H](O)[C@H]2O)(C(=O)O)O[C@H]1C(O)[C@H](O)CNC(=O)OCc1cn(Cc2ccsc2)nn1
REMARK SMILES IDX 9 1 8 2 6 3 5 4 42 5 41 6 10 7 11 8 12 9 14 10 13 11 32 12
REMARK SMILES IDX 34 13 36 14 15 15 16 16 29 17 28 18 21 19 17 20 19 21 30 22
REMARK SMILES IDX 31 23 22 25 23 26 24 27 25 28 26 29 27 30 18 31 20 33 33 35
REMARK SMILES IDX 35 37 37 39 38 41 39 42 40 43 7 45 43 47 44 48 45 50 46 51
REMARK SMILES IDX 47 53 48 54 49 55 50 57 51 58 52 59 53 60 54 61 63 62 55 63
REMARK SMILES IDX 62 64 56 65 57 66 58 67 61 68 59 69 60 70 4 71 2 72 1 74
REMARK SMILES IDX 3 75
REMARK H PARENT 31 24 18 32 20 34 33 36 35 38 37 40 40 44 7 46 44 49 46 52
REMARK H PARENT 48 56 4 73
REMARK Flexibility Score: inf
ROOT
ATOM      1  C   UNL     1      19.489  29.022  18.412  1.00  0.00     0.272 C 
ATOM      2  C   UNL     1      20.635  28.517  17.588  1.00  0.00     0.113 C 
ATOM      3  C   UNL     1      21.993  28.987  18.036  1.00  0.00     0.145 C 
ATOM      4  C   UNL     1      22.167  28.951  19.505  1.00  0.00     0.142 C 
ATOM      5  C   UNL     1      20.885  29.108  20.299  1.00  0.00     0.178 C 
ATOM      6  O   UNL     1      19.777  28.562  19.757  1.00  0.00    -0.332 OA
ENDROOT
BRANCH   1   7
ATOM      7  O   UNL     1      18.372  28.321  18.122  1.00  0.00    -0.338 OA
BRANCH   7   8
ATOM      8  C   UNL     1      17.680  28.400  17.001  1.00  0.00     0.199 C 
BRANCH   8   9
ATOM      9  C   UNL     1      16.323  28.959  16.880  1.00  0.00     0.179 C 
ATOM     10  C   UNL     1      14.500  29.205  18.217  1.00  0.00     0.282 C 
ATOM     11  O   UNL     1      15.912  29.274  18.230  1.00  0.00    -0.341 OA
ATOM     12  C   UNL     1      13.893  29.979  17.098  1.00  0.00     0.202 C 
ATOM     13  C   UNL     1      14.819  30.803  16.279  1.00  0.00     0.179 C 
ATOM     14  C   UNL     1      16.241  30.322  16.215  1.00  0.00     0.177 C 
BRANCH  10  15
ATOM     15  O   UNL     1      14.052  29.583  19.458  1.00  0.00    -0.341 OA
BRANCH  15  16
ATOM     16  C   UNL     1      15.022  30.236  20.237  1.00  0.00     0.184 C 
ATOM     17  C   UNL     1      15.085  29.694  21.621  1.00  0.00     0.178 C 
ATOM     18  O   UNL     1      14.382  30.349  22.585  1.00  0.00    -0.341 OA
ATOM     19  C   UNL     1      13.598  31.420  22.123  1.00  0.00     0.281 C 
ATOM     20  C   UNL     1      14.922  31.724  20.125  1.00  0.00     0.180 C 
ATOM     21  C   UNL     1      14.561  32.372  21.469  1.00  0.00     0.202 C 
BRANCH  17  22
ATOM     22  C   UNL     1      16.512  29.509  22.111  1.00  0.00     0.191 C 
BRANCH  22  23
ATOM     23  O   UNL     1      17.260  29.074  21.018  1.00  0.00    -0.394 OA
ATOM     24  H   UNL     1      16.698  28.555  20.370  1.00  0.00     0.210 HD
ENDBRANCH  22  23
ENDBRANCH  17  22
BRANCH  19  25
ATOM     25  O   UNL     1      12.915  31.918  23.200  1.00  0.00    -0.350 OA
BRANCH  25  26
ATOM     26  C   UNL     1      11.543  31.791  23.108  1.00  0.00     0.169 C 
BRANCH  26  27
ATOM     27  C   UNL     1      10.895  30.959  24.165  1.00  0.00     0.119 C 
BRANCH  27  28
ATOM     28  N   UNL     1      11.368  29.601  24.121  1.00  0.00    -0.092 NA
ATOM     29  N   UNL     1      10.656  28.717  24.622  1.00  0.00     0.001 N 
ATOM     30  N   UNL     1      10.134  27.648  24.938  1.00  0.00    -0.003 NA
ENDBRANCH  27  28
ENDBRANCH  26  27
ENDBRANCH  25  26
ENDBRANCH  19  25
BRANCH  20  31
ATOM     31  O   UNL     1      16.029  32.329  19.569  1.00  0.00    -0.387 OA
ATOM     32  H   UNL     1      16.604  32.725  20.257  1.00  0.00     0.211 HD
ENDBRANCH  20  31
BRANCH  21  33
ATOM     33  O   UNL     1      14.044  33.634  21.322  1.00  0.00    -0.385 OA
ATOM     34  H   UNL     1      13.938  33.896  20.367  1.00  0.00     0.211 HD
ENDBRANCH  21  33
ENDBRANCH  15  16
ENDBRANCH  10  15
BRANCH  12  35
ATOM     35  O   UNL     1      13.070  29.155  16.286  1.00  0.00    -0.385 OA
ATOM     36  H   UNL     1      13.004  28.250  16.688  1.00  0.00     0.211 HD
ENDBRANCH  12  35
BRANCH  13  37
ATOM     37  O   UNL     1      14.854  32.108  16.811  1.00  0.00    -0.387 OA
ATOM     38  H   UNL     1      14.099  32.204  17.437  1.00  0.00     0.211 HD
ENDBRANCH  13  37
BRANCH  14  39
ATOM     39  O   UNL     1      17.078  31.154  16.998  1.00  0.00    -0.387 OA
ATOM     40  H   UNL     1      16.638  31.168  17.904  1.00  0.00     0.211 HD
ENDBRANCH  14  39
ENDBRANCH   8   9
ENDBRANCH   7   8
ENDBRANCH   1   7
BRANCH   1  41
ATOM     41  C   UNL     1      19.413  30.477  18.546  1.00  0.00     0.364 C 
ATOM     42  O   UNL     1      18.774  31.047  19.450  1.00  0.00    -0.246 OA
BRANCH  41  43
ATOM     43  O   UNL     1      20.064  31.344  17.648  1.00  0.00    -0.477 OA
ATOM     44  H   UNL     1      19.656  32.234  17.397  1.00  0.00     0.296 HD
ENDBRANCH  41  43
ENDBRANCH   1  41
BRANCH   3  45
ATOM     45  O   UNL     1      22.894  28.046  17.465  1.00  0.00    -0.391 OA
ATOM     46  H   UNL     1      22.537  27.725  16.590  1.00  0.00     0.211 HD
ENDBRANCH   3  45
BRANCH   5  47
ATOM     47  C   UNL     1      21.076  28.372  21.649  1.00  0.00     0.176 C 
BRANCH  47  48
ATOM     48  O   UNL     1      20.552  27.086  21.539  1.00  0.00    -0.388 OA
ATOM     49  H   UNL     1      20.493  26.670  22.429  1.00  0.00     0.211 HD
ENDBRANCH  47  48
BRANCH  47  50
ATOM     50  C   UNL     1      20.300  29.107  22.682  1.00  0.00     0.165 C 
BRANCH  50  51
ATOM     51  O   UNL     1      19.960  30.365  22.186  1.00  0.00    -0.388 OA
ATOM     52  H   UNL     1      19.689  30.973  22.916  1.00  0.00     0.211 HD
ENDBRANCH  50  51
BRANCH  50  53
ATOM     53  C   UNL     1      21.024  29.308  23.987  1.00  0.00     0.154 C 
BRANCH  53  54
ATOM     54  N   UNL     1      21.831  28.187  24.367  1.00  0.00    -0.319 N 
ATOM     55  C   UNL     1      21.367  27.033  25.008  1.00  0.00     0.407 C 
ATOM     56  H   UNL     1      22.870  28.239  24.142  1.00  0.00     0.167 HD
ATOM     57  O   UNL     1      20.153  26.937  25.288  1.00  0.00    -0.225 OA
BRANCH  55  58
ATOM     58  O   UNL     1      22.255  26.025  25.319  1.00  0.00    -0.443 OA
BRANCH  58  59
ATOM     59  C   UNL     1      22.156  24.714  24.844  1.00  0.00     0.294 C 
BRANCH  59  60
ATOM     60  C   UNL     1      22.347  24.712  23.380  1.00  0.00     0.120 A 
ATOM     61  C   UNL     1      23.466  25.081  22.701  1.00  0.00     0.138 A 
ATOM     62  N   UNL     1      21.425  24.336  22.482  1.00  0.00    -0.132 NA
ATOM     63  N   UNL     1      23.203  24.922  21.393  1.00  0.00    -0.248 N 
ATOM     64  N   UNL     1      21.970  24.473  21.270  1.00  0.00    -0.067 NA
BRANCH  63  65
ATOM     65  C   UNL     1      24.125  25.200  20.321  1.00  0.00     0.182 C 
BRANCH  65  66
ATOM     66  C   UNL     1      25.510  24.681  20.726  1.00  0.00    -0.016 A 
ATOM     67  C   UNL     1      25.706  23.568  21.403  1.00  0.00     0.017 A 
ATOM     68  C   UNL     1      26.612  25.446  20.347  1.00  0.00     0.070 A 
ATOM     69  C   UNL     1      26.978  23.146  21.742  1.00  0.00     0.065 A 
ATOM     70  S   UNL     1      27.988  24.489  21.013  1.00  0.00    -0.152 S 
ENDBRANCH  65  66
ENDBRANCH  63  65
ENDBRANCH  59  60
ENDBRANCH  58  59
ENDBRANCH  55  58
ENDBRANCH  53  54
ENDBRANCH  50  53
ENDBRANCH  47  50
ENDBRANCH   5  47
BRANCH   4  71
ATOM     71  N   UNL     1      23.112  29.895  20.021  1.00  0.00    -0.348 N 
ATOM     72  C   UNL     1      24.501  29.620  20.113  1.00  0.00     0.217 C 
ATOM     73  H   UNL     1      22.788  30.831  20.350  1.00  0.00     0.163 HD
ATOM     74  C   UNL     1      25.496  30.598  20.650  1.00  0.00     0.114 C 
ATOM     75  O   UNL     1      24.858  28.476  19.706  1.00  0.00    -0.275 OA
ENDBRANCH   4  71
TORSDOF 31
