REMARK VINA RESULT:    -5.308      6.278     11.142
REMARK INTER + INTRA:         -21.287
REMARK INTER:                 -13.685
REMARK INTRA:                  -7.602
REMARK UNBOUND:                -7.602
REMARK SMILES CC(=O)N[C@@H]1[C@@H](O)C[C@](OC[C@H]2O[C@@H](O[C@H]3[C@H](O)[C@@H](O)[C@H](OCCN=[N+]=[N-])O[C@@H]3CO)[C@H](O)[C@@H](O)[C@H]2O)(C(=O)O)O[C@H]1C(O)[C@H](O)CNC(=O)OCc1cn(CC(=O)Nc2ncccn2)nn1
REMARK SMILES IDX 9 1 8 2 6 3 5 4 42 5 41 6 10 7 11 8 12 9 14 10 13 11 32 12
REMARK SMILES IDX 34 13 36 14 15 15 16 16 29 17 28 18 21 19 17 20 19 21 30 22
REMARK SMILES IDX 31 23 22 25 23 26 24 27 25 28 26 29 27 30 18 31 20 33 33 35
REMARK SMILES IDX 35 37 37 39 38 41 39 42 40 43 7 45 43 47 44 48 45 50 46 51
REMARK SMILES IDX 47 53 48 54 49 55 50 57 51 58 52 59 53 60 54 61 67 62 55 63
REMARK SMILES IDX 66 64 56 65 57 66 58 67 59 68 60 70 61 71 65 72 62 73 64 74
REMARK SMILES IDX 63 75 4 76 2 77 1 79 3 80
REMARK H PARENT 31 24 18 32 20 34 33 36 35 38 37 40 40 44 7 46 44 49 46 52
REMARK H PARENT 48 56 59 69 4 78
REMARK Flexibility Score: inf
ROOT
ATOM      1  C   UNL     1      12.785  30.946  22.932  1.00  0.00     0.272 C 
ATOM      2  C   UNL     1      11.395  30.517  23.372  1.00  0.00     0.113 C 
ATOM      3  C   UNL     1      10.557  31.689  23.686  1.00  0.00     0.145 C 
ATOM      4  C   UNL     1      10.616  32.828  22.680  1.00  0.00     0.142 C 
ATOM      5  C   UNL     1      11.878  32.897  21.945  1.00  0.00     0.178 C 
ATOM      6  O   UNL     1      12.439  31.648  21.716  1.00  0.00    -0.332 OA
ENDROOT
BRANCH   1   7
ATOM      7  O   UNL     1      13.466  29.872  22.553  1.00  0.00    -0.338 OA
BRANCH   7   8
ATOM      8  C   UNL     1      13.460  28.982  21.644  1.00  0.00     0.199 C 
BRANCH   8   9
ATOM      9  C   UNL     1      14.492  28.714  20.600  1.00  0.00     0.179 C 
ATOM     10  C   UNL     1      15.040  29.493  18.468  1.00  0.00     0.282 C 
ATOM     11  O   UNL     1      14.109  29.541  19.458  1.00  0.00    -0.341 OA
ATOM     12  C   UNL     1      16.238  30.428  18.834  1.00  0.00     0.202 C 
ATOM     13  C   UNL     1      16.067  30.595  20.331  1.00  0.00     0.179 C 
ATOM     14  C   UNL     1      15.884  29.156  20.864  1.00  0.00     0.177 C 
BRANCH  10  15
ATOM     15  O   UNL     1      14.487  29.992  17.281  1.00  0.00    -0.341 OA
BRANCH  15  16
ATOM     16  C   UNL     1      15.438  30.564  16.445  1.00  0.00     0.184 C 
ATOM     17  C   UNL     1      14.773  31.748  15.730  1.00  0.00     0.178 C 
ATOM     18  O   UNL     1      14.948  31.664  14.357  1.00  0.00    -0.341 OA
ATOM     19  C   UNL     1      14.318  30.525  13.835  1.00  0.00     0.281 C 
ATOM     20  C   UNL     1      15.958  29.557  15.489  1.00  0.00     0.180 C 
ATOM     21  C   UNL     1      15.165  29.351  14.235  1.00  0.00     0.202 C 
BRANCH  17  22
ATOM     22  C   UNL     1      15.421  33.045  16.181  1.00  0.00     0.191 C 
BRANCH  22  23
ATOM     23  O   UNL     1      15.155  33.295  17.529  1.00  0.00    -0.394 OA
ATOM     24  H   UNL     1      15.174  32.462  18.074  1.00  0.00     0.210 HD
ENDBRANCH  22  23
ENDBRANCH  17  22
BRANCH  19  25
ATOM     25  O   UNL     1      14.322  30.688  12.462  1.00  0.00    -0.350 OA
BRANCH  25  26
ATOM     26  C   UNL     1      13.078  30.561  11.882  1.00  0.00     0.169 C 
BRANCH  26  27
ATOM     27  C   UNL     1      11.930  30.955  12.786  1.00  0.00     0.119 C 
BRANCH  27  28
ATOM     28  N   UNL     1      10.907  29.923  12.840  1.00  0.00    -0.092 NA
ATOM     29  N   UNL     1      11.187  28.736  13.034  1.00  0.00     0.001 N 
ATOM     30  N   UNL     1      11.664  27.608  13.100  1.00  0.00    -0.003 NA
ENDBRANCH  27  28
ENDBRANCH  26  27
ENDBRANCH  25  26
ENDBRANCH  19  25
BRANCH  20  31
ATOM     31  O   UNL     1      17.251  29.963  15.057  1.00  0.00    -0.387 OA
ATOM     32  H   UNL     1      17.398  30.919  15.313  1.00  0.00     0.211 HD
ENDBRANCH  20  31
BRANCH  21  33
ATOM     33  O   UNL     1      14.358  28.229  14.397  1.00  0.00    -0.385 OA
ATOM     34  H   UNL     1      14.829  27.430  14.059  1.00  0.00     0.211 HD
ENDBRANCH  21  33
ENDBRANCH  15  16
ENDBRANCH  10  15
BRANCH  12  35
ATOM     35  O   UNL     1      17.417  29.692  18.666  1.00  0.00    -0.385 OA
ATOM     36  H   UNL     1      17.411  28.994  19.375  1.00  0.00     0.211 HD
ENDBRANCH  12  35
BRANCH  13  37
ATOM     37  O   UNL     1      15.040  31.430  20.680  1.00  0.00    -0.387 OA
ATOM     38  H   UNL     1      15.331  32.298  21.019  1.00  0.00     0.211 HD
ENDBRANCH  13  37
BRANCH  14  39
ATOM     39  O   UNL     1      16.401  29.103  22.110  1.00  0.00    -0.387 OA
ATOM     40  H   UNL     1      17.309  28.713  22.127  1.00  0.00     0.211 HD
ENDBRANCH  14  39
ENDBRANCH   8   9
ENDBRANCH   7   8
ENDBRANCH   1   7
BRANCH   1  41
ATOM     41  C   UNL     1      13.475  31.866  23.810  1.00  0.00     0.364 C 
ATOM     42  O   UNL     1      14.487  32.519  23.382  1.00  0.00    -0.246 OA
BRANCH  41  43
ATOM     43  O   UNL     1      13.146  32.119  25.121  1.00  0.00    -0.477 OA
ATOM     44  H   UNL     1      12.358  32.634  25.434  1.00  0.00     0.296 HD
ENDBRANCH  41  43
ENDBRANCH   1  41
BRANCH   3  45
ATOM     45  O   UNL     1       9.222  31.224  23.786  1.00  0.00    -0.391 OA
ATOM     46  H   UNL     1       8.669  31.684  23.084  1.00  0.00     0.211 HD
ENDBRANCH   3  45
BRANCH   5  47
ATOM     47  C   UNL     1      11.772  33.515  20.526  1.00  0.00     0.176 C 
BRANCH  47  48
ATOM     48  O   UNL     1      12.480  34.637  20.329  1.00  0.00    -0.388 OA
ATOM     49  H   UNL     1      13.191  34.580  19.630  1.00  0.00     0.211 HD
ENDBRANCH  47  48
BRANCH  47  50
ATOM     50  C   UNL     1      11.533  32.583  19.442  1.00  0.00     0.165 C 
BRANCH  50  51
ATOM     51  O   UNL     1      12.913  32.238  18.972  1.00  0.00    -0.388 OA
ATOM     52  H   UNL     1      13.315  31.662  19.640  1.00  0.00     0.211 HD
ENDBRANCH  50  51
BRANCH  50  53
ATOM     53  C   UNL     1      10.755  32.824  18.244  1.00  0.00     0.154 C 
BRANCH  53  54
ATOM     54  N   UNL     1       9.456  32.425  17.959  1.00  0.00    -0.319 N 
ATOM     55  C   UNL     1       8.185  32.737  18.482  1.00  0.00     0.407 C 
ATOM     56  H   UNL     1       9.404  31.685  17.123  1.00  0.00     0.167 HD
ATOM     57  O   UNL     1       8.055  33.536  19.429  1.00  0.00    -0.225 OA
BRANCH  55  58
ATOM     58  O   UNL     1       7.042  32.180  17.968  1.00  0.00    -0.443 OA
BRANCH  58  59
ATOM     59  C   UNL     1       6.682  30.879  17.849  1.00  0.00     0.294 C 
BRANCH  59  60
ATOM     60  C   UNL     1       6.011  30.318  19.044  1.00  0.00     0.120 A 
ATOM     61  C   UNL     1       5.752  30.993  20.245  1.00  0.00     0.138 A 
ATOM     62  N   UNL     1       5.562  29.055  19.287  1.00  0.00    -0.132 NA
ATOM     63  N   UNL     1       5.189  30.165  21.132  1.00  0.00    -0.243 N 
ATOM     64  N   UNL     1       5.091  29.002  20.512  1.00  0.00    -0.067 NA
BRANCH  63  65
ATOM     65  C   UNL     1       4.755  30.421  22.491  1.00  0.00     0.246 C 
BRANCH  65  66
ATOM     66  C   UNL     1       5.841  29.920  23.419  1.00  0.00     0.248 C 
ATOM     67  O   UNL     1       6.370  30.663  24.281  1.00  0.00    -0.272 OA
ATOM     68  N   UNL     1       6.287  28.578  23.326  1.00  0.00    -0.293 N 
ATOM     69  H   UNL     1       5.810  28.002  22.587  1.00  0.00     0.173 HD
BRANCH  68  70
ATOM     70  C   UNL     1       7.276  27.970  24.128  1.00  0.00     0.229 A 
ATOM     71  N   UNL     1       8.555  28.377  24.200  1.00  0.00    -0.221 NA
ATOM     72  N   UNL     1       6.920  26.900  24.867  1.00  0.00    -0.221 NA
ATOM     73  C   UNL     1       9.485  27.753  24.981  1.00  0.00     0.117 A 
ATOM     74  C   UNL     1       7.786  26.254  25.649  1.00  0.00     0.117 A 
ATOM     75  C   UNL     1       9.090  26.663  25.726  1.00  0.00     0.040 A 
ENDBRANCH  68  70
ENDBRANCH  65  66
ENDBRANCH  63  65
ENDBRANCH  59  60
ENDBRANCH  58  59
ENDBRANCH  55  58
ENDBRANCH  53  54
ENDBRANCH  50  53
ENDBRANCH  47  50
ENDBRANCH   5  47
BRANCH   4  76
ATOM     76  N   UNL     1      10.196  33.998  23.391  1.00  0.00    -0.348 N 
ATOM     77  C   UNL     1       8.815  34.426  23.386  1.00  0.00     0.217 C 
ATOM     78  H   UNL     1      10.871  34.591  23.944  1.00  0.00     0.163 HD
ATOM     79  C   UNL     1       8.450  35.639  24.146  1.00  0.00     0.114 C 
ATOM     80  O   UNL     1       7.962  33.776  22.748  1.00  0.00    -0.275 OA
ENDBRANCH   4  76
TORSDOF 32
