REMARK VINA RESULT:    -5.489      2.567      7.868
REMARK INTER + INTRA:         -21.804
REMARK INTER:                 -14.159
REMARK INTRA:                  -7.645
REMARK UNBOUND:                -7.010
REMARK SMILES CC(=O)N[C@@H]1[C@@H](O)C[C@](OC[C@H]2O[C@@H](O[C@H]3[C@H](O)[C@@H](O)[C@H](OCCN=[N+]=[N-])O[C@@H]3CO)[C@H](O)[C@@H](O)[C@H]2O)(C(=O)O)O[C@H]1C(O)[C@H](O)CNC(=O)OCc1cn([C@@H](CC(=O)O)C(=O)O)nn1
REMARK SMILES IDX 43 1 42 2 9 3 8 4 41 5 6 6 5 7 10 8 11 9 12 10 14 11 13 12
REMARK SMILES IDX 32 13 34 14 36 15 15 16 16 17 29 18 28 19 21 20 17 21 19 22
REMARK SMILES IDX 30 23 31 24 22 26 23 27 24 28 25 29 26 30 27 31 18 32 20 34
REMARK SMILES IDX 33 36 35 38 37 40 38 42 39 43 40 44 7 46 4 48 2 49 1 51 3 52
REMARK SMILES IDX 44 53 45 55 46 56 47 58 48 59 49 60 50 62 51 63 52 64 53 65
REMARK SMILES IDX 54 66 65 67 55 68 64 69 56 70 57 71 58 72 59 73 60 74 61 76
REMARK SMILES IDX 62 77 63 78
REMARK H PARENT 31 25 18 33 20 35 33 37 35 39 37 41 40 45 7 47 4 50 44 54
REMARK H PARENT 46 57 48 61 60 75 63 79
REMARK Flexibility Score: inf
ROOT
ATOM      1  C   UNL     1      23.484  28.420  21.801  1.00  0.00     0.176 C 
ENDROOT
BRANCH   1   2
ATOM      2  C   UNL     1      23.119  26.997  22.189  1.00  0.00     0.178 C 
ATOM      3  C   UNL     1      22.669  25.688  24.089  1.00  0.00     0.272 C 
ATOM      4  C   UNL     1      22.971  24.648  23.001  1.00  0.00     0.113 C 
ATOM      5  O   UNL     1      23.077  26.928  23.547  1.00  0.00    -0.332 OA
ATOM      6  C   UNL     1      24.377  24.970  22.514  1.00  0.00     0.145 C 
ATOM      7  C   UNL     1      24.146  26.110  21.510  1.00  0.00     0.142 C 
BRANCH   3   8
ATOM      8  O   UNL     1      23.263  25.422  25.159  1.00  0.00    -0.338 OA
BRANCH   8   9
ATOM      9  C   UNL     1      23.861  25.163  26.219  1.00  0.00     0.199 C 
BRANCH   9  10
ATOM     10  C   UNL     1      25.186  25.880  26.480  1.00  0.00     0.179 C 
ATOM     11  C   UNL     1      24.523  28.057  26.818  1.00  0.00     0.282 C 
ATOM     12  O   UNL     1      25.245  27.169  26.075  1.00  0.00    -0.341 OA
ATOM     13  C   UNL     1      24.870  28.023  28.255  1.00  0.00     0.202 C 
ATOM     14  C   UNL     1      26.108  27.120  28.374  1.00  0.00     0.179 C 
ATOM     15  C   UNL     1      25.634  25.753  27.917  1.00  0.00     0.177 C 
BRANCH  11  16
ATOM     16  O   UNL     1      23.175  28.154  26.507  1.00  0.00    -0.341 OA
BRANCH  16  17
ATOM     17  C   UNL     1      22.430  28.795  27.469  1.00  0.00     0.184 C 
ATOM     18  C   UNL     1      21.124  28.126  27.707  1.00  0.00     0.178 C 
ATOM     19  O   UNL     1      20.410  28.753  28.721  1.00  0.00    -0.341 OA
ATOM     20  C   UNL     1      20.535  30.145  28.727  1.00  0.00     0.281 C 
ATOM     21  C   UNL     1      22.191  30.208  26.943  1.00  0.00     0.180 C 
ATOM     22  C   UNL     1      20.810  30.646  27.312  1.00  0.00     0.202 C 
BRANCH  18  23
ATOM     23  C   UNL     1      21.417  26.718  28.221  1.00  0.00     0.191 C 
BRANCH  23  24
ATOM     24  O   UNL     1      20.942  26.617  29.545  1.00  0.00    -0.394 OA
ATOM     25  H   UNL     1      20.123  27.195  29.562  1.00  0.00     0.210 HD
ENDBRANCH  23  24
ENDBRANCH  18  23
BRANCH  20  26
ATOM     26  O   UNL     1      21.637  30.460  29.501  1.00  0.00    -0.350 OA
BRANCH  26  27
ATOM     27  C   UNL     1      21.556  30.177  30.829  1.00  0.00     0.169 C 
BRANCH  27  28
ATOM     28  C   UNL     1      22.821  29.542  31.320  1.00  0.00     0.119 C 
BRANCH  28  29
ATOM     29  N   UNL     1      22.645  28.089  31.280  1.00  0.00    -0.092 NA
ATOM     30  N   UNL     1      23.599  27.380  31.659  1.00  0.00     0.001 N 
ATOM     31  N   UNL     1      24.433  26.459  31.577  1.00  0.00    -0.003 NA
ENDBRANCH  28  29
ENDBRANCH  27  28
ENDBRANCH  26  27
ENDBRANCH  20  26
BRANCH  21  32
ATOM     32  O   UNL     1      23.124  31.079  27.494  1.00  0.00    -0.387 OA
ATOM     33  H   UNL     1      22.662  31.875  27.889  1.00  0.00     0.211 HD
ENDBRANCH  21  32
BRANCH  22  34
ATOM     34  O   UNL     1      19.820  30.204  26.432  1.00  0.00    -0.385 OA
ATOM     35  H   UNL     1      19.644  30.997  25.833  1.00  0.00     0.211 HD
ENDBRANCH  22  34
ENDBRANCH  16  17
ENDBRANCH  11  16
BRANCH  13  36
ATOM     36  O   UNL     1      25.264  29.261  28.769  1.00  0.00    -0.385 OA
ATOM     37  H   UNL     1      26.101  29.528  28.289  1.00  0.00     0.211 HD
ENDBRANCH  13  36
BRANCH  14  38
ATOM     38  O   UNL     1      26.625  27.086  29.645  1.00  0.00    -0.387 OA
ATOM     39  H   UNL     1      27.585  27.355  29.668  1.00  0.00     0.211 HD
ENDBRANCH  14  38
BRANCH  15  40
ATOM     40  O   UNL     1      24.624  25.321  28.747  1.00  0.00    -0.387 OA
ATOM     41  H   UNL     1      24.327  25.979  29.399  1.00  0.00     0.211 HD
ENDBRANCH  15  40
ENDBRANCH   9  10
ENDBRANCH   8   9
ENDBRANCH   3   8
BRANCH   3  42
ATOM     42  C   UNL     1      21.145  25.708  24.152  1.00  0.00     0.364 C 
ATOM     43  O   UNL     1      20.558  26.709  24.588  1.00  0.00    -0.246 OA
BRANCH  42  44
ATOM     44  O   UNL     1      20.398  24.624  23.729  1.00  0.00    -0.477 OA
ATOM     45  H   UNL     1      20.804  23.686  23.617  1.00  0.00     0.296 HD
ENDBRANCH  42  44
ENDBRANCH   3  42
BRANCH   6  46
ATOM     46  O   UNL     1      25.108  25.597  23.547  1.00  0.00    -0.391 OA
ATOM     47  H   UNL     1      24.719  25.452  24.425  1.00  0.00     0.211 HD
ENDBRANCH   6  46
BRANCH   7  48
ATOM     48  N   UNL     1      23.658  25.485  20.303  1.00  0.00    -0.348 N 
ATOM     49  C   UNL     1      24.544  25.255  19.206  1.00  0.00     0.217 C 
ATOM     50  H   UNL     1      22.665  25.184  20.180  1.00  0.00     0.163 HD
ATOM     51  C   UNL     1      23.975  24.604  17.978  1.00  0.00     0.114 C 
ATOM     52  O   UNL     1      25.760  25.580  19.252  1.00  0.00    -0.275 OA
ENDBRANCH   7  48
ENDBRANCH   1   2
BRANCH   1  53
ATOM     53  O   UNL     1      24.525  28.913  22.579  1.00  0.00    -0.388 OA
ATOM     54  H   UNL     1      25.319  28.307  22.564  1.00  0.00     0.211 HD
ENDBRANCH   1  53
BRANCH   1  55
ATOM     55  C   UNL     1      22.359  29.384  21.752  1.00  0.00     0.165 C 
BRANCH  55  56
ATOM     56  O   UNL     1      21.204  29.006  22.399  1.00  0.00    -0.388 OA
ATOM     57  H   UNL     1      20.534  29.733  22.501  1.00  0.00     0.211 HD
ENDBRANCH  55  56
BRANCH  55  58
ATOM     58  C   UNL     1      22.146  29.907  20.373  1.00  0.00     0.154 C 
BRANCH  58  59
ATOM     59  N   UNL     1      20.921  29.534  19.735  1.00  0.00    -0.319 N 
ATOM     60  C   UNL     1      20.886  28.384  18.911  1.00  0.00     0.407 C 
ATOM     61  H   UNL     1      20.060  30.082  19.864  1.00  0.00     0.167 HD
ATOM     62  O   UNL     1      21.965  27.708  18.782  1.00  0.00    -0.225 OA
BRANCH  60  63
ATOM     63  O   UNL     1      19.786  27.913  18.216  1.00  0.00    -0.443 OA
BRANCH  63  64
ATOM     64  C   UNL     1      18.681  28.793  17.956  1.00  0.00     0.294 C 
BRANCH  64  65
ATOM     65  C   UNL     1      17.640  28.562  18.986  1.00  0.00     0.120 A 
ATOM     66  C   UNL     1      17.344  29.279  20.123  1.00  0.00     0.139 A 
ATOM     67  N   UNL     1      16.749  27.516  18.994  1.00  0.00    -0.132 NA
ATOM     68  N   UNL     1      16.311  28.667  20.774  1.00  0.00    -0.237 N 
ATOM     69  N   UNL     1      16.000  27.627  20.057  1.00  0.00    -0.066 NA
BRANCH  68  70
ATOM     70  C   UNL     1      15.709  29.093  22.016  1.00  0.00     0.229 C 
BRANCH  70  71
ATOM     71  C   UNL     1      16.362  30.399  22.435  1.00  0.00     0.161 C 
BRANCH  71  72
ATOM     72  C   UNL     1      17.110  30.251  23.697  1.00  0.00     0.306 C 
ATOM     73  O   UNL     1      16.625  30.639  24.790  1.00  0.00    -0.252 OA
BRANCH  72  74
ATOM     74  O   UNL     1      18.365  29.681  23.702  1.00  0.00    -0.481 OA
ATOM     75  H   UNL     1      19.185  30.296  23.648  1.00  0.00     0.296 HD
ENDBRANCH  72  74
ENDBRANCH  71  72
ENDBRANCH  70  71
BRANCH  70  76
ATOM     76  C   UNL     1      14.268  29.311  21.802  1.00  0.00     0.329 C 
ATOM     77  O   UNL     1      13.834  30.485  21.739  1.00  0.00    -0.250 OA
BRANCH  76  78
ATOM     78  O   UNL     1      13.356  28.273  21.664  1.00  0.00    -0.480 OA
ATOM     79  H   UNL     1      13.547  27.553  20.972  1.00  0.00     0.296 HD
ENDBRANCH  76  78
ENDBRANCH  70  76
ENDBRANCH  68  70
ENDBRANCH  64  65
ENDBRANCH  63  64
ENDBRANCH  60  63
ENDBRANCH  58  59
ENDBRANCH  55  58
ENDBRANCH   1  55
TORSDOF 35
