REMARK VINA RESULT:    -4.539     14.201     20.622
REMARK INTER + INTRA:         -23.607
REMARK INTER:                 -14.843
REMARK INTRA:                  -8.763
REMARK UNBOUND:               -10.710
REMARK SMILES CC(=O)N[C@@H]1[C@@H](O)C[C@](OC[C@H]2O[C@@H](O[C@H]3[C@H](O)[C@@H](O)[C@H](OCCN=[N+]=[N-])O[C@@H]3CO)[C@H](O)[C@@H](O)[C@H]2O)(C(=O)O)O[C@H]1C(O)[C@H](O)CNC(=O)OCc1cn(CC(=O)NCC(O)Cn2ccnc2[N+](=O)[O-])nn1
REMARK SMILES IDX 47 1 45 2 43 3 42 4 9 5 8 6 41 7 6 8 5 9 10 10 11 11 12 12
REMARK SMILES IDX 14 13 13 14 32 15 34 16 36 17 15 18 16 19 29 20 28 21 21 22
REMARK SMILES IDX 17 23 19 24 30 25 31 26 22 28 23 29 24 30 25 31 26 32 27 33
REMARK SMILES IDX 18 34 20 36 33 38 35 40 37 42 38 44 39 45 40 46 7 48 4 50
REMARK SMILES IDX 2 51 1 53 3 54 44 55 46 57 48 59 49 60 50 62 51 63 52 64
REMARK SMILES IDX 53 65 54 66 73 67 55 68 72 69 56 70 57 71 58 72 59 73 60 75
REMARK SMILES IDX 61 76 62 77 63 79 64 80 65 81 68 82 66 83 67 84 69 85 70 86
REMARK SMILES IDX 71 87
REMARK H PARENT 31 27 18 35 20 37 33 39 35 41 37 43 40 47 7 49 4 52 44 56
REMARK H PARENT 46 58 48 61 59 74 62 78
REMARK Flexibility Score: inf
ROOT
ATOM      1  C   UNL     1      19.644  32.324  22.619  1.00  0.00     0.154 C 
ENDROOT
BRANCH   1   2
ATOM      2  C   UNL     1      18.430  31.665  22.054  1.00  0.00     0.165 C 
BRANCH   2   3
ATOM      3  C   UNL     1      18.537  30.211  21.784  1.00  0.00     0.176 C 
BRANCH   3   4
ATOM      4  C   UNL     1      17.510  29.556  20.955  1.00  0.00     0.178 C 
ATOM      5  C   UNL     1      16.716  29.165  18.806  1.00  0.00     0.272 C 
ATOM      6  C   UNL     1      16.089  28.011  19.508  1.00  0.00     0.113 C 
ATOM      7  O   UNL     1      17.598  29.897  19.622  1.00  0.00    -0.332 OA
ATOM      8  C   UNL     1      15.434  28.345  20.806  1.00  0.00     0.145 C 
ATOM      9  C   UNL     1      16.100  29.617  21.406  1.00  0.00     0.142 C 
BRANCH   5  10
ATOM     10  O   UNL     1      15.874  30.055  18.207  1.00  0.00    -0.338 OA
BRANCH  10  11
ATOM     11  C   UNL     1      16.175  31.378  18.299  1.00  0.00     0.199 C 
BRANCH  11  12
ATOM     12  C   UNL     1      14.948  32.267  18.302  1.00  0.00     0.179 C 
ATOM     13  C   UNL     1      13.020  32.728  17.074  1.00  0.00     0.282 C 
ATOM     14  O   UNL     1      14.377  32.424  17.088  1.00  0.00    -0.341 OA
ATOM     15  C   UNL     1      12.634  33.622  18.227  1.00  0.00     0.202 C 
ATOM     16  C   UNL     1      12.994  32.999  19.556  1.00  0.00     0.179 C 
ATOM     17  C   UNL     1      13.953  31.842  19.347  1.00  0.00     0.177 C 
BRANCH  13  18
ATOM     18  O   UNL     1      12.208  31.651  17.043  1.00  0.00    -0.341 OA
BRANCH  18  19
ATOM     19  C   UNL     1      11.962  30.972  15.911  1.00  0.00     0.184 C 
ATOM     20  C   UNL     1      10.528  30.851  15.473  1.00  0.00     0.178 C 
ATOM     21  O   UNL     1      10.562  30.527  14.114  1.00  0.00    -0.341 OA
ATOM     22  C   UNL     1      11.029  29.232  13.918  1.00  0.00     0.281 C 
ATOM     23  C   UNL     1      12.454  29.518  15.977  1.00  0.00     0.180 C 
ATOM     24  C   UNL     1      12.359  28.987  14.565  1.00  0.00     0.202 C 
BRANCH  20  25
ATOM     25  C   UNL     1       9.841  32.180  15.592  1.00  0.00     0.191 C 
BRANCH  25  26
ATOM     26  O   UNL     1      10.221  33.055  14.566  1.00  0.00    -0.394 OA
ATOM     27  H   UNL     1       9.585  33.833  14.655  1.00  0.00     0.210 HD
ENDBRANCH  25  26
ENDBRANCH  20  25
BRANCH  22  28
ATOM     28  O   UNL     1      11.190  29.056  12.546  1.00  0.00    -0.350 OA
BRANCH  28  29
ATOM     29  C   UNL     1      11.994  30.056  11.996  1.00  0.00     0.169 C 
BRANCH  29  30
ATOM     30  C   UNL     1      11.681  30.075  10.498  1.00  0.00     0.119 C 
BRANCH  30  31
ATOM     31  N   UNL     1      11.726  28.727   9.958  1.00  0.00    -0.092 NA
ATOM     32  N   UNL     1      10.869  28.441   9.095  1.00  0.00     0.001 N 
ATOM     33  N   UNL     1      10.261  28.193   8.062  1.00  0.00    -0.003 NA
ENDBRANCH  30  31
ENDBRANCH  29  30
ENDBRANCH  28  29
ENDBRANCH  22  28
BRANCH  23  34
ATOM     34  O   UNL     1      13.794  29.455  16.344  1.00  0.00    -0.387 OA
ATOM     35  H   UNL     1      14.298  29.718  15.510  1.00  0.00     0.211 HD
ENDBRANCH  23  34
BRANCH  24  36
ATOM     36  O   UNL     1      12.633  27.623  14.481  1.00  0.00    -0.385 OA
ATOM     37  H   UNL     1      13.594  27.486  14.733  1.00  0.00     0.211 HD
ENDBRANCH  24  36
ENDBRANCH  18  19
ENDBRANCH  13  18
BRANCH  15  38
ATOM     38  O   UNL     1      13.186  34.903  18.095  1.00  0.00    -0.385 OA
ATOM     39  H   UNL     1      12.401  35.531  18.178  1.00  0.00     0.211 HD
ENDBRANCH  15  38
BRANCH  16  40
ATOM     40  O   UNL     1      11.866  32.489  20.193  1.00  0.00    -0.387 OA
ATOM     41  H   UNL     1      11.207  33.207  20.427  1.00  0.00     0.211 HD
ENDBRANCH  16  40
BRANCH  17  42
ATOM     42  O   UNL     1      13.337  30.640  19.092  1.00  0.00    -0.387 OA
ATOM     43  H   UNL     1      12.701  30.369  19.809  1.00  0.00     0.211 HD
ENDBRANCH  17  42
ENDBRANCH  11  12
ENDBRANCH  10  11
ENDBRANCH   5  10
BRANCH   5  44
ATOM     44  C   UNL     1      17.639  28.582  17.763  1.00  0.00     0.364 C 
ATOM     45  O   UNL     1      17.289  28.698  16.575  1.00  0.00    -0.246 OA
BRANCH  44  46
ATOM     46  O   UNL     1      18.818  27.945  18.069  1.00  0.00    -0.477 OA
ATOM     47  H   UNL     1      18.905  26.918  17.961  1.00  0.00     0.296 HD
ENDBRANCH  44  46
ENDBRANCH   5  44
BRANCH   8  48
ATOM     48  O   UNL     1      14.083  28.467  20.813  1.00  0.00    -0.391 OA
ATOM     49  H   UNL     1      13.652  28.508  21.679  1.00  0.00     0.211 HD
ENDBRANCH   8  48
BRANCH   9  50
ATOM     50  N   UNL     1      15.845  29.589  22.797  1.00  0.00    -0.348 N 
ATOM     51  C   UNL     1      15.125  30.656  23.444  1.00  0.00     0.217 C 
ATOM     52  H   UNL     1      16.151  28.807  23.389  1.00  0.00     0.163 HD
ATOM     53  C   UNL     1      14.853  30.650  24.906  1.00  0.00     0.114 C 
ATOM     54  O   UNL     1      14.729  31.607  22.737  1.00  0.00    -0.275 OA
ENDBRANCH   9  50
ENDBRANCH   3   4
BRANCH   3  55
ATOM     55  O   UNL     1      18.690  29.568  23.038  1.00  0.00    -0.388 OA
ATOM     56  H   UNL     1      19.635  29.382  23.156  1.00  0.00     0.211 HD
ENDBRANCH   3  55
ENDBRANCH   2   3
BRANCH   2  57
ATOM     57  O   UNL     1      17.786  32.429  21.110  1.00  0.00    -0.388 OA
ATOM     58  H   UNL     1      18.326  33.112  20.672  1.00  0.00     0.211 HD
ENDBRANCH   2  57
ENDBRANCH   1   2
BRANCH   1  59
ATOM     59  N   UNL     1      20.837  31.671  22.155  1.00  0.00    -0.319 N 
ATOM     60  C   UNL     1      21.552  32.078  21.001  1.00  0.00     0.407 C 
ATOM     61  H   UNL     1      21.231  30.835  22.680  1.00  0.00     0.167 HD
ATOM     62  O   UNL     1      21.145  33.060  20.347  1.00  0.00    -0.225 OA
BRANCH  60  63
ATOM     63  O   UNL     1      22.690  31.455  20.533  1.00  0.00    -0.443 OA
BRANCH  63  64
ATOM     64  C   UNL     1      22.770  30.930  19.234  1.00  0.00     0.294 C 
BRANCH  64  65
ATOM     65  C   UNL     1      22.482  29.505  19.085  1.00  0.00     0.120 A 
ATOM     66  C   UNL     1      23.297  28.517  18.594  1.00  0.00     0.138 A 
ATOM     67  N   UNL     1      21.332  28.883  19.395  1.00  0.00    -0.132 NA
ATOM     68  N   UNL     1      22.628  27.340  18.619  1.00  0.00    -0.243 N 
ATOM     69  N   UNL     1      21.449  27.578  19.103  1.00  0.00    -0.067 NA
BRANCH  68  70
ATOM     70  C   UNL     1      23.152  26.044  18.205  1.00  0.00     0.245 C 
BRANCH  70  71
ATOM     71  C   UNL     1      22.755  25.024  19.198  1.00  0.00     0.241 C 
ATOM     72  O   UNL     1      22.385  23.857  18.835  1.00  0.00    -0.273 OA
ATOM     73  N   UNL     1      22.761  25.268  20.604  1.00  0.00    -0.352 N 
ATOM     74  H   UNL     1      23.053  26.199  20.949  1.00  0.00     0.163 HD
BRANCH  73  75
ATOM     75  C   UNL     1      22.356  24.202  21.500  1.00  0.00     0.151 C 
BRANCH  75  76
ATOM     76  C   UNL     1      21.687  24.718  22.736  1.00  0.00     0.168 C 
BRANCH  76  77
ATOM     77  O   UNL     1      20.471  25.322  22.467  1.00  0.00    -0.388 OA
ATOM     78  H   UNL     1      20.607  26.298  22.514  1.00  0.00     0.211 HD
ENDBRANCH  76  77
BRANCH  76  79
ATOM     79  C   UNL     1      22.641  25.704  23.392  1.00  0.00     0.239 C 
BRANCH  79  80
ATOM     80  N   UNL     1      22.603  25.610  24.823  1.00  0.00    -0.227 N 
ATOM     81  C   UNL     1      23.205  24.632  25.551  1.00  0.00     0.204 A 
ATOM     82  C   UNL     1      21.986  26.405  25.731  1.00  0.00     0.434 A 
ATOM     83  C   UNL     1      22.951  24.838  26.884  1.00  0.00     0.245 A 
ATOM     84  N   UNL     1      22.201  25.931  26.975  1.00  0.00    -0.074 NA
BRANCH  82  85
ATOM     85  N   UNL     1      21.234  27.577  25.420  1.00  0.00    -0.047 N 
ATOM     86  O   UNL     1      21.618  28.723  25.648  1.00  0.00    -0.390 OA
ATOM     87  O   UNL     1      19.987  27.415  24.831  1.00  0.00    -0.390 OA
ENDBRANCH  82  85
ENDBRANCH  79  80
ENDBRANCH  76  79
ENDBRANCH  75  76
ENDBRANCH  73  75
ENDBRANCH  70  71
ENDBRANCH  68  70
ENDBRANCH  64  65
ENDBRANCH  63  64
ENDBRANCH  60  63
ENDBRANCH   1  59
TORSDOF 37
