REMARK VINA RESULT:    -6.492      4.711      8.780
REMARK INTER + INTRA:         -22.752
REMARK INTER:                 -15.521
REMARK INTRA:                  -7.231
REMARK UNBOUND:                -5.634
REMARK SMILES CC(=O)N[C@@H]1[C@@H](O)C[C@](OC[C@H]2O[C@@H](O[C@H]3[C@H](O)[C@@H](O)[C@H](OCCN=[N+]=[N-])O[C@@H]3CO)[C@H](O)[C@@H](O)[C@H]2O)(C(=O)O)O[C@H]1C(O)[C@H](O)CNC(=O)OCc1cn(Cc2ccccc2OC(C)=O)nn1
REMARK SMILES IDX 43 1 42 2 9 3 8 4 41 5 6 6 5 7 10 8 11 9 12 10 14 11 13 12
REMARK SMILES IDX 32 13 34 14 36 15 15 16 16 17 29 18 28 19 21 20 17 21 19 22
REMARK SMILES IDX 30 23 31 24 22 26 23 27 24 28 25 29 26 30 27 31 18 32 20 34
REMARK SMILES IDX 33 36 35 38 37 40 38 42 39 43 40 44 7 46 4 48 2 49 1 51 3 52
REMARK SMILES IDX 44 53 45 55 46 56 47 58 48 59 49 60 50 62 51 63 52 64 53 65
REMARK SMILES IDX 54 66 68 67 55 68 67 69 56 70 57 71 62 72 58 73 61 74 59 75
REMARK SMILES IDX 60 76 63 77 64 78 66 79 65 80
REMARK H PARENT 31 25 18 33 20 35 33 37 35 39 37 41 40 45 7 47 4 50 44 54
REMARK H PARENT 46 57 48 61
REMARK Flexibility Score: inf
ROOT
ATOM      1  C   UNL     1      16.597  31.730  17.960  1.00  0.00     0.176 C 
ENDROOT
BRANCH   1   2
ATOM      2  C   UNL     1      16.372  30.522  18.856  1.00  0.00     0.178 C 
ATOM      3  C   UNL     1      17.446  29.257  20.494  1.00  0.00     0.272 C 
ATOM      4  C   UNL     1      16.314  28.320  20.085  1.00  0.00     0.113 C 
ATOM      5  O   UNL     1      17.554  30.276  19.518  1.00  0.00    -0.332 OA
ATOM      6  C   UNL     1      16.455  28.116  18.585  1.00  0.00     0.145 C 
ATOM      7  C   UNL     1      16.025  29.365  17.918  1.00  0.00     0.142 C 
BRANCH   3   8
ATOM      8  O   UNL     1      18.664  28.647  20.530  1.00  0.00    -0.338 OA
BRANCH   8   9
ATOM      9  C   UNL     1      19.783  29.418  20.537  1.00  0.00     0.199 C 
BRANCH   9  10
ATOM     10  C   UNL     1      20.986  28.493  20.792  1.00  0.00     0.179 C 
ATOM     11  C   UNL     1      21.589  26.604  21.954  1.00  0.00     0.282 C 
ATOM     12  O   UNL     1      20.488  27.446  21.574  1.00  0.00    -0.341 OA
ATOM     13  C   UNL     1      21.939  25.849  20.721  1.00  0.00     0.202 C 
ATOM     14  C   UNL     1      22.504  26.884  19.732  1.00  0.00     0.179 C 
ATOM     15  C   UNL     1      21.551  28.006  19.496  1.00  0.00     0.177 C 
BRANCH  11  16
ATOM     16  O   UNL     1      21.106  25.893  23.026  1.00  0.00    -0.341 OA
BRANCH  16  17
ATOM     17  C   UNL     1      21.890  26.105  24.175  1.00  0.00     0.184 C 
ATOM     18  C   UNL     1      22.538  24.878  24.700  1.00  0.00     0.178 C 
ATOM     19  O   UNL     1      22.416  24.745  26.086  1.00  0.00    -0.341 OA
ATOM     20  C   UNL     1      22.707  25.902  26.796  1.00  0.00     0.281 C 
ATOM     21  C   UNL     1      20.880  26.517  25.310  1.00  0.00     0.180 C 
ATOM     22  C   UNL     1      21.747  27.031  26.426  1.00  0.00     0.202 C 
BRANCH  18  23
ATOM     23  C   UNL     1      23.937  24.619  24.234  1.00  0.00     0.191 C 
BRANCH  23  24
ATOM     24  O   UNL     1      24.626  23.929  25.221  1.00  0.00    -0.394 OA
ATOM     25  H   UNL     1      25.212  23.253  24.820  1.00  0.00     0.210 HD
ENDBRANCH  23  24
ENDBRANCH  18  23
BRANCH  20  26
ATOM     26  O   UNL     1      23.963  26.333  26.552  1.00  0.00    -0.350 OA
BRANCH  26  27
ATOM     27  C   UNL     1      24.593  27.173  27.393  1.00  0.00     0.169 C 
BRANCH  27  28
ATOM     28  C   UNL     1      25.230  26.620  28.617  1.00  0.00     0.119 C 
BRANCH  28  29
ATOM     29  N   UNL     1      24.667  27.189  29.794  1.00  0.00    -0.092 NA
ATOM     30  N   UNL     1      23.477  27.195  30.021  1.00  0.00     0.001 N 
ATOM     31  N   UNL     1      22.301  26.908  30.262  1.00  0.00    -0.003 NA
ENDBRANCH  28  29
ENDBRANCH  27  28
ENDBRANCH  26  27
ENDBRANCH  20  26
BRANCH  21  32
ATOM     32  O   UNL     1      19.992  27.440  24.816  1.00  0.00    -0.387 OA
ATOM     33  H   UNL     1      20.455  28.329  24.686  1.00  0.00     0.211 HD
ENDBRANCH  21  32
BRANCH  22  34
ATOM     34  O   UNL     1      21.015  27.493  27.497  1.00  0.00    -0.385 OA
ATOM     35  H   UNL     1      20.427  28.227  27.157  1.00  0.00     0.211 HD
ENDBRANCH  22  34
ENDBRANCH  16  17
ENDBRANCH  11  16
BRANCH  13  36
ATOM     36  O   UNL     1      22.963  24.933  20.900  1.00  0.00    -0.385 OA
ATOM     37  H   UNL     1      22.743  24.188  21.498  1.00  0.00     0.211 HD
ENDBRANCH  13  36
BRANCH  14  38
ATOM     38  O   UNL     1      22.882  26.251  18.545  1.00  0.00    -0.387 OA
ATOM     39  H   UNL     1      23.064  25.298  18.785  1.00  0.00     0.211 HD
ENDBRANCH  14  38
BRANCH  15  40
ATOM     40  O   UNL     1      20.570  27.566  18.611  1.00  0.00    -0.387 OA
ATOM     41  H   UNL     1      20.930  27.174  17.793  1.00  0.00     0.211 HD
ENDBRANCH  15  40
ENDBRANCH   9  10
ENDBRANCH   8   9
ENDBRANCH   3   8
BRANCH   3  42
ATOM     42  C   UNL     1      17.024  29.867  21.774  1.00  0.00     0.364 C 
ATOM     43  O   UNL     1      17.414  30.974  22.139  1.00  0.00    -0.246 OA
BRANCH  42  44
ATOM     44  O   UNL     1      16.147  29.154  22.595  1.00  0.00    -0.477 OA
ATOM     45  H   UNL     1      15.684  29.599  23.401  1.00  0.00     0.296 HD
ENDBRANCH  42  44
ENDBRANCH   3  42
BRANCH   6  46
ATOM     46  O   UNL     1      17.824  27.945  18.354  1.00  0.00    -0.391 OA
ATOM     47  H   UNL     1      18.360  28.751  18.546  1.00  0.00     0.211 HD
ENDBRANCH   6  46
BRANCH   7  48
ATOM     48  N   UNL     1      14.693  29.457  17.488  1.00  0.00    -0.348 N 
ATOM     49  C   UNL     1      14.301  29.734  16.148  1.00  0.00     0.217 C 
ATOM     50  H   UNL     1      13.931  29.311  18.211  1.00  0.00     0.163 HD
ATOM     51  C   UNL     1      12.891  29.822  15.735  1.00  0.00     0.114 C 
ATOM     52  O   UNL     1      15.212  29.898  15.326  1.00  0.00    -0.275 OA
ENDBRANCH   7  48
ENDBRANCH   1   2
BRANCH   1  53
ATOM     53  O   UNL     1      15.605  32.642  18.271  1.00  0.00    -0.388 OA
ATOM     54  H   UNL     1      15.816  33.238  19.020  1.00  0.00     0.211 HD
ENDBRANCH   1  53
BRANCH   1  55
ATOM     55  C   UNL     1      17.989  32.265  18.009  1.00  0.00     0.165 C 
BRANCH  55  56
ATOM     56  O   UNL     1      17.924  33.577  18.486  1.00  0.00    -0.388 OA
ATOM     57  H   UNL     1      17.293  33.672  19.216  1.00  0.00     0.211 HD
ENDBRANCH  55  56
BRANCH  55  58
ATOM     58  C   UNL     1      18.693  32.207  16.675  1.00  0.00     0.154 C 
BRANCH  58  59
ATOM     59  N   UNL     1      19.985  31.606  16.710  1.00  0.00    -0.319 N 
ATOM     60  C   UNL     1      20.222  30.211  16.598  1.00  0.00     0.407 C 
ATOM     61  H   UNL     1      20.835  32.221  16.826  1.00  0.00     0.167 HD
ATOM     62  O   UNL     1      19.227  29.457  16.463  1.00  0.00    -0.225 OA
BRANCH  60  63
ATOM     63  O   UNL     1      21.474  29.645  16.632  1.00  0.00    -0.443 OA
BRANCH  63  64
ATOM     64  C   UNL     1      22.159  29.222  15.454  1.00  0.00     0.294 C 
BRANCH  64  65
ATOM     65  C   UNL     1      22.267  27.758  15.390  1.00  0.00     0.120 A 
ATOM     66  C   UNL     1      23.291  27.090  14.760  1.00  0.00     0.138 A 
ATOM     67  N   UNL     1      21.466  26.810  15.891  1.00  0.00    -0.132 NA
ATOM     68  N   UNL     1      23.093  25.777  14.888  1.00  0.00    -0.248 N 
ATOM     69  N   UNL     1      21.955  25.639  15.594  1.00  0.00    -0.067 NA
BRANCH  68  70
ATOM     70  C   UNL     1      23.876  24.659  14.396  1.00  0.00     0.185 C 
BRANCH  70  71
ATOM     71  C   UNL     1      23.194  23.953  13.307  1.00  0.00     0.016 A 
ATOM     72  C   UNL     1      22.791  22.667  13.423  1.00  0.00     0.135 A 
ATOM     73  C   UNL     1      22.961  24.676  12.134  1.00  0.00     0.009 A 
ATOM     74  C   UNL     1      22.134  22.067  12.348  1.00  0.00     0.047 A 
ATOM     75  C   UNL     1      22.315  24.076  11.084  1.00  0.00     0.001 A 
ATOM     76  C   UNL     1      21.896  22.769  11.182  1.00  0.00     0.004 A 
BRANCH  72  77
ATOM     77  O   UNL     1      23.001  21.912  14.559  1.00  0.00    -0.426 OA
BRANCH  77  78
ATOM     78  C   UNL     1      23.839  20.797  14.457  1.00  0.00     0.308 C 
ATOM     79  O   UNL     1      23.364  19.665  14.692  1.00  0.00    -0.252 OA
ATOM     80  C   UNL     1      25.245  20.972  14.081  1.00  0.00     0.139 C 
ENDBRANCH  77  78
ENDBRANCH  72  77
ENDBRANCH  70  71
ENDBRANCH  68  70
ENDBRANCH  64  65
ENDBRANCH  63  64
ENDBRANCH  60  63
ENDBRANCH  58  59
ENDBRANCH  55  58
ENDBRANCH   1  55
TORSDOF 33
