REMARK VINA RESULT:    -6.615      1.622      2.350
REMARK INTER + INTRA:         -22.905
REMARK INTER:                 -15.049
REMARK INTRA:                  -7.855
REMARK UNBOUND:                -5.463
REMARK SMILES CC(=O)N[C@@H]1[C@@H](O)C[C@](OC[C@H]2O[C@@H](O[C@H]3[C@H](O)[C@@H](O)[C@H](OCCN=[N+]=[N-])O[C@@H]3CO)[C@H](O)[C@@H](O)[C@H]2O)(C(=O)O)O[C@H]1C(O)[C@H](O)CNC(=O)OCc1cn(COCc2ccccc2)nn1
REMARK SMILES IDX 43 1 42 2 9 3 8 4 41 5 6 6 5 7 10 8 11 9 12 10 14 11 13 12
REMARK SMILES IDX 32 13 34 14 36 15 15 16 16 17 29 18 28 19 21 20 17 21 19 22
REMARK SMILES IDX 30 23 31 24 22 26 23 27 24 28 25 29 26 30 27 31 18 32 20 34
REMARK SMILES IDX 33 36 35 38 37 40 38 42 39 43 40 44 7 46 4 48 2 49 1 51 3 52
REMARK SMILES IDX 44 53 45 55 46 56 47 58 48 59 49 60 50 62 51 63 52 64 53 65
REMARK SMILES IDX 54 66 66 67 55 68 65 69 56 70 57 71 58 72 59 73 60 74 64 75
REMARK SMILES IDX 61 76 63 77 62 78
REMARK H PARENT 31 25 18 33 20 35 33 37 35 39 37 41 40 45 7 47 4 50 44 54
REMARK H PARENT 46 57 48 61
REMARK Flexibility Score: inf
ROOT
ATOM      1  C   UNL     1      15.142  33.183  22.016  1.00  0.00     0.176 C 
ENDROOT
BRANCH   1   2
ATOM      2  C   UNL     1      14.522  31.771  22.113  1.00  0.00     0.178 C 
ATOM      3  C   UNL     1      15.228  29.590  21.728  1.00  0.00     0.272 C 
ATOM      4  C   UNL     1      13.879  29.279  21.087  1.00  0.00     0.113 C 
ATOM      5  O   UNL     1      15.445  30.915  21.510  1.00  0.00    -0.332 OA
ATOM      6  C   UNL     1      13.371  30.500  20.357  1.00  0.00     0.145 C 
ATOM      7  C   UNL     1      13.225  31.671  21.376  1.00  0.00     0.142 C 
BRANCH   3   8
ATOM      8  O   UNL     1      16.232  28.806  21.127  1.00  0.00    -0.338 OA
BRANCH   8   9
ATOM      9  C   UNL     1      15.889  28.080  20.053  1.00  0.00     0.199 C 
BRANCH   9  10
ATOM     10  C   UNL     1      16.728  28.468  18.858  1.00  0.00     0.179 C 
ATOM     11  C   UNL     1      17.000  29.868  17.097  1.00  0.00     0.282 C 
ATOM     12  O   UNL     1      16.183  29.601  18.220  1.00  0.00    -0.341 OA
ATOM     13  C   UNL     1      18.315  30.501  17.539  1.00  0.00     0.202 C 
ATOM     14  C   UNL     1      18.427  30.208  19.043  1.00  0.00     0.179 C 
ATOM     15  C   UNL     1      18.154  28.725  19.182  1.00  0.00     0.177 C 
BRANCH  11  16
ATOM     16  O   UNL     1      16.343  30.772  16.309  1.00  0.00    -0.341 OA
BRANCH  16  17
ATOM     17  C   UNL     1      15.216  30.260  15.681  1.00  0.00     0.184 C 
ATOM     18  C   UNL     1      15.384  30.079  14.214  1.00  0.00     0.178 C 
ATOM     19  O   UNL     1      15.387  31.292  13.595  1.00  0.00    -0.341 OA
ATOM     20  C   UNL     1      14.188  31.964  13.618  1.00  0.00     0.281 C 
ATOM     21  C   UNL     1      14.045  31.122  16.005  1.00  0.00     0.180 C 
ATOM     22  C   UNL     1      13.433  31.880  14.886  1.00  0.00     0.202 C 
BRANCH  18  23
ATOM     23  C   UNL     1      14.338  29.121  13.694  1.00  0.00     0.191 C 
BRANCH  23  24
ATOM     24  O   UNL     1      14.028  28.142  14.646  1.00  0.00    -0.394 OA
ATOM     25  H   UNL     1      13.068  28.204  14.881  1.00  0.00     0.210 HD
ENDBRANCH  23  24
ENDBRANCH  18  23
BRANCH  20  26
ATOM     26  O   UNL     1      13.406  31.435  12.586  1.00  0.00    -0.350 OA
BRANCH  26  27
ATOM     27  C   UNL     1      12.081  31.783  12.647  1.00  0.00     0.169 C 
BRANCH  27  28
ATOM     28  C   UNL     1      11.300  30.654  11.995  1.00  0.00     0.119 C 
BRANCH  28  29
ATOM     29  N   UNL     1      10.313  30.089  12.886  1.00  0.00    -0.092 NA
ATOM     30  N   UNL     1      10.613  29.819  14.063  1.00  0.00     0.001 N 
ATOM     31  N   UNL     1      11.062  29.090  14.968  1.00  0.00    -0.003 NA
ENDBRANCH  28  29
ENDBRANCH  27  28
ENDBRANCH  26  27
ENDBRANCH  20  26
BRANCH  21  32
ATOM     32  O   UNL     1      13.009  30.328  16.570  1.00  0.00    -0.387 OA
ATOM     33  H   UNL     1      13.257  29.392  16.626  1.00  0.00     0.211 HD
ENDBRANCH  21  32
BRANCH  22  34
ATOM     34  O   UNL     1      13.239  33.216  15.327  1.00  0.00    -0.385 OA
ATOM     35  H   UNL     1      14.035  33.719  15.014  1.00  0.00     0.211 HD
ENDBRANCH  22  34
ENDBRANCH  16  17
ENDBRANCH  11  16
BRANCH  13  36
ATOM     36  O   UNL     1      19.416  29.878  16.953  1.00  0.00    -0.385 OA
ATOM     37  H   UNL     1      19.509  28.989  17.377  1.00  0.00     0.211 HD
ENDBRANCH  13  36
BRANCH  14  38
ATOM     38  O   UNL     1      17.379  30.906  19.628  1.00  0.00    -0.387 OA
ATOM     39  H   UNL     1      16.499  30.465  19.519  1.00  0.00     0.211 HD
ENDBRANCH  14  38
BRANCH  15  40
ATOM     40  O   UNL     1      18.555  28.230  20.413  1.00  0.00    -0.387 OA
ATOM     41  H   UNL     1      18.234  27.309  20.589  1.00  0.00     0.211 HD
ENDBRANCH  15  40
ENDBRANCH   9  10
ENDBRANCH   8   9
ENDBRANCH   3   8
BRANCH   3  42
ATOM     42  C   UNL     1      15.274  29.258  23.152  1.00  0.00     0.364 C 
ATOM     43  O   UNL     1      16.296  29.127  23.875  1.00  0.00    -0.246 OA
BRANCH  42  44
ATOM     44  O   UNL     1      14.055  29.050  23.841  1.00  0.00    -0.477 OA
ATOM     45  H   UNL     1      14.018  29.114  24.858  1.00  0.00     0.296 HD
ENDBRANCH  42  44
ENDBRANCH   3  42
BRANCH   6  46
ATOM     46  O   UNL     1      14.115  30.962  19.329  1.00  0.00    -0.391 OA
ATOM     47  H   UNL     1      14.351  30.245  18.662  1.00  0.00     0.211 HD
ENDBRANCH   6  46
BRANCH   7  48
ATOM     48  N   UNL     1      12.128  31.258  22.218  1.00  0.00    -0.348 N 
ATOM     49  C   UNL     1      11.292  32.247  22.778  1.00  0.00     0.217 C 
ATOM     50  H   UNL     1      11.959  30.269  22.411  1.00  0.00     0.163 HD
ATOM     51  C   UNL     1      10.146  31.846  23.639  1.00  0.00     0.114 C 
ATOM     52  O   UNL     1      11.499  33.481  22.555  1.00  0.00    -0.275 OA
ENDBRANCH   7  48
ENDBRANCH   1   2
BRANCH   1  53
ATOM     53  O   UNL     1      15.868  33.193  20.764  1.00  0.00    -0.388 OA
ATOM     54  H   UNL     1      16.465  32.388  20.802  1.00  0.00     0.211 HD
ENDBRANCH   1  53
BRANCH   1  55
ATOM     55  C   UNL     1      16.146  33.503  23.066  1.00  0.00     0.165 C 
BRANCH  55  56
ATOM     56  O   UNL     1      16.764  34.720  23.002  1.00  0.00    -0.388 OA
ATOM     57  H   UNL     1      16.460  35.301  22.270  1.00  0.00     0.211 HD
ENDBRANCH  55  56
BRANCH  55  58
ATOM     58  C   UNL     1      17.039  32.442  23.582  1.00  0.00     0.154 C 
BRANCH  58  59
ATOM     59  N   UNL     1      17.919  31.790  22.654  1.00  0.00    -0.319 N 
ATOM     60  C   UNL     1      18.972  30.911  23.022  1.00  0.00     0.407 C 
ATOM     61  H   UNL     1      17.798  31.940  21.628  1.00  0.00     0.167 HD
ATOM     62  O   UNL     1      19.176  30.651  24.213  1.00  0.00    -0.225 OA
BRANCH  60  63
ATOM     63  O   UNL     1      19.826  30.292  22.102  1.00  0.00    -0.443 OA
BRANCH  63  64
ATOM     64  C   UNL     1      21.232  30.258  22.352  1.00  0.00     0.294 C 
BRANCH  64  65
ATOM     65  C   UNL     1      21.965  29.446  21.354  1.00  0.00     0.120 A 
ATOM     66  C   UNL     1      21.608  28.161  21.003  1.00  0.00     0.141 A 
ATOM     67  N   UNL     1      23.053  29.745  20.634  1.00  0.00    -0.132 NA
ATOM     68  N   UNL     1      22.497  27.723  20.079  1.00  0.00    -0.226 N 
ATOM     69  N   UNL     1      23.360  28.708  19.878  1.00  0.00    -0.065 NA
BRANCH  68  70
ATOM     70  C   UNL     1      22.535  26.442  19.409  1.00  0.00     0.307 C 
BRANCH  70  71
ATOM     71  O   UNL     1      21.764  25.505  20.041  1.00  0.00    -0.355 OA
BRANCH  71  72
ATOM     72  C   UNL     1      22.572  24.539  20.621  1.00  0.00     0.198 C 
BRANCH  72  73
ATOM     73  C   UNL     1      22.375  24.574  22.114  1.00  0.00    -0.022 A 
ATOM     74  C   UNL     1      23.499  24.566  22.913  1.00  0.00     0.006 A 
ATOM     75  C   UNL     1      21.115  24.611  22.655  1.00  0.00     0.006 A 
ATOM     76  C   UNL     1      23.360  24.595  24.284  1.00  0.00     0.000 A 
ATOM     77  C   UNL     1      21.002  24.639  24.014  1.00  0.00     0.000 A 
ATOM     78  C   UNL     1      22.105  24.632  24.854  1.00  0.00     0.000 A 
ENDBRANCH  72  73
ENDBRANCH  71  72
ENDBRANCH  70  71
ENDBRANCH  68  70
ENDBRANCH  64  65
ENDBRANCH  63  64
ENDBRANCH  60  63
ENDBRANCH  58  59
ENDBRANCH  55  58
ENDBRANCH   1  55
TORSDOF 33
