REMARK VINA RESULT:    -5.330      5.703      9.609
REMARK INTER + INTRA:         -21.055
REMARK INTER:                 -11.207
REMARK INTRA:                  -9.848
REMARK UNBOUND:                -7.468
REMARK SMILES CC(=O)N[C@@H]1[C@@H](O)C[C@](OC[C@H]2O[C@@H](O[C@H]3[C@H](O)[C@@H](O)[C@H](OCCN=[N+]=[N-])O[C@@H]3CO)[C@H](O)[C@@H](O)[C@H]2O)(C(=O)O)O[C@H]1C(O)[C@H](O)CNC(=O)OCc1cn(CC(=O)O)nn1
REMARK SMILES IDX 9 1 8 2 6 3 5 4 42 5 41 6 10 7 11 8 12 9 14 10 13 11 32 12
REMARK SMILES IDX 34 13 36 14 15 15 16 16 29 17 28 18 21 19 17 20 19 21 30 22
REMARK SMILES IDX 31 23 22 25 23 26 24 27 25 28 26 29 27 30 18 31 20 33 33 35
REMARK SMILES IDX 35 37 37 39 38 41 39 42 40 43 7 45 43 47 44 48 45 50 46 51
REMARK SMILES IDX 47 53 48 54 49 55 50 57 51 58 52 59 53 60 54 61 61 62 55 63
REMARK SMILES IDX 60 64 56 65 57 66 58 67 59 68 4 70 2 71 1 73 3 74
REMARK H PARENT 31 24 18 32 20 34 33 36 35 38 37 40 40 44 7 46 44 49 46 52
REMARK H PARENT 48 56 59 69 4 72
REMARK Flexibility Score: inf
ROOT
ATOM      1  C   UNL     1      10.494  23.961  35.910  1.00  0.00     0.272 C 
ATOM      2  C   UNL     1       9.488  23.542  34.877  1.00  0.00     0.113 C 
ATOM      3  C   UNL     1       8.079  23.859  35.157  1.00  0.00     0.145 C 
ATOM      4  C   UNL     1       7.743  24.203  36.603  1.00  0.00     0.142 C 
ATOM      5  C   UNL     1       8.816  23.583  37.443  1.00  0.00     0.178 C 
ATOM      6  O   UNL     1       9.961  24.351  37.099  1.00  0.00    -0.332 OA
ENDROOT
BRANCH   1   7
ATOM      7  O   UNL     1      11.329  24.995  35.434  1.00  0.00    -0.338 OA
BRANCH   7   8
ATOM      8  C   UNL     1      11.003  26.241  35.875  1.00  0.00     0.199 C 
BRANCH   8   9
ATOM      9  C   UNL     1      10.291  27.011  34.751  1.00  0.00     0.179 C 
ATOM     10  C   UNL     1       9.338  29.112  34.713  1.00  0.00     0.282 C 
ATOM     11  O   UNL     1       9.249  27.774  35.212  1.00  0.00    -0.341 OA
ATOM     12  C   UNL     1      10.563  29.665  35.344  1.00  0.00     0.202 C 
ATOM     13  C   UNL     1      11.746  29.062  34.570  1.00  0.00     0.179 C 
ATOM     14  C   UNL     1      11.308  27.775  33.926  1.00  0.00     0.177 C 
BRANCH  10  15
ATOM     15  O   UNL     1       8.153  29.731  34.980  1.00  0.00    -0.341 OA
BRANCH  15  16
ATOM     16  C   UNL     1       7.037  28.908  34.823  1.00  0.00     0.184 C 
ATOM     17  C   UNL     1       6.137  29.526  33.794  1.00  0.00     0.178 C 
ATOM     18  O   UNL     1       4.826  29.211  34.027  1.00  0.00    -0.341 OA
ATOM     19  C   UNL     1       4.562  27.952  34.503  1.00  0.00     0.281 C 
ATOM     20  C   UNL     1       6.264  28.780  36.118  1.00  0.00     0.180 C 
ATOM     21  C   UNL     1       5.177  27.730  35.875  1.00  0.00     0.202 C 
BRANCH  17  22
ATOM     22  C   UNL     1       6.541  29.033  32.417  1.00  0.00     0.191 C 
BRANCH  22  23
ATOM     23  O   UNL     1       7.384  27.939  32.630  1.00  0.00    -0.394 OA
ATOM     24  H   UNL     1       6.882  27.175  32.990  1.00  0.00     0.210 HD
ENDBRANCH  22  23
ENDBRANCH  17  22
BRANCH  19  25
ATOM     25  O   UNL     1       4.932  26.995  33.598  1.00  0.00    -0.350 OA
BRANCH  25  26
ATOM     26  C   UNL     1       3.892  26.266  33.081  1.00  0.00     0.169 C 
BRANCH  26  27
ATOM     27  C   UNL     1       4.151  24.786  32.973  1.00  0.00     0.119 C 
BRANCH  27  28
ATOM     28  N   UNL     1       4.527  24.221  34.271  1.00  0.00    -0.092 NA
ATOM     29  N   UNL     1       4.111  23.066  34.494  1.00  0.00     0.001 N 
ATOM     30  N   UNL     1       3.595  22.152  35.165  1.00  0.00    -0.003 NA
ENDBRANCH  27  28
ENDBRANCH  26  27
ENDBRANCH  25  26
ENDBRANCH  19  25
BRANCH  20  31
ATOM     31  O   UNL     1       7.024  28.339  37.172  1.00  0.00    -0.387 OA
ATOM     32  H   UNL     1       7.648  27.624  36.971  1.00  0.00     0.211 HD
ENDBRANCH  20  31
BRANCH  21  33
ATOM     33  O   UNL     1       4.191  27.795  36.841  1.00  0.00    -0.385 OA
ATOM     34  H   UNL     1       4.503  27.434  37.710  1.00  0.00     0.211 HD
ENDBRANCH  21  33
ENDBRANCH  15  16
ENDBRANCH  10  15
BRANCH  12  35
ATOM     35  O   UNL     1      10.650  31.022  35.462  1.00  0.00    -0.385 OA
ATOM     36  H   UNL     1      11.577  31.308  35.443  1.00  0.00     0.211 HD
ENDBRANCH  12  35
BRANCH  13  37
ATOM     37  O   UNL     1      12.757  28.836  35.491  1.00  0.00    -0.387 OA
ATOM     38  H   UNL     1      12.466  28.998  36.432  1.00  0.00     0.211 HD
ENDBRANCH  13  37
BRANCH  14  39
ATOM     39  O   UNL     1      12.449  26.982  33.814  1.00  0.00    -0.387 OA
ATOM     40  H   UNL     1      13.254  27.508  33.594  1.00  0.00     0.211 HD
ENDBRANCH  14  39
ENDBRANCH   8   9
ENDBRANCH   7   8
ENDBRANCH   1   7
BRANCH   1  41
ATOM     41  C   UNL     1      11.404  22.819  36.153  1.00  0.00     0.364 C 
ATOM     42  O   UNL     1      12.642  22.940  36.077  1.00  0.00    -0.246 OA
BRANCH  41  43
ATOM     43  O   UNL     1      10.924  21.561  36.478  1.00  0.00    -0.477 OA
ATOM     44  H   UNL     1      10.502  20.930  35.785  1.00  0.00     0.296 HD
ENDBRANCH  41  43
ENDBRANCH   1  41
BRANCH   3  45
ATOM     45  O   UNL     1       7.503  24.768  34.263  1.00  0.00    -0.391 OA
ATOM     46  H   UNL     1       7.216  24.370  33.424  1.00  0.00     0.211 HD
ENDBRANCH   3  45
BRANCH   5  47
ATOM     47  C   UNL     1       8.641  23.622  38.922  1.00  0.00     0.176 C 
BRANCH  47  48
ATOM     48  O   UNL     1       8.944  24.977  39.280  1.00  0.00    -0.388 OA
ATOM     49  H   UNL     1       9.895  25.174  39.039  1.00  0.00     0.211 HD
ENDBRANCH  47  48
BRANCH  47  50
ATOM     50  C   UNL     1       9.586  22.721  39.686  1.00  0.00     0.165 C 
BRANCH  50  51
ATOM     51  O   UNL     1       8.833  21.946  40.606  1.00  0.00    -0.388 OA
ATOM     52  H   UNL     1       8.644  21.087  40.171  1.00  0.00     0.211 HD
ENDBRANCH  50  51
BRANCH  50  53
ATOM     53  C   UNL     1      10.642  23.455  40.416  1.00  0.00     0.154 C 
BRANCH  53  54
ATOM     54  N   UNL     1      11.831  23.640  39.635  1.00  0.00    -0.319 N 
ATOM     55  C   UNL     1      12.370  24.861  39.174  1.00  0.00     0.407 C 
ATOM     56  H   UNL     1      12.424  22.784  39.336  1.00  0.00     0.167 HD
ATOM     57  O   UNL     1      11.823  25.941  39.410  1.00  0.00    -0.225 OA
BRANCH  55  58
ATOM     58  O   UNL     1      13.550  24.916  38.423  1.00  0.00    -0.443 OA
BRANCH  58  59
ATOM     59  C   UNL     1      14.433  26.020  38.531  1.00  0.00     0.294 C 
BRANCH  59  60
ATOM     60  C   UNL     1      14.850  26.493  37.175  1.00  0.00     0.120 A 
ATOM     61  C   UNL     1      15.710  27.546  36.895  1.00  0.00     0.139 A 
ATOM     62  N   UNL     1      14.482  26.003  35.982  1.00  0.00    -0.132 NA
ATOM     63  N   UNL     1      15.825  27.647  35.558  1.00  0.00    -0.241 N 
ATOM     64  N   UNL     1      15.069  26.700  35.025  1.00  0.00    -0.066 NA
BRANCH  63  65
ATOM     65  C   UNL     1      16.628  28.610  34.798  1.00  0.00     0.268 C 
BRANCH  65  66
ATOM     66  C   UNL     1      16.192  28.558  33.391  1.00  0.00     0.325 C 
ATOM     67  O   UNL     1      17.018  28.378  32.485  1.00  0.00    -0.250 OA
BRANCH  66  68
ATOM     68  O   UNL     1      14.855  28.712  33.084  1.00  0.00    -0.480 OA
ATOM     69  H   UNL     1      14.509  29.447  32.503  1.00  0.00     0.296 HD
ENDBRANCH  66  68
ENDBRANCH  65  66
ENDBRANCH  63  65
ENDBRANCH  59  60
ENDBRANCH  58  59
ENDBRANCH  55  58
ENDBRANCH  53  54
ENDBRANCH  50  53
ENDBRANCH  47  50
ENDBRANCH   5  47
BRANCH   4  70
ATOM     70  N   UNL     1       6.392  23.883  36.911  1.00  0.00    -0.348 N 
ATOM     71  C   UNL     1       5.588  24.692  37.787  1.00  0.00     0.217 C 
ATOM     72  H   UNL     1       5.929  23.052  36.494  1.00  0.00     0.163 HD
ATOM     73  C   UNL     1       4.189  24.284  38.050  1.00  0.00     0.114 C 
ATOM     74  O   UNL     1       6.056  25.724  38.321  1.00  0.00    -0.275 OA
ENDBRANCH   4  70
TORSDOF 32
