REMARK VINA RESULT:    -5.659      3.625     10.855
REMARK INTER + INTRA:         -20.965
REMARK INTER:                 -13.343
REMARK INTRA:                  -7.623
REMARK UNBOUND:                -7.035
REMARK SMILES CC(=O)N[C@@H]1[C@@H](O)C[C@](OC[C@H]2O[C@@H](O[C@H]3[C@H](O)[C@@H](O)[C@H](OCCN=[N+]=[N-])O[C@@H]3CO)[C@H](O)[C@@H](O)[C@H]2O)(C(=O)O)O[C@H]1C(O)[C@H](O)CNC(=O)OCc1cn([C@@H]2C[C@H]3CC[C@@H](C2)N3C)nn1
REMARK SMILES IDX 9 1 8 2 6 3 5 4 42 5 41 6 10 7 11 8 12 9 14 10 13 11 32 12
REMARK SMILES IDX 34 13 36 14 15 15 16 16 29 17 28 18 21 19 17 20 19 21 30 22
REMARK SMILES IDX 31 23 22 25 23 26 24 27 25 28 26 29 27 30 18 31 20 33 33 35
REMARK SMILES IDX 35 37 37 39 38 41 39 42 40 43 7 45 43 47 44 48 45 50 46 51
REMARK SMILES IDX 47 53 48 54 49 55 50 57 51 58 52 59 53 60 54 61 66 62 55 63
REMARK SMILES IDX 65 64 56 65 62 66 57 67 61 68 58 69 63 70 60 71 59 72 64 73
REMARK SMILES IDX 4 74 2 75 1 77 3 78
REMARK H PARENT 31 24 18 32 20 34 33 36 35 38 37 40 40 44 7 46 44 49 46 52
REMARK H PARENT 48 56 4 76
REMARK Flexibility Score: inf
ROOT
ATOM      1  C   UNL     1      15.283  32.409  16.700  1.00  0.00     0.272 C 
ATOM      2  C   UNL     1      14.029  32.387  15.921  1.00  0.00     0.113 C 
ATOM      3  C   UNL     1      13.078  31.304  16.409  1.00  0.00     0.145 C 
ATOM      4  C   UNL     1      13.821  29.947  16.430  1.00  0.00     0.142 C 
ATOM      5  C   UNL     1      15.191  30.089  16.961  1.00  0.00     0.178 C 
ATOM      6  O   UNL     1      15.290  31.308  17.600  1.00  0.00    -0.332 OA
ENDROOT
BRANCH   1   7
ATOM      7  O   UNL     1      15.693  33.508  17.367  1.00  0.00    -0.338 OA
BRANCH   7   8
ATOM      8  C   UNL     1      15.368  33.976  18.528  1.00  0.00     0.199 C 
BRANCH   8   9
ATOM      9  C   UNL     1      16.498  34.362  19.470  1.00  0.00     0.179 C 
ATOM     10  C   UNL     1      16.636  33.393  21.608  1.00  0.00     0.282 C 
ATOM     11  O   UNL     1      15.996  34.265  20.776  1.00  0.00    -0.341 OA
ATOM     12  C   UNL     1      18.104  33.631  21.730  1.00  0.00     0.202 C 
ATOM     13  C   UNL     1      18.691  33.662  20.362  1.00  0.00     0.179 C 
ATOM     14  C   UNL     1      17.699  33.493  19.266  1.00  0.00     0.177 C 
BRANCH  10  15
ATOM     15  O   UNL     1      16.293  32.069  21.398  1.00  0.00    -0.341 OA
BRANCH  15  16
ATOM     16  C   UNL     1      15.962  31.377  22.545  1.00  0.00     0.184 C 
ATOM     17  C   UNL     1      16.679  30.090  22.650  1.00  0.00     0.178 C 
ATOM     18  O   UNL     1      16.471  29.467  23.885  1.00  0.00    -0.341 OA
ATOM     19  C   UNL     1      15.397  30.002  24.598  1.00  0.00     0.281 C 
ATOM     20  C   UNL     1      14.453  30.967  22.452  1.00  0.00     0.180 C 
ATOM     21  C   UNL     1      14.174  30.276  23.747  1.00  0.00     0.202 C 
BRANCH  17  22
ATOM     22  C   UNL     1      18.130  30.082  22.319  1.00  0.00     0.191 C 
BRANCH  22  23
ATOM     23  O   UNL     1      18.317  30.039  20.939  1.00  0.00    -0.394 OA
ATOM     24  H   UNL     1      18.672  29.150  20.691  1.00  0.00     0.210 HD
ENDBRANCH  22  23
ENDBRANCH  17  22
BRANCH  19  25
ATOM     25  O   UNL     1      15.771  31.038  25.408  1.00  0.00    -0.350 OA
BRANCH  25  26
ATOM     26  C   UNL     1      15.287  31.122  26.665  1.00  0.00     0.169 C 
BRANCH  26  27
ATOM     27  C   UNL     1      14.634  32.407  27.017  1.00  0.00     0.119 C 
BRANCH  27  28
ATOM     28  N   UNL     1      13.226  32.458  26.820  1.00  0.00    -0.092 NA
ATOM     29  N   UNL     1      12.690  32.588  25.715  1.00  0.00     0.001 N 
ATOM     30  N   UNL     1      11.956  33.123  24.879  1.00  0.00    -0.003 NA
ENDBRANCH  27  28
ENDBRANCH  26  27
ENDBRANCH  25  26
ENDBRANCH  19  25
BRANCH  20  31
ATOM     31  O   UNL     1      13.649  32.071  22.326  1.00  0.00    -0.387 OA
ATOM     32  H   UNL     1      13.403  32.218  21.373  1.00  0.00     0.211 HD
ENDBRANCH  20  31
BRANCH  21  33
ATOM     33  O   UNL     1      13.508  29.066  23.526  1.00  0.00    -0.385 OA
ATOM     34  H   UNL     1      13.056  29.115  22.672  1.00  0.00     0.211 HD
ENDBRANCH  21  33
ENDBRANCH  15  16
ENDBRANCH  10  15
BRANCH  12  35
ATOM     35  O   UNL     1      18.321  34.869  22.371  1.00  0.00    -0.385 OA
ATOM     36  H   UNL     1      19.298  34.947  22.537  1.00  0.00     0.211 HD
ENDBRANCH  12  35
BRANCH  13  37
ATOM     37  O   UNL     1      19.683  32.662  20.218  1.00  0.00    -0.387 OA
ATOM     38  H   UNL     1      19.810  32.184  21.073  1.00  0.00     0.211 HD
ENDBRANCH  13  37
BRANCH  14  39
ATOM     39  O   UNL     1      17.395  32.136  19.099  1.00  0.00    -0.387 OA
ATOM     40  H   UNL     1      16.430  32.043  19.348  1.00  0.00     0.211 HD
ENDBRANCH  14  39
ENDBRANCH   8   9
ENDBRANCH   7   8
ENDBRANCH   1   7
BRANCH   1  41
ATOM     41  C   UNL     1      16.415  32.141  15.728  1.00  0.00     0.364 C 
ATOM     42  O   UNL     1      17.621  32.267  15.993  1.00  0.00    -0.246 OA
BRANCH  41  43
ATOM     43  O   UNL     1      16.120  31.716  14.429  1.00  0.00    -0.477 OA
ATOM     44  H   UNL     1      16.782  31.898  13.666  1.00  0.00     0.296 HD
ENDBRANCH  41  43
ENDBRANCH   1  41
BRANCH   3  45
ATOM     45  O   UNL     1      12.473  31.580  17.615  1.00  0.00    -0.391 OA
ATOM     46  H   UNL     1      12.721  32.516  17.881  1.00  0.00     0.211 HD
ENDBRANCH   3  45
BRANCH   5  47
ATOM     47  C   UNL     1      15.428  29.100  18.163  1.00  0.00     0.176 C 
BRANCH  47  48
ATOM     48  O   UNL     1      15.715  30.013  19.268  1.00  0.00    -0.388 OA
ATOM     49  H   UNL     1      16.704  30.180  19.205  1.00  0.00     0.211 HD
ENDBRANCH  47  48
BRANCH  47  50
ATOM     50  C   UNL     1      16.713  28.351  18.037  1.00  0.00     0.165 C 
BRANCH  50  51
ATOM     51  O   UNL     1      17.191  27.994  19.276  1.00  0.00    -0.388 OA
ATOM     52  H   UNL     1      16.786  28.441  20.037  1.00  0.00     0.211 HD
ENDBRANCH  50  51
BRANCH  50  53
ATOM     53  C   UNL     1      17.725  28.947  17.133  1.00  0.00     0.154 C 
BRANCH  53  54
ATOM     54  N   UNL     1      19.047  28.374  17.389  1.00  0.00    -0.319 N 
ATOM     55  C   UNL     1      20.070  29.138  17.960  1.00  0.00     0.407 C 
ATOM     56  H   UNL     1      19.200  27.386  17.137  1.00  0.00     0.167 HD
ATOM     57  O   UNL     1      19.832  30.347  18.254  1.00  0.00    -0.225 OA
BRANCH  55  58
ATOM     58  O   UNL     1      21.339  28.633  18.220  1.00  0.00    -0.443 OA
BRANCH  58  59
ATOM     59  C   UNL     1      21.946  28.815  19.494  1.00  0.00     0.294 C 
BRANCH  59  60
ATOM     60  C   UNL     1      21.555  27.692  20.401  1.00  0.00     0.120 A 
ATOM     61  C   UNL     1      22.284  26.558  20.688  1.00  0.00     0.138 A 
ATOM     62  N   UNL     1      20.428  27.577  21.095  1.00  0.00    -0.132 NA
ATOM     63  N   UNL     1      21.592  25.789  21.540  1.00  0.00    -0.249 N 
ATOM     64  N   UNL     1      20.445  26.455  21.769  1.00  0.00    -0.067 NA
BRANCH  63  65
ATOM     65  C   UNL     1      21.920  24.516  22.135  1.00  0.00     0.112 C 
ATOM     66  C   UNL     1      23.385  24.335  22.407  1.00  0.00     0.046 C 
ATOM     67  C   UNL     1      21.217  24.442  23.499  1.00  0.00     0.046 C 
ATOM     68  C   UNL     1      23.833  25.227  23.534  1.00  0.00     0.058 C 
ATOM     69  C   UNL     1      21.760  25.523  24.412  1.00  0.00     0.058 C 
ATOM     70  N   UNL     1      22.805  26.246  23.708  1.00  0.00    -0.300 NA
ATOM     71  C   UNL     1      23.841  24.511  24.859  1.00  0.00     0.021 C 
ATOM     72  C   UNL     1      22.555  24.891  25.538  1.00  0.00     0.021 C 
ATOM     73  C   UNL     1      23.363  27.305  24.492  1.00  0.00     0.105 C 
ENDBRANCH  63  65
ENDBRANCH  59  60
ENDBRANCH  58  59
ENDBRANCH  55  58
ENDBRANCH  53  54
ENDBRANCH  50  53
ENDBRANCH  47  50
ENDBRANCH   5  47
BRANCH   4  74
ATOM     74  N   UNL     1      13.719  29.388  15.076  1.00  0.00    -0.348 N 
ATOM     75  C   UNL     1      12.508  28.727  14.641  1.00  0.00     0.217 C 
ATOM     76  H   UNL     1      14.475  29.426  14.366  1.00  0.00     0.163 HD
ATOM     77  C   UNL     1      12.326  28.144  13.309  1.00  0.00     0.114 C 
ATOM     78  O   UNL     1      11.580  28.667  15.475  1.00  0.00    -0.275 OA
ENDBRANCH   4  74
TORSDOF 30
