REMARK VINA RESULT:    -6.355      6.362     17.175
REMARK INTER + INTRA:         -24.252
REMARK INTER:                 -17.024
REMARK INTRA:                  -7.228
REMARK UNBOUND:                -7.494
REMARK SMILES CC(=O)N[C@@H]1[C@@H](O)C[C@](OC[C@H]2O[C@@H](O[C@H]3[C@H](O)[C@@H](O)[C@H](OCCN=[N+]=[N-])O[C@@H]3CO)[C@H](O)[C@@H](O)[C@H]2O)(C(=O)O)O[C@H]1C(O)[C@H](O)CNC(=O)OCc1cn(C(C)CC(=O)c2ccccc2)nn1
REMARK SMILES IDX 43 1 42 2 9 3 8 4 41 5 6 6 5 7 10 8 11 9 12 10 14 11 13 12
REMARK SMILES IDX 32 13 34 14 36 15 15 16 16 17 29 18 28 19 21 20 17 21 19 22
REMARK SMILES IDX 30 23 31 24 22 26 23 27 24 28 25 29 26 30 27 31 18 32 20 34
REMARK SMILES IDX 33 36 35 38 37 40 38 42 39 43 40 44 7 46 4 48 2 49 1 51 3 52
REMARK SMILES IDX 44 53 45 55 46 56 47 58 48 59 49 60 50 62 51 63 52 64 53 65
REMARK SMILES IDX 54 66 68 67 55 68 67 69 56 70 57 71 58 72 59 73 60 74 61 75
REMARK SMILES IDX 62 76 66 77 63 78 65 79 64 80
REMARK H PARENT 31 25 18 33 20 35 33 37 35 39 37 41 40 45 7 47 4 50 44 54
REMARK H PARENT 46 57 48 61
REMARK Flexibility Score: inf
ROOT
ATOM      1  C   UNL     1      25.590  24.675  22.646  1.00  0.00     0.176 C 
ENDROOT
BRANCH   1   2
ATOM      2  C   UNL     1      24.308  24.147  22.174  1.00  0.00     0.178 C 
ATOM      3  C   UNL     1      23.388  25.051  20.199  1.00  0.00     0.272 C 
ATOM      4  C   UNL     1      21.980  24.854  20.649  1.00  0.00     0.113 C 
ATOM      5  O   UNL     1      24.122  23.996  20.857  1.00  0.00    -0.332 OA
ATOM      6  C   UNL     1      21.915  24.425  22.102  1.00  0.00     0.145 C 
ATOM      7  C   UNL     1      23.117  24.861  22.852  1.00  0.00     0.142 C 
BRANCH   3   8
ATOM      8  O   UNL     1      24.042  26.156  20.403  1.00  0.00    -0.338 OA
BRANCH   8   9
ATOM      9  C   UNL     1      24.005  27.394  20.059  1.00  0.00     0.199 C 
BRANCH   9  10
ATOM     10  C   UNL     1      22.946  28.404  20.362  1.00  0.00     0.179 C 
ATOM     11  C   UNL     1      20.652  28.656  19.838  1.00  0.00     0.282 C 
ATOM     12  O   UNL     1      21.877  28.157  19.598  1.00  0.00    -0.341 OA
ATOM     13  C   UNL     1      20.220  28.397  21.243  1.00  0.00     0.202 C 
ATOM     14  C   UNL     1      21.276  28.618  22.228  1.00  0.00     0.179 C 
ATOM     15  C   UNL     1      22.694  28.730  21.780  1.00  0.00     0.177 C 
BRANCH  11  16
ATOM     16  O   UNL     1      19.797  27.986  18.921  1.00  0.00    -0.341 OA
BRANCH  16  17
ATOM     17  C   UNL     1      19.521  28.820  17.865  1.00  0.00     0.184 C 
ATOM     18  C   UNL     1      19.209  30.212  18.331  1.00  0.00     0.178 C 
ATOM     19  O   UNL     1      18.043  30.257  19.078  1.00  0.00    -0.341 OA
ATOM     20  C   UNL     1      16.920  29.739  18.512  1.00  0.00     0.281 C 
ATOM     21  C   UNL     1      18.299  28.258  17.107  1.00  0.00     0.180 C 
ATOM     22  C   UNL     1      17.060  28.381  17.915  1.00  0.00     0.202 C 
BRANCH  18  23
ATOM     23  C   UNL     1      19.175  31.193  17.176  1.00  0.00     0.191 C 
BRANCH  23  24
ATOM     24  O   UNL     1      20.236  31.019  16.297  1.00  0.00    -0.394 OA
ATOM     25  H   UNL     1      20.417  30.047  16.195  1.00  0.00     0.210 HD
ENDBRANCH  23  24
ENDBRANCH  18  23
BRANCH  20  26
ATOM     26  O   UNL     1      16.257  30.585  17.658  1.00  0.00    -0.350 OA
BRANCH  26  27
ATOM     27  C   UNL     1      14.933  30.302  17.461  1.00  0.00     0.169 C 
BRANCH  27  28
ATOM     28  C   UNL     1      14.370  30.964  16.233  1.00  0.00     0.119 C 
BRANCH  28  29
ATOM     29  N   UNL     1      13.896  29.930  15.330  1.00  0.00    -0.092 NA
ATOM     30  N   UNL     1      14.706  29.177  14.794  1.00  0.00     0.001 N 
ATOM     31  N   UNL     1      15.503  28.311  14.429  1.00  0.00    -0.003 NA
ENDBRANCH  28  29
ENDBRANCH  27  28
ENDBRANCH  26  27
ENDBRANCH  20  26
BRANCH  21  32
ATOM     32  O   UNL     1      18.199  28.829  15.845  1.00  0.00    -0.387 OA
ATOM     33  H   UNL     1      18.148  29.814  15.876  1.00  0.00     0.211 HD
ENDBRANCH  21  32
BRANCH  22  34
ATOM     34  O   UNL     1      16.934  27.353  18.851  1.00  0.00    -0.385 OA
ATOM     35  H   UNL     1      17.673  26.723  18.655  1.00  0.00     0.211 HD
ENDBRANCH  22  34
ENDBRANCH  16  17
ENDBRANCH  11  16
BRANCH  13  36
ATOM     36  O   UNL     1      19.119  29.242  21.569  1.00  0.00    -0.385 OA
ATOM     37  H   UNL     1      19.002  29.822  20.769  1.00  0.00     0.211 HD
ENDBRANCH  13  36
BRANCH  14  38
ATOM     38  O   UNL     1      21.168  27.595  23.213  1.00  0.00    -0.387 OA
ATOM     39  H   UNL     1      21.951  26.996  23.198  1.00  0.00     0.211 HD
ENDBRANCH  14  38
BRANCH  15  40
ATOM     40  O   UNL     1      23.487  28.076  22.702  1.00  0.00    -0.387 OA
ATOM     41  H   UNL     1      23.493  28.394  23.608  1.00  0.00     0.211 HD
ENDBRANCH  15  40
ENDBRANCH   9  10
ENDBRANCH   8   9
ENDBRANCH   3   8
BRANCH   3  42
ATOM     42  C   UNL     1      23.455  24.603  18.739  1.00  0.00     0.364 C 
ATOM     43  O   UNL     1      24.545  24.589  18.154  1.00  0.00    -0.246 OA
BRANCH  42  44
ATOM     44  O   UNL     1      22.318  24.214  18.069  1.00  0.00    -0.477 OA
ATOM     45  H   UNL     1      21.820  24.924  17.546  1.00  0.00     0.296 HD
ENDBRANCH  42  44
ENDBRANCH   3  42
BRANCH   6  46
ATOM     46  O   UNL     1      20.722  24.821  22.695  1.00  0.00    -0.391 OA
ATOM     47  H   UNL     1      20.882  24.881  23.696  1.00  0.00     0.211 HD
ENDBRANCH   6  46
BRANCH   7  48
ATOM     48  N   UNL     1      23.071  24.362  24.224  1.00  0.00    -0.348 N 
ATOM     49  C   UNL     1      23.110  25.213  25.361  1.00  0.00     0.217 C 
ATOM     50  H   UNL     1      23.006  23.340  24.379  1.00  0.00     0.163 HD
ATOM     51  C   UNL     1      23.065  24.707  26.734  1.00  0.00     0.114 C 
ATOM     52  O   UNL     1      23.190  26.476  25.177  1.00  0.00    -0.275 OA
ENDBRANCH   7  48
ENDBRANCH   1   2
BRANCH   1  53
ATOM     53  O   UNL     1      25.564  26.048  22.990  1.00  0.00    -0.388 OA
ATOM     54  H   UNL     1      26.434  26.431  22.659  1.00  0.00     0.211 HD
ENDBRANCH   1  53
BRANCH   1  55
ATOM     55  C   UNL     1      26.796  24.497  21.748  1.00  0.00     0.165 C 
BRANCH  55  56
ATOM     56  O   UNL     1      26.675  25.048  20.513  1.00  0.00    -0.388 OA
ATOM     57  H   UNL     1      25.722  25.164  20.289  1.00  0.00     0.211 HD
ENDBRANCH  55  56
BRANCH  55  58
ATOM     58  C   UNL     1      27.021  22.983  21.626  1.00  0.00     0.154 C 
BRANCH  58  59
ATOM     59  N   UNL     1      28.114  22.565  22.475  1.00  0.00    -0.319 N 
ATOM     60  C   UNL     1      28.653  21.262  22.551  1.00  0.00     0.407 C 
ATOM     61  H   UNL     1      28.592  23.275  23.112  1.00  0.00     0.167 HD
ATOM     62  O   UNL     1      28.228  20.348  21.817  1.00  0.00    -0.225 OA
BRANCH  60  63
ATOM     63  O   UNL     1      29.686  20.948  23.458  1.00  0.00    -0.443 OA
BRANCH  63  64
ATOM     64  C   UNL     1      30.902  21.724  23.403  1.00  0.00     0.294 C 
BRANCH  64  65
ATOM     65  C   UNL     1      31.444  21.627  24.808  1.00  0.00     0.120 A 
ATOM     66  C   UNL     1      31.718  20.397  25.436  1.00  0.00     0.138 A 
ATOM     67  N   UNL     1      31.715  22.550  25.710  1.00  0.00    -0.132 NA
ATOM     68  N   UNL     1      32.136  20.635  26.688  1.00  0.00    -0.249 N 
ATOM     69  N   UNL     1      32.130  21.936  26.838  1.00  0.00    -0.067 NA
BRANCH  68  70
ATOM     70  C   UNL     1      32.486  19.579  27.642  1.00  0.00     0.114 C 
ATOM     71  C   UNL     1      32.981  20.213  28.904  1.00  0.00     0.034 C 
BRANCH  70  72
ATOM     72  C   UNL     1      31.355  18.616  27.800  1.00  0.00     0.108 C 
BRANCH  72  73
ATOM     73  C   UNL     1      31.932  17.290  28.147  1.00  0.00     0.164 C 
ATOM     74  O   UNL     1      31.688  16.743  29.225  1.00  0.00    -0.294 OA
BRANCH  73  75
ATOM     75  C   UNL     1      32.807  16.653  27.150  1.00  0.00     0.018 A 
ATOM     76  C   UNL     1      32.374  16.281  25.930  1.00  0.00     0.012 A 
ATOM     77  C   UNL     1      34.144  16.446  27.524  1.00  0.00     0.012 A 
ATOM     78  C   UNL     1      33.258  15.684  25.016  1.00  0.00     0.001 A 
ATOM     79  C   UNL     1      34.987  15.865  26.622  1.00  0.00     0.001 A 
ATOM     80  C   UNL     1      34.570  15.480  25.376  1.00  0.00     0.000 A 
ENDBRANCH  73  75
ENDBRANCH  72  73
ENDBRANCH  70  72
ENDBRANCH  68  70
ENDBRANCH  64  65
ENDBRANCH  63  64
ENDBRANCH  60  63
ENDBRANCH  58  59
ENDBRANCH  55  58
ENDBRANCH   1  55
TORSDOF 33
