REMARK VINA RESULT:    -6.197      6.493     17.442
REMARK INTER + INTRA:         -23.836
REMARK INTER:                 -17.217
REMARK INTRA:                  -6.618
REMARK UNBOUND:                -7.494
REMARK SMILES CC(=O)N[C@@H]1[C@@H](O)C[C@](OC[C@H]2O[C@@H](O[C@H]3[C@H](O)[C@@H](O)[C@H](OCCN=[N+]=[N-])O[C@@H]3CO)[C@H](O)[C@@H](O)[C@H]2O)(C(=O)O)O[C@H]1C(O)[C@H](O)CNC(=O)OCc1cn(C(C)CC(=O)c2ccccc2)nn1
REMARK SMILES IDX 43 1 42 2 9 3 8 4 41 5 6 6 5 7 10 8 11 9 12 10 14 11 13 12
REMARK SMILES IDX 32 13 34 14 36 15 15 16 16 17 29 18 28 19 21 20 17 21 19 22
REMARK SMILES IDX 30 23 31 24 22 26 23 27 24 28 25 29 26 30 27 31 18 32 20 34
REMARK SMILES IDX 33 36 35 38 37 40 38 42 39 43 40 44 7 46 4 48 2 49 1 51 3 52
REMARK SMILES IDX 44 53 45 55 46 56 47 58 48 59 49 60 50 62 51 63 52 64 53 65
REMARK SMILES IDX 54 66 68 67 55 68 67 69 56 70 57 71 58 72 59 73 60 74 61 75
REMARK SMILES IDX 62 76 66 77 63 78 65 79 64 80
REMARK H PARENT 31 25 18 33 20 35 33 37 35 39 37 41 40 45 7 47 4 50 44 54
REMARK H PARENT 46 57 48 61
REMARK Flexibility Score: inf
ROOT
ATOM      1  C   UNL     1      25.566  24.646  22.751  1.00  0.00     0.176 C 
ENDROOT
BRANCH   1   2
ATOM      2  C   UNL     1      24.280  24.135  22.273  1.00  0.00     0.178 C 
ATOM      3  C   UNL     1      23.378  25.056  20.297  1.00  0.00     0.272 C 
ATOM      4  C   UNL     1      21.966  24.876  20.742  1.00  0.00     0.113 C 
ATOM      5  O   UNL     1      24.096  23.990  20.955  1.00  0.00    -0.332 OA
ATOM      6  C   UNL     1      21.890  24.443  22.194  1.00  0.00     0.145 C 
ATOM      7  C   UNL     1      23.095  24.862  22.949  1.00  0.00     0.142 C 
BRANCH   3   8
ATOM      8  O   UNL     1      24.045  26.152  20.507  1.00  0.00    -0.338 OA
BRANCH   8   9
ATOM      9  C   UNL     1      24.033  27.389  20.155  1.00  0.00     0.199 C 
BRANCH   9  10
ATOM     10  C   UNL     1      22.999  28.424  20.459  1.00  0.00     0.179 C 
ATOM     11  C   UNL     1      20.715  28.738  19.921  1.00  0.00     0.282 C 
ATOM     12  O   UNL     1      21.928  28.209  19.686  1.00  0.00    -0.341 OA
ATOM     13  C   UNL     1      20.267  28.482  21.321  1.00  0.00     0.202 C 
ATOM     14  C   UNL     1      21.322  28.669  22.315  1.00  0.00     0.179 C 
ATOM     15  C   UNL     1      22.745  28.747  21.877  1.00  0.00     0.177 C 
BRANCH  11  16
ATOM     16  O   UNL     1      19.849  28.096  18.994  1.00  0.00    -0.341 OA
BRANCH  16  17
ATOM     17  C   UNL     1      19.668  28.910  17.903  1.00  0.00     0.184 C 
ATOM     18  C   UNL     1      19.199  30.277  18.308  1.00  0.00     0.178 C 
ATOM     19  O   UNL     1      17.938  30.240  18.882  1.00  0.00    -0.341 OA
ATOM     20  C   UNL     1      16.945  29.646  18.167  1.00  0.00     0.281 C 
ATOM     21  C   UNL     1      18.608  28.266  16.985  1.00  0.00     0.180 C 
ATOM     22  C   UNL     1      17.261  28.302  17.609  1.00  0.00     0.202 C 
BRANCH  18  23
ATOM     23  C   UNL     1      19.261  31.254  17.151  1.00  0.00     0.191 C 
BRANCH  23  24
ATOM     24  O   UNL     1      18.653  32.468  17.445  1.00  0.00    -0.394 OA
ATOM     25  H   UNL     1      18.302  32.438  18.375  1.00  0.00     0.210 HD
ENDBRANCH  23  24
ENDBRANCH  18  23
BRANCH  20  26
ATOM     26  O   UNL     1      16.354  30.445  17.222  1.00  0.00    -0.350 OA
BRANCH  26  27
ATOM     27  C   UNL     1      15.292  29.888  16.563  1.00  0.00     0.169 C 
BRANCH  27  28
ATOM     28  C   UNL     1      14.736  30.782  15.486  1.00  0.00     0.119 C 
BRANCH  28  29
ATOM     29  N   UNL     1      14.767  30.058  14.228  1.00  0.00    -0.092 NA
ATOM     30  N   UNL     1      14.152  29.000  14.123  1.00  0.00     0.001 N 
ATOM     31  N   UNL     1      13.374  28.057  13.972  1.00  0.00    -0.003 NA
ENDBRANCH  28  29
ENDBRANCH  27  28
ENDBRANCH  26  27
ENDBRANCH  20  26
BRANCH  21  32
ATOM     32  O   UNL     1      18.649  28.829  15.716  1.00  0.00    -0.387 OA
ATOM     33  H   UNL     1      17.903  28.529  15.143  1.00  0.00     0.211 HD
ENDBRANCH  21  32
BRANCH  22  34
ATOM     34  O   UNL     1      17.074  27.266  18.527  1.00  0.00    -0.385 OA
ATOM     35  H   UNL     1      17.737  27.427  19.246  1.00  0.00     0.211 HD
ENDBRANCH  22  34
ENDBRANCH  16  17
ENDBRANCH  11  16
BRANCH  13  36
ATOM     36  O   UNL     1      19.186  29.352  21.646  1.00  0.00    -0.385 OA
ATOM     37  H   UNL     1      19.608  30.245  21.758  1.00  0.00     0.211 HD
ENDBRANCH  13  36
BRANCH  14  38
ATOM     38  O   UNL     1      21.182  27.642  23.293  1.00  0.00    -0.387 OA
ATOM     39  H   UNL     1      22.051  27.231  23.512  1.00  0.00     0.211 HD
ENDBRANCH  14  38
BRANCH  15  40
ATOM     40  O   UNL     1      23.515  28.067  22.799  1.00  0.00    -0.387 OA
ATOM     41  H   UNL     1      23.192  27.995  23.701  1.00  0.00     0.211 HD
ENDBRANCH  15  40
ENDBRANCH   9  10
ENDBRANCH   8   9
ENDBRANCH   3   8
BRANCH   3  42
ATOM     42  C   UNL     1      23.445  24.612  18.837  1.00  0.00     0.364 C 
ATOM     43  O   UNL     1      24.492  24.767  18.198  1.00  0.00    -0.246 OA
BRANCH  42  44
ATOM     44  O   UNL     1      22.354  24.039  18.224  1.00  0.00    -0.477 OA
ATOM     45  H   UNL     1      21.828  23.354  18.755  1.00  0.00     0.296 HD
ENDBRANCH  42  44
ENDBRANCH   3  42
BRANCH   6  46
ATOM     46  O   UNL     1      20.700  24.852  22.784  1.00  0.00    -0.391 OA
ATOM     47  H   UNL     1      20.843  24.863  23.788  1.00  0.00     0.211 HD
ENDBRANCH   6  46
BRANCH   7  48
ATOM     48  N   UNL     1      23.038  24.359  24.319  1.00  0.00    -0.348 N 
ATOM     49  C   UNL     1      23.092  25.206  25.459  1.00  0.00     0.217 C 
ATOM     50  H   UNL     1      22.953  23.338  24.471  1.00  0.00     0.163 HD
ATOM     51  C   UNL     1      23.036  24.697  26.831  1.00  0.00     0.114 C 
ATOM     52  O   UNL     1      23.197  26.468  25.279  1.00  0.00    -0.275 OA
ENDBRANCH   7  48
ENDBRANCH   1   2
BRANCH   1  53
ATOM     53  O   UNL     1      25.555  26.017  23.104  1.00  0.00    -0.388 OA
ATOM     54  H   UNL     1      24.994  26.081  23.937  1.00  0.00     0.211 HD
ENDBRANCH   1  53
BRANCH   1  55
ATOM     55  C   UNL     1      26.772  24.460  21.854  1.00  0.00     0.165 C 
BRANCH  55  56
ATOM     56  O   UNL     1      26.585  24.828  20.562  1.00  0.00    -0.388 OA
ATOM     57  H   UNL     1      27.244  25.516  20.310  1.00  0.00     0.211 HD
ENDBRANCH  55  56
BRANCH  55  58
ATOM     58  C   UNL     1      27.135  22.969  21.928  1.00  0.00     0.154 C 
BRANCH  58  59
ATOM     59  N   UNL     1      28.523  22.805  22.296  1.00  0.00    -0.319 N 
ATOM     60  C   UNL     1      29.190  21.575  22.490  1.00  0.00     0.407 C 
ATOM     61  H   UNL     1      29.140  23.665  22.437  1.00  0.00     0.167 HD
ATOM     62  O   UNL     1      28.604  20.492  22.300  1.00  0.00    -0.225 OA
BRANCH  60  63
ATOM     63  O   UNL     1      30.536  21.529  22.906  1.00  0.00    -0.443 OA
BRANCH  63  64
ATOM     64  C   UNL     1      31.101  20.246  23.251  1.00  0.00     0.294 C 
BRANCH  64  65
ATOM     65  C   UNL     1      31.150  20.278  24.759  1.00  0.00     0.120 A 
ATOM     66  C   UNL     1      31.570  19.178  25.531  1.00  0.00     0.138 A 
ATOM     67  N   UNL     1      30.805  21.208  25.629  1.00  0.00    -0.132 NA
ATOM     68  N   UNL     1      31.455  19.494  26.830  1.00  0.00    -0.249 N 
ATOM     69  N   UNL     1      30.995  20.720  26.873  1.00  0.00    -0.067 NA
BRANCH  68  70
ATOM     70  C   UNL     1      31.781  18.572  27.921  1.00  0.00     0.114 C 
ATOM     71  C   UNL     1      31.302  17.203  27.556  1.00  0.00     0.034 C 
BRANCH  70  72
ATOM     72  C   UNL     1      33.224  18.679  28.288  1.00  0.00     0.108 C 
BRANCH  72  73
ATOM     73  C   UNL     1      33.309  19.335  29.620  1.00  0.00     0.164 C 
ATOM     74  O   UNL     1      33.176  20.554  29.747  1.00  0.00    -0.294 OA
BRANCH  73  75
ATOM     75  C   UNL     1      33.556  18.470  30.784  1.00  0.00     0.018 A 
ATOM     76  C   UNL     1      33.159  17.184  30.836  1.00  0.00     0.012 A 
ATOM     77  C   UNL     1      34.244  19.047  31.864  1.00  0.00     0.012 A 
ATOM     78  C   UNL     1      33.432  16.404  31.972  1.00  0.00     0.001 A 
ATOM     79  C   UNL     1      34.499  18.272  32.959  1.00  0.00     0.001 A 
ATOM     80  C   UNL     1      34.106  16.962  33.033  1.00  0.00     0.000 A 
ENDBRANCH  73  75
ENDBRANCH  72  73
ENDBRANCH  70  72
ENDBRANCH  68  70
ENDBRANCH  64  65
ENDBRANCH  63  64
ENDBRANCH  60  63
ENDBRANCH  58  59
ENDBRANCH  55  58
ENDBRANCH   1  55
TORSDOF 33
