REMARK VINA RESULT:    -5.941     17.145     21.413
REMARK INTER + INTRA:         -21.717
REMARK INTER:                 -11.138
REMARK INTRA:                 -10.579
REMARK UNBOUND:                -6.052
REMARK SMILES CC(=O)N[C@@H]1[C@@H](O)C[C@](OC[C@H]2O[C@@H](O[C@H]3[C@H](O)[C@@H](O)[C@H](OCCN=[N+]=[N-])O[C@@H]3CO)[C@H](O)[C@@H](O)[C@H]2O)(C(=O)O)O[C@H]1C(O)[C@H](O)CNC(=O)OCc1cn(CC(O)CO)nn1
REMARK SMILES IDX 43 1 42 2 9 3 8 4 41 5 6 6 5 7 10 8 11 9 12 10 14 11 13 12
REMARK SMILES IDX 32 13 34 14 36 15 15 16 16 17 29 18 28 19 21 20 17 21 19 22
REMARK SMILES IDX 30 23 31 24 22 26 23 27 24 28 25 29 26 30 27 31 18 32 20 34
REMARK SMILES IDX 33 36 35 38 37 40 38 42 39 43 40 44 7 46 4 48 2 49 1 51 3 52
REMARK SMILES IDX 44 53 45 55 46 56 47 58 48 59 49 60 50 62 51 63 52 64 53 65
REMARK SMILES IDX 54 66 62 67 55 68 61 69 56 70 57 71 58 72 59 74 60 75
REMARK H PARENT 31 25 18 33 20 35 33 37 35 39 37 41 40 45 7 47 4 50 44 54
REMARK H PARENT 46 57 48 61 58 73 60 76
REMARK Flexibility Score: inf
ROOT
ATOM      1  C   UNL     1      21.301  28.241  20.938  1.00  0.00     0.176 C 
ENDROOT
BRANCH   1   2
ATOM      2  C   UNL     1      21.063  29.427  21.891  1.00  0.00     0.178 C 
ATOM      3  C   UNL     1      19.457  31.046  22.508  1.00  0.00     0.272 C 
ATOM      4  C   UNL     1      20.479  32.140  22.370  1.00  0.00     0.113 C 
ATOM      5  O   UNL     1      19.853  29.951  21.724  1.00  0.00    -0.332 OA
ATOM      6  C   UNL     1      21.742  31.804  21.672  1.00  0.00     0.145 C 
ATOM      7  C   UNL     1      22.181  30.389  21.735  1.00  0.00     0.142 C 
BRANCH   3   8
ATOM      8  O   UNL     1      18.279  31.444  22.073  1.00  0.00    -0.338 OA
BRANCH   8   9
ATOM      9  C   UNL     1      17.031  31.240  22.119  1.00  0.00     0.199 C 
BRANCH   9  10
ATOM     10  C   UNL     1      16.236  30.522  21.078  1.00  0.00     0.179 C 
ATOM     11  C   UNL     1      15.547  30.733  18.906  1.00  0.00     0.282 C 
ATOM     12  O   UNL     1      16.576  31.068  19.780  1.00  0.00    -0.341 OA
ATOM     13  C   UNL     1      14.773  29.513  19.271  1.00  0.00     0.202 C 
ATOM     14  C   UNL     1      15.538  28.462  20.015  1.00  0.00     0.179 C 
ATOM     15  C   UNL     1      16.638  29.061  20.876  1.00  0.00     0.177 C 
BRANCH  11  16
ATOM     16  O   UNL     1      15.924  30.656  17.581  1.00  0.00    -0.341 OA
BRANCH  16  17
ATOM     17  C   UNL     1      17.257  30.301  17.390  1.00  0.00     0.184 C 
ATOM     18  C   UNL     1      18.014  31.477  16.851  1.00  0.00     0.178 C 
ATOM     19  O   UNL     1      18.519  31.270  15.577  1.00  0.00    -0.341 OA
ATOM     20  C   UNL     1      17.569  30.638  14.756  1.00  0.00     0.281 C 
ATOM     21  C   UNL     1      17.347  29.060  16.604  1.00  0.00     0.180 C 
ATOM     22  C   UNL     1      17.615  29.180  15.144  1.00  0.00     0.202 C 
BRANCH  18  23
ATOM     23  C   UNL     1      19.175  31.866  17.744  1.00  0.00     0.191 C 
BRANCH  23  24
ATOM     24  O   UNL     1      19.150  31.181  18.951  1.00  0.00    -0.394 OA
ATOM     25  H   UNL     1      18.307  31.469  19.428  1.00  0.00     0.210 HD
ENDBRANCH  23  24
ENDBRANCH  18  23
BRANCH  20  26
ATOM     26  O   UNL     1      18.000  30.824  13.453  1.00  0.00    -0.350 OA
BRANCH  26  27
ATOM     27  C   UNL     1      17.146  31.588  12.673  1.00  0.00     0.169 C 
BRANCH  27  28
ATOM     28  C   UNL     1      16.284  30.754  11.751  1.00  0.00     0.119 C 
BRANCH  28  29
ATOM     29  N   UNL     1      14.893  30.793  12.113  1.00  0.00    -0.092 NA
ATOM     30  N   UNL     1      14.355  30.076  12.948  1.00  0.00     0.001 N 
ATOM     31  N   UNL     1      13.926  29.232  13.734  1.00  0.00    -0.003 NA
ENDBRANCH  28  29
ENDBRANCH  27  28
ENDBRANCH  26  27
ENDBRANCH  20  26
BRANCH  21  32
ATOM     32  O   UNL     1      18.303  28.163  17.144  1.00  0.00    -0.387 OA
ATOM     33  H   UNL     1      18.277  28.354  18.136  1.00  0.00     0.211 HD
ENDBRANCH  21  32
BRANCH  22  34
ATOM     34  O   UNL     1      16.772  28.404  14.353  1.00  0.00    -0.385 OA
ATOM     35  H   UNL     1      16.425  28.878  13.580  1.00  0.00     0.211 HD
ENDBRANCH  22  34
ENDBRANCH  16  17
ENDBRANCH  11  16
BRANCH  13  36
ATOM     36  O   UNL     1      13.539  29.832  19.886  1.00  0.00    -0.385 OA
ATOM     37  H   UNL     1      12.785  29.351  19.498  1.00  0.00     0.211 HD
ENDBRANCH  13  36
BRANCH  14  38
ATOM     38  O   UNL     1      16.041  27.455  19.195  1.00  0.00    -0.387 OA
ATOM     39  H   UNL     1      15.442  27.341  18.419  1.00  0.00     0.211 HD
ENDBRANCH  14  38
BRANCH  15  40
ATOM     40  O   UNL     1      17.806  29.087  20.068  1.00  0.00    -0.387 OA
ATOM     41  H   UNL     1      17.775  28.369  19.391  1.00  0.00     0.211 HD
ENDBRANCH  15  40
ENDBRANCH   9  10
ENDBRANCH   8   9
ENDBRANCH   3   8
BRANCH   3  42
ATOM     42  C   UNL     1      19.373  30.562  23.925  1.00  0.00     0.364 C 
ATOM     43  O   UNL     1      18.669  29.523  24.123  1.00  0.00    -0.246 OA
BRANCH  42  44
ATOM     44  O   UNL     1      20.000  31.175  24.978  1.00  0.00    -0.477 OA
ATOM     45  H   UNL     1      20.017  32.196  25.081  1.00  0.00     0.296 HD
ENDBRANCH  42  44
ENDBRANCH   3  42
BRANCH   6  46
ATOM     46  O   UNL     1      21.567  32.151  20.311  1.00  0.00    -0.391 OA
ATOM     47  H   UNL     1      22.379  32.581  19.978  1.00  0.00     0.211 HD
ENDBRANCH   6  46
BRANCH   7  48
ATOM     48  N   UNL     1      23.214  30.253  22.758  1.00  0.00    -0.348 N 
ATOM     49  C   UNL     1      24.444  29.595  22.503  1.00  0.00     0.217 C 
ATOM     50  H   UNL     1      23.084  30.634  23.717  1.00  0.00     0.163 HD
ATOM     51  C   UNL     1      25.498  29.453  23.541  1.00  0.00     0.114 C 
ATOM     52  O   UNL     1      24.624  29.125  21.352  1.00  0.00    -0.275 OA
ENDBRANCH   7  48
ENDBRANCH   1   2
BRANCH   1  53
ATOM     53  O   UNL     1      20.163  27.459  20.893  1.00  0.00    -0.388 OA
ATOM     54  H   UNL     1      20.276  26.714  20.252  1.00  0.00     0.211 HD
ENDBRANCH   1  53
BRANCH   1  55
ATOM     55  C   UNL     1      21.626  28.754  19.544  1.00  0.00     0.165 C 
BRANCH  55  56
ATOM     56  O   UNL     1      20.396  28.693  18.844  1.00  0.00    -0.388 OA
ATOM     57  H   UNL     1      19.804  29.419  19.157  1.00  0.00     0.211 HD
ENDBRANCH  55  56
BRANCH  55  58
ATOM     58  C   UNL     1      22.626  27.926  18.812  1.00  0.00     0.154 C 
BRANCH  58  59
ATOM     59  N   UNL     1      23.105  26.815  19.606  1.00  0.00    -0.319 N 
ATOM     60  C   UNL     1      22.961  25.484  19.150  1.00  0.00     0.407 C 
ATOM     61  H   UNL     1      23.576  26.957  20.543  1.00  0.00     0.167 HD
ATOM     62  O   UNL     1      22.407  25.211  18.060  1.00  0.00    -0.225 OA
BRANCH  60  63
ATOM     63  O   UNL     1      23.433  24.421  19.892  1.00  0.00    -0.443 OA
BRANCH  63  64
ATOM     64  C   UNL     1      22.756  23.690  20.855  1.00  0.00     0.294 C 
BRANCH  64  65
ATOM     65  C   UNL     1      22.160  24.479  21.956  1.00  0.00     0.120 A 
ATOM     66  C   UNL     1      22.840  24.932  23.052  1.00  0.00     0.138 A 
ATOM     67  N   UNL     1      20.853  24.863  22.061  1.00  0.00    -0.132 NA
ATOM     68  N   UNL     1      21.934  25.584  23.803  1.00  0.00    -0.249 N 
ATOM     69  N   UNL     1      20.770  25.533  23.203  1.00  0.00    -0.067 NA
BRANCH  68  70
ATOM     70  C   UNL     1      22.173  26.235  25.073  1.00  0.00     0.180 C 
BRANCH  70  71
ATOM     71  C   UNL     1      21.358  27.536  25.066  1.00  0.00     0.161 C 
BRANCH  71  72
ATOM     72  O   UNL     1      20.054  27.200  25.337  1.00  0.00    -0.389 OA
ATOM     73  H   UNL     1      19.812  27.356  26.282  1.00  0.00     0.211 HD
ENDBRANCH  71  72
BRANCH  71  74
ATOM     74  C   UNL     1      21.917  28.489  26.096  1.00  0.00     0.189 C 
BRANCH  74  75
ATOM     75  O   UNL     1      22.436  29.604  25.477  1.00  0.00    -0.394 OA
ATOM     76  H   UNL     1      22.916  30.160  26.144  1.00  0.00     0.210 HD
ENDBRANCH  74  75
ENDBRANCH  71  74
ENDBRANCH  70  71
ENDBRANCH  68  70
ENDBRANCH  64  65
ENDBRANCH  63  64
ENDBRANCH  60  63
ENDBRANCH  58  59
ENDBRANCH  55  58
ENDBRANCH   1  55
TORSDOF 34
