REMARK VINA RESULT:    -6.122      3.379     10.589
REMARK INTER + INTRA:         -21.983
REMARK INTER:                 -14.339
REMARK INTRA:                  -7.643
REMARK UNBOUND:                -6.197
REMARK SMILES CC(=O)N[C@@H]1[C@@H](O)C[C@](OC[C@H]2O[C@@H](O[C@H]3[C@H](O)[C@@H](O)[C@H](OCCN=[N+]=[N-])O[C@@H]3CO)[C@H](O)[C@@H](O)[C@H]2O)(C(=O)O)O[C@H]1C(O)[C@H](O)CNC(=O)OCc1cn(Cc2cccc(C#N)c2)nn1
REMARK SMILES IDX 9 1 8 2 6 3 5 4 42 5 41 6 10 7 11 8 12 9 14 10 13 11 32 12
REMARK SMILES IDX 34 13 36 14 15 15 16 16 29 17 28 18 21 19 17 20 19 21 30 22
REMARK SMILES IDX 31 23 22 25 23 26 24 27 25 28 26 29 27 30 18 31 20 33 33 35
REMARK SMILES IDX 35 37 37 39 38 41 39 42 40 43 7 45 43 47 44 48 45 50 46 51
REMARK SMILES IDX 47 53 48 54 49 55 50 57 51 58 52 59 53 60 54 61 66 62 55 63
REMARK SMILES IDX 65 64 56 65 57 66 58 67 64 68 59 69 61 70 60 71 62 72 63 73
REMARK SMILES IDX 4 74 2 75 1 77 3 78
REMARK H PARENT 31 24 18 32 20 34 33 36 35 38 37 40 40 44 7 46 44 49 46 52
REMARK H PARENT 48 56 4 76
REMARK Flexibility Score: inf
ROOT
ATOM      1  C   UNL     1      23.594  25.203  21.589  1.00  0.00     0.272 C 
ATOM      2  C   UNL     1      22.455  24.301  21.997  1.00  0.00     0.113 C 
ATOM      3  C   UNL     1      21.519  24.808  23.012  1.00  0.00     0.145 C 
ATOM      4  C   UNL     1      22.206  25.747  24.009  1.00  0.00     0.142 C 
ATOM      5  C   UNL     1      23.066  26.739  23.364  1.00  0.00     0.178 C 
ATOM      6  O   UNL     1      23.658  26.420  22.186  1.00  0.00    -0.332 OA
ENDROOT
BRANCH   1   7
ATOM      7  O   UNL     1      23.545  25.382  20.282  1.00  0.00    -0.338 OA
BRANCH   7   8
ATOM      8  C   UNL     1      24.137  25.559  19.200  1.00  0.00     0.199 C 
BRANCH   8   9
ATOM      9  C   UNL     1      23.857  26.595  18.148  1.00  0.00     0.179 C 
ATOM     10  C   UNL     1      22.179  27.469  16.923  1.00  0.00     0.282 C 
ATOM     11  O   UNL     1      22.433  26.849  18.154  1.00  0.00    -0.341 OA
ATOM     12  C   UNL     1      22.744  28.848  16.873  1.00  0.00     0.202 C 
ATOM     13  C   UNL     1      24.135  28.928  17.474  1.00  0.00     0.179 C 
ATOM     14  C   UNL     1      24.364  27.978  18.599  1.00  0.00     0.177 C 
BRANCH  10  15
ATOM     15  O   UNL     1      20.803  27.512  16.714  1.00  0.00    -0.341 OA
BRANCH  15  16
ATOM     16  C   UNL     1      20.262  28.741  16.990  1.00  0.00     0.184 C 
ATOM     17  C   UNL     1      19.331  28.717  18.147  1.00  0.00     0.178 C 
ATOM     18  O   UNL     1      18.712  29.922  18.390  1.00  0.00    -0.341 OA
ATOM     19  C   UNL     1      18.102  30.516  17.307  1.00  0.00     0.281 C 
ATOM     20  C   UNL     1      19.344  29.059  15.766  1.00  0.00     0.180 C 
ATOM     21  C   UNL     1      18.877  30.476  16.029  1.00  0.00     0.202 C 
BRANCH  17  22
ATOM     22  C   UNL     1      20.064  28.340  19.413  1.00  0.00     0.191 C 
BRANCH  22  23
ATOM     23  O   UNL     1      19.145  27.987  20.406  1.00  0.00    -0.394 OA
ATOM     24  H   UNL     1      19.396  28.301  21.291  1.00  0.00     0.210 HD
ENDBRANCH  22  23
ENDBRANCH  17  22
BRANCH  19  25
ATOM     25  O   UNL     1      17.955  31.881  17.633  1.00  0.00    -0.350 OA
BRANCH  25  26
ATOM     26  C   UNL     1      16.914  32.042  18.508  1.00  0.00     0.169 C 
BRANCH  26  27
ATOM     27  C   UNL     1      17.338  32.665  19.809  1.00  0.00     0.119 C 
BRANCH  27  28
ATOM     28  N   UNL     1      16.779  32.004  20.964  1.00  0.00    -0.092 NA
ATOM     29  N   UNL     1      17.353  30.999  21.408  1.00  0.00     0.001 N 
ATOM     30  N   UNL     1      17.782  29.929  21.896  1.00  0.00    -0.003 NA
ENDBRANCH  27  28
ENDBRANCH  26  27
ENDBRANCH  25  26
ENDBRANCH  19  25
BRANCH  20  31
ATOM     31  O   UNL     1      20.102  28.922  14.634  1.00  0.00    -0.387 OA
ATOM     32  H   UNL     1      20.857  28.279  14.764  1.00  0.00     0.211 HD
ENDBRANCH  20  31
BRANCH  21  33
ATOM     33  O   UNL     1      18.033  30.838  14.983  1.00  0.00    -0.385 OA
ATOM     34  H   UNL     1      18.613  31.249  14.277  1.00  0.00     0.211 HD
ENDBRANCH  21  33
ENDBRANCH  15  16
ENDBRANCH  10  15
BRANCH  12  35
ATOM     35  O   UNL     1      22.922  29.192  15.513  1.00  0.00    -0.385 OA
ATOM     36  H   UNL     1      23.333  30.091  15.515  1.00  0.00     0.211 HD
ENDBRANCH  12  35
BRANCH  13  37
ATOM     37  O   UNL     1      24.252  30.226  17.994  1.00  0.00    -0.387 OA
ATOM     38  H   UNL     1      23.693  30.379  18.780  1.00  0.00     0.211 HD
ENDBRANCH  13  37
BRANCH  14  39
ATOM     39  O   UNL     1      23.546  28.395  19.661  1.00  0.00    -0.387 OA
ATOM     40  H   UNL     1      22.970  27.677  19.989  1.00  0.00     0.211 HD
ENDBRANCH  14  39
ENDBRANCH   8   9
ENDBRANCH   7   8
ENDBRANCH   1   7
BRANCH   1  41
ATOM     41  C   UNL     1      24.852  24.492  22.018  1.00  0.00     0.364 C 
ATOM     42  O   UNL     1      25.980  25.091  21.991  1.00  0.00    -0.246 OA
BRANCH  41  43
ATOM     43  O   UNL     1      24.836  23.193  22.449  1.00  0.00    -0.477 OA
ATOM     44  H   UNL     1      24.533  22.477  21.769  1.00  0.00     0.296 HD
ENDBRANCH  41  43
ENDBRANCH   1  41
BRANCH   3  45
ATOM     45  O   UNL     1      20.475  25.488  22.404  1.00  0.00    -0.391 OA
ATOM     46  H   UNL     1      20.767  26.080  21.671  1.00  0.00     0.211 HD
ENDBRANCH   3  45
BRANCH   5  47
ATOM     47  C   UNL     1      22.404  28.068  23.062  1.00  0.00     0.176 C 
BRANCH  47  48
ATOM     48  O   UNL     1      21.875  27.894  21.740  1.00  0.00    -0.388 OA
ATOM     49  H   UNL     1      21.551  28.776  21.446  1.00  0.00     0.211 HD
ENDBRANCH  47  48
BRANCH  47  50
ATOM     50  C   UNL     1      21.257  28.493  23.879  1.00  0.00     0.165 C 
BRANCH  50  51
ATOM     51  O   UNL     1      20.148  28.390  22.931  1.00  0.00    -0.388 OA
ATOM     52  H   UNL     1      19.342  28.109  23.459  1.00  0.00     0.211 HD
ENDBRANCH  50  51
BRANCH  50  53
ATOM     53  C   UNL     1      21.185  29.907  24.326  1.00  0.00     0.154 C 
BRANCH  53  54
ATOM     54  N   UNL     1      20.004  30.636  23.994  1.00  0.00    -0.319 N 
ATOM     55  C   UNL     1      19.085  31.013  25.030  1.00  0.00     0.407 C 
ATOM     56  H   UNL     1      19.763  30.921  23.037  1.00  0.00     0.167 HD
ATOM     57  O   UNL     1      19.376  30.676  26.200  1.00  0.00    -0.225 OA
BRANCH  55  58
ATOM     58  O   UNL     1      17.936  31.712  24.795  1.00  0.00    -0.443 OA
BRANCH  58  59
ATOM     59  C   UNL     1      16.954  31.928  25.829  1.00  0.00     0.294 C 
BRANCH  59  60
ATOM     60  C   UNL     1      15.595  31.700  25.260  1.00  0.00     0.120 A 
ATOM     61  C   UNL     1      15.162  30.592  24.569  1.00  0.00     0.138 A 
ATOM     62  N   UNL     1      14.549  32.531  25.310  1.00  0.00    -0.132 NA
ATOM     63  N   UNL     1      13.859  30.766  24.211  1.00  0.00    -0.248 N 
ATOM     64  N   UNL     1      13.516  31.957  24.678  1.00  0.00    -0.067 NA
BRANCH  63  65
ATOM     65  C   UNL     1      13.051  29.841  23.470  1.00  0.00     0.181 C 
BRANCH  65  66
ATOM     66  C   UNL     1      13.415  29.911  22.036  1.00  0.00    -0.025 A 
ATOM     67  C   UNL     1      12.898  30.840  21.173  1.00  0.00     0.006 A 
ATOM     68  C   UNL     1      14.324  28.991  21.523  1.00  0.00     0.025 A 
ATOM     69  C   UNL     1      13.237  30.894  19.847  1.00  0.00     0.002 A 
ATOM     70  C   UNL     1      14.663  29.045  20.194  1.00  0.00     0.052 A 
ATOM     71  C   UNL     1      14.140  29.988  19.309  1.00  0.00     0.019 A 
BRANCH  70  72
ATOM     72  C   UNL     1      15.608  28.093  19.672  1.00  0.00     0.099 C 
ATOM     73  N   UNL     1      16.387  27.330  19.249  1.00  0.00    -0.192 NA
ENDBRANCH  70  72
ENDBRANCH  65  66
ENDBRANCH  63  65
ENDBRANCH  59  60
ENDBRANCH  58  59
ENDBRANCH  55  58
ENDBRANCH  53  54
ENDBRANCH  50  53
ENDBRANCH  47  50
ENDBRANCH   5  47
BRANCH   4  74
ATOM     74  N   UNL     1      22.826  24.936  25.055  1.00  0.00    -0.348 N 
ATOM     75  C   UNL     1      22.576  25.246  26.408  1.00  0.00     0.217 C 
ATOM     76  H   UNL     1      23.451  24.126  24.877  1.00  0.00     0.163 HD
ATOM     77  C   UNL     1      23.165  24.476  27.539  1.00  0.00     0.114 C 
ATOM     78  O   UNL     1      21.832  26.205  26.672  1.00  0.00    -0.275 OA
ENDBRANCH   4  74
TORSDOF 32
