REMARK VINA RESULT:    -4.831     15.804     19.566
REMARK INTER + INTRA:         -21.637
REMARK INTER:                 -14.383
REMARK INTRA:                  -7.254
REMARK UNBOUND:                -8.334
REMARK SMILES CC[N+](C)(CC)CCCn1cc(COC(=O)NC[C@@H](O)C(O)[C@@H]2O[C@@](OC[C@H]3O[C@@H](O[C@H]4[C@H](O)[C@@H](O)[C@H](OCCN=[N+]=[N-])O[C@@H]4CO)[C@H](O)[C@@H](O)[C@H]3O)(C(=O)O)C[C@H](O)[C@H]2NC(C)=O)nn1
REMARK SMILES IDX 21 1 23 2 25 3 57 4 24 5 58 6 60 7 26 8 27 9 28 10 30 11
REMARK SMILES IDX 29 12 48 13 50 14 52 15 31 16 32 17 45 18 44 19 37 20 33 21
REMARK SMILES IDX 35 22 46 23 47 24 38 26 39 27 40 28 41 29 42 30 43 31 34 32
REMARK SMILES IDX 36 34 49 36 51 38 53 40 54 42 55 43 56 44 59 46 61 48 62 49
REMARK SMILES IDX 63 51 64 52 22 53 19 55 20 56 18 58 17 59 15 60 16 62 14 63
REMARK SMILES IDX 13 64 12 65 11 66 65 67 10 68 66 69 9 70 8 71 7 72 3 73 4 74
REMARK SMILES IDX 2 75 1 76 5 77 6 78
REMARK H PARENT 47 25 34 33 36 35 49 37 51 39 53 41 56 45 59 47 61 50 22 54
REMARK H PARENT 20 57 17 61
REMARK Flexibility Score: inf
ROOT
ATOM      1  C   UNL     1       6.886  23.056  33.830  1.00  0.00     0.176 C 
ENDROOT
BRANCH   1   2
ATOM      2  C   UNL     1       6.078  24.201  34.434  1.00  0.00     0.178 C 
ATOM      3  C   UNL     1       6.157  26.551  34.625  1.00  0.00     0.272 C 
ATOM      4  C   UNL     1       5.476  26.303  35.930  1.00  0.00     0.113 C 
ATOM      5  O   UNL     1       6.840  25.342  34.316  1.00  0.00    -0.332 OA
ATOM      6  C   UNL     1       6.047  25.121  36.667  1.00  0.00     0.145 C 
ATOM      7  C   UNL     1       5.740  23.868  35.851  1.00  0.00     0.142 C 
BRANCH   3   8
ATOM      8  O   UNL     1       7.181  27.473  34.691  1.00  0.00    -0.338 OA
BRANCH   8   9
ATOM      9  C   UNL     1       8.460  27.079  34.575  1.00  0.00     0.199 C 
BRANCH   9  10
ATOM     10  C   UNL     1       9.422  28.117  35.211  1.00  0.00     0.179 C 
ATOM     11  C   UNL     1      11.499  27.009  35.063  1.00  0.00     0.282 C 
ATOM     12  O   UNL     1      10.475  27.559  35.824  1.00  0.00    -0.341 OA
ATOM     13  C   UNL     1      11.726  27.695  33.770  1.00  0.00     0.202 C 
ATOM     14  C   UNL     1      11.326  29.165  34.024  1.00  0.00     0.179 C 
ATOM     15  C   UNL     1       9.818  29.127  34.135  1.00  0.00     0.177 C 
BRANCH  11  16
ATOM     16  O   UNL     1      11.372  25.614  35.010  1.00  0.00    -0.341 OA
BRANCH  16  17
ATOM     17  C   UNL     1      11.412  25.032  36.243  1.00  0.00     0.184 C 
ATOM     18  C   UNL     1      12.698  24.673  36.849  1.00  0.00     0.178 C 
ATOM     19  O   UNL     1      12.510  24.371  38.186  1.00  0.00    -0.341 OA
ATOM     20  C   UNL     1      11.283  24.032  38.626  1.00  0.00     0.281 C 
ATOM     21  C   UNL     1      10.578  23.729  36.249  1.00  0.00     0.180 C 
ATOM     22  C   UNL     1      10.383  23.284  37.674  1.00  0.00     0.202 C 
BRANCH  18  23
ATOM     23  C   UNL     1      13.797  25.714  36.767  1.00  0.00     0.191 C 
BRANCH  23  24
ATOM     24  O   UNL     1      14.400  25.783  35.518  1.00  0.00    -0.394 OA
ATOM     25  H   UNL     1      14.794  24.867  35.348  1.00  0.00     0.210 HD
ENDBRANCH  23  24
ENDBRANCH  18  23
BRANCH  20  26
ATOM     26  O   UNL     1      10.647  25.106  39.222  1.00  0.00    -0.350 OA
BRANCH  26  27
ATOM     27  C   UNL     1      10.195  24.907  40.485  1.00  0.00     0.169 C 
BRANCH  27  28
ATOM     28  C   UNL     1       8.781  25.399  40.714  1.00  0.00     0.119 C 
BRANCH  28  29
ATOM     29  N   UNL     1       7.891  24.775  39.750  1.00  0.00    -0.092 NA
ATOM     30  N   UNL     1       7.545  23.599  39.821  1.00  0.00     0.001 N 
ATOM     31  N   UNL     1       7.166  22.427  39.888  1.00  0.00    -0.003 NA
ENDBRANCH  28  29
ENDBRANCH  27  28
ENDBRANCH  26  27
ENDBRANCH  20  26
BRANCH  21  32
ATOM     32  O   UNL     1       9.424  23.995  35.550  1.00  0.00    -0.387 OA
ATOM     33  H   UNL     1       8.885  24.728  35.887  1.00  0.00     0.211 HD
ENDBRANCH  21  32
BRANCH  22  34
ATOM     34  O   UNL     1      10.548  21.910  37.739  1.00  0.00    -0.385 OA
ATOM     35  H   UNL     1      11.497  21.620  37.788  1.00  0.00     0.211 HD
ENDBRANCH  22  34
ENDBRANCH  16  17
ENDBRANCH  11  16
BRANCH  13  36
ATOM     36  O   UNL     1      13.074  27.732  33.378  1.00  0.00    -0.385 OA
ATOM     37  H   UNL     1      13.534  28.346  33.991  1.00  0.00     0.211 HD
ENDBRANCH  13  36
BRANCH  14  38
ATOM     38  O   UNL     1      11.717  29.946  32.936  1.00  0.00    -0.387 OA
ATOM     39  H   UNL     1      12.027  29.329  32.242  1.00  0.00     0.211 HD
ENDBRANCH  14  38
BRANCH  15  40
ATOM     40  O   UNL     1       9.357  28.624  32.920  1.00  0.00    -0.387 OA
ATOM     41  H   UNL     1      10.037  28.476  32.245  1.00  0.00     0.211 HD
ENDBRANCH  15  40
ENDBRANCH   9  10
ENDBRANCH   8   9
ENDBRANCH   3   8
BRANCH   3  42
ATOM     42  C   UNL     1       5.255  26.892  33.513  1.00  0.00     0.364 C 
ATOM     43  O   UNL     1       4.139  27.425  33.707  1.00  0.00    -0.246 OA
BRANCH  42  44
ATOM     44  O   UNL     1       5.608  26.633  32.211  1.00  0.00    -0.477 OA
ATOM     45  H   UNL     1       6.572  26.634  31.881  1.00  0.00     0.296 HD
ENDBRANCH  42  44
ENDBRANCH   3  42
BRANCH   6  46
ATOM     46  O   UNL     1       7.403  25.208  36.878  1.00  0.00    -0.391 OA
ATOM     47  H   UNL     1       7.734  26.155  36.809  1.00  0.00     0.211 HD
ENDBRANCH   6  46
BRANCH   7  48
ATOM     48  N   UNL     1       4.281  23.703  35.962  1.00  0.00    -0.348 N 
ATOM     49  C   UNL     1       3.703  22.845  36.939  1.00  0.00     0.217 C 
ATOM     50  H   UNL     1       3.602  24.190  35.342  1.00  0.00     0.163 HD
ATOM     51  C   UNL     1       2.239  22.650  37.088  1.00  0.00     0.114 C 
ATOM     52  O   UNL     1       4.465  22.230  37.706  1.00  0.00    -0.275 OA
ENDBRANCH   7  48
ENDBRANCH   1   2
BRANCH   1  53
ATOM     53  O   UNL     1       8.157  23.577  33.411  1.00  0.00    -0.388 OA
ATOM     54  H   UNL     1       8.601  23.915  34.232  1.00  0.00     0.211 HD
ENDBRANCH   1  53
BRANCH   1  55
ATOM     55  C   UNL     1       6.226  22.524  32.600  1.00  0.00     0.165 C 
BRANCH  55  56
ATOM     56  O   UNL     1       5.711  23.728  31.964  1.00  0.00    -0.388 OA
ATOM     57  H   UNL     1       5.017  24.108  32.586  1.00  0.00     0.211 HD
ENDBRANCH  55  56
BRANCH  55  58
ATOM     58  C   UNL     1       5.082  21.595  32.774  1.00  0.00     0.154 C 
BRANCH  58  59
ATOM     59  N   UNL     1       3.788  21.904  32.363  1.00  0.00    -0.319 N 
ATOM     60  C   UNL     1       3.091  21.440  31.222  1.00  0.00     0.407 C 
ATOM     61  H   UNL     1       3.218  22.603  32.995  1.00  0.00     0.167 HD
ATOM     62  O   UNL     1       3.572  20.650  30.395  1.00  0.00    -0.225 OA
BRANCH  60  63
ATOM     63  O   UNL     1       1.771  21.889  30.973  1.00  0.00    -0.443 OA
BRANCH  63  64
ATOM     64  C   UNL     1       1.427  23.193  31.479  1.00  0.00     0.294 C 
BRANCH  64  65
ATOM     65  C   UNL     1       2.286  24.114  30.645  1.00  0.00     0.120 A 
ATOM     66  C   UNL     1       2.195  24.324  29.290  1.00  0.00     0.138 A 
ATOM     67  N   UNL     1       3.259  24.938  31.052  1.00  0.00    -0.132 NA
ATOM     68  N   UNL     1       3.117  25.272  28.925  1.00  0.00    -0.252 N 
ATOM     69  N   UNL     1       3.746  25.617  30.034  1.00  0.00    -0.067 NA
BRANCH  68  70
ATOM     70  C   UNL     1       3.302  25.802  27.586  1.00  0.00     0.152 C 
BRANCH  70  71
ATOM     71  C   UNL     1       4.553  26.556  27.439  1.00  0.00     0.085 C 
BRANCH  71  72
ATOM     72  C   UNL     1       5.198  26.691  26.122  1.00  0.00     0.265 C 
BRANCH  72  73
ATOM     73  N   UNL     1       5.854  27.913  25.795  1.00  0.00    -0.326 N 
ATOM     74  C   UNL     1       5.364  28.423  24.544  1.00  0.00     0.334 C 
BRANCH  73  75
ATOM     75  C   UNL     1       7.289  27.873  25.811  1.00  0.00     0.260 C 
ATOM     76  C   UNL     1       7.852  26.608  25.207  1.00  0.00     0.071 C 
ENDBRANCH  73  75
BRANCH  73  77
ATOM     77  C   UNL     1       5.417  28.888  26.808  1.00  0.00     0.260 C 
ATOM     78  C   UNL     1       6.220  30.141  26.827  1.00  0.00     0.071 C 
ENDBRANCH  73  77
ENDBRANCH  72  73
ENDBRANCH  71  72
ENDBRANCH  70  71
ENDBRANCH  68  70
ENDBRANCH  64  65
ENDBRANCH  63  64
ENDBRANCH  60  63
ENDBRANCH  58  59
ENDBRANCH  55  58
ENDBRANCH   1  55
TORSDOF 35
