REMARK VINA RESULT:    -4.620      4.752      9.152
REMARK INTER + INTRA:         -22.332
REMARK INTER:                 -13.633
REMARK INTRA:                  -8.699
REMARK UNBOUND:                -9.744
REMARK SMILES CC(=O)N[C@@H]1[C@@H](O)C[C@](OC[C@H]2O[C@@H](O[C@H]3[C@H](O)[C@@H](O)[C@H](OCCN=[N+]=[N-])O[C@@H]3CO)[C@H](O)[C@@H](O)[C@H]2O)(C(=O)O)O[C@H]1C(O)[C@H](O)CNC(=O)OCc1cn(CC(O)Cn2ccnc2[N+](=O)[O-])nn1
REMARK SMILES IDX 43 1 42 2 9 3 8 4 41 5 6 6 5 7 10 8 11 9 12 10 14 11 13 12
REMARK SMILES IDX 32 13 34 14 36 15 15 16 16 17 29 18 28 19 21 20 17 21 19 22
REMARK SMILES IDX 30 23 31 24 22 26 23 27 24 28 25 29 26 30 27 31 18 32 20 34
REMARK SMILES IDX 33 36 35 38 37 40 38 42 39 43 40 44 7 46 4 48 2 49 1 51 3 52
REMARK SMILES IDX 44 53 45 55 46 56 47 58 48 59 49 60 50 62 51 63 52 64 53 65
REMARK SMILES IDX 54 66 69 67 55 68 68 69 56 70 57 71 58 72 59 74 60 75 61 76
REMARK SMILES IDX 64 77 62 78 63 79 65 80 66 81 67 82
REMARK H PARENT 31 25 18 33 20 35 33 37 35 39 37 41 40 45 7 47 4 50 44 54
REMARK H PARENT 46 57 48 61 58 73
REMARK Flexibility Score: inf
ROOT
ATOM      1  C   UNL     1      20.065  29.495  24.169  1.00  0.00     0.176 C 
ENDROOT
BRANCH   1   2
ATOM      2  C   UNL     1      19.985  29.956  22.682  1.00  0.00     0.178 C 
ATOM      3  C   UNL     1      20.252  28.912  20.636  1.00  0.00     0.272 C 
ATOM      4  C   UNL     1      21.021  30.092  20.121  1.00  0.00     0.113 C 
ATOM      5  O   UNL     1      20.398  28.801  22.015  1.00  0.00    -0.332 OA
ATOM      6  C   UNL     1      21.846  30.743  21.224  1.00  0.00     0.145 C 
ATOM      7  C   UNL     1      20.974  31.020  22.442  1.00  0.00     0.142 C 
BRANCH   3   8
ATOM      8  O   UNL     1      20.734  27.698  20.161  1.00  0.00    -0.338 OA
BRANCH   8   9
ATOM      9  C   UNL     1      21.532  27.684  19.080  1.00  0.00     0.199 C 
BRANCH   9  10
ATOM     10  C   UNL     1      22.651  26.663  19.164  1.00  0.00     0.179 C 
ATOM     11  C   UNL     1      23.465  24.982  20.388  1.00  0.00     0.282 C 
ATOM     12  O   UNL     1      22.247  25.513  19.895  1.00  0.00    -0.341 OA
ATOM     13  C   UNL     1      24.383  24.615  19.249  1.00  0.00     0.202 C 
ATOM     14  C   UNL     1      23.546  24.658  17.972  1.00  0.00     0.179 C 
ATOM     15  C   UNL     1      23.061  26.103  17.821  1.00  0.00     0.177 C 
BRANCH  11  16
ATOM     16  O   UNL     1      23.256  23.881  21.193  1.00  0.00    -0.341 OA
BRANCH  16  17
ATOM     17  C   UNL     1      23.537  24.254  22.487  1.00  0.00     0.184 C 
ATOM     18  C   UNL     1      22.444  25.088  23.138  1.00  0.00     0.178 C 
ATOM     19  O   UNL     1      22.718  25.014  24.507  1.00  0.00    -0.341 OA
ATOM     20  C   UNL     1      23.869  25.647  24.888  1.00  0.00     0.281 C 
ATOM     21  C   UNL     1      24.786  25.118  22.580  1.00  0.00     0.180 C 
ATOM     22  C   UNL     1      25.032  25.570  23.969  1.00  0.00     0.202 C 
BRANCH  18  23
ATOM     23  C   UNL     1      21.064  24.626  22.838  1.00  0.00     0.191 C 
BRANCH  23  24
ATOM     24  O   UNL     1      20.417  25.621  22.115  1.00  0.00    -0.394 OA
ATOM     25  H   UNL     1      20.883  26.493  22.156  1.00  0.00     0.210 HD
ENDBRANCH  23  24
ENDBRANCH  18  23
BRANCH  20  26
ATOM     26  O   UNL     1      24.268  25.030  26.105  1.00  0.00    -0.350 OA
BRANCH  26  27
ATOM     27  C   UNL     1      23.208  24.535  26.821  1.00  0.00     0.169 C 
BRANCH  27  28
ATOM     28  C   UNL     1      23.475  24.908  28.286  1.00  0.00     0.119 C 
BRANCH  28  29
ATOM     29  N   UNL     1      23.014  26.225  28.601  1.00  0.00    -0.092 NA
ATOM     30  N   UNL     1      21.957  26.685  28.111  1.00  0.00     0.001 N 
ATOM     31  N   UNL     1      20.828  27.145  28.076  1.00  0.00    -0.003 NA
ENDBRANCH  28  29
ENDBRANCH  27  28
ENDBRANCH  26  27
ENDBRANCH  20  26
BRANCH  21  32
ATOM     32  O   UNL     1      25.896  24.365  22.143  1.00  0.00    -0.387 OA
ATOM     33  H   UNL     1      25.998  23.638  22.783  1.00  0.00     0.211 HD
ENDBRANCH  21  32
BRANCH  22  34
ATOM     34  O   UNL     1      25.554  26.885  23.867  1.00  0.00    -0.385 OA
ATOM     35  H   UNL     1      25.212  27.458  24.601  1.00  0.00     0.211 HD
ENDBRANCH  22  34
ENDBRANCH  16  17
ENDBRANCH  11  16
BRANCH  13  36
ATOM     36  O   UNL     1      25.417  25.550  19.193  1.00  0.00    -0.385 OA
ATOM     37  H   UNL     1      25.676  25.861  20.105  1.00  0.00     0.211 HD
ENDBRANCH  13  36
BRANCH  14  38
ATOM     38  O   UNL     1      22.413  23.897  18.198  1.00  0.00    -0.387 OA
ATOM     39  H   UNL     1      21.943  23.734  17.362  1.00  0.00     0.211 HD
ENDBRANCH  14  38
BRANCH  15  40
ATOM     40  O   UNL     1      22.020  26.052  16.922  1.00  0.00    -0.387 OA
ATOM     41  H   UNL     1      22.246  26.477  16.057  1.00  0.00     0.211 HD
ENDBRANCH  15  40
ENDBRANCH   9  10
ENDBRANCH   8   9
ENDBRANCH   3   8
BRANCH   3  42
ATOM     42  C   UNL     1      18.824  29.028  20.316  1.00  0.00     0.364 C 
ATOM     43  O   UNL     1      18.023  28.033  20.414  1.00  0.00    -0.246 OA
BRANCH  42  44
ATOM     44  O   UNL     1      18.223  30.195  19.886  1.00  0.00    -0.477 OA
ATOM     45  H   UNL     1      18.052  30.410  18.899  1.00  0.00     0.296 HD
ENDBRANCH  42  44
ENDBRANCH   3  42
BRANCH   6  46
ATOM     46  O   UNL     1      22.960  29.994  21.547  1.00  0.00    -0.391 OA
ATOM     47  H   UNL     1      23.011  29.163  21.012  1.00  0.00     0.211 HD
ENDBRANCH   6  46
BRANCH   7  48
ATOM     48  N   UNL     1      20.527  32.376  22.446  1.00  0.00    -0.348 N 
ATOM     49  C   UNL     1      21.219  33.519  22.830  1.00  0.00     0.217 C 
ATOM     50  H   UNL     1      19.497  32.572  22.089  1.00  0.00     0.163 HD
ATOM     51  C   UNL     1      20.583  34.895  22.731  1.00  0.00     0.114 C 
ATOM     52  O   UNL     1      22.372  33.512  23.267  1.00  0.00    -0.275 OA
ENDBRANCH   7  48
ENDBRANCH   1   2
BRANCH   1  53
ATOM     53  O   UNL     1      20.449  30.631  24.924  1.00  0.00    -0.388 OA
ATOM     54  H   UNL     1      19.823  30.833  25.636  1.00  0.00     0.211 HD
ENDBRANCH   1  53
BRANCH   1  55
ATOM     55  C   UNL     1      20.962  28.378  24.431  1.00  0.00     0.165 C 
BRANCH  55  56
ATOM     56  O   UNL     1      20.407  27.201  24.864  1.00  0.00    -0.388 OA
ATOM     57  H   UNL     1      20.438  26.472  24.205  1.00  0.00     0.211 HD
ENDBRANCH  55  56
BRANCH  55  58
ATOM     58  C   UNL     1      22.133  28.751  25.371  1.00  0.00     0.154 C 
BRANCH  58  59
ATOM     59  N   UNL     1      23.203  29.220  24.498  1.00  0.00    -0.319 N 
ATOM     60  C   UNL     1      23.779  30.524  24.648  1.00  0.00     0.407 C 
ATOM     61  H   UNL     1      23.574  28.605  23.740  1.00  0.00     0.167 HD
ATOM     62  O   UNL     1      23.361  31.283  25.548  1.00  0.00    -0.225 OA
BRANCH  60  63
ATOM     63  O   UNL     1      24.786  30.963  23.815  1.00  0.00    -0.443 OA
BRANCH  63  64
ATOM     64  C   UNL     1      26.037  30.377  23.623  1.00  0.00     0.294 C 
BRANCH  64  65
ATOM     65  C   UNL     1      26.802  30.385  24.895  1.00  0.00     0.120 A 
ATOM     66  C   UNL     1      27.536  29.340  25.425  1.00  0.00     0.138 A 
ATOM     67  N   UNL     1      26.948  31.384  25.779  1.00  0.00    -0.132 NA
ATOM     68  N   UNL     1      28.090  29.747  26.595  1.00  0.00    -0.249 N 
ATOM     69  N   UNL     1      27.716  30.986  26.783  1.00  0.00    -0.067 NA
BRANCH  68  70
ATOM     70  C   UNL     1      28.965  28.899  27.399  1.00  0.00     0.181 C 
BRANCH  70  71
ATOM     71  C   UNL     1      28.053  28.260  28.444  1.00  0.00     0.170 C 
BRANCH  71  72
ATOM     72  O   UNL     1      26.818  28.860  28.373  1.00  0.00    -0.388 OA
ATOM     73  H   UNL     1      26.747  29.400  27.549  1.00  0.00     0.211 HD
ENDBRANCH  71  72
BRANCH  71  74
ATOM     74  C   UNL     1      28.005  26.775  28.258  1.00  0.00     0.239 C 
BRANCH  74  75
ATOM     75  N   UNL     1      27.822  26.126  29.546  1.00  0.00    -0.227 N 
ATOM     76  C   UNL     1      26.576  25.809  30.028  1.00  0.00     0.204 A 
ATOM     77  C   UNL     1      28.748  25.730  30.419  1.00  0.00     0.434 A 
ATOM     78  C   UNL     1      26.760  25.194  31.246  1.00  0.00     0.245 A 
ATOM     79  N   UNL     1      28.089  25.155  31.465  1.00  0.00    -0.074 NA
BRANCH  77  80
ATOM     80  N   UNL     1      30.151  25.886  30.301  1.00  0.00    -0.047 N 
ATOM     81  O   UNL     1      30.905  24.877  30.124  1.00  0.00    -0.390 OA
ATOM     82  O   UNL     1      30.788  27.094  30.373  1.00  0.00    -0.390 OA
ENDBRANCH  77  80
ENDBRANCH  74  75
ENDBRANCH  71  74
ENDBRANCH  70  71
ENDBRANCH  68  70
ENDBRANCH  64  65
ENDBRANCH  63  64
ENDBRANCH  60  63
ENDBRANCH  58  59
ENDBRANCH  55  58
ENDBRANCH   1  55
TORSDOF 35
