REMARK VINA RESULT:    -5.437     12.478     17.752
REMARK INTER + INTRA:         -23.329
REMARK INTER:                 -15.214
REMARK INTRA:                  -8.115
REMARK UNBOUND:                -8.356
REMARK SMILES CC(=O)N[C@@H]1[C@@H](O)C[C@](OC[C@H]2O[C@@H](O[C@H]3[C@H](O)[C@@H](O)[C@H](OCCN=[N+]=[N-])O[C@@H]3CO)[C@H](O)[C@@H](O)[C@H]2O)(C(=O)O)O[C@H]1C(O)[C@H](O)CNC(=O)OCc1cn([C@@H](CCC(=O)O)C(=O)O)nn1
REMARK SMILES IDX 43 1 42 2 9 3 8 4 41 5 6 6 5 7 10 8 11 9 12 10 14 11 13 12
REMARK SMILES IDX 32 13 34 14 36 15 15 16 16 17 29 18 28 19 21 20 17 21 19 22
REMARK SMILES IDX 30 23 31 24 22 26 23 27 24 28 25 29 26 30 27 31 18 32 20 34
REMARK SMILES IDX 33 36 35 38 37 40 38 42 39 43 40 44 7 46 4 48 2 49 1 51 3 52
REMARK SMILES IDX 44 53 45 55 46 56 47 58 48 59 49 60 50 62 51 63 52 64 53 65
REMARK SMILES IDX 54 66 66 67 55 68 65 69 56 70 57 71 58 72 59 73 60 74 61 75
REMARK SMILES IDX 62 77 63 78 64 79
REMARK H PARENT 31 25 18 33 20 35 33 37 35 39 37 41 40 45 7 47 4 50 44 54
REMARK H PARENT 46 57 48 61 61 76 64 80
REMARK Flexibility Score: inf
ROOT
ATOM      1  C   UNL     1       5.189  26.882  32.684  1.00  0.00     0.176 C 
ENDROOT
BRANCH   1   2
ATOM      2  C   UNL     1       6.180  25.913  33.329  1.00  0.00     0.178 C 
ATOM      3  C   UNL     1       5.975  23.885  34.506  1.00  0.00     0.272 C 
ATOM      4  C   UNL     1       6.615  24.389  35.737  1.00  0.00     0.113 C 
ATOM      5  O   UNL     1       5.323  25.005  33.950  1.00  0.00    -0.332 OA
ATOM      6  C   UNL     1       6.746  25.889  35.740  1.00  0.00     0.145 C 
ATOM      7  C   UNL     1       6.984  26.548  34.428  1.00  0.00     0.142 C 
BRANCH   3   8
ATOM      8  O   UNL     1       4.980  22.970  34.785  1.00  0.00    -0.338 OA
BRANCH   8   9
ATOM      9  C   UNL     1       3.702  23.234  34.859  1.00  0.00     0.199 C 
BRANCH   9  10
ATOM     10  C   UNL     1       2.674  22.692  33.904  1.00  0.00     0.179 C 
ATOM     11  C   UNL     1       2.762  22.218  31.621  1.00  0.00     0.282 C 
ATOM     12  O   UNL     1       2.848  23.145  32.628  1.00  0.00    -0.341 OA
ATOM     13  C   UNL     1       3.818  21.159  31.854  1.00  0.00     0.202 C 
ATOM     14  C   UNL     1       3.494  20.430  33.118  1.00  0.00     0.179 C 
ATOM     15  C   UNL     1       2.578  21.176  34.020  1.00  0.00     0.177 C 
BRANCH  11  16
ATOM     16  O   UNL     1       3.035  22.856  30.409  1.00  0.00    -0.341 OA
BRANCH  16  17
ATOM     17  C   UNL     1       2.064  23.722  29.973  1.00  0.00     0.184 C 
ATOM     18  C   UNL     1       0.681  23.078  30.001  1.00  0.00     0.178 C 
ATOM     19  O   UNL     1       0.167  23.050  28.707  1.00  0.00    -0.341 OA
ATOM     20  C   UNL     1       0.900  22.119  27.919  1.00  0.00     0.281 C 
ATOM     21  C   UNL     1       2.372  24.049  28.526  1.00  0.00     0.180 C 
ATOM     22  C   UNL     1       2.260  22.724  27.743  1.00  0.00     0.202 C 
BRANCH  18  23
ATOM     23  C   UNL     1      -0.254  23.931  30.841  1.00  0.00     0.191 C 
BRANCH  23  24
ATOM     24  O   UNL     1      -0.119  25.277  30.561  1.00  0.00    -0.394 OA
ATOM     25  H   UNL     1      -0.069  25.452  29.584  1.00  0.00     0.210 HD
ENDBRANCH  23  24
ENDBRANCH  18  23
BRANCH  20  26
ATOM     26  O   UNL     1       0.180  21.908  26.779  1.00  0.00    -0.350 OA
BRANCH  26  27
ATOM     27  C   UNL     1       0.871  22.040  25.606  1.00  0.00     0.169 C 
BRANCH  27  28
ATOM     28  C   UNL     1      -0.004  22.307  24.398  1.00  0.00     0.119 C 
BRANCH  28  29
ATOM     29  N   UNL     1       0.101  23.676  23.936  1.00  0.00    -0.092 NA
ATOM     30  N   UNL     1      -0.029  24.656  24.663  1.00  0.00     0.001 N 
ATOM     31  N   UNL     1       0.009  25.544  25.487  1.00  0.00    -0.003 NA
ENDBRANCH  28  29
ENDBRANCH  27  28
ENDBRANCH  26  27
ENDBRANCH  20  26
BRANCH  21  32
ATOM     32  O   UNL     1       1.510  25.001  27.995  1.00  0.00    -0.387 OA
ATOM     33  H   UNL     1       0.571  24.914  28.353  1.00  0.00     0.211 HD
ENDBRANCH  21  32
BRANCH  22  34
ATOM     34  O   UNL     1       3.176  21.867  28.401  1.00  0.00    -0.385 OA
ATOM     35  H   UNL     1       4.024  22.369  28.506  1.00  0.00     0.211 HD
ENDBRANCH  22  34
ENDBRANCH  16  17
ENDBRANCH  11  16
BRANCH  13  36
ATOM     36  O   UNL     1       3.872  20.276  30.774  1.00  0.00    -0.385 OA
ATOM     37  H   UNL     1       3.065  20.490  30.206  1.00  0.00     0.211 HD
ENDBRANCH  13  36
BRANCH  14  38
ATOM     38  O   UNL     1       4.642  20.033  33.809  1.00  0.00    -0.387 OA
ATOM     39  H   UNL     1       5.398  19.945  33.158  1.00  0.00     0.211 HD
ENDBRANCH  14  38
BRANCH  15  40
ATOM     40  O   UNL     1       2.917  20.814  35.326  1.00  0.00    -0.387 OA
ATOM     41  H   UNL     1       2.955  21.604  35.912  1.00  0.00     0.211 HD
ENDBRANCH  15  40
ENDBRANCH   9  10
ENDBRANCH   8   9
ENDBRANCH   3   8
BRANCH   3  42
ATOM     42  C   UNL     1       6.823  23.300  33.475  1.00  0.00     0.364 C 
ATOM     43  O   UNL     1       8.044  23.040  33.778  1.00  0.00    -0.246 OA
BRANCH  42  44
ATOM     44  O   UNL     1       6.498  22.977  32.172  1.00  0.00    -0.477 OA
ATOM     45  H   UNL     1       6.988  23.352  31.393  1.00  0.00     0.296 HD
ENDBRANCH  42  44
ENDBRANCH   3  42
BRANCH   6  46
ATOM     46  O   UNL     1       5.506  26.401  36.214  1.00  0.00    -0.391 OA
ATOM     47  H   UNL     1       5.444  27.377  36.056  1.00  0.00     0.211 HD
ENDBRANCH   6  46
BRANCH   7  48
ATOM     48  N   UNL     1       8.389  26.655  34.249  1.00  0.00    -0.348 N 
ATOM     49  C   UNL     1       9.026  27.729  33.579  1.00  0.00     0.217 C 
ATOM     50  H   UNL     1       9.040  25.942  34.631  1.00  0.00     0.163 HD
ATOM     51  C   UNL     1      10.523  27.777  33.422  1.00  0.00     0.114 C 
ATOM     52  O   UNL     1       8.365  28.651  33.109  1.00  0.00    -0.275 OA
ENDBRANCH   7  48
ENDBRANCH   1   2
BRANCH   1  53
ATOM     53  O   UNL     1       4.286  27.323  33.644  1.00  0.00    -0.388 OA
ATOM     54  H   UNL     1       3.360  27.077  33.377  1.00  0.00     0.211 HD
ENDBRANCH   1  53
BRANCH   1  55
ATOM     55  C   UNL     1       4.505  26.430  31.479  1.00  0.00     0.165 C 
BRANCH  55  56
ATOM     56  O   UNL     1       4.909  25.086  31.218  1.00  0.00    -0.388 OA
ATOM     57  H   UNL     1       4.714  24.555  32.026  1.00  0.00     0.211 HD
ENDBRANCH  55  56
BRANCH  55  58
ATOM     58  C   UNL     1       4.765  27.163  30.197  1.00  0.00     0.154 C 
BRANCH  58  59
ATOM     59  N   UNL     1       3.663  27.097  29.267  1.00  0.00    -0.319 N 
ATOM     60  C   UNL     1       2.582  28.028  29.254  1.00  0.00     0.407 C 
ATOM     61  H   UNL     1       3.636  26.333  28.574  1.00  0.00     0.167 HD
ATOM     62  O   UNL     1       2.540  28.957  30.059  1.00  0.00    -0.225 OA
BRANCH  60  63
ATOM     63  O   UNL     1       1.592  27.854  28.319  1.00  0.00    -0.443 OA
BRANCH  63  64
ATOM     64  C   UNL     1       1.548  28.531  27.097  1.00  0.00     0.294 C 
BRANCH  64  65
ATOM     65  C   UNL     1       2.773  28.228  26.316  1.00  0.00     0.120 A 
ATOM     66  C   UNL     1       3.703  29.094  25.781  1.00  0.00     0.139 A 
ATOM     67  N   UNL     1       3.194  26.985  25.960  1.00  0.00    -0.132 NA
ATOM     68  N   UNL     1       4.653  28.369  25.123  1.00  0.00    -0.238 N 
ATOM     69  N   UNL     1       4.303  27.089  25.258  1.00  0.00    -0.066 NA
BRANCH  68  70
ATOM     70  C   UNL     1       5.795  28.879  24.457  1.00  0.00     0.219 C 
BRANCH  70  71
ATOM     71  C   UNL     1       7.033  28.065  24.397  1.00  0.00     0.051 C 
BRANCH  71  72
ATOM     72  C   UNL     1       7.930  28.003  25.563  1.00  0.00     0.125 C 
BRANCH  72  73
ATOM     73  C   UNL     1       9.029  27.060  25.576  1.00  0.00     0.303 C 
ATOM     74  O   UNL     1       9.129  25.990  26.202  1.00  0.00    -0.252 OA
BRANCH  73  75
ATOM     75  O   UNL     1      10.184  27.346  24.781  1.00  0.00    -0.481 OA
ATOM     76  H   UNL     1      10.278  26.901  23.882  1.00  0.00     0.296 HD
ENDBRANCH  73  75
ENDBRANCH  72  73
ENDBRANCH  71  72
ENDBRANCH  70  71
BRANCH  70  77
ATOM     77  C   UNL     1       5.405  29.238  23.056  1.00  0.00     0.328 C 
ATOM     78  O   UNL     1       4.646  30.202  22.840  1.00  0.00    -0.250 OA
BRANCH  77  79
ATOM     79  O   UNL     1       5.865  28.525  21.965  1.00  0.00    -0.480 OA
ATOM     80  H   UNL     1       6.852  28.283  21.858  1.00  0.00     0.296 HD
ENDBRANCH  77  79
ENDBRANCH  70  77
ENDBRANCH  68  70
ENDBRANCH  64  65
ENDBRANCH  63  64
ENDBRANCH  60  63
ENDBRANCH  58  59
ENDBRANCH  55  58
ENDBRANCH   1  55
TORSDOF 36
