REMARK VINA RESULT:    -5.579     14.969     19.107
REMARK INTER + INTRA:         -21.554
REMARK INTER:                 -14.450
REMARK INTRA:                  -7.104
REMARK UNBOUND:                -7.496
REMARK SMILES CC(=O)N[C@@H]1[C@@H](O)C[C@](OC[C@H]2O[C@@H](O[C@H]3[C@H](O)[C@@H](O)[C@H](OCCN=[N+]=[N-])O[C@@H]3CO)[C@H](O)[C@@H](O)[C@H]2O)(C(=O)O)O[C@H]1C(O)[C@H](O)CNC(=O)OCc1cn(-c2ccccc2C(N)=O)nn1
REMARK SMILES IDX 9 1 8 2 6 3 5 4 42 5 41 6 10 7 11 8 12 9 14 10 13 11 32 12
REMARK SMILES IDX 34 13 36 14 15 15 16 16 29 17 28 18 21 19 17 20 19 21 30 22
REMARK SMILES IDX 31 23 22 25 23 26 24 27 25 28 26 29 27 30 18 31 20 33 33 35
REMARK SMILES IDX 35 37 37 39 38 41 39 42 40 43 7 45 43 47 44 48 45 50 46 51
REMARK SMILES IDX 47 53 48 54 49 55 50 57 51 58 52 59 53 60 54 61 66 62 55 63
REMARK SMILES IDX 65 64 56 65 61 66 57 67 60 68 58 69 59 70 62 71 64 72 63 73
REMARK SMILES IDX 4 76 2 77 1 79 3 80
REMARK H PARENT 31 24 18 32 20 34 33 36 35 38 37 40 40 44 7 46 44 49 46 52
REMARK H PARENT 48 56 63 74 63 75 4 78
REMARK Flexibility Score: inf
ROOT
ATOM      1  C   UNL     1       2.159  23.299  28.367  1.00  0.00     0.272 C 
ATOM      2  C   UNL     1       0.685  22.834  28.532  1.00  0.00     0.113 C 
ATOM      3  C   UNL     1       0.394  22.954  30.001  1.00  0.00     0.145 C 
ATOM      4  C   UNL     1       1.119  21.901  30.739  1.00  0.00     0.142 C 
ATOM      5  C   UNL     1       2.439  21.667  29.982  1.00  0.00     0.178 C 
ATOM      6  O   UNL     1       2.904  22.853  29.447  1.00  0.00    -0.332 OA
ENDROOT
BRANCH   1   7
ATOM      7  O   UNL     1       2.070  24.678  28.381  1.00  0.00    -0.338 OA
BRANCH   7   8
ATOM      8  C   UNL     1       1.737  25.244  27.187  1.00  0.00     0.199 C 
BRANCH   8   9
ATOM      9  C   UNL     1       2.550  26.489  26.879  1.00  0.00     0.179 C 
ATOM     10  C   UNL     1       3.415  28.333  28.012  1.00  0.00     0.282 C 
ATOM     11  O   UNL     1       2.769  27.109  28.107  1.00  0.00    -0.341 OA
ATOM     12  C   UNL     1       3.900  28.700  26.659  1.00  0.00     0.202 C 
ATOM     13  C   UNL     1       4.439  27.573  25.830  1.00  0.00     0.179 C 
ATOM     14  C   UNL     1       3.882  26.210  26.264  1.00  0.00     0.177 C 
BRANCH  10  15
ATOM     15  O   UNL     1       4.469  28.304  28.907  1.00  0.00    -0.341 OA
BRANCH  15  16
ATOM     16  C   UNL     1       4.073  28.092  30.216  1.00  0.00     0.184 C 
ATOM     17  C   UNL     1       4.652  29.201  31.068  1.00  0.00     0.178 C 
ATOM     18  O   UNL     1       5.806  28.849  31.679  1.00  0.00    -0.341 OA
ATOM     19  C   UNL     1       5.680  27.865  32.591  1.00  0.00     0.281 C 
ATOM     20  C   UNL     1       4.680  26.759  30.639  1.00  0.00     0.180 C 
ATOM     21  C   UNL     1       4.913  26.701  32.106  1.00  0.00     0.202 C 
BRANCH  17  22
ATOM     22  C   UNL     1       3.633  29.662  32.074  1.00  0.00     0.191 C 
BRANCH  22  23
ATOM     23  O   UNL     1       4.035  30.839  32.712  1.00  0.00    -0.394 OA
ATOM     24  H   UNL     1       4.108  31.530  31.986  1.00  0.00     0.210 HD
ENDBRANCH  22  23
ENDBRANCH  17  22
BRANCH  19  25
ATOM     25  O   UNL     1       5.263  28.310  33.855  1.00  0.00    -0.350 OA
BRANCH  25  26
ATOM     26  C   UNL     1       6.092  27.932  34.881  1.00  0.00     0.169 C 
BRANCH  26  27
ATOM     27  C   UNL     1       7.514  27.950  34.431  1.00  0.00     0.119 C 
BRANCH  27  28
ATOM     28  N   UNL     1       8.261  28.890  35.229  1.00  0.00    -0.092 NA
ATOM     29  N   UNL     1       8.885  28.556  36.244  1.00  0.00     0.001 N 
ATOM     30  N   UNL     1       9.580  27.970  37.078  1.00  0.00    -0.003 NA
ENDBRANCH  27  28
ENDBRANCH  26  27
ENDBRANCH  25  26
ENDBRANCH  19  25
BRANCH  20  31
ATOM     31  O   UNL     1       3.839  25.714  30.268  1.00  0.00    -0.387 OA
ATOM     32  H   UNL     1       4.365  24.860  30.171  1.00  0.00     0.211 HD
ENDBRANCH  20  31
BRANCH  21  33
ATOM     33  O   UNL     1       5.657  25.524  32.371  1.00  0.00    -0.385 OA
ATOM     34  H   UNL     1       6.380  25.457  31.682  1.00  0.00     0.211 HD
ENDBRANCH  21  33
ENDBRANCH  15  16
ENDBRANCH  10  15
BRANCH  12  35
ATOM     35  O   UNL     1       2.954  29.460  25.938  1.00  0.00    -0.385 OA
ATOM     36  H   UNL     1       2.337  28.818  25.523  1.00  0.00     0.211 HD
ENDBRANCH  12  35
BRANCH  13  37
ATOM     37  O   UNL     1       5.827  27.493  25.946  1.00  0.00    -0.387 OA
ATOM     38  H   UNL     1       6.102  27.124  26.840  1.00  0.00     0.211 HD
ENDBRANCH  13  37
BRANCH  14  39
ATOM     39  O   UNL     1       4.721  25.682  27.262  1.00  0.00    -0.387 OA
ATOM     40  H   UNL     1       4.844  24.721  27.207  1.00  0.00     0.211 HD
ENDBRANCH  14  39
ENDBRANCH   8   9
ENDBRANCH   7   8
ENDBRANCH   1   7
BRANCH   1  41
ATOM     41  C   UNL     1       2.702  22.750  27.122  1.00  0.00     0.364 C 
ATOM     42  O   UNL     1       2.016  21.932  26.419  1.00  0.00    -0.246 OA
BRANCH  41  43
ATOM     43  O   UNL     1       3.979  23.118  26.689  1.00  0.00    -0.477 OA
ATOM     44  H   UNL     1       4.740  22.500  26.959  1.00  0.00     0.296 HD
ENDBRANCH  41  43
ENDBRANCH   1  41
BRANCH   3  45
ATOM     45  O   UNL     1       0.958  24.191  30.409  1.00  0.00    -0.391 OA
ATOM     46  H   UNL     1       1.873  24.263  30.031  1.00  0.00     0.211 HD
ENDBRANCH   3  45
BRANCH   5  47
ATOM     47  C   UNL     1       3.419  20.935  30.854  1.00  0.00     0.176 C 
BRANCH  47  48
ATOM     48  O   UNL     1       4.448  20.484  30.005  1.00  0.00    -0.388 OA
ATOM     49  H   UNL     1       4.316  20.854  29.090  1.00  0.00     0.211 HD
ENDBRANCH  47  48
BRANCH  47  50
ATOM     50  C   UNL     1       4.112  21.892  31.829  1.00  0.00     0.165 C 
BRANCH  50  51
ATOM     51  O   UNL     1       5.500  21.702  31.729  1.00  0.00    -0.388 OA
ATOM     52  H   UNL     1       5.727  21.021  32.416  1.00  0.00     0.211 HD
ENDBRANCH  50  51
BRANCH  50  53
ATOM     53  C   UNL     1       3.691  21.664  33.240  1.00  0.00     0.154 C 
BRANCH  53  54
ATOM     54  N   UNL     1       4.387  22.538  34.146  1.00  0.00    -0.319 N 
ATOM     55  C   UNL     1       4.030  23.890  34.376  1.00  0.00     0.407 C 
ATOM     56  H   UNL     1       5.218  22.134  34.667  1.00  0.00     0.167 HD
ATOM     57  O   UNL     1       3.086  24.486  33.858  1.00  0.00    -0.225 OA
BRANCH  55  58
ATOM     58  O   UNL     1       4.806  24.658  35.278  1.00  0.00    -0.443 OA
BRANCH  58  59
ATOM     59  C   UNL     1       5.748  24.003  36.130  1.00  0.00     0.294 C 
BRANCH  59  60
ATOM     60  C   UNL     1       7.097  24.026  35.536  1.00  0.00     0.121 A 
ATOM     61  C   UNL     1       8.183  24.785  35.904  1.00  0.00     0.144 A 
ATOM     62  N   UNL     1       7.520  23.288  34.495  1.00  0.00    -0.131 NA
ATOM     63  N   UNL     1       9.227  24.501  35.094  1.00  0.00    -0.220 N 
ATOM     64  N   UNL     1       8.780  23.576  34.240  1.00  0.00    -0.062 NA
BRANCH  63  65
ATOM     65  C   UNL     1      10.535  25.044  35.101  1.00  0.00     0.079 A 
ATOM     66  C   UNL     1      11.483  24.466  35.905  1.00  0.00     0.065 A 
ATOM     67  C   UNL     1      10.864  26.134  34.320  1.00  0.00     0.029 A 
ATOM     68  C   UNL     1      12.784  24.958  35.953  1.00  0.00     0.016 A 
ATOM     69  C   UNL     1      12.164  26.643  34.354  1.00  0.00     0.002 A 
ATOM     70  C   UNL     1      13.102  26.048  35.169  1.00  0.00     0.001 A 
BRANCH  66  71
ATOM     71  C   UNL     1      11.130  23.323  36.722  1.00  0.00     0.250 C 
ATOM     72  O   UNL     1      10.932  23.496  37.951  1.00  0.00    -0.269 OA
ATOM     73  N   UNL     1      10.994  22.012  36.223  1.00  0.00    -0.366 N 
ATOM     74  H   UNL     1      10.096  21.515  36.324  1.00  0.00     0.159 HD
ATOM     75  H   UNL     1      11.793  21.554  35.761  1.00  0.00     0.159 HD
ENDBRANCH  66  71
ENDBRANCH  63  65
ENDBRANCH  59  60
ENDBRANCH  58  59
ENDBRANCH  55  58
ENDBRANCH  53  54
ENDBRANCH  50  53
ENDBRANCH  47  50
ENDBRANCH   5  47
BRANCH   4  76
ATOM     76  N   UNL     1       0.484  20.650  30.884  1.00  0.00    -0.348 N 
ATOM     77  C   UNL     1       0.020  20.153  32.128  1.00  0.00     0.217 C 
ATOM     78  H   UNL     1       0.345  20.052  30.035  1.00  0.00     0.163 HD
ATOM     79  C   UNL     1      -0.649  18.848  32.318  1.00  0.00     0.114 C 
ATOM     80  O   UNL     1       0.222  20.932  33.114  1.00  0.00    -0.275 OA
ENDBRANCH   4  76
TORSDOF 31
