REMARK VINA RESULT:    -5.276     17.466     23.080
REMARK INTER + INTRA:         -20.150
REMARK INTER:                 -14.886
REMARK INTRA:                  -5.264
REMARK UNBOUND:                -6.855
REMARK SMILES CC(=O)N[C@@H]1[C@@H](O)C[C@](OC[C@H]2O[C@@H](O[C@H]3[C@H](O)[C@@H](O)[C@H](OCCN=[N+]=[N-])O[C@@H]3CO)[C@H](O)[C@@H](O)[C@H]2O)(C(=O)O)O[C@H]1C(O)[C@H](O)CNC(=O)OCc1cn(Cc2ccsc2)nn1
REMARK SMILES IDX 9 1 8 2 6 3 5 4 42 5 41 6 10 7 11 8 12 9 14 10 13 11 32 12
REMARK SMILES IDX 34 13 36 14 15 15 16 16 29 17 28 18 21 19 17 20 19 21 30 22
REMARK SMILES IDX 31 23 22 25 23 26 24 27 25 28 26 29 27 30 18 31 20 33 33 35
REMARK SMILES IDX 35 37 37 39 38 41 39 42 40 43 7 45 43 47 44 48 45 50 46 51
REMARK SMILES IDX 47 53 48 54 49 55 50 57 51 58 52 59 53 60 54 61 63 62 55 63
REMARK SMILES IDX 62 64 56 65 57 66 58 67 61 68 59 69 60 70 4 71 2 72 1 74
REMARK SMILES IDX 3 75
REMARK H PARENT 31 24 18 32 20 34 33 36 35 38 37 40 40 44 7 46 44 49 46 52
REMARK H PARENT 48 56 4 73
REMARK Flexibility Score: inf
ROOT
ATOM      1  C   UNL     1       1.688  20.993  31.461  1.00  0.00     0.272 C 
ATOM      2  C   UNL     1       0.692  21.008  32.581  1.00  0.00     0.113 C 
ATOM      3  C   UNL     1       1.071  20.176  33.777  1.00  0.00     0.145 C 
ATOM      4  C   UNL     1       2.495  20.311  34.155  1.00  0.00     0.142 C 
ATOM      5  C   UNL     1       3.424  20.663  33.010  1.00  0.00     0.178 C 
ATOM      6  O   UNL     1       2.917  21.477  32.060  1.00  0.00    -0.332 OA
ENDROOT
BRANCH   1   7
ATOM      7  O   UNL     1       1.409  21.982  30.586  1.00  0.00    -0.338 OA
BRANCH   7   8
ATOM      8  C   UNL     1       0.318  22.076  29.849  1.00  0.00     0.199 C 
BRANCH   8   9
ATOM      9  C   UNL     1       0.293  22.288  28.393  1.00  0.00     0.179 C 
ATOM     10  C   UNL     1       0.575  24.033  26.961  1.00  0.00     0.282 C 
ATOM     11  O   UNL     1       1.077  23.481  28.162  1.00  0.00    -0.341 OA
ATOM     12  C   UNL     1       0.476  23.032  25.861  1.00  0.00     0.202 C 
ATOM     13  C   UNL     1       1.041  21.686  26.134  1.00  0.00     0.179 C 
ATOM     14  C   UNL     1       1.060  21.263  27.575  1.00  0.00     0.177 C 
BRANCH  10  15
ATOM     15  O   UNL     1       1.345  25.124  26.648  1.00  0.00    -0.341 OA
BRANCH  15  16
ATOM     16  C   UNL     1       2.605  25.126  27.271  1.00  0.00     0.184 C 
ATOM     17  C   UNL     1       2.870  26.401  27.991  1.00  0.00     0.178 C 
ATOM     18  O   UNL     1       3.586  27.356  27.337  1.00  0.00    -0.341 OA
ATOM     19  C   UNL     1       3.910  27.046  26.005  1.00  0.00     0.281 C 
ATOM     20  C   UNL     1       3.687  24.664  26.348  1.00  0.00     0.180 C 
ATOM     21  C   UNL     1       4.711  25.774  26.070  1.00  0.00     0.202 C 
BRANCH  17  22
ATOM     22  C   UNL     1       3.502  26.180  29.355  1.00  0.00     0.191 C 
BRANCH  22  23
ATOM     23  O   UNL     1       4.688  26.912  29.372  1.00  0.00    -0.394 OA
ATOM     24  H   UNL     1       4.673  27.655  28.698  1.00  0.00     0.210 HD
ENDBRANCH  22  23
ENDBRANCH  17  22
BRANCH  19  25
ATOM     25  O   UNL     1       4.564  28.128  25.483  1.00  0.00    -0.350 OA
BRANCH  25  26
ATOM     26  C   UNL     1       5.504  28.684  26.328  1.00  0.00     0.169 C 
BRANCH  26  27
ATOM     27  C   UNL     1       6.888  28.798  25.777  1.00  0.00     0.119 C 
BRANCH  27  28
ATOM     28  N   UNL     1       7.585  27.543  25.859  1.00  0.00    -0.092 NA
ATOM     29  N   UNL     1       8.673  27.439  25.271  1.00  0.00     0.001 N 
ATOM     30  N   UNL     1       9.788  27.085  24.886  1.00  0.00    -0.003 NA
ENDBRANCH  27  28
ENDBRANCH  26  27
ENDBRANCH  25  26
ENDBRANCH  19  25
BRANCH  20  31
ATOM     31  O   UNL     1       4.316  23.503  26.743  1.00  0.00    -0.387 OA
ATOM     32  H   UNL     1       4.789  23.079  25.997  1.00  0.00     0.211 HD
ENDBRANCH  20  31
BRANCH  21  33
ATOM     33  O   UNL     1       5.439  25.546  24.931  1.00  0.00    -0.385 OA
ATOM     34  H   UNL     1       6.204  26.176  24.832  1.00  0.00     0.211 HD
ENDBRANCH  21  33
ENDBRANCH  15  16
ENDBRANCH  10  15
BRANCH  12  35
ATOM     35  O   UNL     1      -0.848  22.950  25.353  1.00  0.00    -0.385 OA
ATOM     36  H   UNL     1      -1.058  23.772  24.836  1.00  0.00     0.211 HD
ENDBRANCH  12  35
BRANCH  13  37
ATOM     37  O   UNL     1       2.376  21.656  25.683  1.00  0.00    -0.387 OA
ATOM     38  H   UNL     1       2.960  21.898  26.438  1.00  0.00     0.211 HD
ENDBRANCH  13  37
BRANCH  14  39
ATOM     39  O   UNL     1       2.380  21.311  28.086  1.00  0.00    -0.387 OA
ATOM     40  H   UNL     1       2.468  22.242  28.459  1.00  0.00     0.211 HD
ENDBRANCH  14  39
ENDBRANCH   8   9
ENDBRANCH   7   8
ENDBRANCH   1   7
BRANCH   1  41
ATOM     41  C   UNL     1       2.039  19.664  30.960  1.00  0.00     0.364 C 
ATOM     42  O   UNL     1       3.106  19.419  30.364  1.00  0.00    -0.246 OA
BRANCH  41  43
ATOM     43  O   UNL     1       1.184  18.557  31.116  1.00  0.00    -0.477 OA
ATOM     44  H   UNL     1       0.351  18.460  30.552  1.00  0.00     0.296 HD
ENDBRANCH  41  43
ENDBRANCH   1  41
BRANCH   3  45
ATOM     45  O   UNL     1       0.284  20.707  34.835  1.00  0.00    -0.391 OA
ATOM     46  H   UNL     1       0.783  20.634  35.697  1.00  0.00     0.211 HD
ENDBRANCH   3  45
BRANCH   5  47
ATOM     47  C   UNL     1       4.627  21.438  33.602  1.00  0.00     0.176 C 
BRANCH  47  48
ATOM     48  O   UNL     1       4.148  22.508  34.355  1.00  0.00    -0.388 OA
ATOM     49  H   UNL     1       3.265  22.287  34.729  1.00  0.00     0.211 HD
ENDBRANCH  47  48
BRANCH  47  50
ATOM     50  C   UNL     1       5.422  21.982  32.469  1.00  0.00     0.165 C 
BRANCH  50  51
ATOM     51  O   UNL     1       5.523  21.008  31.476  1.00  0.00    -0.388 OA
ATOM     52  H   UNL     1       5.594  21.420  30.581  1.00  0.00     0.211 HD
ENDBRANCH  50  51
BRANCH  50  53
ATOM     53  C   UNL     1       6.817  22.416  32.832  1.00  0.00     0.154 C 
BRANCH  53  54
ATOM     54  N   UNL     1       6.865  23.280  33.973  1.00  0.00    -0.319 N 
ATOM     55  C   UNL     1       8.022  23.863  34.502  1.00  0.00     0.407 C 
ATOM     56  H   UNL     1       5.942  23.496  34.457  1.00  0.00     0.167 HD
ATOM     57  O   UNL     1       9.124  23.633  33.959  1.00  0.00    -0.225 OA
BRANCH  55  58
ATOM     58  O   UNL     1       7.926  24.679  35.610  1.00  0.00    -0.443 OA
BRANCH  58  59
ATOM     59  C   UNL     1       6.903  24.598  36.560  1.00  0.00     0.294 C 
BRANCH  59  60
ATOM     60  C   UNL     1       7.385  23.834  37.728  1.00  0.00     0.120 A 
ATOM     61  C   UNL     1       8.679  23.580  38.061  1.00  0.00     0.138 A 
ATOM     62  N   UNL     1       6.601  23.266  38.656  1.00  0.00    -0.132 NA
ATOM     63  N   UNL     1       8.658  22.856  39.194  1.00  0.00    -0.248 N 
ATOM     64  N   UNL     1       7.402  22.672  39.545  1.00  0.00    -0.067 NA
BRANCH  63  65
ATOM     65  C   UNL     1       9.823  22.374  39.891  1.00  0.00     0.182 C 
BRANCH  65  66
ATOM     66  C   UNL     1       9.790  22.920  41.325  1.00  0.00    -0.016 A 
ATOM     67  C   UNL     1       9.565  22.173  42.387  1.00  0.00     0.017 A 
ATOM     68  C   UNL     1      10.013  24.285  41.491  1.00  0.00     0.070 A 
ATOM     69  C   UNL     1       9.547  22.717  43.658  1.00  0.00     0.065 A 
ATOM     70  S   UNL     1       9.886  24.477  43.280  1.00  0.00    -0.152 S 
ENDBRANCH  65  66
ENDBRANCH  63  65
ENDBRANCH  59  60
ENDBRANCH  58  59
ENDBRANCH  55  58
ENDBRANCH  53  54
ENDBRANCH  50  53
ENDBRANCH  47  50
ENDBRANCH   5  47
BRANCH   4  71
ATOM     71  N   UNL     1       3.050  19.173  34.824  1.00  0.00    -0.348 N 
ATOM     72  C   UNL     1       3.095  19.061  36.238  1.00  0.00     0.217 C 
ATOM     73  H   UNL     1       3.442  18.381  34.270  1.00  0.00     0.163 HD
ATOM     74  C   UNL     1       3.671  17.877  36.948  1.00  0.00     0.114 C 
ATOM     75  O   UNL     1       2.610  20.039  36.879  1.00  0.00    -0.275 OA
ENDBRANCH   4  71
TORSDOF 31
