REMARK VINA RESULT:    -5.769      2.749      8.501
REMARK INTER + INTRA:         -22.559
REMARK INTER:                 -14.142
REMARK INTRA:                  -8.417
REMARK UNBOUND:                -7.010
REMARK SMILES CC(=O)N[C@@H]1[C@@H](O)C[C@](OC[C@H]2O[C@@H](O[C@H]3[C@H](O)[C@@H](O)[C@H](OCCN=[N+]=[N-])O[C@@H]3CO)[C@H](O)[C@@H](O)[C@H]2O)(C(=O)O)O[C@H]1C(O)[C@H](O)CNC(=O)OCc1cn([C@@H](CC(=O)O)C(=O)O)nn1
REMARK SMILES IDX 43 1 42 2 9 3 8 4 41 5 6 6 5 7 10 8 11 9 12 10 14 11 13 12
REMARK SMILES IDX 32 13 34 14 36 15 15 16 16 17 29 18 28 19 21 20 17 21 19 22
REMARK SMILES IDX 30 23 31 24 22 26 23 27 24 28 25 29 26 30 27 31 18 32 20 34
REMARK SMILES IDX 33 36 35 38 37 40 38 42 39 43 40 44 7 46 4 48 2 49 1 51 3 52
REMARK SMILES IDX 44 53 45 55 46 56 47 58 48 59 49 60 50 62 51 63 52 64 53 65
REMARK SMILES IDX 54 66 65 67 55 68 64 69 56 70 57 71 58 72 59 73 60 74 61 76
REMARK SMILES IDX 62 77 63 78
REMARK H PARENT 31 25 18 33 20 35 33 37 35 39 37 41 40 45 7 47 4 50 44 54
REMARK H PARENT 46 57 48 61 60 75 63 79
REMARK Flexibility Score: inf
ROOT
ATOM      1  C   UNL     1      25.136  28.367  19.803  1.00  0.00     0.176 C 
ENDROOT
BRANCH   1   2
ATOM      2  C   UNL     1      25.036  26.855  19.907  1.00  0.00     0.178 C 
ATOM      3  C   UNL     1      23.882  25.186  21.094  1.00  0.00     0.272 C 
ATOM      4  C   UNL     1      25.087  24.439  20.506  1.00  0.00     0.113 C 
ATOM      5  O   UNL     1      24.163  26.558  20.907  1.00  0.00    -0.332 OA
ATOM      6  C   UNL     1      26.313  25.161  21.048  1.00  0.00     0.145 C 
ATOM      7  C   UNL     1      26.458  26.362  20.098  1.00  0.00     0.142 C 
BRANCH   3   8
ATOM      8  O   UNL     1      23.704  24.899  22.300  1.00  0.00    -0.338 OA
BRANCH   8   9
ATOM      9  C   UNL     1      23.518  24.610  23.495  1.00  0.00     0.199 C 
BRANCH   9  10
ATOM     10  C   UNL     1      22.093  24.717  24.038  1.00  0.00     0.179 C 
ATOM     11  C   UNL     1      22.436  25.212  26.259  1.00  0.00     0.282 C 
ATOM     12  O   UNL     1      21.928  24.350  25.331  1.00  0.00    -0.341 OA
ATOM     13  C   UNL     1      21.914  26.589  26.114  1.00  0.00     0.202 C 
ATOM     14  C   UNL     1      20.791  26.512  25.067  1.00  0.00     0.179 C 
ATOM     15  C   UNL     1      21.484  26.077  23.790  1.00  0.00     0.177 C 
BRANCH  11  16
ATOM     16  O   UNL     1      23.789  25.087  26.529  1.00  0.00    -0.341 OA
BRANCH  16  17
ATOM     17  C   UNL     1      24.309  26.136  27.251  1.00  0.00     0.184 C 
ATOM     18  C   UNL     1      25.707  26.452  26.856  1.00  0.00     0.178 C 
ATOM     19  O   UNL     1      26.196  27.549  27.554  1.00  0.00    -0.341 OA
ATOM     20  C   UNL     1      25.778  27.606  28.888  1.00  0.00     0.281 C 
ATOM     21  C   UNL     1      24.280  25.694  28.712  1.00  0.00     0.180 C 
ATOM     22  C   UNL     1      25.506  26.196  29.405  1.00  0.00     0.202 C 
BRANCH  18  23
ATOM     23  C   UNL     1      25.684  26.877  25.389  1.00  0.00     0.191 C 
BRANCH  23  24
ATOM     24  O   UNL     1      24.680  27.854  25.222  1.00  0.00    -0.394 OA
ATOM     25  H   UNL     1      25.164  28.648  24.848  1.00  0.00     0.210 HD
ENDBRANCH  23  24
ENDBRANCH  18  23
BRANCH  20  26
ATOM     26  O   UNL     1      24.581  28.298  28.918  1.00  0.00    -0.350 OA
BRANCH  26  27
ATOM     27  C   UNL     1      24.646  29.625  29.212  1.00  0.00     0.169 C 
BRANCH  27  28
ATOM     28  C   UNL     1      24.164  30.453  28.060  1.00  0.00     0.119 C 
BRANCH  28  29
ATOM     29  N   UNL     1      23.329  29.605  27.208  1.00  0.00    -0.092 NA
ATOM     30  N   UNL     1      22.298  30.111  26.722  1.00  0.00     0.001 N 
ATOM     31  N   UNL     1      21.086  30.174  26.444  1.00  0.00    -0.003 NA
ENDBRANCH  28  29
ENDBRANCH  27  28
ENDBRANCH  26  27
ENDBRANCH  20  26
BRANCH  21  32
ATOM     32  O   UNL     1      23.146  26.203  29.335  1.00  0.00    -0.387 OA
ATOM     33  H   UNL     1      22.426  25.509  29.361  1.00  0.00     0.211 HD
ENDBRANCH  21  32
BRANCH  22  34
ATOM     34  O   UNL     1      26.628  25.384  29.234  1.00  0.00    -0.385 OA
ATOM     35  H   UNL     1      26.651  25.193  28.243  1.00  0.00     0.211 HD
ENDBRANCH  22  34
ENDBRANCH  16  17
ENDBRANCH  11  16
BRANCH  13  36
ATOM     36  O   UNL     1      21.308  27.087  27.270  1.00  0.00    -0.385 OA
ATOM     37  H   UNL     1      21.515  26.448  28.012  1.00  0.00     0.211 HD
ENDBRANCH  13  36
BRANCH  14  38
ATOM     38  O   UNL     1      20.124  27.701  24.910  1.00  0.00    -0.387 OA
ATOM     39  H   UNL     1      19.258  27.715  25.406  1.00  0.00     0.211 HD
ENDBRANCH  14  38
BRANCH  15  40
ATOM     40  O   UNL     1      22.425  27.019  23.439  1.00  0.00    -0.387 OA
ATOM     41  H   UNL     1      23.252  26.651  23.084  1.00  0.00     0.211 HD
ENDBRANCH  15  40
ENDBRANCH   9  10
ENDBRANCH   8   9
ENDBRANCH   3   8
BRANCH   3  42
ATOM     42  C   UNL     1      22.743  24.830  20.142  1.00  0.00     0.364 C 
ATOM     43  O   UNL     1      21.568  25.030  20.484  1.00  0.00    -0.246 OA
BRANCH  42  44
ATOM     44  O   UNL     1      22.995  24.286  18.898  1.00  0.00    -0.477 OA
ATOM     45  H   UNL     1      23.950  24.110  18.556  1.00  0.00     0.296 HD
ENDBRANCH  42  44
ENDBRANCH   3  42
BRANCH   6  46
ATOM     46  O   UNL     1      26.002  25.769  22.284  1.00  0.00    -0.391 OA
ATOM     47  H   UNL     1      25.142  26.222  22.275  1.00  0.00     0.211 HD
ENDBRANCH   6  46
BRANCH   7  48
ATOM     48  N   UNL     1      27.054  25.843  18.889  1.00  0.00    -0.348 N 
ATOM     49  C   UNL     1      28.356  26.273  18.489  1.00  0.00     0.217 C 
ATOM     50  H   UNL     1      26.573  25.152  18.270  1.00  0.00     0.163 HD
ATOM     51  C   UNL     1      28.919  25.699  17.220  1.00  0.00     0.114 C 
ATOM     52  O   UNL     1      29.020  27.103  19.165  1.00  0.00    -0.275 OA
ENDBRANCH   7  48
ENDBRANCH   1   2
BRANCH   1  53
ATOM     53  O   UNL     1      26.401  28.770  19.391  1.00  0.00    -0.388 OA
ATOM     54  H   UNL     1      26.355  29.493  18.702  1.00  0.00     0.211 HD
ENDBRANCH   1  53
BRANCH   1  55
ATOM     55  C   UNL     1      24.704  29.126  21.000  1.00  0.00     0.165 C 
BRANCH  55  56
ATOM     56  O   UNL     1      24.948  28.533  22.218  1.00  0.00    -0.388 OA
ATOM     57  H   UNL     1      24.286  27.837  22.476  1.00  0.00     0.211 HD
ENDBRANCH  55  56
BRANCH  55  58
ATOM     58  C   UNL     1      23.320  29.656  20.843  1.00  0.00     0.154 C 
BRANCH  58  59
ATOM     59  N   UNL     1      22.597  29.212  19.692  1.00  0.00    -0.319 N 
ATOM     60  C   UNL     1      21.418  28.448  19.861  1.00  0.00     0.407 C 
ATOM     61  H   UNL     1      22.913  29.438  18.739  1.00  0.00     0.167 HD
ATOM     62  O   UNL     1      21.035  28.195  21.057  1.00  0.00    -0.225 OA
BRANCH  60  63
ATOM     63  O   UNL     1      20.627  27.933  18.849  1.00  0.00    -0.443 OA
BRANCH  63  64
ATOM     64  C   UNL     1      19.649  28.774  18.216  1.00  0.00     0.294 C 
BRANCH  64  65
ATOM     65  C   UNL     1      18.334  28.530  18.854  1.00  0.00     0.120 A 
ATOM     66  C   UNL     1      17.794  29.060  20.004  1.00  0.00     0.139 A 
ATOM     67  N   UNL     1      17.373  27.664  18.388  1.00  0.00    -0.132 NA
ATOM     68  N   UNL     1      16.557  28.517  20.202  1.00  0.00    -0.237 N 
ATOM     69  N   UNL     1      16.361  27.696  19.211  1.00  0.00    -0.066 NA
BRANCH  68  70
ATOM     70  C   UNL     1      15.665  28.795  21.304  1.00  0.00     0.229 C 
BRANCH  70  71
ATOM     71  C   UNL     1      16.149  30.058  21.996  1.00  0.00     0.161 C 
BRANCH  71  72
ATOM     72  C   UNL     1      16.489  29.806  23.409  1.00  0.00     0.306 C 
ATOM     73  O   UNL     1      17.681  29.842  23.807  1.00  0.00    -0.252 OA
BRANCH  72  74
ATOM     74  O   UNL     1      15.499  29.524  24.325  1.00  0.00    -0.481 OA
ATOM     75  H   UNL     1      15.465  28.585  24.739  1.00  0.00     0.296 HD
ENDBRANCH  72  74
ENDBRANCH  71  72
ENDBRANCH  70  71
BRANCH  70  76
ATOM     76  C   UNL     1      14.305  29.012  20.779  1.00  0.00     0.329 C 
ATOM     77  O   UNL     1      13.332  28.520  21.395  1.00  0.00    -0.250 OA
BRANCH  76  78
ATOM     78  O   UNL     1      14.046  29.742  19.627  1.00  0.00    -0.480 OA
ATOM     79  H   UNL     1      13.673  30.682  19.727  1.00  0.00     0.296 HD
ENDBRANCH  76  78
ENDBRANCH  70  76
ENDBRANCH  68  70
ENDBRANCH  64  65
ENDBRANCH  63  64
ENDBRANCH  60  63
ENDBRANCH  58  59
ENDBRANCH  55  58
ENDBRANCH   1  55
TORSDOF 35
