REMARK VINA RESULT:    -5.721     14.908     18.611
REMARK INTER + INTRA:         -21.215
REMARK INTER:                 -12.543
REMARK INTRA:                  -8.672
REMARK UNBOUND:                -6.131
REMARK SMILES COCC(C(N)=O)n1cc(COC(=O)NC[C@@H](O)C(O)[C@@H]2O[C@@](OC[C@H]3O[C@@H](O[C@H]4[C@H](O)[C@@H](O)[C@H](OCCN=[N+]=[N-])O[C@@H]4CO)[C@H](O)[C@@H](O)[C@H]3O)(C(=O)O)C[C@H](O)[C@H]2NC(C)=O)nn1
REMARK SMILES IDX 23 1 55 2 56 3 58 4 21 5 22 6 24 7 25 8 26 9 28 10 27 11
REMARK SMILES IDX 46 12 48 13 50 14 29 15 30 16 43 17 42 18 35 19 31 20 33 21
REMARK SMILES IDX 44 22 45 23 36 25 37 26 38 27 39 28 40 29 41 30 32 31 34 33
REMARK SMILES IDX 47 35 49 37 51 39 52 41 53 42 54 43 57 45 19 47 20 48 17 50
REMARK SMILES IDX 18 51 16 53 15 54 13 55 14 57 12 58 11 59 10 60 9 61 63 62
REMARK SMILES IDX 8 63 64 64 4 65 3 66 2 67 1 68 5 69 7 70 6 71 59 74 60 75
REMARK SMILES IDX 61 77 62 78
REMARK H PARENT 45 24 32 32 34 34 47 36 49 38 51 40 54 44 57 46 20 49 18 52
REMARK H PARENT 15 56 6 72 6 73 59 76
REMARK Flexibility Score: inf
ROOT
ATOM      1  C   UNL     1      19.984  19.046  10.559  1.00  0.00     0.272 C 
ATOM      2  C   UNL     1      18.952  18.512   9.643  1.00  0.00     0.113 C 
ATOM      3  C   UNL     1      19.335  18.334   8.220  1.00  0.00     0.145 C 
ATOM      4  C   UNL     1      20.225  19.464   7.777  1.00  0.00     0.142 C 
ATOM      5  C   UNL     1      20.072  20.579   8.800  1.00  0.00     0.178 C 
ATOM      6  O   UNL     1      20.591  20.170  10.000  1.00  0.00    -0.332 OA
ENDROOT
BRANCH   1   7
ATOM      7  O   UNL     1      20.982  18.197  10.949  1.00  0.00    -0.338 OA
BRANCH   7   8
ATOM      8  C   UNL     1      22.017  18.708  11.658  1.00  0.00     0.199 C 
BRANCH   8   9
ATOM      9  C   UNL     1      23.352  18.601  10.908  1.00  0.00     0.179 C 
ATOM     10  C   UNL     1      24.777  20.212  11.786  1.00  0.00     0.282 C 
ATOM     11  O   UNL     1      23.943  19.822  10.747  1.00  0.00    -0.341 OA
ATOM     12  C   UNL     1      25.816  19.198  12.119  1.00  0.00     0.202 C 
ATOM     13  C   UNL     1      25.224  17.865  12.442  1.00  0.00     0.179 C 
ATOM     14  C   UNL     1      24.218  17.502  11.410  1.00  0.00     0.177 C 
BRANCH  10  15
ATOM     15  O   UNL     1      24.075  20.613  12.908  1.00  0.00    -0.341 OA
BRANCH  15  16
ATOM     16  C   UNL     1      23.985  22.002  12.967  1.00  0.00     0.184 C 
ATOM     17  C   UNL     1      24.608  22.629  14.157  1.00  0.00     0.178 C 
ATOM     18  O   UNL     1      24.639  23.998  14.057  1.00  0.00    -0.341 OA
ATOM     19  C   UNL     1      23.575  24.553  13.345  1.00  0.00     0.281 C 
ATOM     20  C   UNL     1      22.480  22.314  13.038  1.00  0.00     0.180 C 
ATOM     21  C   UNL     1      22.316  23.717  13.512  1.00  0.00     0.202 C 
BRANCH  17  22
ATOM     22  C   UNL     1      26.029  22.180  14.440  1.00  0.00     0.191 C 
BRANCH  22  23
ATOM     23  O   UNL     1      26.015  20.951  15.096  1.00  0.00    -0.394 OA
ATOM     24  H   UNL     1      26.586  20.952  15.900  1.00  0.00     0.210 HD
ENDBRANCH  22  23
ENDBRANCH  17  22
BRANCH  19  25
ATOM     25  O   UNL     1      23.934  24.734  12.056  1.00  0.00    -0.350 OA
BRANCH  25  26
ATOM     26  C   UNL     1      23.823  25.947  11.469  1.00  0.00     0.169 C 
BRANCH  26  27
ATOM     27  C   UNL     1      23.890  26.019   9.984  1.00  0.00     0.119 C 
BRANCH  27  28
ATOM     28  N   UNL     1      24.610  24.934   9.397  1.00  0.00    -0.092 NA
ATOM     29  N   UNL     1      25.553  25.156   8.641  1.00  0.00     0.001 N 
ATOM     30  N   UNL     1      26.739  25.271   8.290  1.00  0.00    -0.003 NA
ENDBRANCH  27  28
ENDBRANCH  26  27
ENDBRANCH  25  26
ENDBRANCH  19  25
BRANCH  20  31
ATOM     31  O   UNL     1      21.906  22.125  11.782  1.00  0.00    -0.387 OA
ATOM     32  H   UNL     1      20.935  22.048  11.932  1.00  0.00     0.211 HD
ENDBRANCH  20  31
BRANCH  21  33
ATOM     33  O   UNL     1      22.002  23.750  14.888  1.00  0.00    -0.385 OA
ATOM     34  H   UNL     1      22.581  24.432  15.337  1.00  0.00     0.211 HD
ENDBRANCH  21  33
ENDBRANCH  15  16
ENDBRANCH  10  15
BRANCH  12  35
ATOM     35  O   UNL     1      26.601  19.023  10.964  1.00  0.00    -0.385 OA
ATOM     36  H   UNL     1      27.229  18.279  11.080  1.00  0.00     0.211 HD
ENDBRANCH  12  35
BRANCH  13  37
ATOM     37  O   UNL     1      24.757  17.786  13.753  1.00  0.00    -0.387 OA
ATOM     38  H   UNL     1      23.763  17.810  13.699  1.00  0.00     0.211 HD
ENDBRANCH  13  37
BRANCH  14  39
ATOM     39  O   UNL     1      23.402  16.459  11.854  1.00  0.00    -0.387 OA
ATOM     40  H   UNL     1      22.527  16.472  11.382  1.00  0.00     0.211 HD
ENDBRANCH  14  39
ENDBRANCH   8   9
ENDBRANCH   7   8
ENDBRANCH   1   7
BRANCH   1  41
ATOM     41  C   UNL     1      19.261  19.582  11.769  1.00  0.00     0.364 C 
ATOM     42  O   UNL     1      18.658  18.827  12.555  1.00  0.00    -0.246 OA
BRANCH  41  43
ATOM     43  O   UNL     1      19.278  20.934  11.994  1.00  0.00    -0.477 OA
ATOM     44  H   UNL     1      19.915  21.376  12.638  1.00  0.00     0.296 HD
ENDBRANCH  41  43
ENDBRANCH   1  41
BRANCH   3  45
ATOM     45  O   UNL     1      19.881  17.087   7.929  1.00  0.00    -0.391 OA
ATOM     46  H   UNL     1      19.584  16.789   7.034  1.00  0.00     0.211 HD
ENDBRANCH   3  45
BRANCH   5  47
ATOM     47  C   UNL     1      20.813  21.813   8.322  1.00  0.00     0.176 C 
BRANCH  47  48
ATOM     48  O   UNL     1      20.564  22.919   9.076  1.00  0.00    -0.388 OA
ATOM     49  H   UNL     1      19.712  22.988   9.526  1.00  0.00     0.211 HD
ENDBRANCH  47  48
BRANCH  47  50
ATOM     50  C   UNL     1      22.291  21.539   8.261  1.00  0.00     0.165 C 
BRANCH  50  51
ATOM     51  O   UNL     1      22.882  22.332   9.275  1.00  0.00    -0.388 OA
ATOM     52  H   UNL     1      22.353  23.169   9.381  1.00  0.00     0.211 HD
ENDBRANCH  50  51
BRANCH  50  53
ATOM     53  C   UNL     1      22.947  21.940   6.983  1.00  0.00     0.154 C 
BRANCH  53  54
ATOM     54  N   UNL     1      22.120  22.619   6.041  1.00  0.00    -0.319 N 
ATOM     55  C   UNL     1      22.328  23.974   5.665  1.00  0.00     0.407 C 
ATOM     56  H   UNL     1      21.306  22.126   5.583  1.00  0.00     0.167 HD
ATOM     57  O   UNL     1      23.265  24.606   6.172  1.00  0.00    -0.225 OA
BRANCH  55  58
ATOM     58  O   UNL     1      21.503  24.617   4.736  1.00  0.00    -0.443 OA
BRANCH  58  59
ATOM     59  C   UNL     1      20.218  25.064   5.051  1.00  0.00     0.294 C 
BRANCH  59  60
ATOM     60  C   UNL     1      19.137  24.127   4.721  1.00  0.00     0.120 A 
ATOM     61  C   UNL     1      18.245  24.306   3.693  1.00  0.00     0.139 A 
ATOM     62  N   UNL     1      18.860  22.981   5.353  1.00  0.00    -0.132 NA
ATOM     63  N   UNL     1      17.433  23.247   3.726  1.00  0.00    -0.237 N 
ATOM     64  N   UNL     1      17.816  22.457   4.731  1.00  0.00    -0.066 NA
BRANCH  63  65
ATOM     65  C   UNL     1      16.327  23.011   2.816  1.00  0.00     0.223 C 
BRANCH  65  66
ATOM     66  C   UNL     1      16.870  22.438   1.548  1.00  0.00     0.197 C 
BRANCH  66  67
ATOM     67  O   UNL     1      17.850  21.505   1.782  1.00  0.00    -0.382 OA
ATOM     68  C   UNL     1      18.113  20.758   0.664  1.00  0.00     0.195 C 
ENDBRANCH  66  67
ENDBRANCH  65  66
BRANCH  65  69
ATOM     69  C   UNL     1      15.420  22.027   3.497  1.00  0.00     0.244 C 
ATOM     70  O   UNL     1      14.449  22.461   4.148  1.00  0.00    -0.273 OA
ATOM     71  N   UNL     1      15.696  20.642   3.379  1.00  0.00    -0.368 N 
ATOM     72  H   UNL     1      16.080  20.058   4.140  1.00  0.00     0.159 HD
ATOM     73  H   UNL     1      15.499  20.189   2.461  1.00  0.00     0.159 HD
ENDBRANCH  65  69
ENDBRANCH  63  65
ENDBRANCH  59  60
ENDBRANCH  58  59
ENDBRANCH  55  58
ENDBRANCH  53  54
ENDBRANCH  50  53
ENDBRANCH  47  50
ENDBRANCH   5  47
BRANCH   4  74
ATOM     74  N   UNL     1      19.879  19.912   6.431  1.00  0.00    -0.348 N 
ATOM     75  C   UNL     1      20.460  19.371   5.252  1.00  0.00     0.217 C 
ATOM     76  H   UNL     1      19.166  20.671   6.290  1.00  0.00     0.163 HD
ATOM     77  C   UNL     1      20.126  19.806   3.885  1.00  0.00     0.114 C 
ATOM     78  O   UNL     1      21.326  18.445   5.405  1.00  0.00    -0.275 OA
ENDBRANCH   4  74
TORSDOF 33
