REMARK VINA RESULT:    -5.542      6.702     12.988
REMARK INTER + INTRA:         -21.060
REMARK INTER:                 -15.590
REMARK INTRA:                  -5.470
REMARK UNBOUND:                -7.419
REMARK SMILES CC(=O)N[C@@H]1[C@@H](O)C[C@](OC[C@H]2O[C@@H](O[C@H]3[C@H](O)[C@@H](O)[C@H](OCCN=[N+]=[N-])O[C@@H]3CO)[C@H](O)[C@@H](O)[C@H]2O)(C(=O)O)O[C@H]1C(O)[C@H](O)CNC(=O)OCc1cn(-c2ccc(C)cc2)nn1
REMARK SMILES IDX 9 1 8 2 6 3 5 4 42 5 41 6 10 7 11 8 12 9 14 10 13 11 32 12
REMARK SMILES IDX 34 13 36 14 15 15 16 16 29 17 28 18 21 19 17 20 19 21 30 22
REMARK SMILES IDX 31 23 22 25 23 26 24 27 25 28 26 29 27 30 18 31 20 33 33 35
REMARK SMILES IDX 35 37 37 39 38 41 39 42 40 43 7 45 43 47 44 48 45 50 46 51
REMARK SMILES IDX 47 53 48 54 49 55 50 57 51 58 52 59 53 60 54 61 64 62 55 63
REMARK SMILES IDX 63 64 56 65 57 66 62 67 58 68 61 69 59 70 60 71 4 72 2 73
REMARK SMILES IDX 1 75 3 76
REMARK H PARENT 31 24 18 32 20 34 33 36 35 38 37 40 40 44 7 46 44 49 46 52
REMARK H PARENT 48 56 4 74
REMARK Flexibility Score: inf
ROOT
ATOM      1  C   UNL     1      21.926  26.130  21.549  1.00  0.00     0.272 C 
ATOM      2  C   UNL     1      23.300  26.557  22.055  1.00  0.00     0.113 C 
ATOM      3  C   UNL     1      24.368  26.268  21.070  1.00  0.00     0.145 C 
ATOM      4  C   UNL     1      23.965  26.359  19.641  1.00  0.00     0.142 C 
ATOM      5  C   UNL     1      22.560  26.888  19.374  1.00  0.00     0.178 C 
ATOM      6  O   UNL     1      21.676  26.453  20.302  1.00  0.00    -0.332 OA
ENDROOT
BRANCH   1   7
ATOM      7  O   UNL     1      21.021  26.868  22.373  1.00  0.00    -0.338 OA
BRANCH   7   8
ATOM      8  C   UNL     1      21.722  27.935  22.941  1.00  0.00     0.199 C 
BRANCH   8   9
ATOM      9  C   UNL     1      21.231  28.281  24.295  1.00  0.00     0.179 C 
ATOM     10  C   UNL     1      21.775  28.331  26.521  1.00  0.00     0.282 C 
ATOM     11  O   UNL     1      22.271  28.237  25.225  1.00  0.00    -0.341 OA
ATOM     12  C   UNL     1      21.255  29.695  26.776  1.00  0.00     0.202 C 
ATOM     13  C   UNL     1      21.088  30.447  25.485  1.00  0.00     0.179 C 
ATOM     14  C   UNL     1      20.515  29.601  24.367  1.00  0.00     0.177 C 
BRANCH  10  15
ATOM     15  O   UNL     1      22.795  28.046  27.425  1.00  0.00    -0.341 OA
BRANCH  15  16
ATOM     16  C   UNL     1      23.448  26.857  27.101  1.00  0.00     0.184 C 
ATOM     17  C   UNL     1      22.802  25.621  27.661  1.00  0.00     0.178 C 
ATOM     18  O   UNL     1      23.668  24.982  28.555  1.00  0.00    -0.341 OA
ATOM     19  C   UNL     1      23.884  25.807  29.644  1.00  0.00     0.281 C 
ATOM     20  C   UNL     1      24.830  26.971  27.707  1.00  0.00     0.180 C 
ATOM     21  C   UNL     1      24.608  27.071  29.223  1.00  0.00     0.202 C 
BRANCH  17  22
ATOM     22  C   UNL     1      22.580  24.587  26.544  1.00  0.00     0.191 C 
BRANCH  22  23
ATOM     23  O   UNL     1      22.794  25.164  25.295  1.00  0.00    -0.394 OA
ATOM     24  H   UNL     1      21.977  24.969  24.746  1.00  0.00     0.210 HD
ENDBRANCH  22  23
ENDBRANCH  17  22
BRANCH  19  25
ATOM     25  O   UNL     1      24.584  25.177  30.662  1.00  0.00    -0.350 OA
BRANCH  25  26
ATOM     26  C   UNL     1      24.959  26.020  31.678  1.00  0.00     0.169 C 
BRANCH  26  27
ATOM     27  C   UNL     1      26.424  26.006  32.013  1.00  0.00     0.119 C 
BRANCH  27  28
ATOM     28  N   UNL     1      27.142  25.012  31.254  1.00  0.00    -0.092 NA
ATOM     29  N   UNL     1      27.948  25.353  30.406  1.00  0.00     0.001 N 
ATOM     30  N   UNL     1      28.831  25.680  29.612  1.00  0.00    -0.003 NA
ENDBRANCH  27  28
ENDBRANCH  26  27
ENDBRANCH  25  26
ENDBRANCH  19  25
BRANCH  20  31
ATOM     31  O   UNL     1      25.638  25.880  27.420  1.00  0.00    -0.387 OA
ATOM     32  H   UNL     1      25.753  25.854  26.439  1.00  0.00     0.211 HD
ENDBRANCH  20  31
BRANCH  21  33
ATOM     33  O   UNL     1      23.696  28.135  29.380  1.00  0.00    -0.385 OA
ATOM     34  H   UNL     1      23.109  28.247  28.598  1.00  0.00     0.211 HD
ENDBRANCH  21  33
ENDBRANCH  15  16
ENDBRANCH  10  15
BRANCH  12  35
ATOM     35  O   UNL     1      20.046  29.676  27.497  1.00  0.00    -0.385 OA
ATOM     36  H   UNL     1      20.159  28.912  28.151  1.00  0.00     0.211 HD
ENDBRANCH  12  35
BRANCH  13  37
ATOM     37  O   UNL     1      22.268  31.074  25.168  1.00  0.00    -0.387 OA
ATOM     38  H   UNL     1      22.150  31.981  24.739  1.00  0.00     0.211 HD
ENDBRANCH  13  37
BRANCH  14  39
ATOM     39  O   UNL     1      20.703  30.259  23.166  1.00  0.00    -0.387 OA
ATOM     40  H   UNL     1      19.884  30.432  22.657  1.00  0.00     0.211 HD
ENDBRANCH  14  39
ENDBRANCH   8   9
ENDBRANCH   7   8
ENDBRANCH   1   7
BRANCH   1  41
ATOM     41  C   UNL     1      21.831  24.691  21.862  1.00  0.00     0.364 C 
ATOM     42  O   UNL     1      21.429  24.246  22.961  1.00  0.00    -0.246 OA
BRANCH  41  43
ATOM     43  O   UNL     1      22.210  23.780  20.857  1.00  0.00    -0.477 OA
ATOM     44  H   UNL     1      22.165  22.782  21.064  1.00  0.00     0.296 HD
ENDBRANCH  41  43
ENDBRANCH   1  41
BRANCH   3  45
ATOM     45  O   UNL     1      25.528  27.022  21.357  1.00  0.00    -0.391 OA
ATOM     46  H   UNL     1      25.910  26.598  22.192  1.00  0.00     0.211 HD
ENDBRANCH   3  45
BRANCH   5  47
ATOM     47  C   UNL     1      22.624  28.397  19.255  1.00  0.00     0.176 C 
BRANCH  47  48
ATOM     48  O   UNL     1      23.673  28.860  18.475  1.00  0.00    -0.388 OA
ATOM     49  H   UNL     1      23.427  29.788  18.216  1.00  0.00     0.211 HD
ENDBRANCH  47  48
BRANCH  47  50
ATOM     50  C   UNL     1      21.403  29.170  19.090  1.00  0.00     0.165 C 
BRANCH  50  51
ATOM     51  O   UNL     1      20.352  28.871  19.982  1.00  0.00    -0.388 OA
ATOM     52  H   UNL     1      20.721  28.585  20.859  1.00  0.00     0.211 HD
ENDBRANCH  50  51
BRANCH  50  53
ATOM     53  C   UNL     1      20.792  29.403  17.753  1.00  0.00     0.154 C 
BRANCH  53  54
ATOM     54  N   UNL     1      19.502  28.792  17.568  1.00  0.00    -0.319 N 
ATOM     55  C   UNL     1      18.729  29.041  16.396  1.00  0.00     0.407 C 
ATOM     56  H   UNL     1      19.112  28.154  18.299  1.00  0.00     0.167 HD
ATOM     57  O   UNL     1      19.199  29.794  15.508  1.00  0.00    -0.225 OA
BRANCH  55  58
ATOM     58  O   UNL     1      17.487  28.460  16.258  1.00  0.00    -0.443 OA
BRANCH  58  59
ATOM     59  C   UNL     1      16.324  28.989  16.796  1.00  0.00     0.294 C 
BRANCH  59  60
ATOM     60  C   UNL     1      16.164  28.621  18.204  1.00  0.00     0.121 A 
ATOM     61  C   UNL     1      15.358  29.281  19.150  1.00  0.00     0.144 A 
ATOM     62  N   UNL     1      16.724  27.625  18.877  1.00  0.00    -0.131 NA
ATOM     63  N   UNL     1      15.481  28.650  20.317  1.00  0.00    -0.220 N 
ATOM     64  N   UNL     1      16.315  27.649  20.131  1.00  0.00    -0.062 NA
BRANCH  63  65
ATOM     65  C   UNL     1      14.803  29.049  21.522  1.00  0.00     0.066 A 
ATOM     66  C   UNL     1      15.531  29.445  22.622  1.00  0.00     0.029 A 
ATOM     67  C   UNL     1      13.427  29.064  21.617  1.00  0.00     0.029 A 
ATOM     68  C   UNL     1      14.882  29.849  23.793  1.00  0.00     0.005 A 
ATOM     69  C   UNL     1      12.776  29.468  22.788  1.00  0.00     0.005 A 
ATOM     70  C   UNL     1      13.508  29.864  23.884  1.00  0.00    -0.051 A 
ATOM     71  C   UNL     1      12.812  30.308  25.134  1.00  0.00     0.044 C 
ENDBRANCH  63  65
ENDBRANCH  59  60
ENDBRANCH  58  59
ENDBRANCH  55  58
ENDBRANCH  53  54
ENDBRANCH  50  53
ENDBRANCH  47  50
ENDBRANCH   5  47
BRANCH   4  72
ATOM     72  N   UNL     1      24.249  25.146  18.899  1.00  0.00    -0.348 N 
ATOM     73  C   UNL     1      24.803  25.133  17.583  1.00  0.00     0.217 C 
ATOM     74  H   UNL     1      24.048  24.212  19.307  1.00  0.00     0.163 HD
ATOM     75  C   UNL     1      25.068  23.852  16.857  1.00  0.00     0.114 C 
ATOM     76  O   UNL     1      25.046  26.263  17.091  1.00  0.00    -0.275 OA
ENDBRANCH   4  72
TORSDOF 30
