REMARK VINA RESULT:    -5.399      7.687     14.798
REMARK INTER + INTRA:         -22.969
REMARK INTER:                 -16.664
REMARK INTRA:                  -6.305
REMARK UNBOUND:                -8.417
REMARK SMILES CC(=O)N[C@@H]1[C@@H](O)C[C@](OC[C@H]2O[C@@H](O[C@H]3[C@H](O)[C@@H](O)[C@H](OCCN=[N+]=[N-])O[C@@H]3CO)[C@H](O)[C@@H](O)[C@H]2O)(C(=O)O)O[C@H]1C(O)[C@H](O)CNC(=O)OCc1cn(CCNC(=O)NCc2ccco2)nn1
REMARK SMILES IDX 43 1 42 2 9 3 8 4 41 5 6 6 5 7 10 8 11 9 12 10 14 11 13 12
REMARK SMILES IDX 32 13 34 14 36 15 15 16 16 17 29 18 28 19 21 20 17 21 19 22
REMARK SMILES IDX 30 23 31 24 22 26 23 27 24 28 25 29 26 30 27 31 18 32 20 34
REMARK SMILES IDX 33 36 35 38 37 40 38 42 39 43 40 44 7 46 4 48 2 49 1 51 3 52
REMARK SMILES IDX 44 53 45 55 46 56 47 58 48 59 49 60 50 62 51 63 52 64 53 65
REMARK SMILES IDX 54 66 69 67 55 68 68 69 56 70 57 71 58 72 59 73 60 75 61 76
REMARK SMILES IDX 62 78 63 79 64 80 67 81 65 82 66 83
REMARK H PARENT 31 25 18 33 20 35 33 37 35 39 37 41 40 45 7 47 4 50 44 54
REMARK H PARENT 46 57 48 61 58 74 61 77
REMARK Flexibility Score: inf
ROOT
ATOM      1  C   UNL     1      28.773  22.016  20.460  1.00  0.00     0.176 C 
ENDROOT
BRANCH   1   2
ATOM      2  C   UNL     1      30.006  21.227  20.765  1.00  0.00     0.178 C 
ATOM      3  C   UNL     1      30.671  20.139  18.759  1.00  0.00     0.272 C 
ATOM      4  C   UNL     1      29.535  19.152  19.181  1.00  0.00     0.113 C 
ATOM      5  O   UNL     1      30.849  21.081  19.707  1.00  0.00    -0.332 OA
ATOM      6  C   UNL     1      29.571  18.821  20.619  1.00  0.00     0.145 C 
ATOM      7  C   UNL     1      29.806  19.983  21.553  1.00  0.00     0.142 C 
BRANCH   3   8
ATOM      8  O   UNL     1      30.161  20.747  17.631  1.00  0.00    -0.338 OA
BRANCH   8   9
ATOM      9  C   UNL     1      29.412  20.072  16.764  1.00  0.00     0.199 C 
BRANCH   9  10
ATOM     10  C   UNL     1      28.461  20.614  15.813  1.00  0.00     0.179 C 
ATOM     11  C   UNL     1      26.600  20.356  14.497  1.00  0.00     0.282 C 
ATOM     12  O   UNL     1      27.306  19.880  15.602  1.00  0.00    -0.341 OA
ATOM     13  C   UNL     1      26.896  21.759  14.116  1.00  0.00     0.202 C 
ATOM     14  C   UNL     1      27.281  22.679  15.238  1.00  0.00     0.179 C 
ATOM     15  C   UNL     1      27.961  21.963  16.367  1.00  0.00     0.177 C 
BRANCH  11  16
ATOM     16  O   UNL     1      25.231  20.197  14.642  1.00  0.00    -0.341 OA
BRANCH  16  17
ATOM     17  C   UNL     1      24.516  20.567  13.485  1.00  0.00     0.184 C 
ATOM     18  C   UNL     1      23.122  20.917  13.916  1.00  0.00     0.178 C 
ATOM     19  O   UNL     1      22.171  20.579  12.956  1.00  0.00    -0.341 OA
ATOM     20  C   UNL     1      22.156  19.191  12.888  1.00  0.00     0.281 C 
ATOM     21  C   UNL     1      24.624  19.446  12.507  1.00  0.00     0.180 C 
ATOM     22  C   UNL     1      23.377  18.716  12.175  1.00  0.00     0.202 C 
BRANCH  18  23
ATOM     23  C   UNL     1      23.042  22.436  14.072  1.00  0.00     0.191 C 
BRANCH  23  24
ATOM     24  O   UNL     1      23.377  22.729  15.412  1.00  0.00    -0.394 OA
ATOM     25  H   UNL     1      23.427  21.832  15.856  1.00  0.00     0.210 HD
ENDBRANCH  23  24
ENDBRANCH  18  23
BRANCH  20  26
ATOM     26  O   UNL     1      21.051  18.851  12.103  1.00  0.00    -0.350 OA
BRANCH  26  27
ATOM     27  C   UNL     1      20.251  19.963  11.838  1.00  0.00     0.169 C 
BRANCH  27  28
ATOM     28  C   UNL     1      19.965  19.941  10.334  1.00  0.00     0.119 C 
BRANCH  28  29
ATOM     29  N   UNL     1      20.632  21.101   9.771  1.00  0.00    -0.092 NA
ATOM     30  N   UNL     1      21.868  21.156   9.705  1.00  0.00     0.001 N 
ATOM     31  N   UNL     1      23.061  21.055   9.370  1.00  0.00    -0.003 NA
ENDBRANCH  28  29
ENDBRANCH  27  28
ENDBRANCH  26  27
ENDBRANCH  20  26
BRANCH  21  32
ATOM     32  O   UNL     1      25.203  19.971  11.335  1.00  0.00    -0.387 OA
ATOM     33  H   UNL     1      24.995  19.435  10.548  1.00  0.00     0.211 HD
ENDBRANCH  21  32
BRANCH  22  34
ATOM     34  O   UNL     1      23.547  17.360  12.551  1.00  0.00    -0.385 OA
ATOM     35  H   UNL     1      23.954  16.916  11.745  1.00  0.00     0.211 HD
ENDBRANCH  22  34
ENDBRANCH  16  17
ENDBRANCH  11  16
BRANCH  13  36
ATOM     36  O   UNL     1      27.779  21.855  13.031  1.00  0.00    -0.385 OA
ATOM     37  H   UNL     1      28.065  22.782  12.870  1.00  0.00     0.211 HD
ENDBRANCH  13  36
BRANCH  14  38
ATOM     38  O   UNL     1      26.186  23.415  15.708  1.00  0.00    -0.387 OA
ATOM     39  H   UNL     1      26.575  24.089  16.333  1.00  0.00     0.211 HD
ENDBRANCH  14  38
BRANCH  15  40
ATOM     40  O   UNL     1      27.169  21.784  17.476  1.00  0.00    -0.387 OA
ATOM     41  H   UNL     1      27.716  21.395  18.183  1.00  0.00     0.211 HD
ENDBRANCH  15  40
ENDBRANCH   9  10
ENDBRANCH   8   9
ENDBRANCH   3   8
BRANCH   3  42
ATOM     42  C   UNL     1      31.787  19.252  18.440  1.00  0.00     0.364 C 
ATOM     43  O   UNL     1      32.962  19.644  18.489  1.00  0.00    -0.246 OA
BRANCH  42  44
ATOM     44  O   UNL     1      31.624  17.915  18.062  1.00  0.00    -0.477 OA
ATOM     45  H   UNL     1      30.711  17.605  17.724  1.00  0.00     0.296 HD
ENDBRANCH  42  44
ENDBRANCH   3  42
BRANCH   6  46
ATOM     46  O   UNL     1      28.339  18.224  20.946  1.00  0.00    -0.391 OA
ATOM     47  H   UNL     1      27.971  17.783  20.140  1.00  0.00     0.211 HD
ENDBRANCH   6  46
BRANCH   7  48
ATOM     48  N   UNL     1      30.968  19.681  22.388  1.00  0.00    -0.348 N 
ATOM     49  C   UNL     1      31.071  20.168  23.698  1.00  0.00     0.217 C 
ATOM     50  H   UNL     1      31.722  19.089  21.979  1.00  0.00     0.163 HD
ATOM     51  C   UNL     1      32.238  19.889  24.588  1.00  0.00     0.114 C 
ATOM     52  O   UNL     1      30.114  20.884  24.132  1.00  0.00    -0.275 OA
ENDBRANCH   7  48
ENDBRANCH   1   2
BRANCH   1  53
ATOM     53  O   UNL     1      29.131  23.031  19.502  1.00  0.00    -0.388 OA
ATOM     54  H   UNL     1      29.045  23.872  19.976  1.00  0.00     0.211 HD
ENDBRANCH   1  53
BRANCH   1  55
ATOM     55  C   UNL     1      28.200  22.822  21.588  1.00  0.00     0.165 C 
BRANCH  55  56
ATOM     56  O   UNL     1      27.146  22.268  22.275  1.00  0.00    -0.388 OA
ATOM     57  H   UNL     1      26.498  21.797  21.694  1.00  0.00     0.211 HD
ENDBRANCH  55  56
BRANCH  55  58
ATOM     58  C   UNL     1      27.859  24.246  21.135  1.00  0.00     0.154 C 
BRANCH  58  59
ATOM     59  N   UNL     1      26.432  24.420  21.012  1.00  0.00    -0.319 N 
ATOM     60  C   UNL     1      25.754  24.412  19.771  1.00  0.00     0.407 C 
ATOM     61  H   UNL     1      25.875  24.555  21.878  1.00  0.00     0.167 HD
ATOM     62  O   UNL     1      26.411  24.245  18.710  1.00  0.00    -0.225 OA
BRANCH  60  63
ATOM     63  O   UNL     1      24.376  24.585  19.682  1.00  0.00    -0.443 OA
BRANCH  63  64
ATOM     64  C   UNL     1      23.835  25.888  19.876  1.00  0.00     0.294 C 
BRANCH  64  65
ATOM     65  C   UNL     1      22.778  25.721  20.921  1.00  0.00     0.120 A 
ATOM     66  C   UNL     1      22.975  25.190  22.167  1.00  0.00     0.138 A 
ATOM     67  N   UNL     1      21.470  26.063  20.817  1.00  0.00    -0.132 NA
ATOM     68  N   UNL     1      21.799  25.223  22.775  1.00  0.00    -0.250 N 
ATOM     69  N   UNL     1      20.892  25.752  21.954  1.00  0.00    -0.067 NA
BRANCH  68  70
ATOM     70  C   UNL     1      21.549  24.739  24.133  1.00  0.00     0.167 C 
BRANCH  70  71
ATOM     71  C   UNL     1      22.897  24.725  24.856  1.00  0.00     0.141 C 
BRANCH  71  72
ATOM     72  N   UNL     1      22.628  24.463  26.240  1.00  0.00    -0.336 N 
ATOM     73  C   UNL     1      23.122  25.249  27.300  1.00  0.00     0.315 C 
ATOM     74  H   UNL     1      22.022  23.625  26.449  1.00  0.00     0.165 HD
ATOM     75  O   UNL     1      23.859  26.236  27.087  1.00  0.00    -0.249 OA
ATOM     76  N   UNL     1      22.759  24.899  28.645  1.00  0.00    -0.331 N 
ATOM     77  H   UNL     1      22.137  24.062  28.777  1.00  0.00     0.165 HD
BRANCH  76  78
ATOM     78  C   UNL     1      23.241  25.677  29.752  1.00  0.00     0.193 C 
BRANCH  78  79
ATOM     79  C   UNL     1      22.174  26.587  30.248  1.00  0.00     0.122 A 
ATOM     80  C   UNL     1      20.853  26.553  29.819  1.00  0.00     0.047 A 
ATOM     81  O   UNL     1      22.296  27.523  31.127  1.00  0.00    -0.467 OA
ATOM     82  C   UNL     1      20.208  27.536  30.511  1.00  0.00     0.042 A 
ATOM     83  C   UNL     1      21.143  28.124  31.320  1.00  0.00     0.195 A 
ENDBRANCH  78  79
ENDBRANCH  76  78
ENDBRANCH  71  72
ENDBRANCH  70  71
ENDBRANCH  68  70
ENDBRANCH  64  65
ENDBRANCH  63  64
ENDBRANCH  60  63
ENDBRANCH  58  59
ENDBRANCH  55  58
ENDBRANCH   1  55
TORSDOF 34
