REMARK VINA RESULT:    -7.140     20.368     25.472
REMARK INTER + INTRA:         -23.113
REMARK INTER:                 -16.411
REMARK INTRA:                  -6.702
REMARK UNBOUND:                -5.539
REMARK SMILES CC(=O)N[C@@H]1[C@@H](O)C[C@](OC[C@H]2O[C@@H](O[C@H]3[C@H](O)[C@@H](O)[C@H](OCCN=[N+]=[N-])O[C@@H]3CO)[C@H](O)[C@@H](O)[C@H]2O)(C(=O)O)O[C@H]1C(O)[C@H](O)CNC(=O)OCc1cn(-c2c3ccccc3nc3ccccc23)nn1
REMARK SMILES IDX 9 1 8 2 6 3 5 4 42 5 41 6 10 7 11 8 12 9 14 10 13 11 32 12
REMARK SMILES IDX 34 13 36 14 15 15 16 16 29 17 28 18 21 19 17 20 19 21 30 22
REMARK SMILES IDX 31 23 22 25 23 26 24 27 25 28 26 29 27 30 18 31 20 33 33 35
REMARK SMILES IDX 35 37 37 39 38 41 39 42 40 43 7 45 43 47 44 48 45 50 46 51
REMARK SMILES IDX 47 53 48 54 49 55 50 57 51 58 52 59 53 60 54 61 71 62 55 63
REMARK SMILES IDX 70 64 56 65 57 66 69 67 58 68 62 69 64 70 68 71 59 72 61 73
REMARK SMILES IDX 63 74 65 75 67 76 60 77 66 78 4 79 2 80 1 82 3 83
REMARK H PARENT 31 24 18 32 20 34 33 36 35 38 37 40 40 44 7 46 44 49 46 52
REMARK H PARENT 48 56 4 81
REMARK Flexibility Score: inf
ROOT
ATOM      1  C   UNL     1      22.572  22.599  12.249  1.00  0.00     0.272 C 
ATOM      2  C   UNL     1      21.102  22.512  12.893  1.00  0.00     0.113 C 
ATOM      3  C   UNL     1      20.390  21.560  12.002  1.00  0.00     0.145 C 
ATOM      4  C   UNL     1      21.073  20.221  11.827  1.00  0.00     0.142 C 
ATOM      5  C   UNL     1      22.535  20.255  11.996  1.00  0.00     0.178 C 
ATOM      6  O   UNL     1      23.082  21.393  12.484  1.00  0.00    -0.332 OA
ENDROOT
BRANCH   1   7
ATOM      7  O   UNL     1      23.134  23.524  13.131  1.00  0.00    -0.338 OA
BRANCH   7   8
ATOM      8  C   UNL     1      22.472  23.749  14.290  1.00  0.00     0.199 C 
BRANCH   8   9
ATOM      9  C   UNL     1      22.570  25.124  14.828  1.00  0.00     0.179 C 
ATOM     10  C   UNL     1      22.329  26.486  16.708  1.00  0.00     0.282 C 
ATOM     11  O   UNL     1      22.189  25.201  16.140  1.00  0.00    -0.341 OA
ATOM     12  C   UNL     1      22.646  27.548  15.741  1.00  0.00     0.202 C 
ATOM     13  C   UNL     1      23.837  27.197  14.879  1.00  0.00     0.179 C 
ATOM     14  C   UNL     1      23.962  25.730  14.632  1.00  0.00     0.177 C 
BRANCH  10  15
ATOM     15  O   UNL     1      23.212  26.429  17.778  1.00  0.00    -0.341 OA
BRANCH  15  16
ATOM     16  C   UNL     1      22.550  26.313  19.022  1.00  0.00     0.184 C 
ATOM     17  C   UNL     1      23.023  27.367  19.941  1.00  0.00     0.178 C 
ATOM     18  O   UNL     1      22.795  27.072  21.310  1.00  0.00    -0.341 OA
ATOM     19  C   UNL     1      23.563  25.952  21.606  1.00  0.00     0.281 C 
ATOM     20  C   UNL     1      22.945  24.912  19.515  1.00  0.00     0.180 C 
ATOM     21  C   UNL     1      22.782  24.773  21.003  1.00  0.00     0.202 C 
BRANCH  17  22
ATOM     22  C   UNL     1      22.331  28.695  19.675  1.00  0.00     0.191 C 
BRANCH  22  23
ATOM     23  O   UNL     1      21.120  28.564  19.046  1.00  0.00    -0.394 OA
ATOM     24  H   UNL     1      21.158  27.786  18.432  1.00  0.00     0.210 HD
ENDBRANCH  22  23
ENDBRANCH  17  22
BRANCH  19  25
ATOM     25  O   UNL     1      23.680  25.867  22.970  1.00  0.00    -0.350 OA
BRANCH  25  26
ATOM     26  C   UNL     1      23.080  26.911  23.667  1.00  0.00     0.169 C 
BRANCH  26  27
ATOM     27  C   UNL     1      23.539  26.975  25.108  1.00  0.00     0.119 C 
BRANCH  27  28
ATOM     28  N   UNL     1      22.387  27.381  25.905  1.00  0.00    -0.092 NA
ATOM     29  N   UNL     1      21.239  27.249  25.464  1.00  0.00     0.001 N 
ATOM     30  N   UNL     1      20.073  27.079  25.104  1.00  0.00    -0.003 NA
ENDBRANCH  27  28
ENDBRANCH  26  27
ENDBRANCH  25  26
ENDBRANCH  19  25
BRANCH  20  31
ATOM     31  O   UNL     1      22.246  23.950  18.804  1.00  0.00    -0.387 OA
ATOM     32  H   UNL     1      22.043  24.224  17.876  1.00  0.00     0.211 HD
ENDBRANCH  20  31
BRANCH  21  33
ATOM     33  O   UNL     1      23.307  23.568  21.412  1.00  0.00    -0.385 OA
ATOM     34  H   UNL     1      22.764  23.262  22.200  1.00  0.00     0.211 HD
ENDBRANCH  21  33
ENDBRANCH  15  16
ENDBRANCH  10  15
BRANCH  12  35
ATOM     35  O   UNL     1      21.519  27.883  14.976  1.00  0.00    -0.385 OA
ATOM     36  H   UNL     1      20.750  27.876  15.621  1.00  0.00     0.211 HD
ENDBRANCH  12  35
BRANCH  13  37
ATOM     37  O   UNL     1      24.984  27.713  15.513  1.00  0.00    -0.387 OA
ATOM     38  H   UNL     1      25.358  28.391  14.864  1.00  0.00     0.211 HD
ENDBRANCH  13  37
BRANCH  14  39
ATOM     39  O   UNL     1      24.918  25.118  15.417  1.00  0.00    -0.387 OA
ATOM     40  H   UNL     1      24.560  24.785  16.279  1.00  0.00     0.211 HD
ENDBRANCH  14  39
ENDBRANCH   8   9
ENDBRANCH   7   8
ENDBRANCH   1   7
BRANCH   1  41
ATOM     41  C   UNL     1      22.315  23.116  10.946  1.00  0.00     0.364 C 
ATOM     42  O   UNL     1      21.644  24.186  10.786  1.00  0.00    -0.246 OA
BRANCH  41  43
ATOM     43  O   UNL     1      22.743  22.555   9.737  1.00  0.00    -0.477 OA
ATOM     44  H   UNL     1      22.749  21.547   9.645  1.00  0.00     0.296 HD
ENDBRANCH  41  43
ENDBRANCH   1  41
BRANCH   3  45
ATOM     45  O   UNL     1      19.100  21.378  12.558  1.00  0.00    -0.391 OA
ATOM     46  H   UNL     1      18.895  20.407  12.583  1.00  0.00     0.211 HD
ENDBRANCH   3  45
BRANCH   5  47
ATOM     47  C   UNL     1      23.025  19.137  12.958  1.00  0.00     0.176 C 
BRANCH  47  48
ATOM     48  O   UNL     1      22.510  17.929  12.593  1.00  0.00    -0.388 OA
ATOM     49  H   UNL     1      23.198  17.202  12.480  1.00  0.00     0.211 HD
ENDBRANCH  47  48
BRANCH  47  50
ATOM     50  C   UNL     1      24.439  19.243  13.311  1.00  0.00     0.165 C 
BRANCH  50  51
ATOM     51  O   UNL     1      24.754  19.979  14.456  1.00  0.00    -0.388 OA
ATOM     52  H   UNL     1      24.451  19.522  15.280  1.00  0.00     0.211 HD
ENDBRANCH  50  51
BRANCH  50  53
ATOM     53  C   UNL     1      25.443  19.360  12.231  1.00  0.00     0.154 C 
BRANCH  53  54
ATOM     54  N   UNL     1      26.231  20.529  12.111  1.00  0.00    -0.319 N 
ATOM     55  C   UNL     1      27.578  20.655  12.508  1.00  0.00     0.407 C 
ATOM     56  H   UNL     1      25.765  21.410  11.673  1.00  0.00     0.167 HD
ATOM     57  O   UNL     1      28.246  19.757  13.043  1.00  0.00    -0.225 OA
BRANCH  55  58
ATOM     58  O   UNL     1      28.274  21.864  12.309  1.00  0.00    -0.443 OA
BRANCH  58  59
ATOM     59  C   UNL     1      27.883  23.085  12.912  1.00  0.00     0.294 C 
BRANCH  59  60
ATOM     60  C   UNL     1      27.328  22.812  14.269  1.00  0.00     0.121 A 
ATOM     61  C   UNL     1      28.004  22.718  15.466  1.00  0.00     0.144 A 
ATOM     62  N   UNL     1      26.042  22.588  14.577  1.00  0.00    -0.131 NA
ATOM     63  N   UNL     1      27.138  22.445  16.469  1.00  0.00    -0.219 N 
ATOM     64  N   UNL     1      25.950  22.370  15.893  1.00  0.00    -0.062 NA
BRANCH  63  65
ATOM     65  C   UNL     1      27.464  22.270  17.860  1.00  0.00     0.085 A 
ATOM     66  C   UNL     1      27.241  23.301  18.760  1.00  0.00     0.027 A 
ATOM     67  C   UNL     1      28.000  21.100  18.345  1.00  0.00     0.027 A 
ATOM     68  C   UNL     1      26.705  24.498  18.336  1.00  0.00     0.012 A 
ATOM     69  C   UNL     1      27.543  23.184  20.114  1.00  0.00     0.073 A 
ATOM     70  C   UNL     1      28.284  21.024  19.690  1.00  0.00     0.073 A 
ATOM     71  C   UNL     1      28.244  20.043  17.516  1.00  0.00     0.012 A 
ATOM     72  C   UNL     1      26.482  25.523  19.230  1.00  0.00     0.001 A 
ATOM     73  C   UNL     1      27.319  24.211  21.004  1.00  0.00     0.029 A 
ATOM     74  N   UNL     1      28.065  22.031  20.553  1.00  0.00    -0.248 NA
ATOM     75  C   UNL     1      28.823  19.866  20.213  1.00  0.00     0.029 A 
ATOM     76  C   UNL     1      28.786  18.891  18.069  1.00  0.00     0.001 A 
ATOM     77  C   UNL     1      26.784  25.405  20.584  1.00  0.00     0.002 A 
ATOM     78  C   UNL     1      29.085  18.772  19.409  1.00  0.00     0.002 A 
ENDBRANCH  63  65
ENDBRANCH  59  60
ENDBRANCH  58  59
ENDBRANCH  55  58
ENDBRANCH  53  54
ENDBRANCH  50  53
ENDBRANCH  47  50
ENDBRANCH   5  47
BRANCH   4  79
ATOM     79  N   UNL     1      20.638  19.632  10.581  1.00  0.00    -0.348 N 
ATOM     80  C   UNL     1      19.518  18.757  10.450  1.00  0.00     0.217 C 
ATOM     81  H   UNL     1      21.151  19.826   9.689  1.00  0.00     0.163 HD
ATOM     82  C   UNL     1      19.170  18.205   9.097  1.00  0.00     0.114 C 
ATOM     83  O   UNL     1      18.870  18.488  11.473  1.00  0.00    -0.275 OA
ENDBRANCH   4  79
TORSDOF 30
