REMARK VINA RESULT:    -5.546      2.393      8.597
REMARK INTER + INTRA:         -21.959
REMARK INTER:                 -13.302
REMARK INTRA:                  -8.657
REMARK UNBOUND:                -7.010
REMARK SMILES CC(=O)N[C@@H]1[C@@H](O)C[C@](OC[C@H]2O[C@@H](O[C@H]3[C@H](O)[C@@H](O)[C@H](OCCN=[N+]=[N-])O[C@@H]3CO)[C@H](O)[C@@H](O)[C@H]2O)(C(=O)O)O[C@H]1C(O)[C@H](O)CNC(=O)OCc1cn([C@@H](CC(=O)O)C(=O)O)nn1
REMARK SMILES IDX 43 1 42 2 9 3 8 4 41 5 6 6 5 7 10 8 11 9 12 10 14 11 13 12
REMARK SMILES IDX 32 13 34 14 36 15 15 16 16 17 29 18 28 19 21 20 17 21 19 22
REMARK SMILES IDX 30 23 31 24 22 26 23 27 24 28 25 29 26 30 27 31 18 32 20 34
REMARK SMILES IDX 33 36 35 38 37 40 38 42 39 43 40 44 7 46 4 48 2 49 1 51 3 52
REMARK SMILES IDX 44 53 45 55 46 56 47 58 48 59 49 60 50 62 51 63 52 64 53 65
REMARK SMILES IDX 54 66 65 67 55 68 64 69 56 70 57 71 58 72 59 73 60 74 61 76
REMARK SMILES IDX 62 77 63 78
REMARK H PARENT 31 25 18 33 20 35 33 37 35 39 37 41 40 45 7 47 4 50 44 54
REMARK H PARENT 46 57 48 61 60 75 63 79
REMARK Flexibility Score: inf
ROOT
ATOM      1  C   UNL     1      25.805  27.120  20.601  1.00  0.00     0.176 C 
ENDROOT
BRANCH   1   2
ATOM      2  C   UNL     1      24.885  25.921  20.748  1.00  0.00     0.178 C 
ATOM      3  C   UNL     1      23.137  25.125  22.105  1.00  0.00     0.272 C 
ATOM      4  C   UNL     1      23.637  23.863  21.388  1.00  0.00     0.113 C 
ATOM      5  O   UNL     1      24.118  26.111  21.856  1.00  0.00    -0.332 OA
ATOM      6  C   UNL     1      25.109  23.745  21.756  1.00  0.00     0.145 C 
ATOM      7  C   UNL     1      25.794  24.706  20.771  1.00  0.00     0.142 C 
BRANCH   3   8
ATOM      8  O   UNL     1      22.969  24.923  23.329  1.00  0.00    -0.338 OA
BRANCH   8   9
ATOM      9  C   UNL     1      22.812  24.717  24.546  1.00  0.00     0.199 C 
BRANCH   9  10
ATOM     10  C   UNL     1      24.058  24.700  25.431  1.00  0.00     0.179 C 
ATOM     11  C   UNL     1      24.432  26.938  25.816  1.00  0.00     0.282 C 
ATOM     12  O   UNL     1      24.888  25.761  25.297  1.00  0.00    -0.341 OA
ATOM     13  C   UNL     1      24.067  26.834  27.246  1.00  0.00     0.202 C 
ATOM     14  C   UNL     1      24.541  25.447  27.708  1.00  0.00     0.179 C 
ATOM     15  C   UNL     1      23.726  24.466  26.886  1.00  0.00     0.177 C 
BRANCH  11  16
ATOM     16  O   UNL     1      23.575  27.667  25.008  1.00  0.00    -0.341 OA
BRANCH  16  17
ATOM     17  C   UNL     1      22.868  28.636  25.682  1.00  0.00     0.184 C 
ATOM     18  C   UNL     1      21.480  28.778  25.170  1.00  0.00     0.178 C 
ATOM     19  O   UNL     1      20.764  29.718  25.899  1.00  0.00    -0.341 OA
ATOM     20  C   UNL     1      21.519  30.827  26.294  1.00  0.00     0.281 C 
ATOM     21  C   UNL     1      23.629  29.941  25.463  1.00  0.00     0.180 C 
ATOM     22  C   UNL     1      22.652  31.061  25.299  1.00  0.00     0.202 C 
BRANCH  18  23
ATOM     23  C   UNL     1      20.767  27.447  25.403  1.00  0.00     0.191 C 
BRANCH  23  24
ATOM     24  O   UNL     1      20.792  27.162  26.784  1.00  0.00    -0.394 OA
ATOM     25  H   UNL     1      21.328  26.318  26.856  1.00  0.00     0.210 HD
ENDBRANCH  23  24
ENDBRANCH  18  23
BRANCH  20  26
ATOM     26  O   UNL     1      22.093  30.525  27.515  1.00  0.00    -0.350 OA
BRANCH  26  27
ATOM     27  C   UNL     1      21.326  30.723  28.620  1.00  0.00     0.169 C 
BRANCH  27  28
ATOM     28  C   UNL     1      21.752  29.820  29.738  1.00  0.00     0.119 C 
BRANCH  28  29
ATOM     29  N   UNL     1      21.754  28.445  29.235  1.00  0.00    -0.092 NA
ATOM     30  N   UNL     1      21.859  27.525  30.071  1.00  0.00     0.001 N 
ATOM     31  N   UNL     1      22.330  26.479  30.555  1.00  0.00    -0.003 NA
ENDBRANCH  28  29
ENDBRANCH  27  28
ENDBRANCH  26  27
ENDBRANCH  20  26
BRANCH  21  32
ATOM     32  O   UNL     1      24.455  30.192  26.551  1.00  0.00    -0.387 OA
ATOM     33  H   UNL     1      24.502  31.176  26.730  1.00  0.00     0.211 HD
ENDBRANCH  21  32
BRANCH  22  34
ATOM     34  O   UNL     1      22.151  31.192  24.003  1.00  0.00    -0.385 OA
ATOM     35  H   UNL     1      21.161  31.024  24.098  1.00  0.00     0.211 HD
ENDBRANCH  22  34
ENDBRANCH  16  17
ENDBRANCH  11  16
BRANCH  13  36
ATOM     36  O   UNL     1      24.735  27.746  28.066  1.00  0.00    -0.385 OA
ATOM     37  H   UNL     1      24.110  28.510  28.231  1.00  0.00     0.211 HD
ENDBRANCH  13  36
BRANCH  14  38
ATOM     38  O   UNL     1      24.377  25.248  29.056  1.00  0.00    -0.387 OA
ATOM     39  H   UNL     1      23.460  24.922  29.280  1.00  0.00     0.211 HD
ENDBRANCH  14  38
BRANCH  15  40
ATOM     40  O   UNL     1      22.388  24.648  27.157  1.00  0.00    -0.387 OA
ATOM     41  H   UNL     1      21.819  23.902  26.901  1.00  0.00     0.211 HD
ENDBRANCH  15  40
ENDBRANCH   9  10
ENDBRANCH   8   9
ENDBRANCH   3   8
BRANCH   3  42
ATOM     42  C   UNL     1      21.895  25.519  21.311  1.00  0.00     0.364 C 
ATOM     43  O   UNL     1      21.826  25.255  20.102  1.00  0.00    -0.246 OA
BRANCH  42  44
ATOM     44  O   UNL     1      20.838  26.171  21.915  1.00  0.00    -0.477 OA
ATOM     45  H   UNL     1      20.136  25.676  22.482  1.00  0.00     0.296 HD
ENDBRANCH  42  44
ENDBRANCH   3  42
BRANCH   6  46
ATOM     46  O   UNL     1      25.338  24.357  23.009  1.00  0.00    -0.391 OA
ATOM     47  H   UNL     1      25.718  23.745  23.661  1.00  0.00     0.211 HD
ENDBRANCH   6  46
BRANCH   7  48
ATOM     48  N   UNL     1      25.851  24.008  19.508  1.00  0.00    -0.348 N 
ATOM     49  C   UNL     1      27.112  23.614  18.963  1.00  0.00     0.217 C 
ATOM     50  H   UNL     1      24.999  23.768  18.952  1.00  0.00     0.163 HD
ATOM     51  C   UNL     1      27.104  22.893  17.645  1.00  0.00     0.114 C 
ATOM     52  O   UNL     1      28.197  23.855  19.553  1.00  0.00    -0.275 OA
ENDBRANCH   7  48
ENDBRANCH   1   2
BRANCH   1  53
ATOM     53  O   UNL     1      27.081  26.742  20.200  1.00  0.00    -0.388 OA
ATOM     54  H   UNL     1      27.771  27.410  20.476  1.00  0.00     0.211 HD
ENDBRANCH   1  53
BRANCH   1  55
ATOM     55  C   UNL     1      25.867  28.033  21.767  1.00  0.00     0.165 C 
BRANCH  55  56
ATOM     56  O   UNL     1      25.744  27.447  23.006  1.00  0.00    -0.388 OA
ATOM     57  H   UNL     1      25.507  28.078  23.737  1.00  0.00     0.211 HD
ENDBRANCH  55  56
BRANCH  55  58
ATOM     58  C   UNL     1      25.007  29.234  21.569  1.00  0.00     0.154 C 
BRANCH  58  59
ATOM     59  N   UNL     1      23.714  29.196  22.177  1.00  0.00    -0.319 N 
ATOM     60  C   UNL     1      22.560  29.144  21.359  1.00  0.00     0.407 C 
ATOM     61  H   UNL     1      23.600  29.201  23.200  1.00  0.00     0.167 HD
ATOM     62  O   UNL     1      22.727  29.120  20.090  1.00  0.00    -0.225 OA
BRANCH  60  63
ATOM     63  O   UNL     1      21.248  29.123  21.800  1.00  0.00    -0.443 OA
BRANCH  63  64
ATOM     64  C   UNL     1      20.320  30.104  21.308  1.00  0.00     0.294 C 
BRANCH  64  65
ATOM     65  C   UNL     1      19.116  29.403  20.803  1.00  0.00     0.120 A 
ATOM     66  C   UNL     1      17.783  29.720  20.936  1.00  0.00     0.139 A 
ATOM     67  N   UNL     1      19.122  28.230  20.085  1.00  0.00    -0.132 NA
ATOM     68  N   UNL     1      17.036  28.761  20.316  1.00  0.00    -0.237 N 
ATOM     69  N   UNL     1      17.885  27.903  19.829  1.00  0.00    -0.066 NA
BRANCH  68  70
ATOM     70  C   UNL     1      15.594  28.714  20.239  1.00  0.00     0.229 C 
BRANCH  70  71
ATOM     71  C   UNL     1      15.037  29.785  21.160  1.00  0.00     0.161 C 
BRANCH  71  72
ATOM     72  C   UNL     1      14.367  29.196  22.335  1.00  0.00     0.306 C 
ATOM     73  O   UNL     1      14.860  29.305  23.487  1.00  0.00    -0.252 OA
BRANCH  72  74
ATOM     74  O   UNL     1      13.181  28.510  22.191  1.00  0.00    -0.481 OA
ATOM     75  H   UNL     1      12.306  29.046  22.135  1.00  0.00     0.296 HD
ENDBRANCH  72  74
ENDBRANCH  71  72
ENDBRANCH  70  71
BRANCH  70  76
ATOM     76  C   UNL     1      15.177  28.991  18.854  1.00  0.00     0.329 C 
ATOM     77  O   UNL     1      14.026  29.440  18.645  1.00  0.00    -0.250 OA
BRANCH  76  78
ATOM     78  O   UNL     1      16.001  28.778  17.757  1.00  0.00    -0.480 OA
ATOM     79  H   UNL     1      16.913  28.357  17.915  1.00  0.00     0.296 HD
ENDBRANCH  76  78
ENDBRANCH  70  76
ENDBRANCH  68  70
ENDBRANCH  64  65
ENDBRANCH  63  64
ENDBRANCH  60  63
ENDBRANCH  58  59
ENDBRANCH  55  58
ENDBRANCH   1  55
TORSDOF 35
