REMARK VINA RESULT:    -6.155      4.435     12.546
REMARK INTER + INTRA:         -20.365
REMARK INTER:                 -15.969
REMARK INTRA:                  -4.396
REMARK UNBOUND:                -5.215
REMARK SMILES CC(=O)N[C@@H]1[C@@H](O)C[C@](OC[C@H]2O[C@@H](O[C@H]3[C@H](O)[C@@H](O)[C@H](OCCN=[N+]=[N-])O[C@@H]3CO)[C@H](O)[C@@H](O)[C@H]2O)(C(=O)O)O[C@H]1C(O)[C@H](O)CNC(=O)OCc1cn(C2CCCC2)nn1
REMARK SMILES IDX 9 1 8 2 6 3 5 4 42 5 41 6 10 7 11 8 12 9 14 10 13 11 32 12
REMARK SMILES IDX 34 13 36 14 15 15 16 16 29 17 28 18 21 19 17 20 19 21 30 22
REMARK SMILES IDX 31 23 22 25 23 26 24 27 25 28 26 29 27 30 18 31 20 33 33 35
REMARK SMILES IDX 35 37 37 39 38 41 39 42 40 43 7 45 43 47 44 48 45 50 46 51
REMARK SMILES IDX 47 53 48 54 49 55 50 57 51 58 52 59 53 60 54 61 62 62 55 63
REMARK SMILES IDX 61 64 56 65 57 66 60 67 58 68 59 69 4 70 2 71 1 73 3 74
REMARK H PARENT 31 24 18 32 20 34 33 36 35 38 37 40 40 44 7 46 44 49 46 52
REMARK H PARENT 48 56 4 72
REMARK Flexibility Score: inf
ROOT
ATOM      1  C   UNL     1      19.358  28.838  20.594  1.00  0.00     0.272 C 
ATOM      2  C   UNL     1      20.066  29.429  19.433  1.00  0.00     0.113 C 
ATOM      3  C   UNL     1      20.750  28.441  18.555  1.00  0.00     0.145 C 
ATOM      4  C   UNL     1      21.610  27.475  19.405  1.00  0.00     0.142 C 
ATOM      5  C   UNL     1      21.470  27.887  20.828  1.00  0.00     0.178 C 
ATOM      6  O   UNL     1      20.067  27.721  21.095  1.00  0.00    -0.332 OA
ENDROOT
BRANCH   1   7
ATOM      7  O   UNL     1      18.099  28.435  20.325  1.00  0.00    -0.338 OA
BRANCH   7   8
ATOM      8  C   UNL     1      17.170  29.347  19.896  1.00  0.00     0.199 C 
BRANCH   8   9
ATOM      9  C   UNL     1      16.149  28.591  19.050  1.00  0.00     0.179 C 
ATOM     10  C   UNL     1      14.197  29.820  19.364  1.00  0.00     0.282 C 
ATOM     11  O   UNL     1      14.886  28.628  19.546  1.00  0.00    -0.341 OA
ATOM     12  C   UNL     1      14.557  30.539  18.110  1.00  0.00     0.202 C 
ATOM     13  C   UNL     1      15.132  29.665  17.040  1.00  0.00     0.179 C 
ATOM     14  C   UNL     1      16.323  28.943  17.621  1.00  0.00     0.177 C 
BRANCH  10  15
ATOM     15  O   UNL     1      14.243  30.622  20.502  1.00  0.00    -0.341 OA
BRANCH  15  16
ATOM     16  C   UNL     1      13.039  30.605  21.206  1.00  0.00     0.184 C 
ATOM     17  C   UNL     1      12.623  31.931  21.747  1.00  0.00     0.178 C 
ATOM     18  O   UNL     1      11.459  31.763  22.494  1.00  0.00    -0.341 OA
ATOM     19  C   UNL     1      11.765  31.197  23.719  1.00  0.00     0.281 C 
ATOM     20  C   UNL     1      13.273  29.694  22.404  1.00  0.00     0.180 C 
ATOM     21  C   UNL     1      12.189  29.769  23.431  1.00  0.00     0.202 C 
BRANCH  17  22
ATOM     22  C   UNL     1      12.255  32.943  20.667  1.00  0.00     0.191 C 
BRANCH  22  23
ATOM     23  O   UNL     1      11.769  32.180  19.592  1.00  0.00    -0.394 OA
ATOM     24  H   UNL     1      12.427  32.117  18.879  1.00  0.00     0.210 HD
ENDBRANCH  22  23
ENDBRANCH  17  22
BRANCH  19  25
ATOM     25  O   UNL     1      10.608  31.134  24.489  1.00  0.00    -0.350 OA
BRANCH  25  26
ATOM     26  C   UNL     1       9.622  30.402  23.805  1.00  0.00     0.169 C 
BRANCH  26  27
ATOM     27  C   UNL     1       8.299  30.470  24.547  1.00  0.00     0.119 C 
BRANCH  27  28
ATOM     28  N   UNL     1       7.411  29.430  24.116  1.00  0.00    -0.092 NA
ATOM     29  N   UNL     1       7.624  28.229  24.377  1.00  0.00     0.001 N 
ATOM     30  N   UNL     1       8.116  27.111  24.246  1.00  0.00    -0.003 NA
ENDBRANCH  27  28
ENDBRANCH  26  27
ENDBRANCH  25  26
ENDBRANCH  19  25
BRANCH  20  31
ATOM     31  O   UNL     1      13.317  28.396  21.901  1.00  0.00    -0.387 OA
ATOM     32  H   UNL     1      13.256  27.706  22.607  1.00  0.00     0.211 HD
ENDBRANCH  20  31
BRANCH  21  33
ATOM     33  O   UNL     1      12.693  29.247  24.633  1.00  0.00    -0.385 OA
ATOM     34  H   UNL     1      11.977  29.389  25.304  1.00  0.00     0.211 HD
ENDBRANCH  21  33
ENDBRANCH  15  16
ENDBRANCH  10  15
BRANCH  12  35
ATOM     35  O   UNL     1      13.425  31.161  17.534  1.00  0.00    -0.385 OA
ATOM     36  H   UNL     1      13.432  32.094  17.820  1.00  0.00     0.211 HD
ENDBRANCH  12  35
BRANCH  13  37
ATOM     37  O   UNL     1      15.567  30.450  15.988  1.00  0.00    -0.387 OA
ATOM     38  H   UNL     1      16.217  29.927  15.468  1.00  0.00     0.211 HD
ENDBRANCH  13  37
BRANCH  14  39
ATOM     39  O   UNL     1      17.460  29.693  17.353  1.00  0.00    -0.387 OA
ATOM     40  H   UNL     1      17.263  30.607  17.104  1.00  0.00     0.211 HD
ENDBRANCH  14  39
ENDBRANCH   8   9
ENDBRANCH   7   8
ENDBRANCH   1   7
BRANCH   1  41
ATOM     41  C   UNL     1      19.413  29.823  21.741  1.00  0.00     0.364 C 
ATOM     42  O   UNL     1      19.147  29.503  22.910  1.00  0.00    -0.246 OA
BRANCH  41  43
ATOM     43  O   UNL     1      19.784  31.127  21.401  1.00  0.00    -0.477 OA
ATOM     44  H   UNL     1      20.772  31.399  21.489  1.00  0.00     0.296 HD
ENDBRANCH  41  43
ENDBRANCH   1  41
BRANCH   3  45
ATOM     45  O   UNL     1      19.946  27.764  17.674  1.00  0.00    -0.391 OA
ATOM     46  H   UNL     1      20.235  26.825  17.600  1.00  0.00     0.211 HD
ENDBRANCH   3  45
BRANCH   5  47
ATOM     47  C   UNL     1      22.132  26.977  21.832  1.00  0.00     0.176 C 
BRANCH  47  48
ATOM     48  O   UNL     1      23.535  26.925  21.440  1.00  0.00    -0.388 OA
ATOM     49  H   UNL     1      23.981  26.683  22.283  1.00  0.00     0.211 HD
ENDBRANCH  47  48
BRANCH  47  50
ATOM     50  C   UNL     1      21.741  25.527  21.762  1.00  0.00     0.165 C 
BRANCH  50  51
ATOM     51  O   UNL     1      20.482  25.190  22.116  1.00  0.00    -0.388 OA
ATOM     52  H   UNL     1      19.861  25.020  21.374  1.00  0.00     0.211 HD
ENDBRANCH  50  51
BRANCH  50  53
ATOM     53  C   UNL     1      22.702  24.745  22.649  1.00  0.00     0.154 C 
BRANCH  53  54
ATOM     54  N   UNL     1      22.074  24.579  23.967  1.00  0.00    -0.319 N 
ATOM     55  C   UNL     1      22.799  24.837  25.159  1.00  0.00     0.407 C 
ATOM     56  H   UNL     1      21.075  24.265  24.062  1.00  0.00     0.167 HD
ATOM     57  O   UNL     1      23.997  25.214  25.076  1.00  0.00    -0.225 OA
BRANCH  55  58
ATOM     58  O   UNL     1      22.225  24.685  26.400  1.00  0.00    -0.443 OA
BRANCH  58  59
ATOM     59  C   UNL     1      22.940  24.175  27.509  1.00  0.00     0.294 C 
BRANCH  59  60
ATOM     60  C   UNL     1      23.192  25.190  28.556  1.00  0.00     0.120 A 
ATOM     61  C   UNL     1      24.351  25.842  28.914  1.00  0.00     0.138 A 
ATOM     62  N   UNL     1      22.250  25.676  29.394  1.00  0.00    -0.132 NA
ATOM     63  N   UNL     1      24.087  26.674  29.924  1.00  0.00    -0.249 N 
ATOM     64  N   UNL     1      22.797  26.548  30.190  1.00  0.00    -0.067 NA
BRANCH  63  65
ATOM     65  C   UNL     1      25.001  27.567  30.627  1.00  0.00     0.109 C 
ATOM     66  C   UNL     1      24.527  27.921  31.998  1.00  0.00     0.027 C 
ATOM     67  C   UNL     1      26.306  26.834  30.853  1.00  0.00     0.027 C 
ATOM     68  C   UNL     1      25.155  26.949  32.964  1.00  0.00     0.002 C 
ATOM     69  C   UNL     1      26.207  26.186  32.200  1.00  0.00     0.002 C 
ENDBRANCH  63  65
ENDBRANCH  59  60
ENDBRANCH  58  59
ENDBRANCH  55  58
ENDBRANCH  53  54
ENDBRANCH  50  53
ENDBRANCH  47  50
ENDBRANCH   5  47
BRANCH   4  70
ATOM     70  N   UNL     1      22.950  27.461  18.865  1.00  0.00    -0.348 N 
ATOM     71  C   UNL     1      23.380  26.360  18.027  1.00  0.00     0.217 C 
ATOM     72  H   UNL     1      23.645  28.218  19.025  1.00  0.00     0.163 HD
ATOM     73  C   UNL     1      24.751  26.326  17.462  1.00  0.00     0.114 C 
ATOM     74  O   UNL     1      22.597  25.409  17.762  1.00  0.00    -0.275 OA
ENDBRANCH   4  70
TORSDOF 30
