REMARK VINA RESULT:    -4.580     14.035     19.364
REMARK INTER + INTRA:         -20.664
REMARK INTER:                 -14.668
REMARK INTRA:                  -5.996
REMARK UNBOUND:                -9.390
REMARK SMILES CC(=O)N[C@@H]1[C@@H](O)C[C@](OC[C@H]2O[C@@H](O[C@H]3[C@H](O)[C@@H](O)[C@H](OCCN=[N+]=[N-])O[C@@H]3CO)[C@H](O)[C@@H](O)[C@H]2O)(C(=O)O)O[C@H]1C(O)[C@H](O)CNC(=O)OCc1cn(-c2ccncc2)nn1
REMARK SMILES IDX 9 1 8 2 6 3 5 4 42 5 41 6 10 7 11 8 12 9 14 10 13 11 32 12
REMARK SMILES IDX 34 13 36 14 15 15 16 16 29 17 28 18 21 19 17 20 19 21 30 22
REMARK SMILES IDX 31 23 22 25 23 26 24 27 25 28 26 29 27 30 18 31 20 33 33 35
REMARK SMILES IDX 35 37 37 39 38 41 39 42 40 43 7 45 43 47 44 48 45 50 46 51
REMARK SMILES IDX 47 53 48 54 49 55 50 57 51 58 52 59 53 60 54 61 63 62 55 63
REMARK SMILES IDX 62 64 56 65 57 66 61 67 58 68 60 69 59 70 4 71 2 72 1 74
REMARK SMILES IDX 3 75
REMARK H PARENT 31 24 18 32 20 34 33 36 35 38 37 40 40 44 7 46 44 49 46 52
REMARK H PARENT 48 56 4 73
REMARK Flexibility Score: inf
ROOT
ATOM      1  C   UNL     1       4.782  29.043  31.349  1.00  0.00     0.272 C 
ATOM      2  C   UNL     1       5.682  29.703  32.414  1.00  0.00     0.113 C 
ATOM      3  C   UNL     1       6.369  28.628  33.264  1.00  0.00     0.145 C 
ATOM      4  C   UNL     1       5.229  27.962  34.107  1.00  0.00     0.142 C 
ATOM      5  C   UNL     1       4.173  27.564  33.118  1.00  0.00     0.178 C 
ATOM      6  O   UNL     1       4.679  27.724  31.835  1.00  0.00    -0.332 OA
ENDROOT
BRANCH   1   7
ATOM      7  O   UNL     1       5.418  28.940  30.200  1.00  0.00    -0.338 OA
BRANCH   7   8
ATOM      8  C   UNL     1       5.357  29.232  28.976  1.00  0.00     0.199 C 
BRANCH   8   9
ATOM      9  C   UNL     1       4.498  28.455  28.025  1.00  0.00     0.179 C 
ATOM     10  C   UNL     1       4.673  27.718  25.800  1.00  0.00     0.282 C 
ATOM     11  O   UNL     1       5.283  28.396  26.829  1.00  0.00    -0.341 OA
ATOM     12  C   UNL     1       4.463  26.279  26.153  1.00  0.00     0.202 C 
ATOM     13  C   UNL     1       3.696  26.182  27.474  1.00  0.00     0.179 C 
ATOM     14  C   UNL     1       4.428  26.998  28.496  1.00  0.00     0.177 C 
BRANCH  10  15
ATOM     15  O   UNL     1       5.606  27.818  24.736  1.00  0.00    -0.341 OA
BRANCH  15  16
ATOM     16  C   UNL     1       6.759  28.436  25.087  1.00  0.00     0.184 C 
ATOM     17  C   UNL     1       7.133  29.572  24.222  1.00  0.00     0.178 C 
ATOM     18  O   UNL     1       8.278  30.218  24.732  1.00  0.00    -0.341 OA
ATOM     19  C   UNL     1       9.336  29.333  24.296  1.00  0.00     0.281 C 
ATOM     20  C   UNL     1       7.902  27.377  25.014  1.00  0.00     0.180 C 
ATOM     21  C   UNL     1       9.226  28.110  25.127  1.00  0.00     0.202 C 
BRANCH  17  22
ATOM     22  C   UNL     1       6.048  30.564  24.035  1.00  0.00     0.191 C 
BRANCH  22  23
ATOM     23  O   UNL     1       5.142  30.187  23.032  1.00  0.00    -0.394 OA
ATOM     24  H   UNL     1       5.197  29.188  22.963  1.00  0.00     0.210 HD
ENDBRANCH  22  23
ENDBRANCH  17  22
BRANCH  19  25
ATOM     25  O   UNL     1      10.489  30.021  24.551  1.00  0.00    -0.350 OA
BRANCH  25  26
ATOM     26  C   UNL     1      11.110  30.465  23.424  1.00  0.00     0.169 C 
BRANCH  26  27
ATOM     27  C   UNL     1      12.456  29.887  23.129  1.00  0.00     0.119 C 
BRANCH  27  28
ATOM     28  N   UNL     1      12.782  29.907  21.717  1.00  0.00    -0.092 NA
ATOM     29  N   UNL     1      13.531  29.109  21.172  1.00  0.00     0.001 N 
ATOM     30  N   UNL     1      14.489  28.439  20.775  1.00  0.00    -0.003 NA
ENDBRANCH  27  28
ENDBRANCH  26  27
ENDBRANCH  25  26
ENDBRANCH  19  25
BRANCH  20  31
ATOM     31  O   UNL     1       7.751  26.573  26.118  1.00  0.00    -0.387 OA
ATOM     32  H   UNL     1       7.574  27.118  26.948  1.00  0.00     0.211 HD
ENDBRANCH  20  31
BRANCH  21  33
ATOM     33  O   UNL     1      10.275  27.247  24.850  1.00  0.00    -0.385 OA
ATOM     34  H   UNL     1       9.982  26.597  24.160  1.00  0.00     0.211 HD
ENDBRANCH  21  33
ENDBRANCH  15  16
ENDBRANCH  10  15
BRANCH  12  35
ATOM     35  O   UNL     1       3.668  25.630  25.179  1.00  0.00    -0.385 OA
ATOM     36  H   UNL     1       2.980  26.288  24.922  1.00  0.00     0.211 HD
ENDBRANCH  12  35
BRANCH  13  37
ATOM     37  O   UNL     1       3.557  24.888  27.916  1.00  0.00    -0.387 OA
ATOM     38  H   UNL     1       4.365  24.605  28.448  1.00  0.00     0.211 HD
ENDBRANCH  13  37
BRANCH  14  39
ATOM     39  O   UNL     1       5.762  26.578  28.618  1.00  0.00    -0.387 OA
ATOM     40  H   UNL     1       5.841  25.952  29.402  1.00  0.00     0.211 HD
ENDBRANCH  14  39
ENDBRANCH   8   9
ENDBRANCH   7   8
ENDBRANCH   1   7
BRANCH   1  41
ATOM     41  C   UNL     1       3.478  29.710  31.280  1.00  0.00     0.364 C 
ATOM     42  O   UNL     1       2.471  29.164  30.721  1.00  0.00    -0.246 OA
BRANCH  41  43
ATOM     43  O   UNL     1       3.241  30.959  31.803  1.00  0.00    -0.477 OA
ATOM     44  H   UNL     1       2.473  31.559  31.591  1.00  0.00     0.296 HD
ENDBRANCH  41  43
ENDBRANCH   1  41
BRANCH   3  45
ATOM     45  O   UNL     1       6.889  27.659  32.450  1.00  0.00    -0.391 OA
ATOM     46  H   UNL     1       6.953  26.792  32.896  1.00  0.00     0.211 HD
ENDBRANCH   3  45
BRANCH   5  47
ATOM     47  C   UNL     1       3.844  26.065  33.148  1.00  0.00     0.176 C 
BRANCH  47  48
ATOM     48  O   UNL     1       4.222  25.741  34.525  1.00  0.00    -0.388 OA
ATOM     49  H   UNL     1       3.371  25.500  34.999  1.00  0.00     0.211 HD
ENDBRANCH  47  48
BRANCH  47  50
ATOM     50  C   UNL     1       4.625  25.186  32.274  1.00  0.00     0.165 C 
BRANCH  50  51
ATOM     51  O   UNL     1       4.246  25.068  30.958  1.00  0.00    -0.388 OA
ATOM     52  H   UNL     1       5.015  24.824  30.379  1.00  0.00     0.211 HD
ENDBRANCH  50  51
BRANCH  50  53
ATOM     53  C   UNL     1       5.222  23.992  32.912  1.00  0.00     0.154 C 
BRANCH  53  54
ATOM     54  N   UNL     1       6.566  24.144  33.403  1.00  0.00    -0.319 N 
ATOM     55  C   UNL     1       7.422  23.026  33.546  1.00  0.00     0.407 C 
ATOM     56  H   UNL     1       6.875  25.098  33.662  1.00  0.00     0.167 HD
ATOM     57  O   UNL     1       6.960  21.908  33.224  1.00  0.00    -0.225 OA
BRANCH  55  58
ATOM     58  O   UNL     1       8.706  23.094  34.008  1.00  0.00    -0.443 OA
BRANCH  58  59
ATOM     59  C   UNL     1       9.158  23.855  35.108  1.00  0.00     0.294 C 
BRANCH  59  60
ATOM     60  C   UNL     1       9.686  25.192  34.679  1.00  0.00     0.121 A 
ATOM     61  C   UNL     1      10.987  25.635  34.595  1.00  0.00     0.144 A 
ATOM     62  N   UNL     1       8.926  26.242  34.284  1.00  0.00    -0.131 NA
ATOM     63  N   UNL     1      10.985  26.909  34.163  1.00  0.00    -0.220 N 
ATOM     64  N   UNL     1       9.711  27.258  33.979  1.00  0.00    -0.062 NA
BRANCH  63  65
ATOM     65  C   UNL     1      12.141  27.708  33.953  1.00  0.00     0.069 A 
ATOM     66  C   UNL     1      12.186  28.800  33.113  1.00  0.00     0.048 A 
ATOM     67  C   UNL     1      13.290  27.374  34.635  1.00  0.00     0.048 A 
ATOM     68  C   UNL     1      13.335  29.554  32.942  1.00  0.00     0.113 A 
ATOM     69  C   UNL     1      14.434  28.134  34.458  1.00  0.00     0.113 A 
ATOM     70  N   UNL     1      14.439  29.189  33.634  1.00  0.00    -0.265 NA
ENDBRANCH  63  65
ENDBRANCH  59  60
ENDBRANCH  58  59
ENDBRANCH  55  58
ENDBRANCH  53  54
ENDBRANCH  50  53
ENDBRANCH  47  50
ENDBRANCH   5  47
BRANCH   4  71
ATOM     71  N   UNL     1       4.829  29.028  34.994  1.00  0.00    -0.348 N 
ATOM     72  C   UNL     1       3.949  28.879  36.088  1.00  0.00     0.217 C 
ATOM     73  H   UNL     1       5.205  29.980  34.829  1.00  0.00     0.163 HD
ATOM     74  C   UNL     1       3.614  30.042  36.924  1.00  0.00     0.114 C 
ATOM     75  O   UNL     1       3.457  27.764  36.349  1.00  0.00    -0.275 OA
ENDBRANCH   4  71
TORSDOF 30
