REMARK VINA RESULT:    -6.259     17.206     21.988
REMARK INTER + INTRA:         -22.930
REMARK INTER:                 -14.231
REMARK INTRA:                  -8.699
REMARK UNBOUND:                -6.425
REMARK SMILES CC(=O)N[C@@H]1[C@@H](O)C[C@](OC[C@H]2O[C@@H](O[C@H]3[C@H](O)[C@@H](O)[C@H](OCCN=[N+]=[N-])O[C@@H]3CO)[C@H](O)[C@@H](O)[C@H]2O)(C(=O)O)O[C@H]1C(O)[C@H](O)CNC(=O)OCc1cn(-c2ccc(S(=O)(=O)Nc3nccs3)cc2)nn1
REMARK SMILES IDX 43 1 42 2 9 3 8 4 41 5 6 6 5 7 10 8 11 9 12 10 14 11 13 12
REMARK SMILES IDX 32 13 34 14 36 15 15 16 16 17 29 18 28 19 21 20 17 21 19 22
REMARK SMILES IDX 30 23 31 24 22 26 23 27 24 28 25 29 26 30 27 31 18 32 20 34
REMARK SMILES IDX 33 36 35 38 37 40 38 42 39 43 40 44 7 46 4 48 2 49 1 51 3 52
REMARK SMILES IDX 44 53 45 55 46 56 47 58 48 59 49 60 50 62 51 63 52 64 53 65
REMARK SMILES IDX 54 66 72 67 55 68 71 69 56 70 57 71 70 72 58 73 69 74 59 75
REMARK SMILES IDX 60 76 61 77 62 78 63 79 64 81 65 82 68 83 66 84 67 85
REMARK H PARENT 31 25 18 33 20 35 33 37 35 39 37 41 40 45 7 47 4 50 44 54
REMARK H PARENT 46 57 48 61 63 80
REMARK Flexibility Score: inf
ROOT
ATOM      1  C   UNL     1       5.100  23.117  32.911  1.00  0.00     0.176 C 
ENDROOT
BRANCH   1   2
ATOM      2  C   UNL     1       3.642  22.802  32.939  1.00  0.00     0.178 C 
ATOM      3  C   UNL     1       2.208  21.531  31.600  1.00  0.00     0.272 C 
ATOM      4  C   UNL     1       1.273  22.018  32.728  1.00  0.00     0.113 C 
ATOM      5  O   UNL     1       3.409  22.179  31.673  1.00  0.00    -0.332 OA
ATOM      6  C   UNL     1       1.296  23.487  32.915  1.00  0.00     0.145 C 
ATOM      7  C   UNL     1       2.735  24.008  32.908  1.00  0.00     0.142 C 
BRANCH   3   8
ATOM      8  O   UNL     1       1.644  21.796  30.377  1.00  0.00    -0.338 OA
BRANCH   8   9
ATOM      9  C   UNL     1       2.536  21.959  29.348  1.00  0.00     0.199 C 
BRANCH   9  10
ATOM     10  C   UNL     1       2.133  23.039  28.370  1.00  0.00     0.179 C 
ATOM     11  C   UNL     1       2.731  24.447  26.745  1.00  0.00     0.282 C 
ATOM     12  O   UNL     1       3.054  23.205  27.342  1.00  0.00    -0.341 OA
ATOM     13  C   UNL     1       1.549  24.187  25.842  1.00  0.00     0.202 C 
ATOM     14  C   UNL     1       0.910  22.840  26.196  1.00  0.00     0.179 C 
ATOM     15  C   UNL     1       0.808  22.704  27.704  1.00  0.00     0.177 C 
BRANCH  11  16
ATOM     16  O   UNL     1       3.761  24.982  26.049  1.00  0.00    -0.341 OA
BRANCH  16  17
ATOM     17  C   UNL     1       4.023  26.318  26.289  1.00  0.00     0.184 C 
ATOM     18  C   UNL     1       3.721  27.278  25.212  1.00  0.00     0.178 C 
ATOM     19  O   UNL     1       4.613  28.380  25.347  1.00  0.00    -0.341 OA
ATOM     20  C   UNL     1       5.891  28.040  24.885  1.00  0.00     0.281 C 
ATOM     21  C   UNL     1       5.445  26.512  26.798  1.00  0.00     0.180 C 
ATOM     22  C   UNL     1       6.415  26.848  25.664  1.00  0.00     0.202 C 
BRANCH  18  23
ATOM     23  C   UNL     1       2.347  27.940  25.306  1.00  0.00     0.191 C 
BRANCH  23  24
ATOM     24  O   UNL     1       1.788  27.905  26.547  1.00  0.00    -0.394 OA
ATOM     25  H   UNL     1       0.859  27.586  26.494  1.00  0.00     0.210 HD
ENDBRANCH  23  24
ENDBRANCH  18  23
BRANCH  20  26
ATOM     26  O   UNL     1       6.709  29.134  25.060  1.00  0.00    -0.350 OA
BRANCH  26  27
ATOM     27  C   UNL     1       7.252  29.658  23.915  1.00  0.00     0.169 C 
BRANCH  27  28
ATOM     28  C   UNL     1       7.025  31.143  23.761  1.00  0.00     0.119 C 
BRANCH  28  29
ATOM     29  N   UNL     1       5.601  31.359  23.741  1.00  0.00    -0.092 NA
ATOM     30  N   UNL     1       4.952  31.017  22.755  1.00  0.00     0.001 N 
ATOM     31  N   UNL     1       4.303  31.096  21.710  1.00  0.00    -0.003 NA
ENDBRANCH  28  29
ENDBRANCH  27  28
ENDBRANCH  26  27
ENDBRANCH  20  26
BRANCH  21  32
ATOM     32  O   UNL     1       5.510  27.572  27.702  1.00  0.00    -0.387 OA
ATOM     33  H   UNL     1       5.582  28.437  27.237  1.00  0.00     0.211 HD
ENDBRANCH  21  32
BRANCH  22  34
ATOM     34  O   UNL     1       6.663  25.740  24.865  1.00  0.00    -0.385 OA
ATOM     35  H   UNL     1       7.638  25.673  24.761  1.00  0.00     0.211 HD
ENDBRANCH  22  34
ENDBRANCH  16  17
ENDBRANCH  11  16
BRANCH  13  36
ATOM     36  O   UNL     1       0.500  25.115  26.059  1.00  0.00    -0.385 OA
ATOM     37  H   UNL     1      -0.049  25.230  25.269  1.00  0.00     0.211 HD
ENDBRANCH  13  36
BRANCH  14  38
ATOM     38  O   UNL     1       1.608  21.796  25.606  1.00  0.00    -0.387 OA
ATOM     39  H   UNL     1       1.653  20.998  26.194  1.00  0.00     0.211 HD
ENDBRANCH  14  38
BRANCH  15  40
ATOM     40  O   UNL     1       0.404  21.409  27.987  1.00  0.00    -0.387 OA
ATOM     41  H   UNL     1       1.068  20.725  27.805  1.00  0.00     0.211 HD
ENDBRANCH  15  40
ENDBRANCH   9  10
ENDBRANCH   8   9
ENDBRANCH   3   8
BRANCH   3  42
ATOM     42  C   UNL     1       2.365  20.092  31.822  1.00  0.00     0.364 C 
ATOM     43  O   UNL     1       1.510  19.412  32.477  1.00  0.00    -0.246 OA
BRANCH  42  44
ATOM     44  O   UNL     1       3.443  19.372  31.340  1.00  0.00    -0.477 OA
ATOM     45  H   UNL     1       3.733  18.508  31.818  1.00  0.00     0.296 HD
ENDBRANCH  42  44
ENDBRANCH   3  42
BRANCH   6  46
ATOM     46  O   UNL     1       0.518  24.174  31.983  1.00  0.00    -0.391 OA
ATOM     47  H   UNL     1       0.754  23.874  31.073  1.00  0.00     0.211 HD
ENDBRANCH   6  46
BRANCH   7  48
ATOM     48  N   UNL     1       2.919  24.953  33.952  1.00  0.00    -0.348 N 
ATOM     49  C   UNL     1       2.598  26.324  33.740  1.00  0.00     0.217 C 
ATOM     50  H   UNL     1       3.282  24.683  34.885  1.00  0.00     0.163 HD
ATOM     51  C   UNL     1       2.756  27.365  34.767  1.00  0.00     0.114 C 
ATOM     52  O   UNL     1       2.146  26.683  32.599  1.00  0.00    -0.275 OA
ENDBRANCH   7  48
ENDBRANCH   1   2
BRANCH   1  53
ATOM     53  O   UNL     1       5.302  24.213  32.014  1.00  0.00    -0.388 OA
ATOM     54  H   UNL     1       4.581  24.864  32.095  1.00  0.00     0.211 HD
ENDBRANCH   1  53
BRANCH   1  55
ATOM     55  C   UNL     1       6.026  22.002  32.521  1.00  0.00     0.165 C 
BRANCH  55  56
ATOM     56  O   UNL     1       5.467  20.853  33.178  1.00  0.00    -0.388 OA
ATOM     57  H   UNL     1       5.976  20.685  34.012  1.00  0.00     0.211 HD
ENDBRANCH  55  56
BRANCH  55  58
ATOM     58  C   UNL     1       7.390  22.143  33.186  1.00  0.00     0.154 C 
BRANCH  58  59
ATOM     59  N   UNL     1       7.247  23.122  34.231  1.00  0.00    -0.319 N 
ATOM     60  C   UNL     1       8.309  23.952  34.679  1.00  0.00     0.407 C 
ATOM     61  H   UNL     1       6.303  23.264  34.720  1.00  0.00     0.167 HD
ATOM     62  O   UNL     1       9.430  23.879  34.163  1.00  0.00    -0.225 OA
BRANCH  60  63
ATOM     63  O   UNL     1       8.126  24.867  35.709  1.00  0.00    -0.443 OA
BRANCH  63  64
ATOM     64  C   UNL     1       8.768  26.105  35.836  1.00  0.00     0.294 C 
BRANCH  64  65
ATOM     65  C   UNL     1       8.429  27.095  34.801  1.00  0.00     0.121 A 
ATOM     66  C   UNL     1       7.248  27.138  34.053  1.00  0.00     0.144 A 
ATOM     67  N   UNL     1       9.137  28.135  34.362  1.00  0.00    -0.131 NA
ATOM     68  N   UNL     1       7.280  28.192  33.197  1.00  0.00    -0.220 N 
ATOM     69  N   UNL     1       8.444  28.779  33.410  1.00  0.00    -0.062 NA
BRANCH  68  70
ATOM     70  C   UNL     1       6.231  28.546  32.279  1.00  0.00     0.066 A 
ATOM     71  C   UNL     1       5.484  27.610  31.624  1.00  0.00     0.030 A 
ATOM     72  C   UNL     1       5.989  29.889  32.050  1.00  0.00     0.030 A 
ATOM     73  C   UNL     1       4.487  28.005  30.734  1.00  0.00     0.024 A 
ATOM     74  C   UNL     1       5.019  30.328  31.182  1.00  0.00     0.024 A 
ATOM     75  C   UNL     1       4.277  29.349  30.533  1.00  0.00     0.088 A 
BRANCH  75  76
ATOM     76  S   UNL     1       3.041  29.877  29.419  1.00  0.00     0.263 S 
ATOM     77  O   UNL     1       2.486  31.189  29.937  1.00  0.00    -0.201 OA
ATOM     78  O   UNL     1       1.934  28.862  29.482  1.00  0.00    -0.201 OA
BRANCH  76  79
ATOM     79  N   UNL     1       3.690  30.023  27.852  1.00  0.00    -0.255 N 
ATOM     80  H   UNL     1       3.591  29.222  27.203  1.00  0.00     0.182 HD
BRANCH  79  81
ATOM     81  C   UNL     1       4.331  31.191  27.475  1.00  0.00     0.196 A 
ATOM     82  N   UNL     1       4.066  32.327  26.957  1.00  0.00    -0.228 NA
ATOM     83  S   UNL     1       6.163  31.388  27.701  1.00  0.00    -0.105 S 
ATOM     84  C   UNL     1       4.907  33.261  26.708  1.00  0.00     0.125 A 
ATOM     85  C   UNL     1       6.230  33.076  27.008  1.00  0.00     0.089 A 
ENDBRANCH  79  81
ENDBRANCH  76  79
ENDBRANCH  75  76
ENDBRANCH  68  70
ENDBRANCH  64  65
ENDBRANCH  63  64
ENDBRANCH  60  63
ENDBRANCH  58  59
ENDBRANCH  55  58
ENDBRANCH   1  55
TORSDOF 33
