REMARK VINA RESULT:    -5.441      8.613     15.085
REMARK INTER + INTRA:         -21.747
REMARK INTER:                 -17.391
REMARK INTRA:                  -4.357
REMARK UNBOUND:                -8.354
REMARK SMILES CC(=O)N[C@@H]1[C@@H](O)C[C@](OC[C@H]2O[C@@H](O[C@H]3[C@H](O)[C@@H](O)[C@H](OCCN=[N+]=[N-])O[C@@H]3CO)[C@H](O)[C@@H](O)[C@H]2O)(C(=O)O)O[C@H]1C(O)[C@H](O)CNC(=O)OCc1cn(-c2cccc(Cl)c2)nn1
REMARK SMILES IDX 9 1 8 2 6 3 5 4 42 5 41 6 10 7 11 8 12 9 14 10 13 11 32 12
REMARK SMILES IDX 34 13 36 14 15 15 16 16 29 17 28 18 21 19 17 20 19 21 30 22
REMARK SMILES IDX 31 23 22 25 23 26 24 27 25 28 26 29 27 30 18 31 20 33 33 35
REMARK SMILES IDX 35 37 37 39 38 41 39 42 40 43 7 45 43 47 44 48 45 50 46 51
REMARK SMILES IDX 47 53 48 54 49 55 50 57 51 58 52 59 53 60 54 61 64 62 55 63
REMARK SMILES IDX 63 64 56 65 57 66 62 67 58 68 60 69 59 70 61 71 4 72 2 73
REMARK SMILES IDX 1 75 3 76
REMARK H PARENT 31 24 18 32 20 34 33 36 35 38 37 40 40 44 7 46 44 49 46 52
REMARK H PARENT 48 56 4 74
REMARK Flexibility Score: inf
ROOT
ATOM      1  C   UNL     1      10.268  30.794  14.759  1.00  0.00     0.272 C 
ATOM      2  C   UNL     1       9.631  31.528  13.665  1.00  0.00     0.113 C 
ATOM      3  C   UNL     1       9.285  30.795  12.412  1.00  0.00     0.145 C 
ATOM      4  C   UNL     1       9.710  29.349  12.426  1.00  0.00     0.142 C 
ATOM      5  C   UNL     1      11.035  29.334  13.206  1.00  0.00     0.178 C 
ATOM      6  O   UNL     1      10.664  29.478  14.510  1.00  0.00    -0.332 OA
ENDROOT
BRANCH   1   7
ATOM      7  O   UNL     1       9.700  30.778  15.996  1.00  0.00    -0.338 OA
BRANCH   7   8
ATOM      8  C   UNL     1       8.668  31.537  16.362  1.00  0.00     0.199 C 
BRANCH   8   9
ATOM      9  C   UNL     1       7.416  30.912  16.880  1.00  0.00     0.179 C 
ATOM     10  C   UNL     1       5.681  31.253  18.366  1.00  0.00     0.282 C 
ATOM     11  O   UNL     1       6.783  31.848  17.724  1.00  0.00    -0.341 OA
ATOM     12  C   UNL     1       4.687  30.820  17.333  1.00  0.00     0.202 C 
ATOM     13  C   UNL     1       5.213  30.029  16.176  1.00  0.00     0.179 C 
ATOM     14  C   UNL     1       6.471  30.701  15.673  1.00  0.00     0.177 C 
BRANCH  10  15
ATOM     15  O   UNL     1       5.107  32.270  19.081  1.00  0.00    -0.341 OA
BRANCH  15  16
ATOM     16  C   UNL     1       5.419  32.369  20.436  1.00  0.00     0.184 C 
ATOM     17  C   UNL     1       6.624  31.659  20.845  1.00  0.00     0.178 C 
ATOM     18  O   UNL     1       6.481  30.902  21.983  1.00  0.00    -0.341 OA
ATOM     19  C   UNL     1       5.233  30.307  22.142  1.00  0.00     0.281 C 
ATOM     20  C   UNL     1       4.132  32.184  21.162  1.00  0.00     0.180 C 
ATOM     21  C   UNL     1       4.315  31.479  22.470  1.00  0.00     0.202 C 
BRANCH  17  22
ATOM     22  C   UNL     1       7.755  32.648  21.176  1.00  0.00     0.191 C 
BRANCH  22  23
ATOM     23  O   UNL     1       8.006  33.391  19.995  1.00  0.00    -0.394 OA
ATOM     24  H   UNL     1       8.969  33.479  19.876  1.00  0.00     0.210 HD
ENDBRANCH  22  23
ENDBRANCH  17  22
BRANCH  19  25
ATOM     25  O   UNL     1       5.294  29.447  23.201  1.00  0.00    -0.350 OA
BRANCH  25  26
ATOM     26  C   UNL     1       6.502  28.840  23.429  1.00  0.00     0.169 C 
BRANCH  26  27
ATOM     27  C   UNL     1       6.892  28.711  24.878  1.00  0.00     0.119 C 
BRANCH  27  28
ATOM     28  N   UNL     1       7.052  27.275  25.153  1.00  0.00    -0.092 NA
ATOM     29  N   UNL     1       8.208  26.896  25.436  1.00  0.00     0.001 N 
ATOM     30  N   UNL     1       9.186  26.519  26.106  1.00  0.00    -0.003 NA
ENDBRANCH  27  28
ENDBRANCH  26  27
ENDBRANCH  25  26
ENDBRANCH  19  25
BRANCH  20  31
ATOM     31  O   UNL     1       3.486  33.423  21.337  1.00  0.00    -0.387 OA
ATOM     32  H   UNL     1       2.734  33.245  21.956  1.00  0.00     0.211 HD
ENDBRANCH  20  31
BRANCH  21  33
ATOM     33  O   UNL     1       3.068  30.994  22.878  1.00  0.00    -0.385 OA
ATOM     34  H   UNL     1       2.875  31.208  23.805  1.00  0.00     0.211 HD
ENDBRANCH  21  33
ENDBRANCH  15  16
ENDBRANCH  10  15
BRANCH  12  35
ATOM     35  O   UNL     1       3.676  30.027  17.898  1.00  0.00    -0.385 OA
ATOM     36  H   UNL     1       3.460  29.251  17.333  1.00  0.00     0.211 HD
ENDBRANCH  12  35
BRANCH  13  37
ATOM     37  O   UNL     1       4.274  30.084  15.144  1.00  0.00    -0.387 OA
ATOM     38  H   UNL     1       4.545  29.625  14.331  1.00  0.00     0.211 HD
ENDBRANCH  13  37
BRANCH  14  39
ATOM     39  O   UNL     1       6.087  32.019  15.330  1.00  0.00    -0.387 OA
ATOM     40  H   UNL     1       6.679  32.428  14.680  1.00  0.00     0.211 HD
ENDBRANCH  14  39
ENDBRANCH   8   9
ENDBRANCH   7   8
ENDBRANCH   1   7
BRANCH   1  41
ATOM     41  C   UNL     1      11.613  31.493  15.006  1.00  0.00     0.364 C 
ATOM     42  O   UNL     1      12.384  31.168  15.925  1.00  0.00    -0.246 OA
BRANCH  41  43
ATOM     43  O   UNL     1      11.993  32.542  14.160  1.00  0.00    -0.477 OA
ATOM     44  H   UNL     1      11.828  33.503  14.484  1.00  0.00     0.296 HD
ENDBRANCH  41  43
ENDBRANCH   1  41
BRANCH   3  45
ATOM     45  O   UNL     1       7.944  30.858  12.079  1.00  0.00    -0.391 OA
ATOM     46  H   UNL     1       7.675  30.135  11.466  1.00  0.00     0.211 HD
ENDBRANCH   3  45
BRANCH   5  47
ATOM     47  C   UNL     1      11.846  28.089  12.896  1.00  0.00     0.176 C 
BRANCH  47  48
ATOM     48  O   UNL     1      12.614  28.467  11.764  1.00  0.00    -0.388 OA
ATOM     49  H   UNL     1      13.447  28.906  12.111  1.00  0.00     0.211 HD
ENDBRANCH  47  48
BRANCH  47  50
ATOM     50  C   UNL     1      12.846  27.868  14.011  1.00  0.00     0.165 C 
BRANCH  50  51
ATOM     51  O   UNL     1      12.229  28.057  15.236  1.00  0.00    -0.388 OA
ATOM     52  H   UNL     1      12.211  28.996  15.527  1.00  0.00     0.211 HD
ENDBRANCH  50  51
BRANCH  50  53
ATOM     53  C   UNL     1      13.955  28.919  13.897  1.00  0.00     0.154 C 
BRANCH  53  54
ATOM     54  N   UNL     1      14.567  29.197  15.166  1.00  0.00    -0.319 N 
ATOM     55  C   UNL     1      15.930  29.067  15.471  1.00  0.00     0.407 C 
ATOM     56  H   UNL     1      13.929  29.533  15.956  1.00  0.00     0.167 HD
ATOM     57  O   UNL     1      16.739  28.700  14.586  1.00  0.00    -0.225 OA
BRANCH  55  58
ATOM     58  O   UNL     1      16.436  29.343  16.774  1.00  0.00    -0.443 OA
BRANCH  58  59
ATOM     59  C   UNL     1      16.712  28.284  17.650  1.00  0.00     0.294 C 
BRANCH  59  60
ATOM     60  C   UNL     1      16.077  28.421  18.987  1.00  0.00     0.121 A 
ATOM     61  C   UNL     1      14.998  29.241  19.332  1.00  0.00     0.144 A 
ATOM     62  N   UNL     1      16.396  27.816  20.143  1.00  0.00    -0.131 NA
ATOM     63  N   UNL     1      14.721  29.100  20.641  1.00  0.00    -0.220 N 
ATOM     64  N   UNL     1      15.575  28.234  21.121  1.00  0.00    -0.062 NA
BRANCH  63  65
ATOM     65  C   UNL     1      13.680  29.813  21.295  1.00  0.00     0.068 A 
ATOM     66  C   UNL     1      13.194  31.025  20.860  1.00  0.00     0.028 A 
ATOM     67  C   UNL     1      13.085  29.290  22.455  1.00  0.00     0.049 A 
ATOM     68  C   UNL     1      12.171  31.684  21.536  1.00  0.00     0.004 A 
ATOM     69  C   UNL     1      12.076  29.944  23.121  1.00  0.00     0.043 A 
ATOM     70  C   UNL     1      11.600  31.154  22.673  1.00  0.00     0.020 A 
ATOM     71  Cl  UNL     1      11.342  29.274  24.571  1.00  0.00    -0.084 Cl
ENDBRANCH  63  65
ENDBRANCH  59  60
ENDBRANCH  58  59
ENDBRANCH  55  58
ENDBRANCH  53  54
ENDBRANCH  50  53
ENDBRANCH  47  50
ENDBRANCH   5  47
BRANCH   4  72
ATOM     72  N   UNL     1       9.812  28.779  11.123  1.00  0.00    -0.348 N 
ATOM     73  C   UNL     1       9.259  27.483  10.825  1.00  0.00     0.217 C 
ATOM     74  H   UNL     1      10.276  29.236  10.302  1.00  0.00     0.163 HD
ATOM     75  C   UNL     1       9.351  26.874   9.490  1.00  0.00     0.114 C 
ATOM     76  O   UNL     1       8.683  26.864  11.744  1.00  0.00    -0.275 OA
ENDBRANCH   4  72
TORSDOF 30
