REMARK VINA RESULT:    -5.187      2.661      6.268
REMARK INTER + INTRA:         -23.148
REMARK INTER:                 -15.222
REMARK INTRA:                  -7.925
REMARK UNBOUND:                -9.623
REMARK SMILES CC(=O)N[C@@H]1[C@@H](O)C[C@](OC[C@H]2O[C@@H](O[C@H]3[C@H](O)[C@@H](O)[C@H](OCCN=[N+]=[N-])O[C@@H]3CO)[C@H](O)[C@@H](O)[C@H]2O)(C(=O)O)O[C@H]1C(O)[C@H](O)CNC(=O)OCc1cn(Cc2ccc(C(=O)O)cc2)nn1
REMARK SMILES IDX 43 1 42 2 9 3 8 4 41 5 6 6 5 7 10 8 11 9 12 10 14 11 13 12
REMARK SMILES IDX 32 13 34 14 36 15 15 16 16 17 29 18 28 19 21 20 17 21 19 22
REMARK SMILES IDX 30 23 31 24 22 26 23 27 24 28 25 29 26 30 27 31 18 32 20 34
REMARK SMILES IDX 33 36 35 38 37 40 38 42 39 43 40 44 7 46 4 48 2 49 1 51 3 52
REMARK SMILES IDX 44 53 45 55 46 56 47 58 48 59 49 60 50 62 51 63 52 64 53 65
REMARK SMILES IDX 54 66 67 67 55 68 66 69 56 70 57 71 58 72 65 73 59 74 64 75
REMARK SMILES IDX 60 76 61 77 62 78 63 79
REMARK H PARENT 31 25 18 33 20 35 33 37 35 39 37 41 40 45 7 47 4 50 44 54
REMARK H PARENT 46 57 48 61 63 80
REMARK Flexibility Score: inf
ROOT
ATOM      1  C   UNL     1      21.073  30.681  22.138  1.00  0.00     0.176 C 
ENDROOT
BRANCH   1   2
ATOM      2  C   UNL     1      21.977  29.823  21.225  1.00  0.00     0.178 C 
ATOM      3  C   UNL     1      21.614  28.943  19.059  1.00  0.00     0.272 C 
ATOM      4  C   UNL     1      21.860  27.595  19.608  1.00  0.00     0.113 C 
ATOM      5  O   UNL     1      21.448  29.929  19.997  1.00  0.00    -0.332 OA
ATOM      6  C   UNL     1      21.389  27.434  21.038  1.00  0.00     0.145 C 
ATOM      7  C   UNL     1      22.088  28.490  21.843  1.00  0.00     0.142 C 
BRANCH   3   8
ATOM      8  O   UNL     1      20.480  28.976  18.291  1.00  0.00    -0.338 OA
BRANCH   8   9
ATOM      9  C   UNL     1      19.509  29.876  18.552  1.00  0.00     0.199 C 
BRANCH   9  10
ATOM     10  C   UNL     1      18.160  29.153  18.777  1.00  0.00     0.179 C 
ATOM     11  C   UNL     1      16.343  29.133  20.235  1.00  0.00     0.282 C 
ATOM     12  O   UNL     1      17.649  29.545  19.979  1.00  0.00    -0.341 OA
ATOM     13  C   UNL     1      15.810  28.148  19.257  1.00  0.00     0.202 C 
ATOM     14  C   UNL     1      15.924  28.747  17.871  1.00  0.00     0.179 C 
ATOM     15  C   UNL     1      17.231  29.434  17.624  1.00  0.00     0.177 C 
BRANCH  11  16
ATOM     16  O   UNL     1      15.538  30.270  20.289  1.00  0.00    -0.341 OA
BRANCH  16  17
ATOM     17  C   UNL     1      15.189  30.592  21.568  1.00  0.00     0.184 C 
ATOM     18  C   UNL     1      16.149  31.523  22.212  1.00  0.00     0.178 C 
ATOM     19  O   UNL     1      15.626  32.038  23.408  1.00  0.00    -0.341 OA
ATOM     20  C   UNL     1      14.985  31.039  24.144  1.00  0.00     0.281 C 
ATOM     21  C   UNL     1      15.160  29.268  22.355  1.00  0.00     0.180 C 
ATOM     22  C   UNL     1      15.426  29.648  23.797  1.00  0.00     0.202 C 
BRANCH  18  23
ATOM     23  C   UNL     1      16.456  32.683  21.309  1.00  0.00     0.191 C 
BRANCH  23  24
ATOM     24  O   UNL     1      17.665  32.350  20.654  1.00  0.00    -0.394 OA
ATOM     25  H   UNL     1      17.740  31.382  20.553  1.00  0.00     0.210 HD
ENDBRANCH  23  24
ENDBRANCH  18  23
BRANCH  20  26
ATOM     26  O   UNL     1      13.624  31.201  24.031  1.00  0.00    -0.350 OA
BRANCH  26  27
ATOM     27  C   UNL     1      12.954  31.373  25.220  1.00  0.00     0.169 C 
BRANCH  27  28
ATOM     28  C   UNL     1      13.650  32.215  26.236  1.00  0.00     0.119 C 
BRANCH  28  29
ATOM     29  N   UNL     1      13.953  31.333  27.375  1.00  0.00    -0.092 NA
ATOM     30  N   UNL     1      15.099  31.052  27.705  1.00  0.00     0.001 N 
ATOM     31  N   UNL     1      16.302  30.820  27.757  1.00  0.00    -0.003 NA
ENDBRANCH  28  29
ENDBRANCH  27  28
ENDBRANCH  26  27
ENDBRANCH  20  26
BRANCH  21  32
ATOM     32  O   UNL     1      13.938  28.649  22.206  1.00  0.00    -0.387 OA
ATOM     33  H   UNL     1      14.016  27.645  22.303  1.00  0.00     0.211 HD
ENDBRANCH  21  32
BRANCH  22  34
ATOM     34  O   UNL     1      16.751  29.432  24.096  1.00  0.00    -0.385 OA
ATOM     35  H   UNL     1      17.142  30.151  24.624  1.00  0.00     0.211 HD
ENDBRANCH  22  34
ENDBRANCH  16  17
ENDBRANCH  11  16
BRANCH  13  36
ATOM     36  O   UNL     1      16.502  26.928  19.313  1.00  0.00    -0.385 OA
ATOM     37  H   UNL     1      15.814  26.233  19.503  1.00  0.00     0.211 HD
ENDBRANCH  13  36
BRANCH  14  38
ATOM     38  O   UNL     1      14.879  29.635  17.614  1.00  0.00    -0.387 OA
ATOM     39  H   UNL     1      14.899  30.344  18.317  1.00  0.00     0.211 HD
ENDBRANCH  14  38
BRANCH  15  40
ATOM     40  O   UNL     1      17.074  30.811  17.412  1.00  0.00    -0.387 OA
ATOM     41  H   UNL     1      17.700  31.065  16.685  1.00  0.00     0.211 HD
ENDBRANCH  15  40
ENDBRANCH   9  10
ENDBRANCH   8   9
ENDBRANCH   3   8
BRANCH   3  42
ATOM     42  C   UNL     1      22.821  29.353  18.250  1.00  0.00     0.364 C 
ATOM     43  O   UNL     1      22.685  29.894  17.124  1.00  0.00    -0.246 OA
BRANCH  42  44
ATOM     44  O   UNL     1      24.110  29.152  18.715  1.00  0.00    -0.477 OA
ATOM     45  H   UNL     1      24.213  28.869  19.702  1.00  0.00     0.296 HD
ENDBRANCH  42  44
ENDBRANCH   3  42
BRANCH   6  46
ATOM     46  O   UNL     1      20.015  27.537  21.038  1.00  0.00    -0.391 OA
ATOM     47  H   UNL     1      19.720  28.097  21.803  1.00  0.00     0.211 HD
ENDBRANCH   6  46
BRANCH   7  48
ATOM     48  N   UNL     1      23.493  28.122  21.957  1.00  0.00    -0.348 N 
ATOM     49  C   UNL     1      24.106  27.903  23.239  1.00  0.00     0.217 C 
ATOM     50  H   UNL     1      24.135  27.997  21.144  1.00  0.00     0.163 HD
ATOM     51  C   UNL     1      25.553  27.526  23.313  1.00  0.00     0.114 C 
ATOM     52  O   UNL     1      23.412  28.033  24.260  1.00  0.00    -0.275 OA
ENDBRANCH   7  48
ENDBRANCH   1   2
BRANCH   1  53
ATOM     53  O   UNL     1      20.301  31.573  21.468  1.00  0.00    -0.388 OA
ATOM     54  H   UNL     1      20.151  32.441  21.902  1.00  0.00     0.211 HD
ENDBRANCH   1  53
BRANCH   1  55
ATOM     55  C   UNL     1      20.302  29.819  23.108  1.00  0.00     0.165 C 
BRANCH  55  56
ATOM     56  O   UNL     1      19.068  29.560  22.601  1.00  0.00    -0.388 OA
ATOM     57  H   UNL     1      18.508  28.943  23.113  1.00  0.00     0.211 HD
ENDBRANCH  55  56
BRANCH  55  58
ATOM     58  C   UNL     1      20.404  30.373  24.476  1.00  0.00     0.154 C 
BRANCH  58  59
ATOM     59  N   UNL     1      21.652  30.047  25.108  1.00  0.00    -0.319 N 
ATOM     60  C   UNL     1      22.110  30.626  26.313  1.00  0.00     0.407 C 
ATOM     61  H   UNL     1      22.290  29.330  24.663  1.00  0.00     0.167 HD
ATOM     62  O   UNL     1      21.450  31.477  26.928  1.00  0.00    -0.225 OA
BRANCH  60  63
ATOM     63  O   UNL     1      23.341  30.279  26.904  1.00  0.00    -0.443 OA
BRANCH  63  64
ATOM     64  C   UNL     1      23.358  29.589  28.141  1.00  0.00     0.294 C 
BRANCH  64  65
ATOM     65  C   UNL     1      22.869  28.204  28.028  1.00  0.00     0.120 A 
ATOM     66  C   UNL     1      23.499  27.091  27.546  1.00  0.00     0.138 A 
ATOM     67  N   UNL     1      21.634  27.813  28.395  1.00  0.00    -0.132 NA
ATOM     68  N   UNL     1      22.631  26.058  27.631  1.00  0.00    -0.248 N 
ATOM     69  N   UNL     1      21.509  26.523  28.149  1.00  0.00    -0.067 NA
BRANCH  68  70
ATOM     70  C   UNL     1      22.914  24.708  27.216  1.00  0.00     0.181 C 
BRANCH  70  71
ATOM     71  C   UNL     1      23.009  24.623  25.745  1.00  0.00    -0.026 A 
ATOM     72  C   UNL     1      24.231  24.404  25.147  1.00  0.00     0.006 A 
ATOM     73  C   UNL     1      21.873  24.783  24.956  1.00  0.00     0.006 A 
ATOM     74  C   UNL     1      24.253  24.354  23.764  1.00  0.00     0.016 A 
ATOM     75  C   UNL     1      21.902  24.734  23.581  1.00  0.00     0.016 A 
ATOM     76  C   UNL     1      23.123  24.514  22.987  1.00  0.00     0.059 A 
BRANCH  76  77
ATOM     77  C   UNL     1      23.215  24.456  21.536  1.00  0.00     0.335 C 
ATOM     78  O   UNL     1      24.108  25.076  20.942  1.00  0.00    -0.246 OA
BRANCH  77  79
ATOM     79  O   UNL     1      22.305  23.710  20.823  1.00  0.00    -0.478 OA
ATOM     80  H   UNL     1      22.526  23.304  19.916  1.00  0.00     0.297 HD
ENDBRANCH  77  79
ENDBRANCH  76  77
ENDBRANCH  70  71
ENDBRANCH  68  70
ENDBRANCH  64  65
ENDBRANCH  63  64
ENDBRANCH  60  63
ENDBRANCH  58  59
ENDBRANCH  55  58
ENDBRANCH   1  55
TORSDOF 33
