REMARK VINA RESULT:    -8.813      3.051      6.376
REMARK INTER + INTRA:         -21.022
REMARK INTER:                 -13.926
REMARK INTRA:                  -7.096
REMARK UNBOUND:                 2.731
REMARK SMILES CC(=O)N[C@@H]1[C@@H](O)C[C@](OC[C@H]2O[C@@H](O[C@H]3[C@H](O)[C@@H](O)[C@H](OCCN=[N+]=[N-])O[C@@H]3CO)[C@H](O)[C@@H](O)[C@H]2O)(C(=O)O)O[C@H]1C(O)[C@H](O)CNC(=O)OCc1cn(C2CCc3ccccc3NC2=O)nn1
REMARK SMILES IDX 43 1 42 2 9 3 8 4 41 5 6 6 5 7 10 8 11 9 12 10 14 11 13 12
REMARK SMILES IDX 32 13 34 14 36 15 15 16 16 17 29 18 28 19 21 20 17 21 19 22
REMARK SMILES IDX 30 23 31 24 22 26 23 27 24 28 25 29 26 30 27 31 18 32 20 34
REMARK SMILES IDX 33 36 35 38 37 40 38 42 39 43 40 44 7 46 4 48 2 49 1 51 3 52
REMARK SMILES IDX 44 53 45 55 46 56 47 58 48 59 49 60 50 62 51 63 52 64 53 65
REMARK SMILES IDX 54 66 69 67 55 68 68 69 56 70 57 71 66 73 65 74 67 75 64 77
REMARK SMILES IDX 59 78 63 79 60 80 62 81 61 82 58 83
REMARK H PARENT 31 25 18 33 20 35 33 37 35 39 37 41 40 45 7 47 4 50 44 54
REMARK H PARENT 46 57 48 61 65 76
REMARK Flexibility Score: 90.00
ROOT
ATOM      1  C   UNL     1      14.650  28.957  21.912  1.00  0.00     0.176 C 
ENDROOT
BRANCH   1   2
ATOM      2  C   UNL     1      14.434  30.452  22.221  1.00  0.00     0.178 C 
ATOM      3  C   UNL     1      16.232  31.938  22.719  1.00  0.00     0.272 C 
ATOM      4  C   UNL     1      15.754  32.081  24.107  1.00  0.00     0.113 C 
ATOM      5  O   UNL     1      15.422  31.233  21.826  1.00  0.00    -0.332 OA
ATOM      6  C   UNL     1      15.036  30.870  24.600  1.00  0.00     0.145 C 
ATOM      7  C   UNL     1      13.905  30.583  23.623  1.00  0.00     0.142 C 
BRANCH   3   8
ATOM      8  O   UNL     1      17.464  31.408  22.568  1.00  0.00    -0.338 OA
BRANCH   8   9
ATOM      9  C   UNL     1      18.587  31.933  23.030  1.00  0.00     0.199 C 
BRANCH   9  10
ATOM     10  C   UNL     1      19.849  31.219  23.250  1.00  0.00     0.179 C 
ATOM     11  C   UNL     1      20.770  29.717  24.750  1.00  0.00     0.282 C 
ATOM     12  O   UNL     1      19.573  30.251  24.275  1.00  0.00    -0.341 OA
ATOM     13  C   UNL     1      21.954  29.897  23.886  1.00  0.00     0.202 C 
ATOM     14  C   UNL     1      21.727  29.961  22.414  1.00  0.00     0.179 C 
ATOM     15  C   UNL     1      20.295  30.316  22.102  1.00  0.00     0.177 C 
BRANCH  11  16
ATOM     16  O   UNL     1      20.532  28.381  25.136  1.00  0.00    -0.341 OA
BRANCH  16  17
ATOM     17  C   UNL     1      21.681  27.727  25.498  1.00  0.00     0.184 C 
ATOM     18  C   UNL     1      21.591  26.224  25.521  1.00  0.00     0.178 C 
ATOM     19  O   UNL     1      22.889  25.769  25.767  1.00  0.00    -0.341 OA
ATOM     20  C   UNL     1      23.236  25.908  27.102  1.00  0.00     0.281 C 
ATOM     21  C   UNL     1      22.144  28.156  26.882  1.00  0.00     0.180 C 
ATOM     22  C   UNL     1      22.508  27.030  27.781  1.00  0.00     0.202 C 
BRANCH  18  23
ATOM     23  C   UNL     1      21.183  25.660  24.176  1.00  0.00     0.191 C 
BRANCH  23  24
ATOM     24  O   UNL     1      21.179  26.637  23.183  1.00  0.00    -0.394 OA
ATOM     25  H   UNL     1      21.338  27.541  23.531  1.00  0.00     0.210 HD
ENDBRANCH  23  24
ENDBRANCH  18  23
BRANCH  20  26
ATOM     26  O   UNL     1      24.610  26.040  27.187  1.00  0.00    -0.350 OA
BRANCH  26  27
ATOM     27  C   UNL     1      25.156  26.510  26.005  1.00  0.00     0.169 C 
BRANCH  27  28
ATOM     28  C   UNL     1      26.378  27.356  26.166  1.00  0.00     0.119 C 
BRANCH  28  29
ATOM     29  N   UNL     1      26.089  28.701  25.695  1.00  0.00    -0.092 NA
ATOM     30  N   UNL     1      26.987  29.460  25.286  1.00  0.00     0.001 N 
ATOM     31  N   UNL     1      27.845  29.876  24.495  1.00  0.00    -0.003 NA
ENDBRANCH  28  29
ENDBRANCH  27  28
ENDBRANCH  26  27
ENDBRANCH  20  26
BRANCH  21  32
ATOM     32  O   UNL     1      23.150  29.131  26.804  1.00  0.00    -0.387 OA
ATOM     33  H   UNL     1      23.785  28.988  27.553  1.00  0.00     0.211 HD
ENDBRANCH  21  32
BRANCH  22  34
ATOM     34  O   UNL     1      21.391  26.506  28.473  1.00  0.00    -0.385 OA
ATOM     35  H   UNL     1      20.811  27.208  28.823  1.00  0.00     0.211 HD
ENDBRANCH  22  34
ENDBRANCH  16  17
ENDBRANCH  11  16
BRANCH  13  36
ATOM     36  O   UNL     1      22.733  30.957  24.360  1.00  0.00    -0.385 OA
ATOM     37  H   UNL     1      23.689  30.692  24.365  1.00  0.00     0.211 HD
ENDBRANCH  13  36
BRANCH  14  38
ATOM     38  O   UNL     1      22.153  28.817  21.743  1.00  0.00    -0.387 OA
ATOM     39  H   UNL     1      23.056  29.027  21.387  1.00  0.00     0.211 HD
ENDBRANCH  14  38
BRANCH  15  40
ATOM     40  O   UNL     1      19.501  29.142  22.107  1.00  0.00    -0.387 OA
ATOM     41  H   UNL     1      20.117  28.408  22.319  1.00  0.00     0.211 HD
ENDBRANCH  15  40
ENDBRANCH   9  10
ENDBRANCH   8   9
ENDBRANCH   3   8
BRANCH   3  42
ATOM     42  C   UNL     1      16.156  33.321  22.110  1.00  0.00     0.364 C 
ATOM     43  O   UNL     1      15.964  34.307  22.782  1.00  0.00    -0.246 OA
BRANCH  42  44
ATOM     44  O   UNL     1      16.310  33.475  20.728  1.00  0.00    -0.477 OA
ATOM     45  H   UNL     1      16.603  32.720  20.130  1.00  0.00     0.296 HD
ENDBRANCH  42  44
ENDBRANCH   3  42
BRANCH   6  46
ATOM     46  O   UNL     1      15.954  29.807  24.594  1.00  0.00    -0.391 OA
ATOM     47  H   UNL     1      16.154  29.470  25.483  1.00  0.00     0.211 HD
ENDBRANCH   6  46
BRANCH   7  48
ATOM     48  N   UNL     1      12.899  31.575  23.802  1.00  0.00    -0.348 N 
ATOM     49  C   UNL     1      11.538  31.203  23.991  1.00  0.00     0.217 C 
ATOM     50  H   UNL     1      13.133  32.596  23.797  1.00  0.00     0.163 HD
ATOM     51  C   UNL     1      10.452  32.202  24.181  1.00  0.00     0.114 C 
ATOM     52  O   UNL     1      11.267  29.997  23.996  1.00  0.00    -0.275 OA
ENDBRANCH   7  48
ENDBRANCH   1   2
BRANCH   1  53
ATOM     53  O   UNL     1      13.429  28.378  21.550  1.00  0.00    -0.388 OA
ATOM     54  H   UNL     1      13.366  27.424  21.778  1.00  0.00     0.211 HD
ENDBRANCH   1  53
BRANCH   1  55
ATOM     55  C   UNL     1      15.618  28.720  20.811  1.00  0.00     0.165 C 
BRANCH  55  56
ATOM     56  O   UNL     1      16.956  28.765  21.183  1.00  0.00    -0.388 OA
ATOM     57  H   UNL     1      17.344  29.601  20.810  1.00  0.00     0.211 HD
ENDBRANCH  55  56
BRANCH  55  58
ATOM     58  C   UNL     1      15.460  29.573  19.595  1.00  0.00     0.154 C 
BRANCH  58  59
ATOM     59  N   UNL     1      16.677  30.049  19.011  1.00  0.00    -0.319 N 
ATOM     60  C   UNL     1      17.347  29.417  17.938  1.00  0.00     0.407 C 
ATOM     61  H   UNL     1      17.100  30.916  19.400  1.00  0.00     0.167 HD
ATOM     62  O   UNL     1      16.894  28.368  17.420  1.00  0.00    -0.225 OA
BRANCH  60  63
ATOM     63  O   UNL     1      18.512  29.968  17.460  1.00  0.00    -0.443 OA
BRANCH  63  64
ATOM     64  C   UNL     1      19.593  30.305  18.257  1.00  0.00     0.294 C 
BRANCH  64  65
ATOM     65  C   UNL     1      20.393  29.120  18.577  1.00  0.00     0.120 A 
ATOM     66  C   UNL     1      21.611  28.786  18.039  1.00  0.00     0.139 A 
ATOM     67  N   UNL     1      20.105  28.122  19.447  1.00  0.00    -0.132 NA
ATOM     68  N   UNL     1      22.035  27.617  18.580  1.00  0.00    -0.240 N 
ATOM     69  N   UNL     1      21.097  27.246  19.427  1.00  0.00    -0.066 NA
BRANCH  68  70
ATOM     70  C   UNL     1      23.292  26.910  18.281  1.00  0.00     0.198 C 
BRANCH  70  71
ATOM     71  C   UNL     1      24.294  27.410  19.253  1.00  0.00     0.042 CG0
ATOM     72  G   UNL     1      25.481  26.546  19.505  1.00  0.00     0.000 G0
ENDBRANCH  70  71
BRANCH  70  73
ATOM     73  C   UNL     1      22.971  25.482  18.350  1.00  0.00     0.249 C 
ATOM     74  N   UNL     1      23.119  24.559  19.419  1.00  0.00    -0.324 N 
ATOM     75  O   UNL     1      22.488  24.999  17.290  1.00  0.00    -0.272 OA
ATOM     76  H   UNL     1      22.519  23.706  19.431  1.00  0.00     0.170 HD
BRANCH  74  77
ATOM     77  C   UNL     1      24.055  24.730  20.504  1.00  0.00     0.044 A 
ATOM     78  C   UNL     1      25.134  25.601  20.602  1.00  0.00    -0.024 A 
ATOM     79  C   UNL     1      23.780  23.878  21.551  1.00  0.00     0.026 A 
ATOM     80  C   UNL     1      25.934  25.636  21.720  1.00  0.00     0.006 A 
ATOM     81  C   UNL     1      24.567  23.892  22.686  1.00  0.00     0.002 A 
ATOM     82  C   UNL     1      25.645  24.781  22.755  1.00  0.00     0.000 A 
BRANCH  78  83
ATOM     83  C   UNL     1      25.513  26.561  19.527  1.00  0.00     0.040 CG0
ATOM     84  G   UNL     1      24.316  27.403  19.255  1.00  0.00     0.000 G0
ENDBRANCH  78  83
ENDBRANCH  74  77
ENDBRANCH  70  73
ENDBRANCH  68  70
ENDBRANCH  64  65
ENDBRANCH  63  64
ENDBRANCH  60  63
ENDBRANCH  58  59
ENDBRANCH  55  58
ENDBRANCH   1  55
TORSDOF 30
