REMARK VINA RESULT:    -6.579      3.632      6.634
REMARK INTER + INTRA:         -22.063
REMARK INTER:                 -15.272
REMARK INTRA:                  -6.791
REMARK UNBOUND:                -5.485
REMARK SMILES CC(=O)N[C@@H]1[C@@H](O)C[C@](OC[C@H]2O[C@@H](O[C@H]3[C@H](O)[C@@H](O)[C@H](OCCN=[N+]=[N-])O[C@@H]3CO)[C@H](O)[C@@H](O)[C@H]2O)(C(=O)O)O[C@H]1C(O)[C@H](O)CNC(=O)OCc1cn(Cc2ccc(Br)cc2)nn1
REMARK SMILES IDX 9 1 8 2 6 3 5 4 42 5 41 6 10 7 11 8 12 9 14 10 13 11 32 12
REMARK SMILES IDX 34 13 36 14 15 15 16 16 29 17 28 18 21 19 17 20 19 21 30 22
REMARK SMILES IDX 31 23 22 25 23 26 24 27 25 28 26 29 27 30 18 31 20 33 33 35
REMARK SMILES IDX 35 37 37 39 38 41 39 42 40 43 7 45 43 47 44 48 45 50 46 51
REMARK SMILES IDX 47 53 48 54 49 55 50 57 51 58 52 59 53 60 54 61 65 62 55 63
REMARK SMILES IDX 64 64 56 65 57 66 58 67 63 68 59 69 62 70 60 71 61 72 4 73
REMARK SMILES IDX 2 74 1 76 3 77
REMARK H PARENT 31 24 18 32 20 34 33 36 35 38 37 40 40 44 7 46 44 49 46 52
REMARK H PARENT 48 56 4 75
REMARK Flexibility Score: inf
ROOT
ATOM      1  C   UNL     1      21.088  29.794  20.626  1.00  0.00     0.272 C 
ATOM      2  C   UNL     1      20.393  30.504  21.731  1.00  0.00     0.113 C 
ATOM      3  C   UNL     1      18.968  30.208  21.981  1.00  0.00     0.145 C 
ATOM      4  C   UNL     1      18.239  29.562  20.772  1.00  0.00     0.142 C 
ATOM      5  C   UNL     1      18.995  30.130  19.603  1.00  0.00     0.178 C 
ATOM      6  O   UNL     1      20.202  29.375  19.617  1.00  0.00    -0.332 OA
ENDROOT
BRANCH   1   7
ATOM      7  O   UNL     1      22.049  28.913  20.881  1.00  0.00    -0.338 OA
BRANCH   7   8
ATOM      8  C   UNL     1      22.437  27.784  20.422  1.00  0.00     0.199 C 
BRANCH   8   9
ATOM      9  C   UNL     1      22.621  26.672  21.428  1.00  0.00     0.179 C 
ATOM     10  C   UNL     1      23.229  26.154  23.551  1.00  0.00     0.282 C 
ATOM     11  O   UNL     1      23.252  27.084  22.572  1.00  0.00    -0.341 OA
ATOM     12  C   UNL     1      22.808  24.752  23.149  1.00  0.00     0.202 C 
ATOM     13  C   UNL     1      21.523  24.763  22.352  1.00  0.00     0.179 C 
ATOM     14  C   UNL     1      21.232  26.172  21.855  1.00  0.00     0.177 C 
BRANCH  10  15
ATOM     15  O   UNL     1      22.572  26.453  24.698  1.00  0.00    -0.341 OA
BRANCH  15  16
ATOM     16  C   UNL     1      23.165  26.897  25.814  1.00  0.00     0.184 C 
ATOM     17  C   UNL     1      24.627  26.622  25.959  1.00  0.00     0.178 C 
ATOM     18  O   UNL     1      24.938  25.791  27.001  1.00  0.00    -0.341 OA
ATOM     19  C   UNL     1      24.582  26.278  28.251  1.00  0.00     0.281 C 
ATOM     20  C   UNL     1      22.442  26.340  27.023  1.00  0.00     0.180 C 
ATOM     21  C   UNL     1      23.165  26.817  28.257  1.00  0.00     0.202 C 
BRANCH  17  22
ATOM     22  C   UNL     1      25.376  27.932  26.035  1.00  0.00     0.191 C 
BRANCH  22  23
ATOM     23  O   UNL     1      26.769  27.723  26.098  1.00  0.00    -0.394 OA
ATOM     24  H   UNL     1      27.220  28.477  26.519  1.00  0.00     0.210 HD
ENDBRANCH  22  23
ENDBRANCH  17  22
BRANCH  19  25
ATOM     25  O   UNL     1      25.471  27.200  28.775  1.00  0.00    -0.350 OA
BRANCH  25  26
ATOM     26  C   UNL     1      26.331  26.720  29.727  1.00  0.00     0.169 C 
BRANCH  26  27
ATOM     27  C   UNL     1      27.634  26.219  29.178  1.00  0.00     0.119 C 
BRANCH  27  28
ATOM     28  N   UNL     1      28.130  25.118  29.994  1.00  0.00    -0.092 NA
ATOM     29  N   UNL     1      27.905  25.099  31.202  1.00  0.00     0.001 N 
ATOM     30  N   UNL     1      27.940  25.064  32.453  1.00  0.00    -0.003 NA
ENDBRANCH  27  28
ENDBRANCH  26  27
ENDBRANCH  25  26
ENDBRANCH  19  25
BRANCH  20  31
ATOM     31  O   UNL     1      21.166  26.939  27.036  1.00  0.00    -0.387 OA
ATOM     32  H   UNL     1      20.472  26.249  27.227  1.00  0.00     0.211 HD
ENDBRANCH  20  31
BRANCH  21  33
ATOM     33  O   UNL     1      22.489  26.485  29.425  1.00  0.00    -0.385 OA
ATOM     34  H   UNL     1      23.047  25.824  29.908  1.00  0.00     0.211 HD
ENDBRANCH  21  33
ENDBRANCH  15  16
ENDBRANCH  10  15
BRANCH  12  35
ATOM     35  O   UNL     1      23.777  24.062  22.442  1.00  0.00    -0.385 OA
ATOM     36  H   UNL     1      23.449  23.269  21.960  1.00  0.00     0.211 HD
ENDBRANCH  12  35
BRANCH  13  37
ATOM     37  O   UNL     1      20.438  24.254  23.056  1.00  0.00    -0.387 OA
ATOM     38  H   UNL     1      20.670  24.299  24.016  1.00  0.00     0.211 HD
ENDBRANCH  13  37
BRANCH  14  39
ATOM     39  O   UNL     1      20.824  27.009  22.900  1.00  0.00    -0.387 OA
ATOM     40  H   UNL     1      20.213  26.526  23.490  1.00  0.00     0.211 HD
ENDBRANCH  14  39
ENDBRANCH   8   9
ENDBRANCH   7   8
ENDBRANCH   1   7
BRANCH   1  41
ATOM     41  C   UNL     1      21.871  30.893  19.889  1.00  0.00     0.364 C 
ATOM     42  O   UNL     1      22.040  31.966  20.465  1.00  0.00    -0.246 OA
BRANCH  41  43
ATOM     43  O   UNL     1      22.382  30.718  18.630  1.00  0.00    -0.477 OA
ATOM     44  H   UNL     1      23.175  31.301  18.318  1.00  0.00     0.296 HD
ENDBRANCH  41  43
ENDBRANCH   1  41
BRANCH   3  45
ATOM     45  O   UNL     1      18.673  29.531  23.153  1.00  0.00    -0.391 OA
ATOM     46  H   UNL     1      19.272  29.856  23.859  1.00  0.00     0.211 HD
ENDBRANCH   3  45
BRANCH   5  47
ATOM     47  C   UNL     1      18.370  30.033  18.262  1.00  0.00     0.176 C 
BRANCH  47  48
ATOM     48  O   UNL     1      18.589  31.124  17.487  1.00  0.00    -0.388 OA
ATOM     49  H   UNL     1      19.507  31.214  17.207  1.00  0.00     0.211 HD
ENDBRANCH  47  48
BRANCH  47  50
ATOM     50  C   UNL     1      18.396  28.754  17.536  1.00  0.00     0.165 C 
BRANCH  50  51
ATOM     51  O   UNL     1      18.253  27.646  18.388  1.00  0.00    -0.388 OA
ATOM     52  H   UNL     1      18.898  26.938  18.248  1.00  0.00     0.211 HD
ENDBRANCH  50  51
BRANCH  50  53
ATOM     53  C   UNL     1      19.419  28.508  16.503  1.00  0.00     0.154 C 
BRANCH  53  54
ATOM     54  N   UNL     1      20.793  28.718  16.925  1.00  0.00    -0.319 N 
ATOM     55  C   UNL     1      21.816  27.781  16.629  1.00  0.00     0.407 C 
ATOM     56  H   UNL     1      21.097  29.567  17.464  1.00  0.00     0.167 HD
ATOM     57  O   UNL     1      21.541  26.731  15.965  1.00  0.00    -0.225 OA
BRANCH  55  58
ATOM     58  O   UNL     1      23.140  27.937  17.030  1.00  0.00    -0.443 OA
BRANCH  58  59
ATOM     59  C   UNL     1      24.117  26.934  16.695  1.00  0.00     0.294 C 
BRANCH  59  60
ATOM     60  C   UNL     1      24.448  26.070  17.840  1.00  0.00     0.120 A 
ATOM     61  C   UNL     1      25.619  26.127  18.570  1.00  0.00     0.138 A 
ATOM     62  N   UNL     1      23.709  25.094  18.371  1.00  0.00    -0.132 NA
ATOM     63  N   UNL     1      25.557  25.187  19.521  1.00  0.00    -0.248 N 
ATOM     64  N   UNL     1      24.396  24.581  19.376  1.00  0.00    -0.067 NA
BRANCH  63  65
ATOM     65  C   UNL     1      26.534  24.873  20.545  1.00  0.00     0.181 C 
BRANCH  65  66
ATOM     66  C   UNL     1      27.137  23.529  20.403  1.00  0.00    -0.026 A 
ATOM     67  C   UNL     1      27.431  22.817  21.570  1.00  0.00     0.007 A 
ATOM     68  C   UNL     1      27.411  22.930  19.207  1.00  0.00     0.007 A 
ATOM     69  C   UNL     1      27.982  21.549  21.491  1.00  0.00     0.016 A 
ATOM     70  C   UNL     1      27.966  21.653  19.114  1.00  0.00     0.016 A 
ATOM     71  C   UNL     1      28.248  20.968  20.264  1.00  0.00     0.017 A 
ATOM     72  Br  UNL     1      29.011  19.203  20.196  1.00  0.00    -0.051 Br
ENDBRANCH  65  66
ENDBRANCH  63  65
ENDBRANCH  59  60
ENDBRANCH  58  59
ENDBRANCH  55  58
ENDBRANCH  53  54
ENDBRANCH  50  53
ENDBRANCH  47  50
ENDBRANCH   5  47
BRANCH   4  73
ATOM     73  N   UNL     1      16.852  29.845  20.847  1.00  0.00    -0.348 N 
ATOM     74  C   UNL     1      15.896  28.816  20.664  1.00  0.00     0.217 C 
ATOM     75  H   UNL     1      16.523  30.803  21.053  1.00  0.00     0.163 HD
ATOM     76  C   UNL     1      14.443  28.992  20.725  1.00  0.00     0.114 C 
ATOM     77  O   UNL     1      16.327  27.631  20.426  1.00  0.00    -0.275 OA
ENDBRANCH   4  73
TORSDOF 31
