REMARK VINA RESULT:    -6.324      0.000      0.000
REMARK INTER + INTRA:         -22.137
REMARK INTER:                 -13.289
REMARK INTRA:                  -8.848
REMARK UNBOUND:                -5.091
REMARK SMILES C=CCCCCn1cc(COC(=O)NC[C@@H](O)C(O)[C@@H]2O[C@@](OC[C@H]3O[C@@H](O[C@H]4[C@H](O)[C@@H](O)[C@H](OCCN=[N+]=[N-])O[C@@H]4CO)[C@H](O)[C@@H](O)[C@H]3O)(C(=O)O)C[C@H](O)[C@H]2NC(C)=O)nn1
REMARK SMILES IDX 18 1 20 2 22 3 54 4 21 5 55 6 57 7 23 8 24 9 25 10 27 11
REMARK SMILES IDX 26 12 45 13 47 14 49 15 28 16 29 17 42 18 41 19 34 20 30 21
REMARK SMILES IDX 32 22 43 23 44 24 35 26 36 27 37 28 38 29 39 30 40 31 31 32
REMARK SMILES IDX 33 34 46 36 48 38 50 40 51 42 52 43 53 44 56 46 58 48 59 49
REMARK SMILES IDX 60 51 61 52 19 53 16 55 17 56 15 58 14 59 12 60 13 62 11 63
REMARK SMILES IDX 10 64 9 65 8 66 62 67 7 68 63 69 6 70 5 71 4 72 3 73 2 74
REMARK SMILES IDX 1 75
REMARK H PARENT 44 25 31 33 33 35 46 37 48 39 50 41 53 45 56 47 58 50 19 54
REMARK H PARENT 17 57 14 61
REMARK Flexibility Score: inf
ROOT
ATOM      1  C   UNL     1      20.392  31.572  21.102  1.00  0.00     0.176 C 
ENDROOT
BRANCH   1   2
ATOM      2  C   UNL     1      20.291  31.550  22.630  1.00  0.00     0.178 C 
ATOM      3  C   UNL     1      18.797  31.127  24.326  1.00  0.00     0.272 C 
ATOM      4  C   UNL     1      19.338  32.253  25.104  1.00  0.00     0.113 C 
ATOM      5  O   UNL     1      18.978  31.468  22.932  1.00  0.00    -0.332 OA
ATOM      6  C   UNL     1      20.736  32.605  24.832  1.00  0.00     0.145 C 
ATOM      7  C   UNL     1      21.176  32.416  23.389  1.00  0.00     0.142 C 
BRANCH   3   8
ATOM      8  O   UNL     1      17.413  31.034  24.356  1.00  0.00    -0.338 OA
BRANCH   8   9
ATOM      9  C   UNL     1      16.613  31.934  23.819  1.00  0.00     0.199 C 
BRANCH   9  10
ATOM     10  C   UNL     1      15.474  31.553  22.955  1.00  0.00     0.179 C 
ATOM     11  C   UNL     1      14.968  31.269  20.685  1.00  0.00     0.282 C 
ATOM     12  O   UNL     1      15.722  31.931  21.614  1.00  0.00    -0.341 OA
ATOM     13  C   UNL     1      13.772  30.594  21.234  1.00  0.00     0.202 C 
ATOM     14  C   UNL     1      14.046  29.680  22.398  1.00  0.00     0.179 C 
ATOM     15  C   UNL     1      15.385  30.032  22.968  1.00  0.00     0.177 C 
BRANCH  11  16
ATOM     16  O   UNL     1      15.817  30.541  19.896  1.00  0.00    -0.341 OA
BRANCH  16  17
ATOM     17  C   UNL     1      15.254  29.653  19.028  1.00  0.00     0.184 C 
ATOM     18  C   UNL     1      16.350  28.920  18.293  1.00  0.00     0.178 C 
ATOM     19  O   UNL     1      16.011  28.727  16.943  1.00  0.00    -0.341 OA
ATOM     20  C   UNL     1      16.207  29.942  16.295  1.00  0.00     0.281 C 
ATOM     21  C   UNL     1      14.437  30.379  17.934  1.00  0.00     0.180 C 
ATOM     22  C   UNL     1      15.375  31.014  16.934  1.00  0.00     0.202 C 
BRANCH  18  23
ATOM     23  C   UNL     1      16.720  27.597  18.943  1.00  0.00     0.191 C 
BRANCH  23  24
ATOM     24  O   UNL     1      16.392  27.599  20.287  1.00  0.00    -0.394 OA
ATOM     25  H   UNL     1      17.204  27.405  20.813  1.00  0.00     0.210 HD
ENDBRANCH  23  24
ENDBRANCH  18  23
BRANCH  20  26
ATOM     26  O   UNL     1      15.826  29.751  14.966  1.00  0.00    -0.350 OA
BRANCH  26  27
ATOM     27  C   UNL     1      15.186  30.843  14.410  1.00  0.00     0.169 C 
BRANCH  27  28
ATOM     28  C   UNL     1      13.978  30.322  13.651  1.00  0.00     0.119 C 
BRANCH  28  29
ATOM     29  N   UNL     1      13.283  29.300  14.387  1.00  0.00    -0.092 NA
ATOM     30  N   UNL     1      12.511  28.526  13.835  1.00  0.00     0.001 N 
ATOM     31  N   UNL     1      11.911  27.706  13.139  1.00  0.00    -0.003 NA
ENDBRANCH  28  29
ENDBRANCH  27  28
ENDBRANCH  26  27
ENDBRANCH  20  26
BRANCH  21  32
ATOM     32  O   UNL     1      13.731  29.381  17.266  1.00  0.00    -0.387 OA
ATOM     33  H   UNL     1      14.215  28.979  16.516  1.00  0.00     0.211 HD
ENDBRANCH  21  32
BRANCH  22  34
ATOM     34  O   UNL     1      16.130  32.016  17.539  1.00  0.00    -0.385 OA
ATOM     35  H   UNL     1      17.078  31.713  17.532  1.00  0.00     0.211 HD
ENDBRANCH  22  34
ENDBRANCH  16  17
ENDBRANCH  11  16
BRANCH  13  36
ATOM     36  O   UNL     1      12.887  31.589  21.673  1.00  0.00    -0.385 OA
ATOM     37  H   UNL     1      11.965  31.410  21.414  1.00  0.00     0.211 HD
ENDBRANCH  13  36
BRANCH  14  38
ATOM     38  O   UNL     1      13.980  28.333  22.039  1.00  0.00    -0.387 OA
ATOM     39  H   UNL     1      14.789  27.903  22.384  1.00  0.00     0.211 HD
ENDBRANCH  14  38
BRANCH  15  40
ATOM     40  O   UNL     1      16.438  29.470  22.234  1.00  0.00    -0.387 OA
ATOM     41  H   UNL     1      16.673  28.570  22.525  1.00  0.00     0.211 HD
ENDBRANCH  15  40
ENDBRANCH   9  10
ENDBRANCH   8   9
ENDBRANCH   3   8
BRANCH   3  42
ATOM     42  C   UNL     1      19.557  29.897  24.505  1.00  0.00     0.364 C 
ATOM     43  O   UNL     1      20.098  29.624  25.599  1.00  0.00    -0.246 OA
BRANCH  42  44
ATOM     44  O   UNL     1      19.728  28.991  23.501  1.00  0.00    -0.477 OA
ATOM     45  H   UNL     1      19.168  28.160  23.425  1.00  0.00     0.296 HD
ENDBRANCH  42  44
ENDBRANCH   3  42
BRANCH   6  46
ATOM     46  O   UNL     1      20.949  33.950  25.224  1.00  0.00    -0.391 OA
ATOM     47  H   UNL     1      21.495  34.443  24.561  1.00  0.00     0.211 HD
ENDBRANCH   6  46
BRANCH   7  48
ATOM     48  N   UNL     1      22.543  31.862  23.383  1.00  0.00    -0.348 N 
ATOM     49  C   UNL     1      23.705  32.668  23.406  1.00  0.00     0.217 C 
ATOM     50  H   UNL     1      22.718  30.820  23.357  1.00  0.00     0.163 HD
ATOM     51  C   UNL     1      25.078  32.040  23.388  1.00  0.00     0.114 C 
ATOM     52  O   UNL     1      23.575  33.917  23.441  1.00  0.00    -0.275 OA
ENDBRANCH   7  48
ENDBRANCH   1   2
BRANCH   1  53
ATOM     53  O   UNL     1      21.342  30.456  20.816  1.00  0.00    -0.388 OA
ATOM     54  H   UNL     1      21.804  30.403  21.713  1.00  0.00     0.211 HD
ENDBRANCH   1  53
BRANCH   1  55
ATOM     55  C   UNL     1      19.206  31.112  20.382  1.00  0.00     0.165 C 
BRANCH  55  56
ATOM     56  O   UNL     1      18.692  29.861  20.792  1.00  0.00    -0.388 OA
ATOM     57  H   UNL     1      19.354  29.198  20.477  1.00  0.00     0.211 HD
ENDBRANCH  55  56
BRANCH  55  58
ATOM     58  C   UNL     1      19.157  31.203  18.915  1.00  0.00     0.154 C 
BRANCH  58  59
ATOM     59  N   UNL     1      19.688  30.103  18.205  1.00  0.00    -0.319 N 
ATOM     60  C   UNL     1      20.970  29.850  17.703  1.00  0.00     0.407 C 
ATOM     61  H   UNL     1      18.976  29.302  18.009  1.00  0.00     0.167 HD
ATOM     62  O   UNL     1      21.890  30.671  17.842  1.00  0.00    -0.225 OA
BRANCH  60  63
ATOM     63  O   UNL     1      21.266  28.659  17.026  1.00  0.00    -0.443 OA
BRANCH  63  64
ATOM     64  C   UNL     1      22.089  27.698  17.689  1.00  0.00     0.294 C 
BRANCH  64  65
ATOM     65  C   UNL     1      21.636  27.496  19.089  1.00  0.00     0.120 A 
ATOM     66  C   UNL     1      22.451  27.052  20.129  1.00  0.00     0.138 A 
ATOM     67  N   UNL     1      20.422  27.682  19.629  1.00  0.00    -0.132 NA
ATOM     68  N   UNL     1      21.697  26.992  21.231  1.00  0.00    -0.252 N 
ATOM     69  N   UNL     1      20.482  27.370  20.927  1.00  0.00    -0.067 NA
BRANCH  68  70
ATOM     70  C   UNL     1      22.207  26.564  22.540  1.00  0.00     0.146 C 
BRANCH  70  71
ATOM     71  C   UNL     1      22.316  25.063  22.553  1.00  0.00     0.024 C 
BRANCH  71  72
ATOM     72  C   UNL     1      23.013  24.646  23.830  1.00  0.00     0.006 C 
BRANCH  72  73
ATOM     73  C   UNL     1      22.051  24.735  24.992  1.00  0.00     0.027 C 
BRANCH  73  74
ATOM     74  C   UNL     1      22.760  24.634  26.287  1.00  0.00    -0.035 C 
ATOM     75  C   UNL     1      24.066  24.455  26.322  1.00  0.00     0.004 C 
ENDBRANCH  73  74
ENDBRANCH  72  73
ENDBRANCH  71  72
ENDBRANCH  70  71
ENDBRANCH  68  70
ENDBRANCH  64  65
ENDBRANCH  63  64
ENDBRANCH  60  63
ENDBRANCH  58  59
ENDBRANCH  55  58
ENDBRANCH   1  55
TORSDOF 34
