REMARK VINA RESULT:    -5.861      1.637      1.987
REMARK INTER + INTRA:         -23.614
REMARK INTER:                 -14.482
REMARK INTRA:                  -9.132
REMARK UNBOUND:                -7.304
REMARK SMILES CC(=O)N[C@@H]1[C@@H](O)C[C@](OC[C@H]2O[C@@H](O[C@H]3[C@H](O)[C@@H](O)[C@H](OCCN=[N+]=[N-])O[C@@H]3CO)[C@H](O)[C@@H](O)[C@H]2O)(C(=O)O)O[C@H]1C(O)[C@H](O)CNC(=O)OCc1cn(CCCCCC(=O)O)nn1
REMARK SMILES IDX 47 1 45 2 43 3 42 4 9 5 8 6 41 7 6 8 5 9 10 10 11 11 12 12
REMARK SMILES IDX 14 13 13 14 32 15 34 16 36 17 15 18 16 19 29 20 28 21 21 22
REMARK SMILES IDX 17 23 19 24 30 25 31 26 22 28 23 29 24 30 25 31 26 32 27 33
REMARK SMILES IDX 18 34 20 36 33 38 35 40 37 42 38 44 39 45 40 46 7 48 4 50
REMARK SMILES IDX 2 51 1 53 3 54 44 55 46 57 48 59 49 60 50 62 51 63 52 64
REMARK SMILES IDX 53 65 54 66 65 67 55 68 64 69 56 70 57 71 58 72 59 73 60 74
REMARK SMILES IDX 61 75 62 76 63 77
REMARK H PARENT 31 27 18 35 20 37 33 39 35 41 37 43 40 47 7 49 4 52 44 56
REMARK H PARENT 46 58 48 61 63 78
REMARK Flexibility Score: inf
ROOT
ATOM      1  C   UNL     1      19.920  31.182  21.337  1.00  0.00     0.154 C 
ENDROOT
BRANCH   1   2
ATOM      2  C   UNL     1      18.672  31.843  21.870  1.00  0.00     0.165 C 
BRANCH   2   3
ATOM      3  C   UNL     1      18.143  30.958  22.952  1.00  0.00     0.176 C 
BRANCH   3   4
ATOM      4  C   UNL     1      19.120  30.544  23.997  1.00  0.00     0.178 C 
ATOM      5  C   UNL     1      20.468  28.896  24.733  1.00  0.00     0.272 C 
ATOM      6  C   UNL     1      21.124  30.017  25.472  1.00  0.00     0.113 C 
ATOM      7  O   UNL     1      19.216  29.178  24.204  1.00  0.00    -0.332 OA
ATOM      8  C   UNL     1      20.253  31.067  26.048  1.00  0.00     0.145 C 
ATOM      9  C   UNL     1      18.879  31.140  25.367  1.00  0.00     0.142 C 
BRANCH   5  10
ATOM     10  O   UNL     1      20.466  27.704  25.454  1.00  0.00    -0.338 OA
BRANCH  10  11
ATOM     11  C   UNL     1      21.127  27.690  26.640  1.00  0.00     0.199 C 
BRANCH  11  12
ATOM     12  C   UNL     1      22.129  26.553  26.568  1.00  0.00     0.179 C 
ATOM     13  C   UNL     1      22.915  24.777  25.459  1.00  0.00     0.282 C 
ATOM     14  O   UNL     1      22.346  26.074  25.285  1.00  0.00    -0.341 OA
ATOM     15  C   UNL     1      23.817  24.649  26.602  1.00  0.00     0.202 C 
ATOM     16  C   UNL     1      24.375  25.916  27.187  1.00  0.00     0.179 C 
ATOM     17  C   UNL     1      23.468  27.106  27.019  1.00  0.00     0.177 C 
BRANCH  13  18
ATOM     18  O   UNL     1      23.326  24.282  24.224  1.00  0.00    -0.341 OA
BRANCH  18  19
ATOM     19  C   UNL     1      23.530  25.200  23.263  1.00  0.00     0.184 C 
ATOM     20  C   UNL     1      22.932  24.820  21.943  1.00  0.00     0.178 C 
ATOM     21  O   UNL     1      22.880  26.017  21.199  1.00  0.00    -0.341 OA
ATOM     22  C   UNL     1      24.122  26.433  20.857  1.00  0.00     0.281 C 
ATOM     23  C   UNL     1      25.057  25.296  22.922  1.00  0.00     0.180 C 
ATOM     24  C   UNL     1      25.216  25.637  21.462  1.00  0.00     0.202 C 
BRANCH  20  25
ATOM     25  C   UNL     1      21.520  24.302  22.038  1.00  0.00     0.191 C 
BRANCH  25  26
ATOM     26  O   UNL     1      20.743  25.130  22.820  1.00  0.00    -0.394 OA
ATOM     27  H   UNL     1      20.053  24.565  23.260  1.00  0.00     0.210 HD
ENDBRANCH  25  26
ENDBRANCH  20  25
BRANCH  22  28
ATOM     28  O   UNL     1      24.331  27.802  21.069  1.00  0.00    -0.350 OA
BRANCH  28  29
ATOM     29  C   UNL     1      24.512  28.499  19.901  1.00  0.00     0.169 C 
BRANCH  29  30
ATOM     30  C   UNL     1      24.142  27.616  18.717  1.00  0.00     0.119 C 
BRANCH  30  31
ATOM     31  N   UNL     1      23.039  28.195  17.967  1.00  0.00    -0.092 NA
ATOM     32  N   UNL     1      22.215  27.444  17.411  1.00  0.00     0.001 N 
ATOM     33  N   UNL     1      21.663  26.827  16.498  1.00  0.00    -0.003 NA
ENDBRANCH  30  31
ENDBRANCH  29  30
ENDBRANCH  28  29
ENDBRANCH  22  28
BRANCH  23  34
ATOM     34  O   UNL     1      25.606  26.343  23.661  1.00  0.00    -0.387 OA
ATOM     35  H   UNL     1      26.476  26.610  23.242  1.00  0.00     0.211 HD
ENDBRANCH  23  34
BRANCH  24  36
ATOM     36  O   UNL     1      25.620  24.540  20.690  1.00  0.00    -0.385 OA
ATOM     37  H   UNL     1      24.879  23.907  20.518  1.00  0.00     0.211 HD
ENDBRANCH  24  36
ENDBRANCH  18  19
ENDBRANCH  13  18
BRANCH  15  38
ATOM     38  O   UNL     1      23.192  23.981  27.695  1.00  0.00    -0.385 OA
ATOM     39  H   UNL     1      22.537  23.338  27.369  1.00  0.00     0.211 HD
ENDBRANCH  15  38
BRANCH  16  40
ATOM     40  O   UNL     1      25.616  26.268  26.627  1.00  0.00    -0.387 OA
ATOM     41  H   UNL     1      25.583  27.098  26.118  1.00  0.00     0.211 HD
ENDBRANCH  16  40
BRANCH  17  42
ATOM     42  O   UNL     1      23.941  27.899  25.942  1.00  0.00    -0.387 OA
ATOM     43  H   UNL     1      24.883  27.576  25.781  1.00  0.00     0.211 HD
ENDBRANCH  17  42
ENDBRANCH  11  12
ENDBRANCH  10  11
ENDBRANCH   5  10
BRANCH   5  44
ATOM     44  C   UNL     1      21.326  28.616  23.547  1.00  0.00     0.364 C 
ATOM     45  O   UNL     1      22.524  28.974  23.526  1.00  0.00    -0.246 OA
BRANCH  44  46
ATOM     46  O   UNL     1      20.807  27.958  22.459  1.00  0.00    -0.477 OA
ATOM     47  H   UNL     1      20.515  26.967  22.484  1.00  0.00     0.296 HD
ENDBRANCH  44  46
ENDBRANCH   5  44
BRANCH   8  48
ATOM     48  O   UNL     1      20.148  31.062  27.436  1.00  0.00    -0.391 OA
ATOM     49  H   UNL     1      20.373  31.964  27.757  1.00  0.00     0.211 HD
ENDBRANCH   8  48
BRANCH   9  50
ATOM     50  N   UNL     1      18.362  32.464  25.366  1.00  0.00    -0.348 N 
ATOM     51  C   UNL     1      17.172  32.752  26.075  1.00  0.00     0.217 C 
ATOM     52  H   UNL     1      18.839  33.222  24.858  1.00  0.00     0.163 HD
ATOM     53  C   UNL     1      16.612  34.129  26.093  1.00  0.00     0.114 C 
ATOM     54  O   UNL     1      16.539  31.865  26.720  1.00  0.00    -0.275 OA
ENDBRANCH   9  50
ENDBRANCH   3   4
BRANCH   3  55
ATOM     55  O   UNL     1      17.539  29.800  22.413  1.00  0.00    -0.388 OA
ATOM     56  H   UNL     1      17.497  29.871  21.433  1.00  0.00     0.211 HD
ENDBRANCH   3  55
ENDBRANCH   2   3
BRANCH   2  57
ATOM     57  O   UNL     1      17.760  31.944  20.827  1.00  0.00    -0.388 OA
ATOM     58  H   UNL     1      17.908  31.162  20.238  1.00  0.00     0.211 HD
ENDBRANCH   2  57
ENDBRANCH   1   2
BRANCH   1  59
ATOM     59  N   UNL     1      19.680  30.198  20.330  1.00  0.00    -0.319 N 
ATOM     60  C   UNL     1      19.682  30.614  18.961  1.00  0.00     0.407 C 
ATOM     61  H   UNL     1      19.505  29.203  20.544  1.00  0.00     0.167 HD
ATOM     62  O   UNL     1      19.892  31.816  18.661  1.00  0.00    -0.225 OA
BRANCH  60  63
ATOM     63  O   UNL     1      19.457  29.732  17.930  1.00  0.00    -0.443 OA
BRANCH  63  64
ATOM     64  C   UNL     1      18.864  28.489  18.068  1.00  0.00     0.294 C 
BRANCH  64  65
ATOM     65  C   UNL     1      17.616  28.431  18.840  1.00  0.00     0.120 A 
ATOM     66  C   UNL     1      16.362  28.806  18.433  1.00  0.00     0.138 A 
ATOM     67  N   UNL     1      17.503  28.000  20.117  1.00  0.00    -0.132 NA
ATOM     68  N   UNL     1      15.528  28.600  19.454  1.00  0.00    -0.252 N 
ATOM     69  N   UNL     1      16.245  28.115  20.447  1.00  0.00    -0.067 NA
BRANCH  68  70
ATOM     70  C   UNL     1      14.094  28.857  19.449  1.00  0.00     0.146 C 
BRANCH  70  71
ATOM     71  C   UNL     1      13.784  29.825  20.589  1.00  0.00     0.024 C 
BRANCH  71  72
ATOM     72  C   UNL     1      13.222  29.105  21.780  1.00  0.00     0.002 C 
BRANCH  72  73
ATOM     73  C   UNL     1      12.652  30.096  22.754  1.00  0.00     0.012 C 
BRANCH  73  74
ATOM     74  C   UNL     1      13.190  29.944  24.138  1.00  0.00     0.122 C 
BRANCH  74  75
ATOM     75  C   UNL     1      14.545  30.557  24.215  1.00  0.00     0.303 C 
ATOM     76  O   UNL     1      14.735  31.711  23.772  1.00  0.00    -0.252 OA
BRANCH  75  77
ATOM     77  O   UNL     1      15.614  29.866  24.777  1.00  0.00    -0.481 OA
ATOM     78  H   UNL     1      15.595  28.844  24.805  1.00  0.00     0.296 HD
ENDBRANCH  75  77
ENDBRANCH  74  75
ENDBRANCH  73  74
ENDBRANCH  72  73
ENDBRANCH  71  72
ENDBRANCH  70  71
ENDBRANCH  68  70
ENDBRANCH  64  65
ENDBRANCH  63  64
ENDBRANCH  60  63
ENDBRANCH   1  59
TORSDOF 36
