REMARK VINA RESULT:    -6.465      4.625     10.681
REMARK INTER + INTRA:         -20.931
REMARK INTER:                 -15.186
REMARK INTRA:                  -5.745
REMARK UNBOUND:                -5.017
REMARK SMILES CC(=O)N[C@@H]1[C@@H](O)C[C@](OC[C@H]2O[C@@H](O[C@H]3[C@H](O)[C@@H](O)[C@H](OCCN=[N+]=[N-])O[C@@H]3CO)[C@H](O)[C@@H](O)[C@H]2O)(C(=O)O)O[C@H]1C(O)[C@H](O)CNC(=O)OCc1cn(C2CCCCC2)nn1
REMARK SMILES IDX 9 1 8 2 6 3 5 4 42 5 41 6 10 7 11 8 12 9 14 10 13 11 32 12
REMARK SMILES IDX 34 13 36 14 15 15 16 16 29 17 28 18 21 19 17 20 19 21 30 22
REMARK SMILES IDX 31 23 22 25 23 26 24 27 25 28 26 29 27 30 18 31 20 33 33 35
REMARK SMILES IDX 35 37 37 39 38 41 39 42 40 43 7 45 43 47 44 48 45 50 46 51
REMARK SMILES IDX 47 53 48 54 49 55 50 57 51 58 52 59 53 60 54 61 63 62 55 63
REMARK SMILES IDX 62 64 56 65 57 66 61 67 58 68 60 69 59 70 4 71 2 72 1 74
REMARK SMILES IDX 3 75
REMARK H PARENT 31 24 18 32 20 34 33 36 35 38 37 40 40 44 7 46 44 49 46 52
REMARK H PARENT 48 56 4 73
REMARK Flexibility Score: inf
ROOT
ATOM      1  C   UNL     1      16.227  29.179  17.669  1.00  0.00     0.272 C 
ATOM      2  C   UNL     1      17.281  30.343  17.560  1.00  0.00     0.113 C 
ATOM      3  C   UNL     1      16.674  31.491  16.812  1.00  0.00     0.145 C 
ATOM      4  C   UNL     1      16.170  31.052  15.463  1.00  0.00     0.142 C 
ATOM      5  C   UNL     1      15.550  29.698  15.469  1.00  0.00     0.178 C 
ATOM      6  O   UNL     1      15.748  28.850  16.458  1.00  0.00    -0.332 OA
ENDROOT
BRANCH   1   7
ATOM      7  O   UNL     1      15.314  29.679  18.490  1.00  0.00    -0.338 OA
BRANCH   7   8
ATOM      8  C   UNL     1      14.183  29.272  18.959  1.00  0.00     0.199 C 
BRANCH   8   9
ATOM      9  C   UNL     1      13.900  29.172  20.449  1.00  0.00     0.179 C 
ATOM     10  C   UNL     1      15.570  29.372  22.083  1.00  0.00     0.282 C 
ATOM     11  O   UNL     1      14.913  28.589  21.140  1.00  0.00    -0.341 OA
ATOM     12  C   UNL     1      14.582  29.953  23.023  1.00  0.00     0.202 C 
ATOM     13  C   UNL     1      13.423  30.641  22.343  1.00  0.00     0.179 C 
ATOM     14  C   UNL     1      13.610  30.608  20.875  1.00  0.00     0.177 C 
BRANCH  10  15
ATOM     15  O   UNL     1      16.418  30.183  21.422  1.00  0.00    -0.341 OA
BRANCH  15  16
ATOM     16  C   UNL     1      17.715  30.281  21.806  1.00  0.00     0.184 C 
ATOM     17  C   UNL     1      18.056  31.751  21.926  1.00  0.00     0.178 C 
ATOM     18  O   UNL     1      19.253  31.965  22.580  1.00  0.00    -0.341 OA
ATOM     19  C   UNL     1      20.144  30.928  22.491  1.00  0.00     0.281 C 
ATOM     20  C   UNL     1      18.700  29.733  20.795  1.00  0.00     0.180 C 
ATOM     21  C   UNL     1      20.073  30.231  21.182  1.00  0.00     0.202 C 
BRANCH  17  22
ATOM     22  C   UNL     1      16.932  32.588  22.468  1.00  0.00     0.191 C 
BRANCH  22  23
ATOM     23  O   UNL     1      16.809  32.296  23.827  1.00  0.00    -0.394 OA
ATOM     24  H   UNL     1      17.645  31.937  24.209  1.00  0.00     0.210 HD
ENDBRANCH  22  23
ENDBRANCH  17  22
BRANCH  19  25
ATOM     25  O   UNL     1      20.048  30.143  23.609  1.00  0.00    -0.350 OA
BRANCH  25  26
ATOM     26  C   UNL     1      20.834  29.002  23.580  1.00  0.00     0.169 C 
BRANCH  26  27
ATOM     27  C   UNL     1      21.156  28.448  24.941  1.00  0.00     0.119 C 
BRANCH  27  28
ATOM     28  N   UNL     1      20.419  27.213  25.113  1.00  0.00    -0.092 NA
ATOM     29  N   UNL     1      20.846  26.232  24.491  1.00  0.00     0.001 N 
ATOM     30  N   UNL     1      20.821  25.384  23.581  1.00  0.00    -0.003 NA
ENDBRANCH  27  28
ENDBRANCH  26  27
ENDBRANCH  25  26
ENDBRANCH  19  25
BRANCH  20  31
ATOM     31  O   UNL     1      18.734  28.361  20.743  1.00  0.00    -0.387 OA
ATOM     32  H   UNL     1      18.259  27.987  19.960  1.00  0.00     0.211 HD
ENDBRANCH  20  31
BRANCH  21  33
ATOM     33  O   UNL     1      20.434  31.179  20.194  1.00  0.00    -0.385 OA
ATOM     34  H   UNL     1      21.189  31.735  20.507  1.00  0.00     0.211 HD
ENDBRANCH  21  33
ENDBRANCH  15  16
ENDBRANCH  10  15
BRANCH  12  35
ATOM     35  O   UNL     1      14.022  28.857  23.728  1.00  0.00    -0.385 OA
ATOM     36  H   UNL     1      13.103  28.671  23.435  1.00  0.00     0.211 HD
ENDBRANCH  12  35
BRANCH  13  37
ATOM     37  O   UNL     1      13.299  31.974  22.782  1.00  0.00    -0.387 OA
ATOM     38  H   UNL     1      12.363  32.155  22.962  1.00  0.00     0.211 HD
ENDBRANCH  13  37
BRANCH  14  39
ATOM     39  O   UNL     1      14.467  31.527  20.336  1.00  0.00    -0.387 OA
ATOM     40  H   UNL     1      15.372  31.134  20.322  1.00  0.00     0.211 HD
ENDBRANCH  14  39
ENDBRANCH   8   9
ENDBRANCH   7   8
ENDBRANCH   1   7
BRANCH   1  41
ATOM     41  C   UNL     1      17.067  28.026  18.147  1.00  0.00     0.364 C 
ATOM     42  O   UNL     1      18.207  27.789  17.768  1.00  0.00    -0.246 OA
BRANCH  41  43
ATOM     43  O   UNL     1      16.537  27.133  19.101  1.00  0.00    -0.477 OA
ATOM     44  H   UNL     1      15.798  27.429  19.719  1.00  0.00     0.296 HD
ENDBRANCH  41  43
ENDBRANCH   1  41
BRANCH   3  45
ATOM     45  O   UNL     1      15.691  32.126  17.560  1.00  0.00    -0.391 OA
ATOM     46  H   UNL     1      15.942  32.038  18.524  1.00  0.00     0.211 HD
ENDBRANCH   3  45
BRANCH   5  47
ATOM     47  C   UNL     1      14.007  29.824  15.283  1.00  0.00     0.176 C 
BRANCH  47  48
ATOM     48  O   UNL     1      13.728  31.084  14.718  1.00  0.00    -0.388 OA
ATOM     49  H   UNL     1      14.538  31.623  14.620  1.00  0.00     0.211 HD
ENDBRANCH  47  48
BRANCH  47  50
ATOM     50  C   UNL     1      13.457  28.707  14.464  1.00  0.00     0.165 C 
BRANCH  50  51
ATOM     51  O   UNL     1      14.560  27.905  14.088  1.00  0.00    -0.388 OA
ATOM     52  H   UNL     1      15.369  28.154  14.575  1.00  0.00     0.211 HD
ENDBRANCH  50  51
BRANCH  50  53
ATOM     53  C   UNL     1      12.754  29.073  13.211  1.00  0.00     0.154 C 
BRANCH  53  54
ATOM     54  N   UNL     1      11.341  28.801  13.181  1.00  0.00    -0.319 N 
ATOM     55  C   UNL     1      10.364  29.698  13.690  1.00  0.00     0.407 C 
ATOM     56  H   UNL     1      11.010  27.913  12.766  1.00  0.00     0.167 HD
ATOM     57  O   UNL     1      10.718  30.791  14.198  1.00  0.00    -0.225 OA
BRANCH  55  58
ATOM     58  O   UNL     1       9.027  29.413  13.650  1.00  0.00    -0.443 OA
BRANCH  58  59
ATOM     59  C   UNL     1       7.981  30.310  13.364  1.00  0.00     0.294 C 
BRANCH  59  60
ATOM     60  C   UNL     1       6.929  30.163  14.392  1.00  0.00     0.120 A 
ATOM     61  C   UNL     1       7.011  30.740  15.627  1.00  0.00     0.138 A 
ATOM     62  N   UNL     1       5.775  29.489  14.347  1.00  0.00    -0.132 NA
ATOM     63  N   UNL     1       5.899  30.411  16.324  1.00  0.00    -0.249 N 
ATOM     64  N   UNL     1       5.165  29.648  15.518  1.00  0.00    -0.067 NA
BRANCH  63  65
ATOM     65  C   UNL     1       5.591  30.816  17.681  1.00  0.00     0.109 C 
ATOM     66  C   UNL     1       6.923  31.224  18.303  1.00  0.00     0.027 C 
ATOM     67  C   UNL     1       5.037  29.649  18.467  1.00  0.00     0.027 C 
ATOM     68  C   UNL     1       6.670  31.754  19.714  1.00  0.00     0.002 C 
ATOM     69  C   UNL     1       5.775  29.423  19.771  1.00  0.00     0.002 C 
ATOM     70  C   UNL     1       5.945  30.716  20.509  1.00  0.00     0.000 C 
ENDBRANCH  63  65
ENDBRANCH  59  60
ENDBRANCH  58  59
ENDBRANCH  55  58
ENDBRANCH  53  54
ENDBRANCH  50  53
ENDBRANCH  47  50
ENDBRANCH   5  47
BRANCH   4  71
ATOM     71  N   UNL     1      17.158  31.242  14.433  1.00  0.00    -0.348 N 
ATOM     72  C   UNL     1      17.205  32.344  13.565  1.00  0.00     0.217 C 
ATOM     73  H   UNL     1      17.934  30.522  14.274  1.00  0.00     0.163 HD
ATOM     74  C   UNL     1      18.275  32.486  12.519  1.00  0.00     0.114 C 
ATOM     75  O   UNL     1      16.370  33.247  13.622  1.00  0.00    -0.275 OA
ENDBRANCH   4  71
TORSDOF 30
