REMARK VINA RESULT:    -5.247      3.024      9.022
REMARK INTER + INTRA:         -20.392
REMARK INTER:                 -13.528
REMARK INTRA:                  -6.864
REMARK UNBOUND:                -6.864
REMARK SMILES CC(=O)N[C@@H]1[C@@H](O)C[C@](OC[C@H]2O[C@@H](O[C@H]3[C@H](O)[C@@H](O)[C@H](OCCN=[N+]=[N-])O[C@@H]3CO)[C@H](O)[C@@H](O)[C@H]2O)(C(=O)O)O[C@H]1C(O)[C@H](O)CNC(=O)OCc1cn(CCC2OCCO2)nn1
REMARK SMILES IDX 9 1 8 2 6 3 5 4 42 5 41 6 10 7 11 8 12 9 14 10 13 11 32 12
REMARK SMILES IDX 34 13 36 14 15 15 16 16 29 17 28 18 21 19 17 20 19 21 30 22
REMARK SMILES IDX 31 23 22 25 23 26 24 27 25 28 26 29 27 30 18 31 20 33 33 35
REMARK SMILES IDX 35 37 37 39 38 41 39 42 40 43 7 45 43 47 44 48 45 50 46 51
REMARK SMILES IDX 47 53 48 54 49 55 50 57 51 58 52 59 53 60 54 61 64 62 55 63
REMARK SMILES IDX 63 64 56 65 57 66 58 67 59 68 62 69 60 70 61 71 4 72 2 73
REMARK SMILES IDX 1 75 3 76
REMARK H PARENT 31 24 18 32 20 34 33 36 35 38 37 40 40 44 7 46 44 49 46 52
REMARK H PARENT 48 56 4 74
REMARK Flexibility Score: inf
ROOT
ATOM      1  C   UNL     1      18.768  31.041  20.430  1.00  0.00     0.272 C 
ATOM      2  C   UNL     1      18.794  30.265  21.797  1.00  0.00     0.113 C 
ATOM      3  C   UNL     1      17.491  30.336  22.474  1.00  0.00     0.145 C 
ATOM      4  C   UNL     1      16.417  29.752  21.579  1.00  0.00     0.142 C 
ATOM      5  C   UNL     1      16.805  29.771  20.140  1.00  0.00     0.178 C 
ATOM      6  O   UNL     1      17.624  30.761  19.725  1.00  0.00    -0.332 OA
ENDROOT
BRANCH   1   7
ATOM      7  O   UNL     1      19.839  30.554  19.803  1.00  0.00    -0.338 OA
BRANCH   7   8
ATOM      8  C   UNL     1      21.039  30.305  20.275  1.00  0.00     0.199 C 
BRANCH   8   9
ATOM      9  C   UNL     1      21.995  29.392  19.575  1.00  0.00     0.179 C 
ATOM     10  C   UNL     1      23.201  27.417  19.925  1.00  0.00     0.282 C 
ATOM     11  O   UNL     1      22.569  28.517  20.468  1.00  0.00    -0.341 OA
ATOM     12  C   UNL     1      23.441  27.464  18.461  1.00  0.00     0.202 C 
ATOM     13  C   UNL     1      22.248  27.909  17.660  1.00  0.00     0.179 C 
ATOM     14  C   UNL     1      21.225  28.490  18.579  1.00  0.00     0.177 C 
BRANCH  10  15
ATOM     15  O   UNL     1      22.562  26.269  20.394  1.00  0.00    -0.341 OA
BRANCH  15  16
ATOM     16  C   UNL     1      22.723  26.059  21.757  1.00  0.00     0.184 C 
ATOM     17  C   UNL     1      23.316  24.731  22.112  1.00  0.00     0.178 C 
ATOM     18  O   UNL     1      23.493  24.699  23.497  1.00  0.00    -0.341 OA
ATOM     19  C   UNL     1      22.299  24.685  24.204  1.00  0.00     0.281 C 
ATOM     20  C   UNL     1      21.322  26.062  22.434  1.00  0.00     0.180 C 
ATOM     21  C   UNL     1      21.622  26.024  23.927  1.00  0.00     0.202 C 
BRANCH  17  22
ATOM     22  C   UNL     1      24.711  24.628  21.521  1.00  0.00     0.191 C 
BRANCH  22  23
ATOM     23  O   UNL     1      25.252  23.430  22.054  1.00  0.00    -0.394 OA
ATOM     24  H   UNL     1      24.570  22.861  22.467  1.00  0.00     0.210 HD
ENDBRANCH  22  23
ENDBRANCH  17  22
BRANCH  19  25
ATOM     25  O   UNL     1      22.574  24.539  25.534  1.00  0.00    -0.350 OA
BRANCH  25  26
ATOM     26  C   UNL     1      23.435  25.451  26.076  1.00  0.00     0.169 C 
BRANCH  26  27
ATOM     27  C   UNL     1      23.973  25.085  27.442  1.00  0.00     0.119 C 
BRANCH  27  28
ATOM     28  N   UNL     1      25.245  25.745  27.672  1.00  0.00    -0.092 NA
ATOM     29  N   UNL     1      25.757  25.839  28.785  1.00  0.00     0.001 N 
ATOM     30  N   UNL     1      26.412  25.835  29.824  1.00  0.00    -0.003 NA
ENDBRANCH  27  28
ENDBRANCH  26  27
ENDBRANCH  25  26
ENDBRANCH  19  25
BRANCH  20  31
ATOM     31  O   UNL     1      20.682  27.232  22.106  1.00  0.00    -0.387 OA
ATOM     32  H   UNL     1      20.840  27.423  21.141  1.00  0.00     0.211 HD
ENDBRANCH  20  31
BRANCH  21  33
ATOM     33  O   UNL     1      20.420  26.147  24.591  1.00  0.00    -0.385 OA
ATOM     34  H   UNL     1      20.157  25.253  24.926  1.00  0.00     0.211 HD
ENDBRANCH  21  33
ENDBRANCH  15  16
ENDBRANCH  10  15
BRANCH  12  35
ATOM     35  O   UNL     1      24.560  28.294  18.200  1.00  0.00    -0.385 OA
ATOM     36  H   UNL     1      24.953  28.480  19.094  1.00  0.00     0.211 HD
ENDBRANCH  12  35
BRANCH  13  37
ATOM     37  O   UNL     1      21.741  26.882  16.864  1.00  0.00    -0.387 OA
ATOM     38  H   UNL     1      22.489  26.260  16.665  1.00  0.00     0.211 HD
ENDBRANCH  13  37
BRANCH  14  39
ATOM     39  O   UNL     1      20.507  27.554  19.293  1.00  0.00    -0.387 OA
ATOM     40  H   UNL     1      20.805  26.621  19.149  1.00  0.00     0.211 HD
ENDBRANCH  14  39
ENDBRANCH   8   9
ENDBRANCH   7   8
ENDBRANCH   1   7
BRANCH   1  41
ATOM     41  C   UNL     1      18.706  32.441  20.850  1.00  0.00     0.364 C 
ATOM     42  O   UNL     1      17.905  33.253  20.228  1.00  0.00    -0.246 OA
BRANCH  41  43
ATOM     43  O   UNL     1      19.400  33.062  21.864  1.00  0.00    -0.477 OA
ATOM     44  H   UNL     1      18.898  33.544  22.596  1.00  0.00     0.296 HD
ENDBRANCH  41  43
ENDBRANCH   1  41
BRANCH   3  45
ATOM     45  O   UNL     1      17.611  29.547  23.656  1.00  0.00    -0.391 OA
ATOM     46  H   UNL     1      17.676  28.594  23.342  1.00  0.00     0.211 HD
ENDBRANCH   3  45
BRANCH   5  47
ATOM     47  C   UNL     1      17.196  28.395  19.692  1.00  0.00     0.176 C 
BRANCH  47  48
ATOM     48  O   UNL     1      16.290  27.406  20.104  1.00  0.00    -0.388 OA
ATOM     49  H   UNL     1      16.283  26.640  19.458  1.00  0.00     0.211 HD
ENDBRANCH  47  48
BRANCH  47  50
ATOM     50  C   UNL     1      17.121  28.309  18.141  1.00  0.00     0.165 C 
BRANCH  50  51
ATOM     51  O   UNL     1      18.291  28.812  17.622  1.00  0.00    -0.388 OA
ATOM     52  H   UNL     1      19.084  28.290  17.842  1.00  0.00     0.211 HD
ENDBRANCH  50  51
BRANCH  50  53
ATOM     53  C   UNL     1      15.856  28.928  17.706  1.00  0.00     0.154 C 
BRANCH  53  54
ATOM     54  N   UNL     1      15.618  28.755  16.308  1.00  0.00    -0.319 N 
ATOM     55  C   UNL     1      14.909  29.649  15.507  1.00  0.00     0.407 C 
ATOM     56  H   UNL     1      16.015  27.888  15.867  1.00  0.00     0.167 HD
ATOM     57  O   UNL     1      14.410  30.683  15.979  1.00  0.00    -0.225 OA
BRANCH  55  58
ATOM     58  O   UNL     1      14.704  29.454  14.134  1.00  0.00    -0.443 OA
BRANCH  58  59
ATOM     59  C   UNL     1      15.482  30.148  13.175  1.00  0.00     0.294 C 
BRANCH  59  60
ATOM     60  C   UNL     1      16.935  29.909  13.335  1.00  0.00     0.120 A 
ATOM     61  C   UNL     1      17.869  30.881  13.708  1.00  0.00     0.138 A 
ATOM     62  N   UNL     1      17.655  28.789  13.170  1.00  0.00    -0.132 NA
ATOM     63  N   UNL     1      19.105  30.313  13.755  1.00  0.00    -0.252 N 
ATOM     64  N   UNL     1      18.944  29.053  13.425  1.00  0.00    -0.067 NA
BRANCH  63  65
ATOM     65  C   UNL     1      20.299  31.061  14.121  1.00  0.00     0.151 C 
BRANCH  65  66
ATOM     66  C   UNL     1      20.819  30.603  15.477  1.00  0.00     0.086 C 
BRANCH  66  67
ATOM     67  C   UNL     1      20.454  31.575  16.562  1.00  0.00     0.251 C 
ATOM     68  O   UNL     1      21.617  32.018  17.195  1.00  0.00    -0.350 OA
ATOM     69  O   UNL     1      19.829  32.715  16.095  1.00  0.00    -0.350 OA
ATOM     70  C   UNL     1      21.238  33.182  17.854  1.00  0.00     0.192 C 
ATOM     71  C   UNL     1      19.887  33.528  17.251  1.00  0.00     0.192 C 
ENDBRANCH  66  67
ENDBRANCH  65  66
ENDBRANCH  63  65
ENDBRANCH  59  60
ENDBRANCH  58  59
ENDBRANCH  55  58
ENDBRANCH  53  54
ENDBRANCH  50  53
ENDBRANCH  47  50
ENDBRANCH   5  47
BRANCH   4  72
ATOM     72  N   UNL     1      15.130  30.395  21.834  1.00  0.00    -0.348 N 
ATOM     73  C   UNL     1      13.902  29.733  21.728  1.00  0.00     0.217 C 
ATOM     74  H   UNL     1      15.164  31.419  22.112  1.00  0.00     0.163 HD
ATOM     75  C   UNL     1      12.623  30.464  22.006  1.00  0.00     0.114 C 
ATOM     76  O   UNL     1      13.919  28.517  21.395  1.00  0.00    -0.275 OA
ENDBRANCH   4  72
TORSDOF 32
