REMARK VINA RESULT:    -5.885     15.801     21.833
REMARK INTER + INTRA:         -20.688
REMARK INTER:                 -15.882
REMARK INTRA:                  -4.806
REMARK UNBOUND:                -5.342
REMARK SMILES CC(=O)N[C@@H]1[C@@H](O)C[C@](OC[C@H]2O[C@@H](O[C@H]3[C@H](O)[C@@H](O)[C@H](OCCN=[N+]=[N-])O[C@@H]3CO)[C@H](O)[C@@H](O)[C@H]2O)(C(=O)O)O[C@H]1C(O)[C@H](O)CNC(=O)OCc1cn(CCC(=O)O)nn1
REMARK SMILES IDX 43 1 42 2 9 3 8 4 41 5 6 6 5 7 10 8 11 9 12 10 14 11 13 12
REMARK SMILES IDX 32 13 34 14 36 15 15 16 16 17 29 18 28 19 21 20 17 21 19 22
REMARK SMILES IDX 30 23 31 24 22 26 23 27 24 28 25 29 26 30 27 31 18 32 20 34
REMARK SMILES IDX 33 36 35 38 37 40 38 42 39 43 40 44 7 46 4 48 2 49 1 51 3 52
REMARK SMILES IDX 44 53 45 55 46 56 47 58 48 59 49 60 50 62 51 63 52 64 53 65
REMARK SMILES IDX 54 66 62 67 55 68 61 69 56 70 57 71 58 72 59 73 60 74
REMARK H PARENT 31 25 18 33 20 35 33 37 35 39 37 41 40 45 7 47 4 50 44 54
REMARK H PARENT 46 57 48 61 60 75
REMARK Flexibility Score: inf
ROOT
ATOM      1  C   UNL     1      23.752  24.249  20.210  1.00  0.00     0.176 C 
ENDROOT
BRANCH   1   2
ATOM      2  C   UNL     1      23.745  24.515  21.697  1.00  0.00     0.178 C 
ATOM      3  C   UNL     1      22.522  25.648  23.348  1.00  0.00     0.272 C 
ATOM      4  C   UNL     1      23.541  24.834  24.126  1.00  0.00     0.113 C 
ATOM      5  O   UNL     1      23.115  25.686  22.029  1.00  0.00    -0.332 OA
ATOM      6  C   UNL     1      24.978  25.159  23.669  1.00  0.00     0.145 C 
ATOM      7  C   UNL     1      25.157  24.616  22.257  1.00  0.00     0.142 C 
BRANCH   3   8
ATOM      8  O   UNL     1      22.446  26.903  23.827  1.00  0.00    -0.338 OA
BRANCH   8   9
ATOM      9  C   UNL     1      21.543  27.819  23.610  1.00  0.00     0.199 C 
BRANCH   9  10
ATOM     10  C   UNL     1      21.238  28.489  22.340  1.00  0.00     0.179 C 
ATOM     11  C   UNL     1      19.876  28.777  20.514  1.00  0.00     0.282 C 
ATOM     12  O   UNL     1      20.175  28.027  21.615  1.00  0.00    -0.341 OA
ATOM     13  C   UNL     1      20.773  29.955  20.256  1.00  0.00     0.202 C 
ATOM     14  C   UNL     1      21.021  30.766  21.513  1.00  0.00     0.179 C 
ATOM     15  C   UNL     1      20.786  29.937  22.755  1.00  0.00     0.177 C 
BRANCH  11  16
ATOM     16  O   UNL     1      18.571  29.268  20.510  1.00  0.00    -0.341 OA
BRANCH  16  17
ATOM     17  C   UNL     1      17.862  28.950  19.353  1.00  0.00     0.184 C 
ATOM     18  C   UNL     1      17.388  30.212  18.723  1.00  0.00     0.178 C 
ATOM     19  O   UNL     1      15.990  30.364  18.735  1.00  0.00    -0.341 OA
ATOM     20  C   UNL     1      15.621  30.172  20.082  1.00  0.00     0.281 C 
ATOM     21  C   UNL     1      16.768  28.001  19.745  1.00  0.00     0.180 C 
ATOM     22  C   UNL     1      15.540  28.675  20.271  1.00  0.00     0.202 C 
BRANCH  18  23
ATOM     23  C   UNL     1      17.855  30.321  17.280  1.00  0.00     0.191 C 
BRANCH  23  24
ATOM     24  O   UNL     1      17.324  29.281  16.521  1.00  0.00    -0.394 OA
ATOM     25  H   UNL     1      16.692  29.665  15.868  1.00  0.00     0.210 HD
ENDBRANCH  23  24
ENDBRANCH  18  23
BRANCH  20  26
ATOM     26  O   UNL     1      14.437  30.803  20.385  1.00  0.00    -0.350 OA
BRANCH  26  27
ATOM     27  C   UNL     1      14.641  31.676  21.450  1.00  0.00     0.169 C 
BRANCH  27  28
ATOM     28  C   UNL     1      13.521  31.495  22.466  1.00  0.00     0.119 C 
BRANCH  28  29
ATOM     29  N   UNL     1      13.892  30.360  23.285  1.00  0.00    -0.092 NA
ATOM     30  N   UNL     1      14.828  30.485  24.073  1.00  0.00     0.001 N 
ATOM     31  N   UNL     1      15.655  30.367  25.002  1.00  0.00    -0.003 NA
ENDBRANCH  28  29
ENDBRANCH  27  28
ENDBRANCH  26  27
ENDBRANCH  20  26
BRANCH  21  32
ATOM     32  O   UNL     1      16.423  27.275  18.609  1.00  0.00    -0.387 OA
ATOM     33  H   UNL     1      16.102  26.397  18.891  1.00  0.00     0.211 HD
ENDBRANCH  21  32
BRANCH  22  34
ATOM     34  O   UNL     1      15.325  28.348  21.611  1.00  0.00    -0.385 OA
ATOM     35  H   UNL     1      14.433  28.681  21.908  1.00  0.00     0.211 HD
ENDBRANCH  22  34
ENDBRANCH  16  17
ENDBRANCH  11  16
BRANCH  13  36
ATOM     36  O   UNL     1      21.971  29.608  19.614  1.00  0.00    -0.385 OA
ATOM     37  H   UNL     1      22.349  30.390  19.182  1.00  0.00     0.211 HD
ENDBRANCH  13  36
BRANCH  14  38
ATOM     38  O   UNL     1      20.283  31.928  21.491  1.00  0.00    -0.387 OA
ATOM     39  H   UNL     1      19.616  31.937  22.207  1.00  0.00     0.211 HD
ENDBRANCH  14  38
BRANCH  15  40
ATOM     40  O   UNL     1      19.455  29.824  23.076  1.00  0.00    -0.387 OA
ATOM     41  H   UNL     1      19.105  28.903  23.089  1.00  0.00     0.211 HD
ENDBRANCH  15  40
ENDBRANCH   9  10
ENDBRANCH   8   9
ENDBRANCH   3   8
BRANCH   3  42
ATOM     42  C   UNL     1      21.229  24.980  23.179  1.00  0.00     0.364 C 
ATOM     43  O   UNL     1      20.736  24.314  24.122  1.00  0.00    -0.246 OA
BRANCH  42  44
ATOM     44  O   UNL     1      20.527  25.063  22.004  1.00  0.00    -0.477 OA
ATOM     45  H   UNL     1      20.896  25.352  21.120  1.00  0.00     0.296 HD
ENDBRANCH  42  44
ENDBRANCH   3  42
BRANCH   6  46
ATOM     46  O   UNL     1      25.088  26.531  23.625  1.00  0.00    -0.391 OA
ATOM     47  H   UNL     1      25.944  26.757  23.157  1.00  0.00     0.211 HD
ENDBRANCH   6  46
BRANCH   7  48
ATOM     48  N   UNL     1      25.823  23.355  22.281  1.00  0.00    -0.348 N 
ATOM     49  C   UNL     1      27.037  23.191  21.563  1.00  0.00     0.217 C 
ATOM     50  H   UNL     1      25.457  22.532  22.807  1.00  0.00     0.163 HD
ATOM     51  C   UNL     1      27.792  21.915  21.531  1.00  0.00     0.114 C 
ATOM     52  O   UNL     1      27.535  24.151  20.904  1.00  0.00    -0.275 OA
ENDBRANCH   7  48
ENDBRANCH   1   2
BRANCH   1  53
ATOM     53  O   UNL     1      22.432  24.067  19.797  1.00  0.00    -0.388 OA
ATOM     54  H   UNL     1      21.951  24.917  19.749  1.00  0.00     0.211 HD
ENDBRANCH   1  53
BRANCH   1  55
ATOM     55  C   UNL     1      24.367  25.333  19.383  1.00  0.00     0.165 C 
BRANCH  55  56
ATOM     56  O   UNL     1      23.346  26.151  18.889  1.00  0.00    -0.388 OA
ATOM     57  H   UNL     1      22.852  26.532  19.654  1.00  0.00     0.211 HD
ENDBRANCH  55  56
BRANCH  55  58
ATOM     58  C   UNL     1      25.020  24.649  18.177  1.00  0.00     0.154 C 
BRANCH  58  59
ATOM     59  N   UNL     1      24.028  24.234  17.224  1.00  0.00    -0.319 N 
ATOM     60  C   UNL     1      24.309  23.537  16.018  1.00  0.00     0.407 C 
ATOM     61  H   UNL     1      22.997  24.440  17.396  1.00  0.00     0.167 HD
ATOM     62  O   UNL     1      25.511  23.266  15.768  1.00  0.00    -0.225 OA
BRANCH  60  63
ATOM     63  O   UNL     1      23.319  23.159  15.130  1.00  0.00    -0.443 OA
BRANCH  63  64
ATOM     64  C   UNL     1      23.671  22.811  13.814  1.00  0.00     0.294 C 
BRANCH  64  65
ATOM     65  C   UNL     1      22.585  22.059  13.160  1.00  0.00     0.120 A 
ATOM     66  C   UNL     1      22.690  20.716  12.822  1.00  0.00     0.138 A 
ATOM     67  N   UNL     1      21.352  22.492  12.799  1.00  0.00    -0.132 NA
ATOM     68  N   UNL     1      21.500  20.386  12.265  1.00  0.00    -0.252 N 
ATOM     69  N   UNL     1      20.728  21.463  12.265  1.00  0.00    -0.067 NA
BRANCH  68  70
ATOM     70  C   UNL     1      21.124  19.083  11.759  1.00  0.00     0.158 C 
BRANCH  70  71
ATOM     71  C   UNL     1      20.150  19.150  10.605  1.00  0.00     0.146 C 
BRANCH  71  72
ATOM     72  C   UNL     1      18.863  18.605  11.058  1.00  0.00     0.305 C 
ATOM     73  O   UNL     1      18.589  18.596  12.278  1.00  0.00    -0.252 OA
BRANCH  72  74
ATOM     74  O   UNL     1      17.926  18.090  10.163  1.00  0.00    -0.481 OA
ATOM     75  H   UNL     1      17.003  17.773  10.442  1.00  0.00     0.296 HD
ENDBRANCH  72  74
ENDBRANCH  71  72
ENDBRANCH  70  71
ENDBRANCH  68  70
ENDBRANCH  64  65
ENDBRANCH  63  64
ENDBRANCH  60  63
ENDBRANCH  58  59
ENDBRANCH  55  58
ENDBRANCH   1  55
TORSDOF 33
