REMARK VINA RESULT:    -4.403     10.660     14.263
REMARK INTER + INTRA:         -21.933
REMARK INTER:                 -12.983
REMARK INTRA:                  -8.950
REMARK UNBOUND:               -10.839
REMARK SMILES CC(=O)N[C@@H]1[C@@H](O)C[C@](OC[C@H]2O[C@@H](O[C@H]3[C@H](O)[C@@H](O)[C@H](OCCN=[N+]=[N-])O[C@@H]3CO)[C@H](O)[C@@H](O)[C@H]2O)(C(=O)O)O[C@H]1C(O)[C@H](O)CNC(=O)OCc1cn(-c2ccccc2C(C)C)nn1
REMARK SMILES IDX 9 1 8 2 6 3 5 4 42 5 41 6 10 7 11 8 12 9 14 10 13 11 32 12
REMARK SMILES IDX 34 13 36 14 15 15 16 16 29 17 28 18 21 19 17 20 19 21 30 22
REMARK SMILES IDX 31 23 22 25 23 26 24 27 25 28 26 29 27 30 18 31 20 33 33 35
REMARK SMILES IDX 35 37 37 39 38 41 39 42 40 43 7 45 43 47 44 48 45 50 46 51
REMARK SMILES IDX 47 53 48 54 49 55 50 57 51 58 52 59 53 60 54 61 66 62 55 63
REMARK SMILES IDX 65 64 56 65 61 66 57 67 60 68 58 69 59 70 62 71 63 72 64 73
REMARK SMILES IDX 4 74 2 75 1 77 3 78
REMARK H PARENT 31 24 18 32 20 34 33 36 35 38 37 40 40 44 7 46 44 49 46 52
REMARK H PARENT 48 56 4 76
REMARK Flexibility Score: inf
ROOT
ATOM      1  C   UNL     1      15.337  32.570  27.075  1.00  0.00     0.272 C 
ATOM      2  C   UNL     1      15.731  32.806  28.515  1.00  0.00     0.113 C 
ATOM      3  C   UNL     1      15.627  34.300  28.779  1.00  0.00     0.145 C 
ATOM      4  C   UNL     1      16.747  34.973  27.966  1.00  0.00     0.142 C 
ATOM      5  C   UNL     1      16.654  34.465  26.578  1.00  0.00     0.178 C 
ATOM      6  O   UNL     1      15.439  33.820  26.396  1.00  0.00    -0.332 OA
ENDROOT
BRANCH   1   7
ATOM      7  O   UNL     1      14.036  32.249  26.945  1.00  0.00    -0.338 OA
BRANCH   7   8
ATOM      8  C   UNL     1      13.113  32.691  26.163  1.00  0.00     0.199 C 
BRANCH   8   9
ATOM      9  C   UNL     1      12.770  32.106  24.832  1.00  0.00     0.179 C 
ATOM     10  C   UNL     1      13.609  31.413  22.836  1.00  0.00     0.282 C 
ATOM     11  O   UNL     1      13.787  32.190  23.913  1.00  0.00    -0.341 OA
ATOM     12  C   UNL     1      12.201  30.887  22.601  1.00  0.00     0.202 C 
ATOM     13  C   UNL     1      11.664  30.174  23.812  1.00  0.00     0.179 C 
ATOM     14  C   UNL     1      12.452  30.603  25.015  1.00  0.00     0.177 C 
BRANCH  10  15
ATOM     15  O   UNL     1      14.475  30.382  22.637  1.00  0.00    -0.341 OA
BRANCH  15  16
ATOM     16  C   UNL     1      15.569  30.563  21.829  1.00  0.00     0.184 C 
ATOM     17  C   UNL     1      15.226  30.773  20.391  1.00  0.00     0.178 C 
ATOM     18  O   UNL     1      15.783  29.868  19.557  1.00  0.00    -0.341 OA
ATOM     19  C   UNL     1      17.127  29.664  19.566  1.00  0.00     0.281 C 
ATOM     20  C   UNL     1      16.652  29.576  21.992  1.00  0.00     0.180 C 
ATOM     21  C   UNL     1      17.724  29.878  20.958  1.00  0.00     0.202 C 
BRANCH  17  22
ATOM     22  C   UNL     1      15.584  32.177  19.877  1.00  0.00     0.191 C 
BRANCH  22  23
ATOM     23  O   UNL     1      15.733  33.008  21.011  1.00  0.00    -0.394 OA
ATOM     24  H   UNL     1      15.335  32.490  21.780  1.00  0.00     0.210 HD
ENDBRANCH  22  23
ENDBRANCH  17  22
BRANCH  19  25
ATOM     25  O   UNL     1      17.756  30.526  18.708  1.00  0.00    -0.350 OA
BRANCH  25  26
ATOM     26  C   UNL     1      18.105  30.071  17.476  1.00  0.00     0.169 C 
BRANCH  26  27
ATOM     27  C   UNL     1      18.912  28.829  17.388  1.00  0.00     0.119 C 
BRANCH  27  28
ATOM     28  N   UNL     1      20.176  28.962  18.030  1.00  0.00    -0.092 NA
ATOM     29  N   UNL     1      20.660  28.222  18.862  1.00  0.00     0.001 N 
ATOM     30  N   UNL     1      21.067  27.307  19.569  1.00  0.00    -0.003 NA
ENDBRANCH  27  28
ENDBRANCH  26  27
ENDBRANCH  25  26
ENDBRANCH  19  25
BRANCH  20  31
ATOM     31  O   UNL     1      17.289  29.614  23.231  1.00  0.00    -0.387 OA
ATOM     32  H   UNL     1      17.754  28.759  23.362  1.00  0.00     0.211 HD
ENDBRANCH  20  31
BRANCH  21  33
ATOM     33  O   UNL     1      18.804  29.005  21.099  1.00  0.00    -0.385 OA
ATOM     34  H   UNL     1      18.439  28.086  21.047  1.00  0.00     0.211 HD
ENDBRANCH  21  33
ENDBRANCH  15  16
ENDBRANCH  10  15
BRANCH  12  35
ATOM     35  O   UNL     1      11.397  31.961  22.259  1.00  0.00    -0.385 OA
ATOM     36  H   UNL     1      11.020  32.384  23.094  1.00  0.00     0.211 HD
ENDBRANCH  12  35
BRANCH  13  37
ATOM     37  O   UNL     1      11.754  28.790  23.608  1.00  0.00    -0.387 OA
ATOM     38  H   UNL     1      12.684  28.611  23.322  1.00  0.00     0.211 HD
ENDBRANCH  13  37
BRANCH  14  39
ATOM     39  O   UNL     1      13.658  29.935  25.047  1.00  0.00    -0.387 OA
ATOM     40  H   UNL     1      13.884  29.668  24.121  1.00  0.00     0.211 HD
ENDBRANCH  14  39
ENDBRANCH   8   9
ENDBRANCH   7   8
ENDBRANCH   1   7
BRANCH   1  41
ATOM     41  C   UNL     1      16.239  31.623  26.410  1.00  0.00     0.364 C 
ATOM     42  O   UNL     1      17.049  30.980  27.170  1.00  0.00    -0.246 OA
BRANCH  41  43
ATOM     43  O   UNL     1      16.344  31.328  25.077  1.00  0.00    -0.477 OA
ATOM     44  H   UNL     1      17.028  30.736  24.643  1.00  0.00     0.296 HD
ENDBRANCH  41  43
ENDBRANCH   1  41
BRANCH   3  45
ATOM     45  O   UNL     1      14.439  34.793  28.228  1.00  0.00    -0.391 OA
ATOM     46  H   UNL     1      13.861  34.014  28.036  1.00  0.00     0.211 HD
ENDBRANCH   3  45
BRANCH   5  47
ATOM     47  C   UNL     1      16.737  35.469  25.468  1.00  0.00     0.176 C 
BRANCH  47  48
ATOM     48  O   UNL     1      15.468  36.145  25.542  1.00  0.00    -0.388 OA
ATOM     49  H   UNL     1      14.887  35.431  25.956  1.00  0.00     0.211 HD
ENDBRANCH  47  48
BRANCH  47  50
ATOM     50  C   UNL     1      16.815  34.932  24.075  1.00  0.00     0.165 C 
BRANCH  50  51
ATOM     51  O   UNL     1      15.778  34.107  23.732  1.00  0.00    -0.388 OA
ATOM     52  H   UNL     1      15.546  34.316  22.790  1.00  0.00     0.211 HD
ENDBRANCH  50  51
BRANCH  50  53
ATOM     53  C   UNL     1      18.182  34.543  23.655  1.00  0.00     0.154 C 
BRANCH  53  54
ATOM     54  N   UNL     1      18.419  33.117  23.545  1.00  0.00    -0.319 N 
ATOM     55  C   UNL     1      19.672  32.602  23.132  1.00  0.00     0.407 C 
ATOM     56  H   UNL     1      17.684  32.411  23.766  1.00  0.00     0.167 HD
ATOM     57  O   UNL     1      20.652  33.319  22.829  1.00  0.00    -0.225 OA
BRANCH  55  58
ATOM     58  O   UNL     1      19.930  31.214  23.024  1.00  0.00    -0.443 OA
BRANCH  58  59
ATOM     59  C   UNL     1      21.181  30.709  23.374  1.00  0.00     0.294 C 
BRANCH  59  60
ATOM     60  C   UNL     1      20.986  29.432  24.118  1.00  0.00     0.121 A 
ATOM     61  C   UNL     1      21.862  28.705  24.893  1.00  0.00     0.144 A 
ATOM     62  N   UNL     1      19.823  28.709  24.169  1.00  0.00    -0.131 NA
ATOM     63  N   UNL     1      21.271  27.604  25.388  1.00  0.00    -0.220 N 
ATOM     64  N   UNL     1      20.016  27.643  24.919  1.00  0.00    -0.062 NA
BRANCH  63  65
ATOM     65  C   UNL     1      21.803  26.591  26.234  1.00  0.00     0.070 A 
ATOM     66  C   UNL     1      22.331  25.450  25.671  1.00  0.00    -0.020 A 
ATOM     67  C   UNL     1      21.812  26.679  27.608  1.00  0.00     0.029 A 
ATOM     68  C   UNL     1      22.845  24.438  26.457  1.00  0.00     0.006 A 
ATOM     69  C   UNL     1      22.323  25.675  28.410  1.00  0.00     0.002 A 
ATOM     70  C   UNL     1      22.847  24.538  27.828  1.00  0.00     0.000 A 
BRANCH  66  71
ATOM     71  C   UNL     1      22.351  25.320  24.199  1.00  0.00     0.015 C 
ATOM     72  C   UNL     1      21.128  24.519  23.780  1.00  0.00     0.012 C 
ATOM     73  C   UNL     1      23.597  24.525  23.776  1.00  0.00     0.012 C 
ENDBRANCH  66  71
ENDBRANCH  63  65
ENDBRANCH  59  60
ENDBRANCH  58  59
ENDBRANCH  55  58
ENDBRANCH  53  54
ENDBRANCH  50  53
ENDBRANCH  47  50
ENDBRANCH   5  47
BRANCH   4  74
ATOM     74  N   UNL     1      17.995  34.635  28.611  1.00  0.00    -0.348 N 
ATOM     75  C   UNL     1      19.150  35.433  28.607  1.00  0.00     0.217 C 
ATOM     76  H   UNL     1      18.047  33.706  29.127  1.00  0.00     0.163 HD
ATOM     77  C   UNL     1      20.373  34.936  29.323  1.00  0.00     0.114 C 
ATOM     78  O   UNL     1      19.166  36.526  28.025  1.00  0.00    -0.275 OA
ENDBRANCH   4  74
TORSDOF 31
