REMARK VINA RESULT:    -4.872      3.324      8.575
REMARK INTER + INTRA:         -20.695
REMARK INTER:                 -12.185
REMARK INTRA:                  -8.510
REMARK UNBOUND:                -8.275
REMARK SMILES CC(=O)N[C@@H]1[C@@H](O)C[C@](OC[C@H]2O[C@@H](O[C@H]3[C@H](O)[C@@H](O)[C@H](OCCN=[N+]=[N-])O[C@@H]3CO)[C@H](O)[C@@H](O)[C@H]2O)(C(=O)O)O[C@H]1C(O)[C@H](O)CNC(=O)OCc1cn(C(C)(C)C(=O)O)nn1
REMARK SMILES IDX 9 1 8 2 6 3 5 4 42 5 41 6 10 7 11 8 12 9 14 10 13 11 32 12
REMARK SMILES IDX 34 13 36 14 15 15 16 16 29 17 28 18 21 19 17 20 19 21 30 22
REMARK SMILES IDX 31 23 22 25 23 26 24 27 25 28 26 29 27 30 18 31 20 33 33 35
REMARK SMILES IDX 35 37 37 39 38 41 39 42 40 43 7 45 43 47 44 48 45 50 46 51
REMARK SMILES IDX 47 53 48 54 49 55 50 57 51 58 52 59 53 60 54 61 63 62 55 63
REMARK SMILES IDX 62 64 56 65 57 66 58 67 59 68 60 69 61 70 4 72 2 73 1 75
REMARK SMILES IDX 3 76
REMARK H PARENT 31 24 18 32 20 34 33 36 35 38 37 40 40 44 7 46 44 49 46 52
REMARK H PARENT 48 56 61 71 4 74
REMARK Flexibility Score: inf
ROOT
ATOM      1  C   UNL     1      19.263  29.820  22.625  1.00  0.00     0.272 C 
ATOM      2  C   UNL     1      19.617  31.249  22.610  1.00  0.00     0.113 C 
ATOM      3  C   UNL     1      18.655  32.152  23.328  1.00  0.00     0.145 C 
ATOM      4  C   UNL     1      17.289  31.537  23.345  1.00  0.00     0.142 C 
ATOM      5  C   UNL     1      17.206  30.682  22.066  1.00  0.00     0.178 C 
ATOM      6  O   UNL     1      17.931  29.537  22.303  1.00  0.00    -0.332 OA
ENDROOT
BRANCH   1   7
ATOM      7  O   UNL     1      19.554  29.169  23.784  1.00  0.00    -0.338 OA
BRANCH   7   8
ATOM      8  C   UNL     1      20.858  28.955  24.102  1.00  0.00     0.199 C 
BRANCH   8   9
ATOM      9  C   UNL     1      21.155  27.479  24.252  1.00  0.00     0.179 C 
ATOM     10  C   UNL     1      22.741  25.904  23.677  1.00  0.00     0.282 C 
ATOM     11  O   UNL     1      22.472  27.313  23.830  1.00  0.00    -0.341 OA
ATOM     12  C   UNL     1      22.778  25.341  25.046  1.00  0.00     0.202 C 
ATOM     13  C   UNL     1      22.298  26.345  26.093  1.00  0.00     0.179 C 
ATOM     14  C   UNL     1      21.005  27.017  25.653  1.00  0.00     0.177 C 
BRANCH  10  15
ATOM     15  O   UNL     1      23.879  25.879  22.928  1.00  0.00    -0.341 OA
BRANCH  15  16
ATOM     16  C   UNL     1      23.843  25.039  21.829  1.00  0.00     0.184 C 
ATOM     17  C   UNL     1      24.750  25.567  20.761  1.00  0.00     0.178 C 
ATOM     18  O   UNL     1      24.400  25.069  19.497  1.00  0.00    -0.341 OA
ATOM     19  C   UNL     1      23.238  25.640  19.000  1.00  0.00     0.281 C 
ATOM     20  C   UNL     1      22.432  24.988  21.242  1.00  0.00     0.180 C 
ATOM     21  C   UNL     1      22.304  26.003  20.134  1.00  0.00     0.202 C 
BRANCH  17  22
ATOM     22  C   UNL     1      26.199  25.094  20.969  1.00  0.00     0.191 C 
BRANCH  22  23
ATOM     23  O   UNL     1      27.021  26.183  20.766  1.00  0.00    -0.394 OA
ATOM     24  H   UNL     1      27.975  25.877  20.833  1.00  0.00     0.210 HD
ENDBRANCH  22  23
ENDBRANCH  17  22
BRANCH  19  25
ATOM     25  O   UNL     1      22.666  24.687  18.159  1.00  0.00    -0.350 OA
BRANCH  25  26
ATOM     26  C   UNL     1      23.509  24.176  17.206  1.00  0.00     0.169 C 
BRANCH  26  27
ATOM     27  C   UNL     1      22.862  24.492  15.850  1.00  0.00     0.119 C 
BRANCH  27  28
ATOM     28  N   UNL     1      21.999  25.648  15.916  1.00  0.00    -0.092 NA
ATOM     29  N   UNL     1      22.437  26.730  15.496  1.00  0.00     0.001 N 
ATOM     30  N   UNL     1      22.964  27.818  15.308  1.00  0.00    -0.003 NA
ENDBRANCH  27  28
ENDBRANCH  26  27
ENDBRANCH  25  26
ENDBRANCH  19  25
BRANCH  20  31
ATOM     31  O   UNL     1      22.207  23.729  20.695  1.00  0.00    -0.387 OA
ATOM     32  H   UNL     1      22.767  23.545  19.901  1.00  0.00     0.211 HD
ENDBRANCH  20  31
BRANCH  21  33
ATOM     33  O   UNL     1      22.593  27.256  20.660  1.00  0.00    -0.385 OA
ATOM     34  H   UNL     1      21.795  27.747  20.970  1.00  0.00     0.211 HD
ENDBRANCH  21  33
ENDBRANCH  15  16
ENDBRANCH  10  15
BRANCH  12  35
ATOM     35  O   UNL     1      21.840  24.287  25.115  1.00  0.00    -0.385 OA
ATOM     36  H   UNL     1      21.544  24.079  26.014  1.00  0.00     0.211 HD
ENDBRANCH  12  35
BRANCH  13  37
ATOM     37  O   UNL     1      23.287  27.271  26.362  1.00  0.00    -0.387 OA
ATOM     38  H   UNL     1      22.898  28.177  26.465  1.00  0.00     0.211 HD
ENDBRANCH  13  37
BRANCH  14  39
ATOM     39  O   UNL     1      20.791  28.080  26.515  1.00  0.00    -0.387 OA
ATOM     40  H   UNL     1      20.382  27.715  27.351  1.00  0.00     0.211 HD
ENDBRANCH  14  39
ENDBRANCH   8   9
ENDBRANCH   7   8
ENDBRANCH   1   7
BRANCH   1  41
ATOM     41  C   UNL     1      20.030  29.170  21.466  1.00  0.00     0.364 C 
ATOM     42  O   UNL     1      19.676  28.057  21.023  1.00  0.00    -0.246 OA
BRANCH  41  43
ATOM     43  O   UNL     1      21.119  29.796  20.892  1.00  0.00    -0.477 OA
ATOM     44  H   UNL     1      21.543  29.506  20.025  1.00  0.00     0.296 HD
ENDBRANCH  41  43
ENDBRANCH   1  41
BRANCH   3  45
ATOM     45  O   UNL     1      19.086  32.334  24.625  1.00  0.00    -0.391 OA
ATOM     46  H   UNL     1      18.971  33.270  24.937  1.00  0.00     0.211 HD
ENDBRANCH   3  45
BRANCH   5  47
ATOM     47  C   UNL     1      15.783  30.354  21.714  1.00  0.00     0.176 C 
BRANCH  47  48
ATOM     48  O   UNL     1      15.277  31.332  20.862  1.00  0.00    -0.388 OA
ATOM     49  H   UNL     1      14.694  30.921  20.157  1.00  0.00     0.211 HD
ENDBRANCH  47  48
BRANCH  47  50
ATOM     50  C   UNL     1      15.725  29.028  20.991  1.00  0.00     0.165 C 
BRANCH  50  51
ATOM     51  O   UNL     1      16.720  28.951  20.006  1.00  0.00    -0.388 OA
ATOM     52  H   UNL     1      17.362  28.257  20.275  1.00  0.00     0.211 HD
ENDBRANCH  50  51
BRANCH  50  53
ATOM     53  C   UNL     1      14.392  28.775  20.339  1.00  0.00     0.154 C 
BRANCH  53  54
ATOM     54  N   UNL     1      14.455  28.970  18.910  1.00  0.00    -0.319 N 
ATOM     55  C   UNL     1      13.842  30.082  18.285  1.00  0.00     0.407 C 
ATOM     56  H   UNL     1      14.960  28.285  18.313  1.00  0.00     0.167 HD
ATOM     57  O   UNL     1      13.215  30.954  18.938  1.00  0.00    -0.225 OA
BRANCH  55  58
ATOM     58  O   UNL     1      13.906  30.258  16.895  1.00  0.00    -0.443 OA
BRANCH  58  59
ATOM     59  C   UNL     1      14.836  31.209  16.366  1.00  0.00     0.294 C 
BRANCH  59  60
ATOM     60  C   UNL     1      16.193  30.950  16.847  1.00  0.00     0.120 A 
ATOM     61  C   UNL     1      17.199  30.327  16.154  1.00  0.00     0.139 A 
ATOM     62  N   UNL     1      16.684  31.273  18.046  1.00  0.00    -0.132 NA
ATOM     63  N   UNL     1      18.288  30.281  16.945  1.00  0.00    -0.235 N 
ATOM     64  N   UNL     1      17.926  30.871  18.089  1.00  0.00    -0.066 NA
BRANCH  63  65
ATOM     65  C   UNL     1      19.600  29.728  16.677  1.00  0.00     0.155 C 
ATOM     66  C   UNL     1      20.630  30.818  16.649  1.00  0.00     0.049 C 
ATOM     67  C   UNL     1      19.622  29.025  15.324  1.00  0.00     0.049 C 
BRANCH  65  68
ATOM     68  C   UNL     1      19.887  28.714  17.716  1.00  0.00     0.331 C 
ATOM     69  O   UNL     1      21.055  28.553  18.101  1.00  0.00    -0.250 OA
BRANCH  68  70
ATOM     70  O   UNL     1      18.842  27.968  18.231  1.00  0.00    -0.479 OA
ATOM     71  H   UNL     1      18.578  27.063  17.859  1.00  0.00     0.296 HD
ENDBRANCH  68  70
ENDBRANCH  65  68
ENDBRANCH  63  65
ENDBRANCH  59  60
ENDBRANCH  58  59
ENDBRANCH  55  58
ENDBRANCH  53  54
ENDBRANCH  50  53
ENDBRANCH  47  50
ENDBRANCH   5  47
BRANCH   4  72
ATOM     72  N   UNL     1      16.236  32.513  23.237  1.00  0.00    -0.348 N 
ATOM     73  C   UNL     1      15.667  33.199  24.347  1.00  0.00     0.217 C 
ATOM     74  H   UNL     1      15.867  32.736  22.291  1.00  0.00     0.163 HD
ATOM     75  C   UNL     1      14.574  34.200  24.147  1.00  0.00     0.114 C 
ATOM     76  O   UNL     1      16.095  32.955  25.506  1.00  0.00    -0.275 OA
ENDBRANCH   4  72
TORSDOF 32
