REMARK VINA RESULT:    -5.846     12.197     16.468
REMARK INTER + INTRA:         -25.233
REMARK INTER:                 -18.248
REMARK INTRA:                  -6.984
REMARK UNBOUND:                -8.963
REMARK SMILES CC(=O)N[C@@H]1[C@@H](O)C[C@](OC[C@H]2O[C@@H](O[C@H]3[C@H](O)[C@@H](O)[C@H](OCCN=[N+]=[N-])O[C@@H]3CO)[C@H](O)[C@@H](O)[C@H]2O)(C(=O)O)O[C@H]1C(O)[C@H](O)CNC(=O)OCc1cn(C[C@@H](C(=O)O)C(c2ccccc2)c2ccccc2)nn1
REMARK SMILES IDX 43 1 42 2 9 3 8 4 41 5 6 6 5 7 10 8 11 9 12 10 14 11 13 12
REMARK SMILES IDX 32 13 34 14 36 15 15 16 16 17 29 18 28 19 21 20 17 21 19 22
REMARK SMILES IDX 30 23 31 24 22 26 23 27 24 28 25 29 26 30 27 31 18 32 20 34
REMARK SMILES IDX 33 36 35 38 37 40 38 42 39 43 40 44 7 46 4 48 2 49 1 51 3 52
REMARK SMILES IDX 44 53 45 55 46 56 47 58 48 59 49 60 50 62 51 63 52 64 53 65
REMARK SMILES IDX 54 66 75 67 55 68 74 69 56 70 57 71 58 72 59 73 60 74 61 76
REMARK SMILES IDX 62 77 63 78 67 79 64 80 66 81 65 82 68 83 69 84 73 85 70 86
REMARK SMILES IDX 72 87 71 88
REMARK H PARENT 31 25 18 33 20 35 33 37 35 39 37 41 40 45 7 47 4 50 44 54
REMARK H PARENT 46 57 48 61 60 75
REMARK Flexibility Score: inf
ROOT
ATOM      1  C   UNL     1       4.345  26.025  31.003  1.00  0.00     0.176 C 
ENDROOT
BRANCH   1   2
ATOM      2  C   UNL     1       4.465  25.423  32.420  1.00  0.00     0.178 C 
ATOM      3  C   UNL     1       5.484  25.460  34.494  1.00  0.00     0.272 C 
ATOM      4  C   UNL     1       4.337  24.406  34.648  1.00  0.00     0.113 C 
ATOM      5  O   UNL     1       5.443  25.954  33.178  1.00  0.00    -0.332 OA
ATOM      6  C   UNL     1       4.422  23.335  33.617  1.00  0.00     0.145 C 
ATOM      7  C   UNL     1       4.509  23.924  32.246  1.00  0.00     0.142 C 
BRANCH   3   8
ATOM      8  O   UNL     1       6.587  24.906  34.876  1.00  0.00    -0.338 OA
BRANCH   8   9
ATOM      9  C   UNL     1       7.155  24.437  35.916  1.00  0.00     0.199 C 
BRANCH   9  10
ATOM     10  C   UNL     1       8.426  23.629  35.923  1.00  0.00     0.179 C 
ATOM     11  C   UNL     1      10.695  24.168  35.490  1.00  0.00     0.282 C 
ATOM     12  O   UNL     1       9.390  24.249  35.188  1.00  0.00    -0.341 OA
ATOM     13  C   UNL     1      11.155  23.270  36.572  1.00  0.00     0.202 C 
ATOM     14  C   UNL     1      10.069  22.659  37.409  1.00  0.00     0.179 C 
ATOM     15  C   UNL     1       8.924  23.620  37.386  1.00  0.00     0.177 C 
BRANCH  11  16
ATOM     16  O   UNL     1      11.063  25.488  35.885  1.00  0.00    -0.341 OA
BRANCH  16  17
ATOM     17  C   UNL     1      11.967  26.076  35.047  1.00  0.00     0.184 C 
ATOM     18  C   UNL     1      12.526  27.297  35.721  1.00  0.00     0.178 C 
ATOM     19  O   UNL     1      11.739  28.426  35.524  1.00  0.00    -0.341 OA
ATOM     20  C   UNL     1      10.385  28.132  35.304  1.00  0.00     0.281 C 
ATOM     21  C   UNL     1      11.340  26.524  33.734  1.00  0.00     0.180 C 
ATOM     22  C   UNL     1      10.161  27.437  34.004  1.00  0.00     0.202 C 
BRANCH  18  23
ATOM     23  C   UNL     1      13.944  27.619  35.343  1.00  0.00     0.191 C 
BRANCH  23  24
ATOM     24  O   UNL     1      14.663  26.512  34.937  1.00  0.00    -0.394 OA
ATOM     25  H   UNL     1      14.299  25.728  35.448  1.00  0.00     0.210 HD
ENDBRANCH  23  24
ENDBRANCH  18  23
BRANCH  20  26
ATOM     26  O   UNL     1       9.686  29.317  35.287  1.00  0.00    -0.350 OA
BRANCH  26  27
ATOM     27  C   UNL     1      10.340  30.428  35.718  1.00  0.00     0.169 C 
BRANCH  27  28
ATOM     28  C   UNL     1      10.296  31.586  34.774  1.00  0.00     0.119 C 
BRANCH  28  29
ATOM     29  N   UNL     1      10.168  31.007  33.422  1.00  0.00    -0.092 NA
ATOM     30  N   UNL     1      11.217  30.790  32.810  1.00  0.00     0.001 N 
ATOM     31  N   UNL     1      12.239  30.703  32.134  1.00  0.00    -0.003 NA
ENDBRANCH  28  29
ENDBRANCH  27  28
ENDBRANCH  26  27
ENDBRANCH  20  26
BRANCH  21  32
ATOM     32  O   UNL     1      12.300  27.270  33.056  1.00  0.00    -0.387 OA
ATOM     33  H   UNL     1      13.125  27.401  33.576  1.00  0.00     0.211 HD
ENDBRANCH  21  32
BRANCH  22  34
ATOM     34  O   UNL     1       8.988  26.696  34.074  1.00  0.00    -0.385 OA
ATOM     35  H   UNL     1       8.908  26.202  33.197  1.00  0.00     0.211 HD
ENDBRANCH  22  34
ENDBRANCH  16  17
ENDBRANCH  11  16
BRANCH  13  36
ATOM     36  O   UNL     1      11.880  22.182  36.029  1.00  0.00    -0.385 OA
ATOM     37  H   UNL     1      12.849  22.415  35.956  1.00  0.00     0.211 HD
ENDBRANCH  13  36
BRANCH  14  38
ATOM     38  O   UNL     1      10.519  22.456  38.698  1.00  0.00    -0.387 OA
ATOM     39  H   UNL     1      10.606  21.480  38.861  1.00  0.00     0.211 HD
ENDBRANCH  14  38
BRANCH  15  40
ATOM     40  O   UNL     1       9.383  24.876  37.757  1.00  0.00    -0.387 OA
ATOM     41  H   UNL     1       8.716  25.538  37.480  1.00  0.00     0.211 HD
ENDBRANCH  15  40
ENDBRANCH   9  10
ENDBRANCH   8   9
ENDBRANCH   3   8
BRANCH   3  42
ATOM     42  C   UNL     1       4.993  26.574  35.329  1.00  0.00     0.364 C 
ATOM     43  O   UNL     1       4.418  26.451  36.430  1.00  0.00    -0.246 OA
BRANCH  42  44
ATOM     44  O   UNL     1       5.167  27.901  34.879  1.00  0.00    -0.477 OA
ATOM     45  H   UNL     1       4.346  28.453  34.757  1.00  0.00     0.296 HD
ENDBRANCH  42  44
ENDBRANCH   3  42
BRANCH   6  46
ATOM     46  O   UNL     1       5.482  22.448  33.854  1.00  0.00    -0.391 OA
ATOM     47  H   UNL     1       6.120  22.425  33.102  1.00  0.00     0.211 HD
ENDBRANCH   6  46
BRANCH   7  48
ATOM     48  N   UNL     1       3.349  23.527  31.481  1.00  0.00    -0.348 N 
ATOM     49  C   UNL     1       3.189  22.196  31.022  1.00  0.00     0.217 C 
ATOM     50  H   UNL     1       2.611  24.256  31.267  1.00  0.00     0.163 HD
ATOM     51  C   UNL     1       1.984  21.777  30.226  1.00  0.00     0.114 C 
ATOM     52  O   UNL     1       4.098  21.374  31.306  1.00  0.00    -0.275 OA
ENDBRANCH   7  48
ENDBRANCH   1   2
BRANCH   1  53
ATOM     53  O   UNL     1       5.453  25.741  30.253  1.00  0.00    -0.388 OA
ATOM     54  H   UNL     1       5.779  24.816  30.346  1.00  0.00     0.211 HD
ENDBRANCH   1  53
BRANCH   1  55
ATOM     55  C   UNL     1       4.131  27.487  31.074  1.00  0.00     0.165 C 
BRANCH  55  56
ATOM     56  O   UNL     1       3.484  27.900  32.256  1.00  0.00    -0.388 OA
ATOM     57  H   UNL     1       4.196  27.822  32.966  1.00  0.00     0.211 HD
ENDBRANCH  55  56
BRANCH  55  58
ATOM     58  C   UNL     1       3.558  28.226  29.923  1.00  0.00     0.154 C 
BRANCH  58  59
ATOM     59  N   UNL     1       3.451  27.525  28.698  1.00  0.00    -0.319 N 
ATOM     60  C   UNL     1       2.376  26.709  28.285  1.00  0.00     0.407 C 
ATOM     61  H   UNL     1       4.280  27.624  27.991  1.00  0.00     0.167 HD
ATOM     62  O   UNL     1       1.388  26.477  29.003  1.00  0.00    -0.225 OA
BRANCH  60  63
ATOM     63  O   UNL     1       2.432  26.152  27.025  1.00  0.00    -0.443 OA
BRANCH  63  64
ATOM     64  C   UNL     1       1.702  26.652  25.961  1.00  0.00     0.294 C 
BRANCH  64  65
ATOM     65  C   UNL     1       2.148  27.963  25.469  1.00  0.00     0.120 A 
ATOM     66  C   UNL     1       3.297  28.300  24.795  1.00  0.00     0.138 A 
ATOM     67  N   UNL     1       1.483  29.150  25.629  1.00  0.00    -0.132 NA
ATOM     68  N   UNL     1       3.311  29.618  24.570  1.00  0.00    -0.251 N 
ATOM     69  N   UNL     1       2.200  30.108  25.086  1.00  0.00    -0.067 NA
BRANCH  68  70
ATOM     70  C   UNL     1       4.343  30.419  23.882  1.00  0.00     0.162 C 
BRANCH  70  71
ATOM     71  C   UNL     1       5.522  29.559  23.564  1.00  0.00     0.132 C 
BRANCH  71  72
ATOM     72  C   UNL     1       5.829  29.597  22.102  1.00  0.00     0.309 C 
ATOM     73  O   UNL     1       6.382  30.564  21.552  1.00  0.00    -0.252 OA
BRANCH  72  74
ATOM     74  O   UNL     1       5.491  28.513  21.310  1.00  0.00    -0.481 OA
ATOM     75  H   UNL     1       5.204  28.668  20.340  1.00  0.00     0.296 HD
ENDBRANCH  72  74
ENDBRANCH  71  72
BRANCH  71  76
ATOM     76  C   UNL     1       6.734  29.693  24.408  1.00  0.00     0.065 C 
BRANCH  76  77
ATOM     77  C   UNL     1       6.683  30.627  25.533  1.00  0.00    -0.040 A 
ATOM     78  C   UNL     1       6.148  30.240  26.771  1.00  0.00     0.004 A 
ATOM     79  C   UNL     1       7.141  31.946  25.469  1.00  0.00     0.004 A 
ATOM     80  C   UNL     1       6.075  31.075  27.841  1.00  0.00     0.000 A 
ATOM     81  C   UNL     1       7.062  32.781  26.556  1.00  0.00     0.000 A 
ATOM     82  C   UNL     1       6.527  32.355  27.755  1.00  0.00     0.000 A 
ENDBRANCH  76  77
BRANCH  76  83
ATOM     83  C   UNL     1       7.404  28.398  24.700  1.00  0.00    -0.040 A 
ATOM     84  C   UNL     1       8.766  28.438  24.916  1.00  0.00     0.004 A 
ATOM     85  C   UNL     1       6.726  27.211  24.770  1.00  0.00     0.004 A 
ATOM     86  C   UNL     1       9.463  27.299  25.202  1.00  0.00     0.000 A 
ATOM     87  C   UNL     1       7.450  26.058  25.063  1.00  0.00     0.000 A 
ATOM     88  C   UNL     1       8.809  26.091  25.279  1.00  0.00     0.000 A 
ENDBRANCH  76  83
ENDBRANCH  71  76
ENDBRANCH  70  71
ENDBRANCH  68  70
ENDBRANCH  64  65
ENDBRANCH  63  64
ENDBRANCH  60  63
ENDBRANCH  58  59
ENDBRANCH  55  58
ENDBRANCH   1  55
TORSDOF 36
