REMARK VINA RESULT:    -5.027      1.993      2.280
REMARK INTER + INTRA:         -21.006
REMARK INTER:                 -12.338
REMARK INTRA:                  -8.668
REMARK UNBOUND:                -8.339
REMARK SMILES CC(=O)N[C@@H]1[C@@H](O)C[C@](OC[C@H]2O[C@@H](O[C@H]3[C@H](O)[C@@H](O)[C@H](OCCN=[N+]=[N-])O[C@@H]3CO)[C@H](O)[C@@H](O)[C@H]2O)(C(=O)O)O[C@H]1C(O)[C@H](O)CNC(=O)OCc1cn(Cc2ccccc2)nn1
REMARK SMILES IDX 9 1 8 2 6 3 5 4 42 5 41 6 10 7 11 8 12 9 14 10 13 11 32 12
REMARK SMILES IDX 34 13 36 14 15 15 16 16 29 17 28 18 21 19 17 20 19 21 30 22
REMARK SMILES IDX 31 23 22 25 23 26 24 27 25 28 26 29 27 30 18 31 20 33 33 35
REMARK SMILES IDX 35 37 37 39 38 41 39 42 40 43 7 45 43 47 44 48 45 50 46 51
REMARK SMILES IDX 47 53 48 54 49 55 50 57 51 58 52 59 53 60 54 61 64 62 55 63
REMARK SMILES IDX 63 64 56 65 57 66 58 67 62 68 59 69 61 70 60 71 4 72 2 73
REMARK SMILES IDX 1 75 3 76
REMARK H PARENT 31 24 18 32 20 34 33 36 35 38 37 40 40 44 7 46 44 49 46 52
REMARK H PARENT 48 56 4 74
REMARK Flexibility Score: inf
ROOT
ATOM      1  C   UNL     1      15.609  29.138  20.764  1.00  0.00     0.272 C 
ATOM      2  C   UNL     1      14.184  28.910  20.418  1.00  0.00     0.113 C 
ATOM      3  C   UNL     1      13.325  29.752  21.280  1.00  0.00     0.145 C 
ATOM      4  C   UNL     1      14.092  30.532  22.361  1.00  0.00     0.142 C 
ATOM      5  C   UNL     1      15.129  29.699  22.984  1.00  0.00     0.178 C 
ATOM      6  O   UNL     1      15.761  28.786  22.119  1.00  0.00    -0.332 OA
ENDROOT
BRANCH   1   7
ATOM      7  O   UNL     1      16.104  30.401  20.512  1.00  0.00    -0.338 OA
BRANCH   7   8
ATOM      8  C   UNL     1      15.948  30.716  19.173  1.00  0.00     0.199 C 
BRANCH   8   9
ATOM      9  C   UNL     1      17.110  31.517  18.631  1.00  0.00     0.179 C 
ATOM     10  C   UNL     1      19.334  31.990  19.153  1.00  0.00     0.282 C 
ATOM     11  O   UNL     1      18.020  31.858  19.606  1.00  0.00    -0.341 OA
ATOM     12  C   UNL     1      19.429  32.630  17.818  1.00  0.00     0.202 C 
ATOM     13  C   UNL     1      18.741  31.795  16.786  1.00  0.00     0.179 C 
ATOM     14  C   UNL     1      17.748  30.861  17.436  1.00  0.00     0.177 C 
BRANCH  10  15
ATOM     15  O   UNL     1      19.993  30.772  19.164  1.00  0.00    -0.341 OA
BRANCH  15  16
ATOM     16  C   UNL     1      20.968  30.672  20.150  1.00  0.00     0.184 C 
ATOM     17  C   UNL     1      22.262  30.248  19.562  1.00  0.00     0.178 C 
ATOM     18  O   UNL     1      23.183  30.122  20.624  1.00  0.00    -0.341 OA
ATOM     19  C   UNL     1      22.866  28.894  21.239  1.00  0.00     0.281 C 
ATOM     20  C   UNL     1      20.475  29.546  21.073  1.00  0.00     0.180 C 
ATOM     21  C   UNL     1      21.544  29.034  21.980  1.00  0.00     0.202 C 
BRANCH  17  22
ATOM     22  C   UNL     1      22.798  31.254  18.548  1.00  0.00     0.191 C 
BRANCH  22  23
ATOM     23  O   UNL     1      22.399  30.796  17.274  1.00  0.00    -0.394 OA
ATOM     24  H   UNL     1      21.415  30.835  17.222  1.00  0.00     0.210 HD
ENDBRANCH  22  23
ENDBRANCH  17  22
BRANCH  19  25
ATOM     25  O   UNL     1      23.866  28.558  22.116  1.00  0.00    -0.350 OA
BRANCH  25  26
ATOM     26  C   UNL     1      24.675  27.587  21.559  1.00  0.00     0.169 C 
BRANCH  26  27
ATOM     27  C   UNL     1      23.974  26.622  20.651  1.00  0.00     0.119 C 
BRANCH  27  28
ATOM     28  N   UNL     1      23.242  25.691  21.524  1.00  0.00    -0.092 NA
ATOM     29  N   UNL     1      22.713  24.723  20.980  1.00  0.00     0.001 N 
ATOM     30  N   UNL     1      22.225  23.601  20.782  1.00  0.00    -0.003 NA
ENDBRANCH  27  28
ENDBRANCH  26  27
ENDBRANCH  25  26
ENDBRANCH  19  25
BRANCH  20  31
ATOM     31  O   UNL     1      19.469  30.146  21.858  1.00  0.00    -0.387 OA
ATOM     32  H   UNL     1      18.663  30.371  21.322  1.00  0.00     0.211 HD
ENDBRANCH  20  31
BRANCH  21  33
ATOM     33  O   UNL     1      21.190  27.767  22.443  1.00  0.00    -0.385 OA
ATOM     34  H   UNL     1      21.148  27.721  23.436  1.00  0.00     0.211 HD
ENDBRANCH  21  33
ENDBRANCH  15  16
ENDBRANCH  10  15
BRANCH  12  35
ATOM     35  O   UNL     1      18.946  33.950  17.823  1.00  0.00    -0.385 OA
ATOM     36  H   UNL     1      19.731  34.527  17.999  1.00  0.00     0.211 HD
ENDBRANCH  12  35
BRANCH  13  37
ATOM     37  O   UNL     1      19.698  31.074  16.081  1.00  0.00    -0.387 OA
ATOM     38  H   UNL     1      19.730  30.118  16.355  1.00  0.00     0.211 HD
ENDBRANCH  13  37
BRANCH  14  39
ATOM     39  O   UNL     1      18.227  29.597  17.650  1.00  0.00    -0.387 OA
ATOM     40  H   UNL     1      18.702  29.167  16.911  1.00  0.00     0.211 HD
ENDBRANCH  14  39
ENDBRANCH   8   9
ENDBRANCH   7   8
ENDBRANCH   1   7
BRANCH   1  41
ATOM     41  C   UNL     1      16.524  28.161  20.078  1.00  0.00     0.364 C 
ATOM     42  O   UNL     1      17.728  28.173  20.336  1.00  0.00    -0.246 OA
BRANCH  41  43
ATOM     43  O   UNL     1      16.010  27.260  19.172  1.00  0.00    -0.477 OA
ATOM     44  H   UNL     1      15.036  26.955  19.193  1.00  0.00     0.296 HD
ENDBRANCH  41  43
ENDBRANCH   1  41
BRANCH   3  45
ATOM     45  O   UNL     1      12.579  30.720  20.581  1.00  0.00    -0.391 OA
ATOM     46  H   UNL     1      13.061  31.114  19.839  1.00  0.00     0.211 HD
ENDBRANCH   3  45
BRANCH   5  47
ATOM     47  C   UNL     1      16.216  30.328  23.752  1.00  0.00     0.176 C 
BRANCH  47  48
ATOM     48  O   UNL     1      17.402  29.628  23.789  1.00  0.00    -0.388 OA
ATOM     49  H   UNL     1      17.813  29.457  22.913  1.00  0.00     0.211 HD
ENDBRANCH  47  48
BRANCH  47  50
ATOM     50  C   UNL     1      16.504  31.782  23.516  1.00  0.00     0.165 C 
BRANCH  50  51
ATOM     51  O   UNL     1      17.371  32.022  22.494  1.00  0.00    -0.388 OA
ATOM     52  H   UNL     1      18.314  32.036  22.752  1.00  0.00     0.211 HD
ENDBRANCH  50  51
BRANCH  50  53
ATOM     53  C   UNL     1      16.702  32.548  24.791  1.00  0.00     0.154 C 
BRANCH  53  54
ATOM     54  N   UNL     1      18.028  32.460  25.342  1.00  0.00    -0.319 N 
ATOM     55  C   UNL     1      18.372  31.741  26.533  1.00  0.00     0.407 C 
ATOM     56  H   UNL     1      18.862  32.937  24.884  1.00  0.00     0.167 HD
ATOM     57  O   UNL     1      17.476  31.140  27.168  1.00  0.00    -0.225 OA
BRANCH  55  58
ATOM     58  O   UNL     1      19.672  31.698  27.002  1.00  0.00    -0.443 OA
BRANCH  58  59
ATOM     59  C   UNL     1      20.706  31.299  26.137  1.00  0.00     0.294 C 
BRANCH  59  60
ATOM     60  C   UNL     1      20.676  29.839  25.900  1.00  0.00     0.120 A 
ATOM     61  C   UNL     1      21.339  28.904  26.707  1.00  0.00     0.138 A 
ATOM     62  N   UNL     1      20.069  29.112  24.956  1.00  0.00    -0.132 NA
ATOM     63  N   UNL     1      21.101  27.677  26.216  1.00  0.00    -0.248 N 
ATOM     64  N   UNL     1      20.341  27.817  25.170  1.00  0.00    -0.067 NA
BRANCH  63  65
ATOM     65  C   UNL     1      21.606  26.443  26.775  1.00  0.00     0.181 C 
BRANCH  65  66
ATOM     66  C   UNL     1      22.789  25.998  25.997  1.00  0.00    -0.026 A 
ATOM     67  C   UNL     1      22.856  24.742  25.421  1.00  0.00     0.005 A 
ATOM     68  C   UNL     1      23.854  26.873  25.847  1.00  0.00     0.005 A 
ATOM     69  C   UNL     1      23.983  24.373  24.704  1.00  0.00     0.000 A 
ATOM     70  C   UNL     1      24.972  26.494  25.129  1.00  0.00     0.000 A 
ATOM     71  C   UNL     1      25.031  25.247  24.562  1.00  0.00     0.000 A 
ENDBRANCH  65  66
ENDBRANCH  63  65
ENDBRANCH  59  60
ENDBRANCH  58  59
ENDBRANCH  55  58
ENDBRANCH  53  54
ENDBRANCH  50  53
ENDBRANCH  47  50
ENDBRANCH   5  47
BRANCH   4  72
ATOM     72  N   UNL     1      13.008  30.802  23.327  1.00  0.00    -0.348 N 
ATOM     73  C   UNL     1      12.665  32.103  23.760  1.00  0.00     0.217 C 
ATOM     74  H   UNL     1      12.467  30.000  23.717  1.00  0.00     0.163 HD
ATOM     75  C   UNL     1      11.567  32.346  24.743  1.00  0.00     0.114 C 
ATOM     76  O   UNL     1      13.307  33.077  23.296  1.00  0.00    -0.275 OA
ENDBRANCH   4  72
TORSDOF 31
