REMARK VINA RESULT:    -5.781      3.627     11.257
REMARK INTER + INTRA:         -21.169
REMARK INTER:                 -13.713
REMARK INTRA:                  -7.456
REMARK UNBOUND:                -6.939
REMARK SMILES CC(=O)N[C@@H]1[C@@H](O)C[C@](OC[C@H]2O[C@@H](O[C@H]3[C@H](O)[C@@H](O)[C@H](OCCN=[N+]=[N-])O[C@@H]3CO)[C@H](O)[C@@H](O)[C@H]2O)(C(=O)O)O[C@H]1C(O)[C@H](O)CNC(=O)OCc1cn([C@H]2C[C@H]3CC[C@@H](C2)N3C)nn1
REMARK SMILES IDX 9 1 8 2 6 3 5 4 42 5 41 6 10 7 11 8 12 9 14 10 13 11 32 12
REMARK SMILES IDX 34 13 36 14 15 15 16 16 29 17 28 18 21 19 17 20 19 21 30 22
REMARK SMILES IDX 31 23 22 25 23 26 24 27 25 28 26 29 27 30 18 31 20 33 33 35
REMARK SMILES IDX 35 37 37 39 38 41 39 42 40 43 7 45 43 47 44 48 45 50 46 51
REMARK SMILES IDX 47 53 48 54 49 55 50 57 51 58 52 59 53 60 54 61 66 62 55 63
REMARK SMILES IDX 65 64 56 65 62 66 57 67 61 68 58 69 63 70 60 71 59 72 64 73
REMARK SMILES IDX 4 74 2 75 1 77 3 78
REMARK H PARENT 31 24 18 32 20 34 33 36 35 38 37 40 40 44 7 46 44 49 46 52
REMARK H PARENT 48 56 4 76
REMARK Flexibility Score: inf
ROOT
ATOM      1  C   UNL     1      21.912  25.656  23.529  1.00  0.00     0.272 C 
ATOM      2  C   UNL     1      21.805  24.601  24.616  1.00  0.00     0.113 C 
ATOM      3  C   UNL     1      22.697  24.825  25.798  1.00  0.00     0.145 C 
ATOM      4  C   UNL     1      23.932  25.504  25.336  1.00  0.00     0.142 C 
ATOM      5  C   UNL     1      24.157  25.100  23.876  1.00  0.00     0.178 C 
ATOM      6  O   UNL     1      23.203  25.963  23.197  1.00  0.00    -0.332 OA
ENDROOT
BRANCH   1   7
ATOM      7  O   UNL     1      21.154  26.724  23.901  1.00  0.00    -0.338 OA
BRANCH   7   8
ATOM      8  C   UNL     1      21.513  27.972  23.541  1.00  0.00     0.199 C 
BRANCH   8   9
ATOM      9  C   UNL     1      21.100  29.118  24.387  1.00  0.00     0.179 C 
ATOM     10  C   UNL     1      19.322  30.489  24.621  1.00  0.00     0.282 C 
ATOM     11  O   UNL     1      19.670  29.145  24.443  1.00  0.00    -0.341 OA
ATOM     12  C   UNL     1      19.968  31.127  25.777  1.00  0.00     0.202 C 
ATOM     13  C   UNL     1      21.113  30.440  26.418  1.00  0.00     0.179 C 
ATOM     14  C   UNL     1      21.494  29.100  25.827  1.00  0.00     0.177 C 
BRANCH  10  15
ATOM     15  O   UNL     1      17.949  30.526  24.664  1.00  0.00    -0.341 OA
BRANCH  15  16
ATOM     16  C   UNL     1      17.380  30.773  23.411  1.00  0.00     0.184 C 
ATOM     17  C   UNL     1      16.830  32.149  23.235  1.00  0.00     0.178 C 
ATOM     18  O   UNL     1      15.631  32.421  23.812  1.00  0.00    -0.341 OA
ATOM     19  C   UNL     1      14.689  31.461  23.674  1.00  0.00     0.281 C 
ATOM     20  C   UNL     1      16.300  29.725  23.256  1.00  0.00     0.180 C 
ATOM     21  C   UNL     1      15.202  30.136  24.235  1.00  0.00     0.202 C 
BRANCH  17  22
ATOM     22  C   UNL     1      16.947  32.612  21.777  1.00  0.00     0.191 C 
BRANCH  22  23
ATOM     23  O   UNL     1      17.829  31.865  21.030  1.00  0.00    -0.394 OA
ATOM     24  H   UNL     1      17.562  30.925  20.947  1.00  0.00     0.210 HD
ENDBRANCH  22  23
ENDBRANCH  17  22
BRANCH  19  25
ATOM     25  O   UNL     1      14.093  31.316  22.457  1.00  0.00    -0.350 OA
BRANCH  25  26
ATOM     26  C   UNL     1      12.882  31.902  22.257  1.00  0.00     0.169 C 
BRANCH  26  27
ATOM     27  C   UNL     1      11.775  31.179  22.945  1.00  0.00     0.119 C 
BRANCH  27  28
ATOM     28  N   UNL     1      10.958  32.089  23.760  1.00  0.00    -0.092 NA
ATOM     29  N   UNL     1      11.371  32.469  24.870  1.00  0.00     0.001 N 
ATOM     30  N   UNL     1      12.091  33.135  25.640  1.00  0.00    -0.003 NA
ENDBRANCH  27  28
ENDBRANCH  26  27
ENDBRANCH  25  26
ENDBRANCH  19  25
BRANCH  20  31
ATOM     31  O   UNL     1      15.774  29.654  21.989  1.00  0.00    -0.387 OA
ATOM     32  H   UNL     1      15.708  30.515  21.547  1.00  0.00     0.211 HD
ENDBRANCH  20  31
BRANCH  21  33
ATOM     33  O   UNL     1      15.718  30.332  25.513  1.00  0.00    -0.385 OA
ATOM     34  H   UNL     1      16.677  30.071  25.478  1.00  0.00     0.211 HD
ENDBRANCH  21  33
ENDBRANCH  15  16
ENDBRANCH  10  15
BRANCH  12  35
ATOM     35  O   UNL     1      20.420  32.403  25.352  1.00  0.00    -0.385 OA
ATOM     36  H   UNL     1      19.693  32.955  24.990  1.00  0.00     0.211 HD
ENDBRANCH  12  35
BRANCH  13  37
ATOM     37  O   UNL     1      20.868  30.208  27.794  1.00  0.00    -0.387 OA
ATOM     38  H   UNL     1      20.227  29.429  27.848  1.00  0.00     0.211 HD
ENDBRANCH  13  37
BRANCH  14  39
ATOM     39  O   UNL     1      20.711  28.144  26.516  1.00  0.00    -0.387 OA
ATOM     40  H   UNL     1      21.035  28.222  27.467  1.00  0.00     0.211 HD
ENDBRANCH  14  39
ENDBRANCH   8   9
ENDBRANCH   7   8
ENDBRANCH   1   7
BRANCH   1  41
ATOM     41  C   UNL     1      21.308  24.993  22.329  1.00  0.00     0.364 C 
ATOM     42  O   UNL     1      21.802  25.100  21.211  1.00  0.00    -0.246 OA
BRANCH  41  43
ATOM     43  O   UNL     1      20.145  24.222  22.455  1.00  0.00    -0.477 OA
ATOM     44  H   UNL     1      20.227  23.349  22.994  1.00  0.00     0.296 HD
ENDBRANCH  41  43
ENDBRANCH   1  41
BRANCH   3  45
ATOM     45  O   UNL     1      21.957  25.615  26.711  1.00  0.00    -0.391 OA
ATOM     46  H   UNL     1      21.016  25.688  26.412  1.00  0.00     0.211 HD
ENDBRANCH   3  45
BRANCH   5  47
ATOM     47  C   UNL     1      25.488  25.444  23.337  1.00  0.00     0.176 C 
BRANCH  47  48
ATOM     48  O   UNL     1      25.711  26.846  23.686  1.00  0.00    -0.388 OA
ATOM     49  H   UNL     1      24.878  27.177  24.107  1.00  0.00     0.211 HD
ENDBRANCH  47  48
BRANCH  47  50
ATOM     50  C   UNL     1      25.577  25.575  21.823  1.00  0.00     0.165 C 
BRANCH  50  51
ATOM     51  O   UNL     1      26.598  24.678  21.425  1.00  0.00    -0.388 OA
ATOM     52  H   UNL     1      26.986  24.941  20.554  1.00  0.00     0.211 HD
ENDBRANCH  50  51
BRANCH  50  53
ATOM     53  C   UNL     1      25.830  26.916  21.265  1.00  0.00     0.154 C 
BRANCH  53  54
ATOM     54  N   UNL     1      24.531  27.617  21.240  1.00  0.00    -0.319 N 
ATOM     55  C   UNL     1      23.702  27.597  20.091  1.00  0.00     0.407 C 
ATOM     56  H   UNL     1      24.233  28.131  22.088  1.00  0.00     0.167 HD
ATOM     57  O   UNL     1      24.090  26.947  19.069  1.00  0.00    -0.225 OA
BRANCH  55  58
ATOM     58  O   UNL     1      22.492  28.272  20.081  1.00  0.00    -0.443 OA
BRANCH  58  59
ATOM     59  C   UNL     1      21.567  27.972  19.060  1.00  0.00     0.294 C 
BRANCH  59  60
ATOM     60  C   UNL     1      20.175  28.324  19.403  1.00  0.00     0.120 A 
ATOM     61  C   UNL     1      19.258  28.854  18.519  1.00  0.00     0.138 A 
ATOM     62  N   UNL     1      19.532  28.236  20.572  1.00  0.00    -0.132 NA
ATOM     63  N   UNL     1      18.101  29.075  19.155  1.00  0.00    -0.249 N 
ATOM     64  N   UNL     1      18.284  28.690  20.418  1.00  0.00    -0.067 NA
BRANCH  63  65
ATOM     65  C   UNL     1      16.914  29.640  18.530  1.00  0.00     0.112 C 
ATOM     66  C   UNL     1      16.314  28.573  17.679  1.00  0.00     0.046 C 
ATOM     67  C   UNL     1      17.309  30.895  17.822  1.00  0.00     0.046 C 
ATOM     68  C   UNL     1      15.858  29.025  16.329  1.00  0.00     0.058 C 
ATOM     69  C   UNL     1      16.667  31.109  16.486  1.00  0.00     0.058 C 
ATOM     70  N   UNL     1      15.422  30.386  16.330  1.00  0.00    -0.300 NA
ATOM     71  C   UNL     1      17.065  29.060  15.395  1.00  0.00     0.021 C 
ATOM     72  C   UNL     1      17.553  30.488  15.426  1.00  0.00     0.021 C 
ATOM     73  C   UNL     1      14.452  30.715  17.346  1.00  0.00     0.105 C 
ENDBRANCH  63  65
ENDBRANCH  59  60
ENDBRANCH  58  59
ENDBRANCH  55  58
ENDBRANCH  53  54
ENDBRANCH  50  53
ENDBRANCH  47  50
ENDBRANCH   5  47
BRANCH   4  74
ATOM     74  N   UNL     1      25.025  25.521  26.212  1.00  0.00    -0.348 N 
ATOM     75  C   UNL     1      25.195  26.527  27.223  1.00  0.00     0.217 C 
ATOM     76  H   UNL     1      25.753  24.772  26.189  1.00  0.00     0.163 HD
ATOM     77  C   UNL     1      26.392  26.451  28.125  1.00  0.00     0.114 C 
ATOM     78  O   UNL     1      24.379  27.446  27.364  1.00  0.00    -0.275 OA
ENDBRANCH   4  74
TORSDOF 30
