REMARK VINA RESULT:    -5.212      2.667      8.037
REMARK INTER + INTRA:         -22.075
REMARK INTER:                 -13.590
REMARK INTRA:                  -8.485
REMARK UNBOUND:                -8.028
REMARK SMILES CCN(CC)CCn1cc(COC(=O)NC[C@@H](O)C(O)[C@@H]2O[C@@](OC[C@H]3O[C@@H](O[C@H]4[C@H](O)[C@@H](O)[C@H](OCCN=[N+]=[N-])O[C@@H]4CO)[C@H](O)[C@@H](O)[C@H]3O)(C(=O)O)C[C@H](O)[C@H]2NC(C)=O)nn1
REMARK SMILES IDX 19 1 21 2 23 3 55 4 22 5 56 6 58 7 24 8 25 9 26 10 28 11
REMARK SMILES IDX 27 12 46 13 48 14 50 15 29 16 30 17 43 18 42 19 35 20 31 21
REMARK SMILES IDX 33 22 44 23 45 24 36 26 37 27 38 28 39 29 40 30 41 31 32 32
REMARK SMILES IDX 34 34 47 36 49 38 51 40 52 42 53 43 54 44 57 46 59 48 60 49
REMARK SMILES IDX 61 51 62 52 20 53 17 55 18 56 16 58 15 59 13 60 14 62 12 63
REMARK SMILES IDX 11 64 10 65 9 66 63 67 8 68 64 69 7 70 6 71 3 72 2 73 1 74
REMARK SMILES IDX 4 75 5 76
REMARK H PARENT 45 25 32 33 34 35 47 37 49 39 51 41 54 45 57 47 59 50 20 54
REMARK H PARENT 18 57 15 61
REMARK Flexibility Score: inf
ROOT
ATOM      1  C   UNL     1      19.692  31.342  26.066  1.00  0.00     0.176 C 
ENDROOT
BRANCH   1   2
ATOM      2  C   UNL     1      20.883  31.332  25.144  1.00  0.00     0.178 C 
ATOM      3  C   UNL     1      21.531  31.518  22.943  1.00  0.00     0.272 C 
ATOM      4  C   UNL     1      22.887  31.515  23.667  1.00  0.00     0.113 C 
ATOM      5  O   UNL     1      20.493  31.562  23.846  1.00  0.00    -0.332 OA
ATOM      6  C   UNL     1      23.044  30.388  24.634  1.00  0.00     0.145 C 
ATOM      7  C   UNL     1      21.643  30.024  25.149  1.00  0.00     0.142 C 
BRANCH   3   8
ATOM      8  O   UNL     1      21.528  30.421  22.116  1.00  0.00    -0.338 OA
BRANCH   8   9
ATOM      9  C   UNL     1      20.384  30.217  21.384  1.00  0.00     0.199 C 
BRANCH   9  10
ATOM     10  C   UNL     1      20.715  29.833  19.931  1.00  0.00     0.179 C 
ATOM     11  C   UNL     1      21.813  27.950  19.046  1.00  0.00     0.282 C 
ATOM     12  O   UNL     1      21.741  28.959  19.995  1.00  0.00    -0.341 OA
ATOM     13  C   UNL     1      21.152  28.316  17.778  1.00  0.00     0.202 C 
ATOM     14  C   UNL     1      19.719  28.745  17.935  1.00  0.00     0.179 C 
ATOM     15  C   UNL     1      19.481  29.208  19.356  1.00  0.00     0.177 C 
BRANCH  11  16
ATOM     16  O   UNL     1      21.375  26.811  19.706  1.00  0.00    -0.341 OA
BRANCH  16  17
ATOM     17  C   UNL     1      22.155  26.414  20.734  1.00  0.00     0.184 C 
ATOM     18  C   UNL     1      22.613  24.984  20.607  1.00  0.00     0.178 C 
ATOM     19  O   UNL     1      23.512  24.720  21.681  1.00  0.00    -0.341 OA
ATOM     20  C   UNL     1      22.763  24.463  22.809  1.00  0.00     0.281 C 
ATOM     21  C   UNL     1      21.476  26.532  22.094  1.00  0.00     0.180 C 
ATOM     22  C   UNL     1      21.544  25.272  22.896  1.00  0.00     0.202 C 
BRANCH  18  23
ATOM     23  C   UNL     1      23.206  24.604  19.299  1.00  0.00     0.191 C 
BRANCH  23  24
ATOM     24  O   UNL     1      22.268  23.850  18.605  1.00  0.00    -0.394 OA
ATOM     25  H   UNL     1      22.659  23.285  17.893  1.00  0.00     0.210 HD
ENDBRANCH  23  24
ENDBRANCH  18  23
BRANCH  20  26
ATOM     26  O   UNL     1      23.544  24.458  23.961  1.00  0.00    -0.350 OA
BRANCH  26  27
ATOM     27  C   UNL     1      22.937  24.966  25.069  1.00  0.00     0.169 C 
BRANCH  27  28
ATOM     28  C   UNL     1      23.567  24.485  26.363  1.00  0.00     0.119 C 
BRANCH  28  29
ATOM     29  N   UNL     1      24.252  25.565  27.047  1.00  0.00    -0.092 NA
ATOM     30  N   UNL     1      24.533  26.636  26.496  1.00  0.00     0.001 N 
ATOM     31  N   UNL     1      25.195  27.453  25.853  1.00  0.00    -0.003 NA
ENDBRANCH  28  29
ENDBRANCH  27  28
ENDBRANCH  26  27
ENDBRANCH  20  26
BRANCH  21  32
ATOM     32  O   UNL     1      22.083  27.557  22.795  1.00  0.00    -0.387 OA
ATOM     33  H   UNL     1      22.762  27.260  23.435  1.00  0.00     0.211 HD
ENDBRANCH  21  32
BRANCH  22  34
ATOM     34  O   UNL     1      20.415  24.450  22.652  1.00  0.00    -0.385 OA
ATOM     35  H   UNL     1      20.613  23.964  21.810  1.00  0.00     0.211 HD
ENDBRANCH  22  34
ENDBRANCH  16  17
ENDBRANCH  11  16
BRANCH  13  36
ATOM     36  O   UNL     1      21.846  29.430  17.221  1.00  0.00    -0.385 OA
ATOM     37  H   UNL     1      22.792  29.229  17.104  1.00  0.00     0.211 HD
ENDBRANCH  13  36
BRANCH  14  38
ATOM     38  O   UNL     1      18.797  27.788  17.544  1.00  0.00    -0.387 OA
ATOM     39  H   UNL     1      17.951  28.163  17.248  1.00  0.00     0.211 HD
ENDBRANCH  14  38
BRANCH  15  40
ATOM     40  O   UNL     1      19.149  28.094  20.116  1.00  0.00    -0.387 OA
ATOM     41  H   UNL     1      19.330  27.257  19.598  1.00  0.00     0.211 HD
ENDBRANCH  15  40
ENDBRANCH   9  10
ENDBRANCH   8   9
ENDBRANCH   3   8
BRANCH   3  42
ATOM     42  C   UNL     1      21.540  32.778  22.157  1.00  0.00     0.364 C 
ATOM     43  O   UNL     1      22.392  32.955  21.221  1.00  0.00    -0.246 OA
BRANCH  42  44
ATOM     44  O   UNL     1      20.669  33.830  22.355  1.00  0.00    -0.477 OA
ATOM     45  H   UNL     1      20.228  34.279  21.560  1.00  0.00     0.296 HD
ENDBRANCH  42  44
ENDBRANCH   3  42
BRANCH   6  46
ATOM     46  O   UNL     1      23.741  29.302  24.163  1.00  0.00    -0.391 OA
ATOM     47  H   UNL     1      23.165  28.850  23.494  1.00  0.00     0.211 HD
ENDBRANCH   6  46
BRANCH   7  48
ATOM     48  N   UNL     1      21.700  29.370  26.411  1.00  0.00    -0.348 N 
ATOM     49  C   UNL     1      21.133  28.048  26.520  1.00  0.00     0.217 C 
ATOM     50  H   UNL     1      22.120  29.754  27.276  1.00  0.00     0.163 HD
ATOM     51  C   UNL     1      21.155  27.305  27.805  1.00  0.00     0.114 C 
ATOM     52  O   UNL     1      20.600  27.479  25.531  1.00  0.00    -0.275 OA
ENDBRANCH   7  48
ENDBRANCH   1   2
BRANCH   1  53
ATOM     53  O   UNL     1      20.147  31.527  27.365  1.00  0.00    -0.388 OA
ATOM     54  H   UNL     1      20.780  30.778  27.602  1.00  0.00     0.211 HD
ENDBRANCH   1  53
BRANCH   1  55
ATOM     55  C   UNL     1      18.844  32.523  25.669  1.00  0.00     0.165 C 
BRANCH  55  56
ATOM     56  O   UNL     1      18.722  33.387  26.764  1.00  0.00    -0.388 OA
ATOM     57  H   UNL     1      19.629  33.666  27.036  1.00  0.00     0.211 HD
ENDBRANCH  55  56
BRANCH  55  58
ATOM     58  C   UNL     1      17.497  32.196  25.141  1.00  0.00     0.154 C 
BRANCH  58  59
ATOM     59  N   UNL     1      17.505  31.416  23.951  1.00  0.00    -0.319 N 
ATOM     60  C   UNL     1      16.655  30.261  23.862  1.00  0.00     0.407 C 
ATOM     61  H   UNL     1      18.104  31.647  23.158  1.00  0.00     0.167 HD
ATOM     62  O   UNL     1      15.919  29.931  24.812  1.00  0.00    -0.225 OA
BRANCH  60  63
ATOM     63  O   UNL     1      16.677  29.520  22.692  1.00  0.00    -0.443 OA
BRANCH  63  64
ATOM     64  C   UNL     1      15.423  29.202  22.064  1.00  0.00     0.294 C 
BRANCH  64  65
ATOM     65  C   UNL     1      15.715  28.748  20.698  1.00  0.00     0.120 A 
ATOM     66  C   UNL     1      15.401  29.485  19.551  1.00  0.00     0.138 A 
ATOM     67  N   UNL     1      16.294  27.636  20.250  1.00  0.00    -0.132 NA
ATOM     68  N   UNL     1      15.801  28.792  18.470  1.00  0.00    -0.251 N 
ATOM     69  N   UNL     1      16.334  27.685  18.917  1.00  0.00    -0.067 NA
BRANCH  68  70
ATOM     70  C   UNL     1      15.675  29.178  17.078  1.00  0.00     0.161 C 
BRANCH  70  71
ATOM     71  C   UNL     1      16.490  30.437  16.874  1.00  0.00     0.108 C 
BRANCH  71  72
ATOM     72  N   UNL     1      16.940  30.612  15.524  1.00  0.00    -0.302 NA
BRANCH  72  73
ATOM     73  C   UNL     1      16.230  31.662  14.844  1.00  0.00     0.081 C 
ATOM     74  C   UNL     1      15.143  31.029  13.982  1.00  0.00     0.021 C 
ENDBRANCH  72  73
BRANCH  72  75
ATOM     75  C   UNL     1      16.994  29.390  14.783  1.00  0.00     0.081 C 
ATOM     76  C   UNL     1      18.357  29.200  14.148  1.00  0.00     0.021 C 
ENDBRANCH  72  75
ENDBRANCH  71  72
ENDBRANCH  70  71
ENDBRANCH  68  70
ENDBRANCH  64  65
ENDBRANCH  63  64
ENDBRANCH  60  63
ENDBRANCH  58  59
ENDBRANCH  55  58
ENDBRANCH   1  55
TORSDOF 34
