REMARK VINA RESULT:    -3.933     16.668     19.947
REMARK INTER + INTRA:         -21.787
REMARK INTER:                 -10.370
REMARK INTRA:                 -11.418
REMARK UNBOUND:               -11.418
REMARK SMILES CC(=O)N[C@@H]1[C@@H](O)C[C@](OC[C@H]2O[C@@H](O[C@H]3[C@H](O)[C@@H](O)[C@H](OCCN=[N+]=[N-])O[C@@H]3CO)[C@H](O)[C@@H](O)[C@H]2O)(C(=O)O)O[C@H]1C(O)[C@H](O)CNC(=O)OCc1cn(CC(=O)NCc2cccs2)nn1
REMARK SMILES IDX 43 1 42 2 9 3 8 4 41 5 6 6 5 7 10 8 11 9 12 10 14 11 13 12
REMARK SMILES IDX 32 13 34 14 36 15 15 16 16 17 29 18 28 19 21 20 17 21 19 22
REMARK SMILES IDX 30 23 31 24 22 26 23 27 24 28 25 29 26 30 27 31 18 32 20 34
REMARK SMILES IDX 33 36 35 38 37 40 38 42 39 43 40 44 7 46 4 48 2 49 1 51 3 52
REMARK SMILES IDX 44 53 45 55 46 56 47 58 48 59 49 60 50 62 51 63 52 64 53 65
REMARK SMILES IDX 54 66 67 67 55 68 66 69 56 70 57 71 58 72 59 73 60 75 61 76
REMARK SMILES IDX 62 77 65 78 63 79 64 80
REMARK H PARENT 31 25 18 33 20 35 33 37 35 39 37 41 40 45 7 47 4 50 44 54
REMARK H PARENT 46 57 48 61 59 74
REMARK Flexibility Score: inf
ROOT
ATOM      1  C   UNL     1      20.110  30.326  23.288  1.00  0.00     0.176 C 
ENDROOT
BRANCH   1   2
ATOM      2  C   UNL     1      19.131  30.409  22.145  1.00  0.00     0.178 C 
ATOM      3  C   UNL     1      19.426  28.748  20.488  1.00  0.00     0.272 C 
ATOM      4  C   UNL     1      20.472  29.677  19.849  1.00  0.00     0.113 C 
ATOM      5  O   UNL     1      18.937  29.163  21.661  1.00  0.00    -0.332 OA
ATOM      6  C   UNL     1      19.943  31.054  19.853  1.00  0.00     0.145 C 
ATOM      7  C   UNL     1      19.363  31.497  21.171  1.00  0.00     0.142 C 
BRANCH   3   8
ATOM      8  O   UNL     1      20.084  27.547  20.616  1.00  0.00    -0.338 OA
BRANCH   8   9
ATOM      9  C   UNL     1      21.417  27.476  20.593  1.00  0.00     0.199 C 
BRANCH   9  10
ATOM     10  C   UNL     1      22.114  26.332  21.273  1.00  0.00     0.179 C 
ATOM     11  C   UNL     1      24.169  25.977  22.231  1.00  0.00     0.282 C 
ATOM     12  O   UNL     1      23.170  26.933  22.001  1.00  0.00    -0.341 OA
ATOM     13  C   UNL     1      23.596  24.675  22.683  1.00  0.00     0.202 C 
ATOM     14  C   UNL     1      22.165  24.716  23.104  1.00  0.00     0.179 C 
ATOM     15  C   UNL     1      21.282  25.645  22.334  1.00  0.00     0.177 C 
BRANCH  11  16
ATOM     16  O   UNL     1      25.129  26.414  23.100  1.00  0.00    -0.341 OA
BRANCH  16  17
ATOM     17  C   UNL     1      24.997  27.758  23.443  1.00  0.00     0.184 C 
ATOM     18  C   UNL     1      26.226  28.541  23.288  1.00  0.00     0.178 C 
ATOM     19  O   UNL     1      26.862  28.991  24.413  1.00  0.00    -0.341 OA
ATOM     20  C   UNL     1      26.456  28.512  25.616  1.00  0.00     0.281 C 
ATOM     21  C   UNL     1      24.311  27.813  24.779  1.00  0.00     0.180 C 
ATOM     22  C   UNL     1      24.948  28.797  25.727  1.00  0.00     0.202 C 
BRANCH  18  23
ATOM     23  C   UNL     1      25.944  29.811  22.461  1.00  0.00     0.191 C 
BRANCH  23  24
ATOM     24  O   UNL     1      24.906  29.636  21.571  1.00  0.00    -0.394 OA
ATOM     25  H   UNL     1      24.977  28.719  21.193  1.00  0.00     0.210 HD
ENDBRANCH  23  24
ENDBRANCH  18  23
BRANCH  20  26
ATOM     26  O   UNL     1      27.026  29.302  26.628  1.00  0.00    -0.350 OA
BRANCH  26  27
ATOM     27  C   UNL     1      28.004  30.143  26.135  1.00  0.00     0.169 C 
BRANCH  27  28
ATOM     28  C   UNL     1      27.841  31.491  26.844  1.00  0.00     0.119 C 
BRANCH  28  29
ATOM     29  N   UNL     1      26.489  31.985  26.625  1.00  0.00    -0.092 NA
ATOM     30  N   UNL     1      25.992  32.769  27.431  1.00  0.00     0.001 N 
ATOM     31  N   UNL     1      25.513  33.708  28.094  1.00  0.00    -0.003 NA
ENDBRANCH  28  29
ENDBRANCH  27  28
ENDBRANCH  26  27
ENDBRANCH  20  26
BRANCH  21  32
ATOM     32  O   UNL     1      22.934  28.032  24.678  1.00  0.00    -0.387 OA
ATOM     33  H   UNL     1      22.737  28.802  24.060  1.00  0.00     0.211 HD
ENDBRANCH  21  32
BRANCH  22  34
ATOM     34  O   UNL     1      24.489  28.530  27.002  1.00  0.00    -0.385 OA
ATOM     35  H   UNL     1      23.661  27.987  26.972  1.00  0.00     0.211 HD
ENDBRANCH  22  34
ENDBRANCH  16  17
ENDBRANCH  11  16
BRANCH  13  36
ATOM     36  O   UNL     1      23.784  23.660  21.716  1.00  0.00    -0.385 OA
ATOM     37  H   UNL     1      24.410  22.972  21.992  1.00  0.00     0.211 HD
ENDBRANCH  13  36
BRANCH  14  38
ATOM     38  O   UNL     1      22.064  24.937  24.498  1.00  0.00    -0.387 OA
ATOM     39  H   UNL     1      21.368  25.616  24.676  1.00  0.00     0.211 HD
ENDBRANCH  14  38
BRANCH  15  40
ATOM     40  O   UNL     1      20.832  26.621  23.255  1.00  0.00    -0.387 OA
ATOM     41  H   UNL     1      20.968  27.537  22.923  1.00  0.00     0.211 HD
ENDBRANCH  15  40
ENDBRANCH   9  10
ENDBRANCH   8   9
ENDBRANCH   3   8
BRANCH   3  42
ATOM     42  C   UNL     1      18.336  28.668  19.467  1.00  0.00     0.364 C 
ATOM     43  O   UNL     1      17.193  29.160  19.608  1.00  0.00    -0.246 OA
BRANCH  42  44
ATOM     44  O   UNL     1      18.580  28.010  18.268  1.00  0.00    -0.477 OA
ATOM     45  H   UNL     1      18.436  27.011  18.192  1.00  0.00     0.296 HD
ENDBRANCH  42  44
ENDBRANCH   3  42
BRANCH   6  46
ATOM     46  O   UNL     1      20.964  31.948  19.421  1.00  0.00    -0.391 OA
ATOM     47  H   UNL     1      21.398  32.388  20.183  1.00  0.00     0.211 HD
ENDBRANCH   6  46
BRANCH   7  48
ATOM     48  N   UNL     1      18.176  32.303  20.966  1.00  0.00    -0.348 N 
ATOM     49  C   UNL     1      18.282  33.705  20.840  1.00  0.00     0.217 C 
ATOM     50  H   UNL     1      17.214  31.876  20.910  1.00  0.00     0.163 HD
ATOM     51  C   UNL     1      17.048  34.518  20.631  1.00  0.00     0.114 C 
ATOM     52  O   UNL     1      19.366  34.330  20.895  1.00  0.00    -0.275 OA
ENDBRANCH   7  48
ENDBRANCH   1   2
BRANCH   1  53
ATOM     53  O   UNL     1      20.109  29.152  23.985  1.00  0.00    -0.388 OA
ATOM     54  H   UNL     1      20.694  28.441  23.648  1.00  0.00     0.211 HD
ENDBRANCH   1  53
BRANCH   1  55
ATOM     55  C   UNL     1      21.500  30.839  22.979  1.00  0.00     0.165 C 
BRANCH  55  56
ATOM     56  O   UNL     1      22.401  29.849  22.727  1.00  0.00    -0.388 OA
ATOM     57  H   UNL     1      23.316  30.027  23.037  1.00  0.00     0.211 HD
ENDBRANCH  55  56
BRANCH  55  58
ATOM     58  C   UNL     1      21.979  31.748  24.097  1.00  0.00     0.154 C 
BRANCH  58  59
ATOM     59  N   UNL     1      21.974  31.110  25.380  1.00  0.00    -0.319 N 
ATOM     60  C   UNL     1      21.444  31.626  26.588  1.00  0.00     0.407 C 
ATOM     61  H   UNL     1      22.408  30.125  25.503  1.00  0.00     0.167 HD
ATOM     62  O   UNL     1      20.902  32.730  26.646  1.00  0.00    -0.225 OA
BRANCH  60  63
ATOM     63  O   UNL     1      21.514  30.894  27.790  1.00  0.00    -0.443 OA
BRANCH  63  64
ATOM     64  C   UNL     1      20.625  29.896  28.171  1.00  0.00     0.294 C 
BRANCH  64  65
ATOM     65  C   UNL     1      20.991  28.543  27.732  1.00  0.00     0.120 A 
ATOM     66  C   UNL     1      21.594  27.560  28.486  1.00  0.00     0.138 A 
ATOM     67  N   UNL     1      20.799  28.002  26.500  1.00  0.00    -0.132 NA
ATOM     68  N   UNL     1      21.753  26.472  27.720  1.00  0.00    -0.243 N 
ATOM     69  N   UNL     1      21.265  26.772  26.540  1.00  0.00    -0.067 NA
BRANCH  68  70
ATOM     70  C   UNL     1      22.324  25.180  28.029  1.00  0.00     0.245 C 
BRANCH  70  71
ATOM     71  C   UNL     1      23.738  25.182  27.611  1.00  0.00     0.242 C 
ATOM     72  O   UNL     1      24.068  24.700  26.512  1.00  0.00    -0.273 OA
ATOM     73  N   UNL     1      24.735  25.732  28.452  1.00  0.00    -0.350 N 
ATOM     74  H   UNL     1      24.496  26.152  29.394  1.00  0.00     0.163 HD
BRANCH  73  75
ATOM     75  C   UNL     1      26.117  25.755  28.082  1.00  0.00     0.162 C 
BRANCH  75  76
ATOM     76  C   UNL     1      26.925  26.128  29.252  1.00  0.00     0.024 A 
ATOM     77  C   UNL     1      27.956  26.998  29.394  1.00  0.00     0.017 A 
ATOM     78  S   UNL     1      26.713  25.478  30.871  1.00  0.00    -0.147 S 
ATOM     79  C   UNL     1      28.525  27.155  30.599  1.00  0.00     0.012 A 
ATOM     80  C   UNL     1      28.074  26.454  31.655  1.00  0.00     0.065 A 
ENDBRANCH  75  76
ENDBRANCH  73  75
ENDBRANCH  70  71
ENDBRANCH  68  70
ENDBRANCH  64  65
ENDBRANCH  63  64
ENDBRANCH  60  63
ENDBRANCH  58  59
ENDBRANCH  55  58
ENDBRANCH   1  55
TORSDOF 33
