REMARK VINA RESULT:    -9.359      0.000      0.000
REMARK INTER + INTRA:         -22.493
REMARK INTER:                 -15.801
REMARK INTRA:                  -6.692
REMARK UNBOUND:                 2.731
REMARK SMILES CC(=O)N[C@@H]1[C@@H](O)C[C@](OC[C@H]2O[C@@H](O[C@H]3[C@H](O)[C@@H](O)[C@H](OCCN=[N+]=[N-])O[C@@H]3CO)[C@H](O)[C@@H](O)[C@H]2O)(C(=O)O)O[C@H]1C(O)[C@H](O)CNC(=O)OCc1cn(C2CCc3ccccc3NC2=O)nn1
REMARK SMILES IDX 43 1 42 2 9 3 8 4 41 5 6 6 5 7 10 8 11 9 12 10 14 11 13 12
REMARK SMILES IDX 32 13 34 14 36 15 15 16 16 17 29 18 28 19 21 20 17 21 19 22
REMARK SMILES IDX 30 23 31 24 22 26 23 27 24 28 25 29 26 30 27 31 18 32 20 34
REMARK SMILES IDX 33 36 35 38 37 40 38 42 39 43 40 44 7 46 4 48 2 49 1 51 3 52
REMARK SMILES IDX 44 53 45 55 46 56 47 58 48 59 49 60 50 62 51 63 52 64 53 65
REMARK SMILES IDX 54 66 69 67 55 68 68 69 56 70 57 71 66 73 65 74 67 75 64 77
REMARK SMILES IDX 59 78 63 79 60 80 62 81 61 82 58 83
REMARK H PARENT 31 25 18 33 20 35 33 37 35 39 37 41 40 45 7 47 4 50 44 54
REMARK H PARENT 46 57 48 61 65 76
REMARK Flexibility Score: 90.00
ROOT
ATOM      1  C   UNL     1      17.466  30.928  23.727  1.00  0.00     0.176 C 
ENDROOT
BRANCH   1   2
ATOM      2  C   UNL     1      16.370  30.036  23.110  1.00  0.00     0.178 C 
ATOM      3  C   UNL     1      16.072  29.803  20.755  1.00  0.00     0.272 C 
ATOM      4  C   UNL     1      14.777  30.505  20.831  1.00  0.00     0.113 C 
ATOM      5  O   UNL     1      16.706  29.486  21.958  1.00  0.00    -0.332 OA
ATOM      6  C   UNL     1      14.716  31.491  21.949  1.00  0.00     0.145 C 
ATOM      7  C   UNL     1      15.048  30.743  23.232  1.00  0.00     0.142 C 
BRANCH   3   8
ATOM      8  O   UNL     1      17.023  30.394  20.002  1.00  0.00    -0.338 OA
BRANCH   8   9
ATOM      9  C   UNL     1      18.282  30.581  20.363  1.00  0.00     0.199 C 
BRANCH   9  10
ATOM     10  C   UNL     1      19.454  29.911  19.791  1.00  0.00     0.179 C 
ATOM     11  C   UNL     1      20.919  28.199  20.314  1.00  0.00     0.282 C 
ATOM     12  O   UNL     1      19.670  28.747  20.602  1.00  0.00    -0.341 OA
ATOM     13  C   UNL     1      21.535  28.613  19.037  1.00  0.00     0.202 C 
ATOM     14  C   UNL     1      20.620  28.954  17.911  1.00  0.00     0.179 C 
ATOM     15  C   UNL     1      19.237  29.280  18.416  1.00  0.00     0.177 C 
BRANCH  11  16
ATOM     16  O   UNL     1      20.838  26.801  20.490  1.00  0.00    -0.341 OA
BRANCH  16  17
ATOM     17  C   UNL     1      21.745  26.334  21.404  1.00  0.00     0.184 C 
ATOM     18  C   UNL     1      22.192  24.910  21.206  1.00  0.00     0.178 C 
ATOM     19  O   UNL     1      23.206  24.694  22.141  1.00  0.00    -0.341 OA
ATOM     20  C   UNL     1      22.695  24.502  23.416  1.00  0.00     0.281 C 
ATOM     21  C   UNL     1      21.195  26.422  22.820  1.00  0.00     0.180 C 
ATOM     22  C   UNL     1      21.377  25.187  23.625  1.00  0.00     0.202 C 
BRANCH  18  23
ATOM     23  C   UNL     1      22.811  24.695  19.839  1.00  0.00     0.191 C 
BRANCH  23  24
ATOM     24  O   UNL     1      23.543  25.805  19.422  1.00  0.00    -0.394 OA
ATOM     25  H   UNL     1      24.075  25.635  18.616  1.00  0.00     0.210 HD
ENDBRANCH  23  24
ENDBRANCH  18  23
BRANCH  20  26
ATOM     26  O   UNL     1      23.649  24.898  24.335  1.00  0.00    -0.350 OA
BRANCH  26  27
ATOM     27  C   UNL     1      24.827  25.286  23.721  1.00  0.00     0.169 C 
BRANCH  27  28
ATOM     28  C   UNL     1      25.165  26.735  23.863  1.00  0.00     0.119 C 
BRANCH  28  29
ATOM     29  N   UNL     1      25.224  27.341  22.543  1.00  0.00    -0.092 NA
ATOM     30  N   UNL     1      24.686  28.437  22.299  1.00  0.00     0.001 N 
ATOM     31  N   UNL     1      24.555  29.668  22.340  1.00  0.00    -0.003 NA
ENDBRANCH  28  29
ENDBRANCH  27  28
ENDBRANCH  26  27
ENDBRANCH  20  26
BRANCH  21  32
ATOM     32  O   UNL     1      21.661  27.571  23.479  1.00  0.00    -0.387 OA
ATOM     33  H   UNL     1      22.098  28.159  22.811  1.00  0.00     0.211 HD
ENDBRANCH  21  32
BRANCH  22  34
ATOM     34  O   UNL     1      20.333  24.253  23.430  1.00  0.00    -0.385 OA
ATOM     35  H   UNL     1      19.965  23.929  24.273  1.00  0.00     0.211 HD
ENDBRANCH  22  34
ENDBRANCH  16  17
ENDBRANCH  11  16
BRANCH  13  36
ATOM     36  O   UNL     1      22.496  29.602  19.271  1.00  0.00    -0.385 OA
ATOM     37  H   UNL     1      22.375  30.344  18.623  1.00  0.00     0.211 HD
ENDBRANCH  13  36
BRANCH  14  38
ATOM     38  O   UNL     1      20.607  27.990  16.904  1.00  0.00    -0.387 OA
ATOM     39  H   UNL     1      21.553  27.719  16.771  1.00  0.00     0.211 HD
ENDBRANCH  14  38
BRANCH  15  40
ATOM     40  O   UNL     1      18.492  28.084  18.575  1.00  0.00    -0.387 OA
ATOM     41  H   UNL     1      18.247  27.804  17.667  1.00  0.00     0.211 HD
ENDBRANCH  15  40
ENDBRANCH   9  10
ENDBRANCH   8   9
ENDBRANCH   3   8
BRANCH   3  42
ATOM     42  C   UNL     1      15.760  28.413  20.246  1.00  0.00     0.364 C 
ATOM     43  O   UNL     1      14.723  28.155  19.681  1.00  0.00    -0.246 OA
BRANCH  42  44
ATOM     44  O   UNL     1      16.692  27.386  20.430  1.00  0.00    -0.477 OA
ATOM     45  H   UNL     1      16.418  26.436  20.616  1.00  0.00     0.296 HD
ENDBRANCH  42  44
ENDBRANCH   3  42
BRANCH   6  46
ATOM     46  O   UNL     1      15.694  32.467  21.700  1.00  0.00    -0.391 OA
ATOM     47  H   UNL     1      16.459  32.125  21.209  1.00  0.00     0.211 HD
ENDBRANCH   6  46
BRANCH   7  48
ATOM     48  N   UNL     1      13.941  29.908  23.559  1.00  0.00    -0.348 N 
ATOM     49  C   UNL     1      12.994  30.310  24.542  1.00  0.00     0.217 C 
ATOM     50  H   UNL     1      13.799  28.982  23.090  1.00  0.00     0.163 HD
ATOM     51  C   UNL     1      11.823  29.473  24.919  1.00  0.00     0.114 C 
ATOM     52  O   UNL     1      13.166  31.403  25.094  1.00  0.00    -0.275 OA
ENDBRANCH   7  48
ENDBRANCH   1   2
BRANCH   1  53
ATOM     53  O   UNL     1      17.223  31.079  25.096  1.00  0.00    -0.388 OA
ATOM     54  H   UNL     1      17.727  31.818  25.503  1.00  0.00     0.211 HD
ENDBRANCH   1  53
BRANCH   1  55
ATOM     55  C   UNL     1      18.835  30.375  23.558  1.00  0.00     0.165 C 
BRANCH  55  56
ATOM     56  O   UNL     1      19.028  29.106  24.090  1.00  0.00    -0.388 OA
ATOM     57  H   UNL     1      19.829  28.715  23.650  1.00  0.00     0.211 HD
ENDBRANCH  55  56
BRANCH  55  58
ATOM     58  C   UNL     1      19.960  31.237  24.031  1.00  0.00     0.154 C 
BRANCH  58  59
ATOM     59  N   UNL     1      20.569  30.838  25.262  1.00  0.00    -0.319 N 
ATOM     60  C   UNL     1      20.290  31.426  26.517  1.00  0.00     0.407 C 
ATOM     61  H   UNL     1      21.264  30.064  25.235  1.00  0.00     0.167 HD
ATOM     62  O   UNL     1      19.463  32.364  26.623  1.00  0.00    -0.225 OA
BRANCH  60  63
ATOM     63  O   UNL     1      20.939  30.957  27.635  1.00  0.00    -0.443 OA
BRANCH  63  64
ATOM     64  C   UNL     1      20.593  29.793  28.300  1.00  0.00     0.294 C 
BRANCH  64  65
ATOM     65  C   UNL     1      21.217  28.628  27.669  1.00  0.00     0.120 A 
ATOM     66  C   UNL     1      22.358  27.986  28.085  1.00  0.00     0.139 A 
ATOM     67  N   UNL     1      20.817  27.955  26.564  1.00  0.00    -0.132 NA
ATOM     68  N   UNL     1      22.624  26.955  27.245  1.00  0.00    -0.240 N 
ATOM     69  N   UNL     1      21.670  26.969  26.337  1.00  0.00    -0.066 NA
BRANCH  68  70
ATOM     70  C   UNL     1      23.752  26.012  27.335  1.00  0.00     0.198 C 
BRANCH  70  71
ATOM     71  C   UNL     1      24.957  26.827  27.620  1.00  0.00     0.042 CG0
ATOM     72  G   UNL     1      26.140  26.114  28.174  1.00  0.00     0.000 G0
ENDBRANCH  70  71
BRANCH  70  73
ATOM     73  C   UNL     1      23.370  25.031  28.355  1.00  0.00     0.249 C 
ATOM     74  N   UNL     1      23.705  24.965  29.733  1.00  0.00    -0.324 N 
ATOM     75  O   UNL     1      22.627  24.101  27.940  1.00  0.00    -0.272 OA
ATOM     76  H   UNL     1      23.074  24.440  30.378  1.00  0.00     0.170 HD
BRANCH  74  77
ATOM     77  C   UNL     1      24.875  25.585  30.307  1.00  0.00     0.044 A 
ATOM     78  C   UNL     1      25.989  26.116  29.666  1.00  0.00    -0.024 A 
ATOM     79  C   UNL     1      24.809  25.619  31.683  1.00  0.00     0.026 A 
ATOM     80  C   UNL     1      27.028  26.677  30.372  1.00  0.00     0.006 A 
ATOM     81  C   UNL     1      25.839  26.177  32.416  1.00  0.00     0.002 A 
ATOM     82  C   UNL     1      26.946  26.704  31.742  1.00  0.00     0.000 A 
BRANCH  78  83
ATOM     83  C   UNL     1      26.155  26.127  28.185  1.00  0.00     0.040 CG0
ATOM     84  G   UNL     1      24.968  26.827  27.621  1.00  0.00     0.000 G0
ENDBRANCH  78  83
ENDBRANCH  74  77
ENDBRANCH  70  73
ENDBRANCH  68  70
ENDBRANCH  64  65
ENDBRANCH  63  64
ENDBRANCH  60  63
ENDBRANCH  58  59
ENDBRANCH  55  58
ENDBRANCH   1  55
TORSDOF 30
