REMARK VINA RESULT:    -4.862      2.714      5.894
REMARK INTER + INTRA:         -22.302
REMARK INTER:                 -12.525
REMARK INTRA:                  -9.777
REMARK UNBOUND:                -9.623
REMARK SMILES CC(=O)N[C@@H]1[C@@H](O)C[C@](OC[C@H]2O[C@@H](O[C@H]3[C@H](O)[C@@H](O)[C@H](OCCN=[N+]=[N-])O[C@@H]3CO)[C@H](O)[C@@H](O)[C@H]2O)(C(=O)O)O[C@H]1C(O)[C@H](O)CNC(=O)OCc1cn(Cc2ccc(C(=O)O)cc2)nn1
REMARK SMILES IDX 43 1 42 2 9 3 8 4 41 5 6 6 5 7 10 8 11 9 12 10 14 11 13 12
REMARK SMILES IDX 32 13 34 14 36 15 15 16 16 17 29 18 28 19 21 20 17 21 19 22
REMARK SMILES IDX 30 23 31 24 22 26 23 27 24 28 25 29 26 30 27 31 18 32 20 34
REMARK SMILES IDX 33 36 35 38 37 40 38 42 39 43 40 44 7 46 4 48 2 49 1 51 3 52
REMARK SMILES IDX 44 53 45 55 46 56 47 58 48 59 49 60 50 62 51 63 52 64 53 65
REMARK SMILES IDX 54 66 67 67 55 68 66 69 56 70 57 71 58 72 65 73 59 74 64 75
REMARK SMILES IDX 60 76 61 77 62 78 63 79
REMARK H PARENT 31 25 18 33 20 35 33 37 35 39 37 41 40 45 7 47 4 50 44 54
REMARK H PARENT 46 57 48 61 63 80
REMARK Flexibility Score: inf
ROOT
ATOM      1  C   UNL     1      20.954  30.776  21.937  1.00  0.00     0.176 C 
ENDROOT
BRANCH   1   2
ATOM      2  C   UNL     1      21.830  29.969  20.954  1.00  0.00     0.178 C 
ATOM      3  C   UNL     1      21.371  29.128  18.790  1.00  0.00     0.272 C 
ATOM      4  C   UNL     1      21.689  27.776  19.291  1.00  0.00     0.113 C 
ATOM      5  O   UNL     1      21.230  30.086  19.761  1.00  0.00    -0.332 OA
ATOM      6  C   UNL     1      21.305  27.567  20.741  1.00  0.00     0.145 C 
ATOM      7  C   UNL     1      22.016  28.625  21.532  1.00  0.00     0.142 C 
BRANCH   3   8
ATOM      8  O   UNL     1      20.195  29.143  18.088  1.00  0.00    -0.338 OA
BRANCH   8   9
ATOM      9  C   UNL     1      19.239  30.047  18.386  1.00  0.00     0.199 C 
BRANCH   9  10
ATOM     10  C   UNL     1      17.981  29.329  18.932  1.00  0.00     0.179 C 
ATOM     11  C   UNL     1      16.563  29.327  20.781  1.00  0.00     0.282 C 
ATOM     12  O   UNL     1      17.772  29.734  20.218  1.00  0.00    -0.341 OA
ATOM     13  C   UNL     1      15.813  28.335  19.967  1.00  0.00     0.202 C 
ATOM     14  C   UNL     1      15.594  28.921  18.588  1.00  0.00     0.179 C 
ATOM     15  C   UNL     1      16.805  29.603  18.030  1.00  0.00     0.177 C 
BRANCH  11  16
ATOM     16  O   UNL     1      15.795  30.467  21.013  1.00  0.00    -0.341 OA
BRANCH  16  17
ATOM     17  C   UNL     1      16.405  31.328  21.879  1.00  0.00     0.184 C 
ATOM     18  C   UNL     1      15.726  31.400  23.197  1.00  0.00     0.178 C 
ATOM     19  O   UNL     1      16.521  32.073  24.137  1.00  0.00    -0.341 OA
ATOM     20  C   UNL     1      17.116  33.202  23.570  1.00  0.00     0.281 C 
ATOM     21  C   UNL     1      16.365  32.716  21.211  1.00  0.00     0.180 C 
ATOM     22  C   UNL     1      16.413  33.715  22.349  1.00  0.00     0.202 C 
BRANCH  18  23
ATOM     23  C   UNL     1      15.451  30.023  23.732  1.00  0.00     0.191 C 
BRANCH  23  24
ATOM     24  O   UNL     1      16.700  29.527  24.172  1.00  0.00    -0.394 OA
ATOM     25  H   UNL     1      17.426  30.087  23.836  1.00  0.00     0.210 HD
ENDBRANCH  23  24
ENDBRANCH  18  23
BRANCH  20  26
ATOM     26  O   UNL     1      18.446  32.939  23.337  1.00  0.00    -0.350 OA
BRANCH  26  27
ATOM     27  C   UNL     1      19.326  33.855  23.867  1.00  0.00     0.169 C 
BRANCH  27  28
ATOM     28  C   UNL     1      20.416  34.305  22.953  1.00  0.00     0.119 C 
BRANCH  28  29
ATOM     29  N   UNL     1      19.843  34.326  21.597  1.00  0.00    -0.092 NA
ATOM     30  N   UNL     1      20.176  35.150  20.753  1.00  0.00     0.001 N 
ATOM     31  N   UNL     1      20.569  36.136  20.138  1.00  0.00    -0.003 NA
ENDBRANCH  28  29
ENDBRANCH  27  28
ENDBRANCH  26  27
ENDBRANCH  20  26
BRANCH  21  32
ATOM     32  O   UNL     1      17.431  32.866  20.352  1.00  0.00    -0.387 OA
ATOM     33  H   UNL     1      17.717  33.833  20.281  1.00  0.00     0.211 HD
ENDBRANCH  21  32
BRANCH  22  34
ATOM     34  O   UNL     1      15.141  34.159  22.629  1.00  0.00    -0.385 OA
ATOM     35  H   UNL     1      14.597  34.279  21.831  1.00  0.00     0.211 HD
ENDBRANCH  22  34
ENDBRANCH  16  17
ENDBRANCH  11  16
BRANCH  13  36
ATOM     36  O   UNL     1      16.497  27.114  19.868  1.00  0.00    -0.385 OA
ATOM     37  H   UNL     1      15.849  26.469  19.472  1.00  0.00     0.211 HD
ENDBRANCH  13  36
BRANCH  14  38
ATOM     38  O   UNL     1      14.518  29.810  18.579  1.00  0.00    -0.387 OA
ATOM     39  H   UNL     1      14.562  30.335  17.731  1.00  0.00     0.211 HD
ENDBRANCH  14  38
BRANCH  15  40
ATOM     40  O   UNL     1      16.603  30.978  17.849  1.00  0.00    -0.387 OA
ATOM     41  H   UNL     1      16.022  31.082  17.051  1.00  0.00     0.211 HD
ENDBRANCH  15  40
ENDBRANCH   9  10
ENDBRANCH   8   9
ENDBRANCH   3   8
BRANCH   3  42
ATOM     42  C   UNL     1      22.518  29.594  17.926  1.00  0.00     0.364 C 
ATOM     43  O   UNL     1      22.337  30.457  17.031  1.00  0.00    -0.246 OA
BRANCH  42  44
ATOM     44  O   UNL     1      23.800  29.093  18.086  1.00  0.00    -0.477 OA
ATOM     45  H   UNL     1      24.577  29.680  17.745  1.00  0.00     0.296 HD
ENDBRANCH  42  44
ENDBRANCH   3  42
BRANCH   6  46
ATOM     46  O   UNL     1      19.930  27.628  20.820  1.00  0.00    -0.391 OA
ATOM     47  H   UNL     1      19.638  27.421  21.746  1.00  0.00     0.211 HD
ENDBRANCH   6  46
BRANCH   7  48
ATOM     48  N   UNL     1      23.436  28.299  21.557  1.00  0.00    -0.348 N 
ATOM     49  C   UNL     1      24.105  27.975  22.788  1.00  0.00     0.217 C 
ATOM     50  H   UNL     1      24.049  28.280  20.714  1.00  0.00     0.163 HD
ATOM     51  C   UNL     1      25.565  27.646  22.773  1.00  0.00     0.114 C 
ATOM     52  O   UNL     1      23.447  27.978  23.841  1.00  0.00    -0.275 OA
ENDBRANCH   7  48
ENDBRANCH   1   2
BRANCH   1  53
ATOM     53  O   UNL     1      19.894  31.390  21.354  1.00  0.00    -0.388 OA
ATOM     54  H   UNL     1      19.614  31.050  20.476  1.00  0.00     0.211 HD
ENDBRANCH   1  53
BRANCH   1  55
ATOM     55  C   UNL     1      20.588  29.952  23.147  1.00  0.00     0.165 C 
BRANCH  55  56
ATOM     56  O   UNL     1      19.320  29.484  23.009  1.00  0.00    -0.388 OA
ATOM     57  H   UNL     1      18.977  29.419  22.097  1.00  0.00     0.211 HD
ENDBRANCH  55  56
BRANCH  55  58
ATOM     58  C   UNL     1      20.945  30.677  24.386  1.00  0.00     0.154 C 
BRANCH  58  59
ATOM     59  N   UNL     1      22.049  30.070  25.078  1.00  0.00    -0.319 N 
ATOM     60  C   UNL     1      22.748  30.675  26.146  1.00  0.00     0.407 C 
ATOM     61  H   UNL     1      22.381  29.109  24.788  1.00  0.00     0.167 HD
ATOM     62  O   UNL     1      22.452  31.800  26.575  1.00  0.00    -0.225 OA
BRANCH  60  63
ATOM     63  O   UNL     1      23.827  30.048  26.801  1.00  0.00    -0.443 OA
BRANCH  63  64
ATOM     64  C   UNL     1      23.615  29.402  28.044  1.00  0.00     0.294 C 
BRANCH  64  65
ATOM     65  C   UNL     1      23.044  28.052  27.896  1.00  0.00     0.120 A 
ATOM     66  C   UNL     1      23.575  26.937  27.310  1.00  0.00     0.138 A 
ATOM     67  N   UNL     1      21.818  27.705  28.332  1.00  0.00    -0.132 NA
ATOM     68  N   UNL     1      22.660  25.947  27.405  1.00  0.00    -0.248 N 
ATOM     69  N   UNL     1      21.605  26.439  28.028  1.00  0.00    -0.067 NA
BRANCH  68  70
ATOM     70  C   UNL     1      22.838  24.610  26.900  1.00  0.00     0.181 C 
BRANCH  70  71
ATOM     71  C   UNL     1      22.906  24.614  25.426  1.00  0.00    -0.026 A 
ATOM     72  C   UNL     1      21.760  24.805  24.684  1.00  0.00     0.006 A 
ATOM     73  C   UNL     1      24.120  24.405  24.777  1.00  0.00     0.006 A 
ATOM     74  C   UNL     1      21.891  24.778  23.307  1.00  0.00     0.016 A 
ATOM     75  C   UNL     1      24.244  24.378  23.407  1.00  0.00     0.016 A 
ATOM     76  C   UNL     1      23.098  24.570  22.670  1.00  0.00     0.059 A 
BRANCH  76  77
ATOM     77  C   UNL     1      23.167  24.547  21.217  1.00  0.00     0.335 C 
ATOM     78  O   UNL     1      24.047  25.187  20.624  1.00  0.00    -0.246 OA
BRANCH  77  79
ATOM     79  O   UNL     1      22.250  23.812  20.501  1.00  0.00    -0.478 OA
ATOM     80  H   UNL     1      22.456  22.878  20.150  1.00  0.00     0.297 HD
ENDBRANCH  77  79
ENDBRANCH  76  77
ENDBRANCH  70  71
ENDBRANCH  68  70
ENDBRANCH  64  65
ENDBRANCH  63  64
ENDBRANCH  60  63
ENDBRANCH  58  59
ENDBRANCH  55  58
ENDBRANCH   1  55
TORSDOF 33
