REMARK VINA RESULT:    -8.362      3.520      9.629
REMARK INTER + INTRA:         -19.807
REMARK INTER:                 -12.510
REMARK INTRA:                  -7.297
REMARK UNBOUND:                 2.731
REMARK SMILES CC(=O)N[C@@H]1[C@@H](O)C[C@](OC[C@H]2O[C@@H](O[C@H]3[C@H](O)[C@@H](O)[C@H](OCCN=[N+]=[N-])O[C@@H]3CO)[C@H](O)[C@@H](O)[C@H]2O)(C(=O)O)O[C@H]1C(O)[C@H](O)CNC(=O)OCc1cn(C2CCc3ccccc3NC2=O)nn1
REMARK SMILES IDX 43 1 42 2 9 3 8 4 41 5 6 6 5 7 10 8 11 9 12 10 14 11 13 12
REMARK SMILES IDX 32 13 34 14 36 15 15 16 16 17 29 18 28 19 21 20 17 21 19 22
REMARK SMILES IDX 30 23 31 24 22 26 23 27 24 28 25 29 26 30 27 31 18 32 20 34
REMARK SMILES IDX 33 36 35 38 37 40 38 42 39 43 40 44 7 46 4 48 2 49 1 51 3 52
REMARK SMILES IDX 44 53 45 55 46 56 47 58 48 59 49 60 50 62 51 63 52 64 53 65
REMARK SMILES IDX 54 66 69 67 55 68 68 69 56 70 57 71 66 73 65 74 67 75 64 77
REMARK SMILES IDX 59 78 63 79 60 80 62 81 61 82 58 83
REMARK H PARENT 31 25 18 33 20 35 33 37 35 39 37 41 40 45 7 47 4 50 44 54
REMARK H PARENT 46 57 48 61 65 76
REMARK Flexibility Score: 90.00
ROOT
ATOM      1  C   UNL     1      21.973  28.884  21.745  1.00  0.00     0.176 C 
ENDROOT
BRANCH   1   2
ATOM      2  C   UNL     1      21.465  30.055  22.610  1.00  0.00     0.178 C 
ATOM      3  C   UNL     1      22.208  30.423  24.847  1.00  0.00     0.272 C 
ATOM      4  C   UNL     1      20.867  30.095  25.366  1.00  0.00     0.113 C 
ATOM      5  O   UNL     1      22.357  30.525  23.462  1.00  0.00    -0.332 OA
ATOM      6  C   UNL     1      20.129  29.133  24.498  1.00  0.00     0.145 C 
ATOM      7  C   UNL     1      20.080  29.728  23.098  1.00  0.00     0.142 C 
BRANCH   3   8
ATOM      8  O   UNL     1      23.213  29.618  25.250  1.00  0.00    -0.338 OA
BRANCH   8   9
ATOM      9  C   UNL     1      23.507  29.329  26.508  1.00  0.00     0.199 C 
BRANCH   9  10
ATOM     10  C   UNL     1      23.421  28.005  27.133  1.00  0.00     0.179 C 
ATOM     11  C   UNL     1      22.859  25.835  26.562  1.00  0.00     0.282 C 
ATOM     12  O   UNL     1      23.230  27.079  26.053  1.00  0.00    -0.341 OA
ATOM     13  C   UNL     1      23.140  25.605  27.994  1.00  0.00     0.202 C 
ATOM     14  C   UNL     1      24.318  26.302  28.582  1.00  0.00     0.179 C 
ATOM     15  C   UNL     1      24.723  27.487  27.742  1.00  0.00     0.177 C 
BRANCH  11  16
ATOM     16  O   UNL     1      23.368  24.838  25.704  1.00  0.00    -0.341 OA
BRANCH  16  17
ATOM     17  C   UNL     1      23.496  25.273  24.411  1.00  0.00     0.184 C 
ATOM     18  C   UNL     1      22.678  24.526  23.391  1.00  0.00     0.178 C 
ATOM     19  O   UNL     1      22.843  25.218  22.189  1.00  0.00    -0.341 OA
ATOM     20  C   UNL     1      24.072  24.945  21.607  1.00  0.00     0.281 C 
ATOM     21  C   UNL     1      24.943  25.197  23.946  1.00  0.00     0.180 C 
ATOM     22  C   UNL     1      25.123  24.573  22.610  1.00  0.00     0.202 C 
BRANCH  18  23
ATOM     23  C   UNL     1      21.197  24.567  23.713  1.00  0.00     0.191 C 
BRANCH  23  24
ATOM     24  O   UNL     1      20.442  24.997  22.624  1.00  0.00    -0.394 OA
ATOM     25  H   UNL     1      20.911  25.652  22.064  1.00  0.00     0.210 HD
ENDBRANCH  23  24
ENDBRANCH  18  23
BRANCH  20  26
ATOM     26  O   UNL     1      24.440  26.029  20.831  1.00  0.00    -0.350 OA
BRANCH  26  27
ATOM     27  C   UNL     1      25.772  25.968  20.460  1.00  0.00     0.169 C 
BRANCH  27  28
ATOM     28  C   UNL     1      26.555  27.216  20.711  1.00  0.00     0.119 C 
BRANCH  28  29
ATOM     29  N   UNL     1      25.751  28.130  21.505  1.00  0.00    -0.092 NA
ATOM     30  N   UNL     1      25.612  29.326  21.190  1.00  0.00     0.001 N 
ATOM     31  N   UNL     1      25.186  30.280  20.523  1.00  0.00    -0.003 NA
ENDBRANCH  28  29
ENDBRANCH  27  28
ENDBRANCH  26  27
ENDBRANCH  20  26
BRANCH  21  32
ATOM     32  O   UNL     1      25.578  26.444  24.050  1.00  0.00    -0.387 OA
ATOM     33  H   UNL     1      24.918  27.152  23.833  1.00  0.00     0.211 HD
ENDBRANCH  21  32
BRANCH  22  34
ATOM     34  O   UNL     1      25.221  23.164  22.678  1.00  0.00    -0.385 OA
ATOM     35  H   UNL     1      25.775  22.797  21.964  1.00  0.00     0.211 HD
ENDBRANCH  22  34
ENDBRANCH  16  17
ENDBRANCH  11  16
BRANCH  13  36
ATOM     36  O   UNL     1      21.974  25.786  28.743  1.00  0.00    -0.385 OA
ATOM     37  H   UNL     1      21.182  25.705  28.151  1.00  0.00     0.211 HD
ENDBRANCH  13  36
BRANCH  14  38
ATOM     38  O   UNL     1      25.386  25.446  28.848  1.00  0.00    -0.387 OA
ATOM     39  H   UNL     1      26.089  26.007  29.270  1.00  0.00     0.211 HD
ENDBRANCH  14  38
BRANCH  15  40
ATOM     40  O   UNL     1      25.579  27.061  26.696  1.00  0.00    -0.387 OA
ATOM     41  H   UNL     1      25.478  27.729  25.984  1.00  0.00     0.211 HD
ENDBRANCH  15  40
ENDBRANCH   9  10
ENDBRANCH   8   9
ENDBRANCH   3   8
BRANCH   3  42
ATOM     42  C   UNL     1      22.467  31.859  25.246  1.00  0.00     0.364 C 
ATOM     43  O   UNL     1      22.367  32.234  26.391  1.00  0.00    -0.246 OA
BRANCH  42  44
ATOM     44  O   UNL     1      22.833  32.791  24.270  1.00  0.00    -0.477 OA
ATOM     45  H   UNL     1      23.765  32.839  23.891  1.00  0.00     0.296 HD
ENDBRANCH  42  44
ENDBRANCH   3  42
BRANCH   6  46
ATOM     46  O   UNL     1      20.863  27.935  24.482  1.00  0.00    -0.391 OA
ATOM     47  H   UNL     1      20.577  27.322  23.785  1.00  0.00     0.211 HD
ENDBRANCH   6  46
BRANCH   7  48
ATOM     48  N   UNL     1      19.168  30.822  23.111  1.00  0.00    -0.348 N 
ATOM     49  C   UNL     1      17.809  30.639  22.729  1.00  0.00     0.217 C 
ATOM     50  H   UNL     1      19.471  31.782  23.398  1.00  0.00     0.163 HD
ATOM     51  C   UNL     1      16.819  31.749  22.724  1.00  0.00     0.114 C 
ATOM     52  O   UNL     1      17.455  29.504  22.390  1.00  0.00    -0.275 OA
ENDBRANCH   7  48
ENDBRANCH   1   2
BRANCH   1  53
ATOM     53  O   UNL     1      22.801  28.063  22.518  1.00  0.00    -0.388 OA
ATOM     54  H   UNL     1      23.414  28.565  23.101  1.00  0.00     0.211 HD
ENDBRANCH   1  53
BRANCH   1  55
ATOM     55  C   UNL     1      20.878  28.047  21.192  1.00  0.00     0.165 C 
BRANCH  55  56
ATOM     56  O   UNL     1      21.279  26.828  20.659  1.00  0.00    -0.388 OA
ATOM     57  H   UNL     1      20.544  26.498  20.078  1.00  0.00     0.211 HD
ENDBRANCH  55  56
BRANCH  55  58
ATOM     58  C   UNL     1      19.984  28.703  20.192  1.00  0.00     0.154 C 
BRANCH  58  59
ATOM     59  N   UNL     1      20.647  29.434  19.156  1.00  0.00    -0.319 N 
ATOM     60  C   UNL     1      21.126  28.859  17.956  1.00  0.00     0.407 C 
ATOM     61  H   UNL     1      20.788  30.456  19.291  1.00  0.00     0.167 HD
ATOM     62  O   UNL     1      20.990  27.633  17.726  1.00  0.00    -0.225 OA
BRANCH  60  63
ATOM     63  O   UNL     1      21.749  29.663  17.031  1.00  0.00    -0.443 OA
BRANCH  63  64
ATOM     64  C   UNL     1      21.084  30.341  16.023  1.00  0.00     0.294 C 
BRANCH  64  65
ATOM     65  C   UNL     1      19.743  30.736  16.458  1.00  0.00     0.120 A 
ATOM     66  C   UNL     1      18.562  30.115  16.136  1.00  0.00     0.139 A 
ATOM     67  N   UNL     1      19.389  31.778  17.250  1.00  0.00    -0.132 NA
ATOM     68  N   UNL     1      17.533  30.774  16.724  1.00  0.00    -0.240 N 
ATOM     69  N   UNL     1      18.073  31.774  17.389  1.00  0.00    -0.066 NA
BRANCH  68  70
ATOM     70  C   UNL     1      16.102  30.435  16.637  1.00  0.00     0.198 C 
BRANCH  70  71
ATOM     71  C   UNL     1      15.926  29.169  17.388  1.00  0.00     0.042 CG0
ATOM     72  G   UNL     1      16.335  29.170  18.820  1.00  0.00     0.000 G0
ENDBRANCH  70  71
BRANCH  70  73
ATOM     73  C   UNL     1      15.384  31.605  17.150  1.00  0.00     0.249 C 
ATOM     74  N   UNL     1      14.881  31.874  18.450  1.00  0.00    -0.324 N 
ATOM     75  O   UNL     1      15.183  32.514  16.301  1.00  0.00    -0.272 OA
ATOM     76  H   UNL     1      14.736  32.866  18.737  1.00  0.00     0.170 HD
BRANCH  74  77
ATOM     77  C   UNL     1      14.556  30.850  19.414  1.00  0.00     0.044 A 
ATOM     78  C   UNL     1      15.168  29.620  19.626  1.00  0.00    -0.024 A 
ATOM     79  C   UNL     1      13.480  31.211  20.196  1.00  0.00     0.026 A 
ATOM     80  C   UNL     1      14.727  28.753  20.599  1.00  0.00     0.006 A 
ATOM     81  C   UNL     1      13.017  30.359  21.180  1.00  0.00     0.002 A 
ATOM     82  C   UNL     1      13.654  29.128  21.369  1.00  0.00     0.000 A 
BRANCH  78  83
ATOM     83  C   UNL     1      16.336  29.138  18.836  1.00  0.00     0.040 CG0
ATOM     84  G   UNL     1      15.929  29.159  17.404  1.00  0.00     0.000 G0
ENDBRANCH  78  83
ENDBRANCH  74  77
ENDBRANCH  70  73
ENDBRANCH  68  70
ENDBRANCH  64  65
ENDBRANCH  63  64
ENDBRANCH  60  63
ENDBRANCH  58  59
ENDBRANCH  55  58
ENDBRANCH   1  55
TORSDOF 30
