REMARK VINA RESULT:    -6.725      3.305      8.915
REMARK INTER + INTRA:         -21.696
REMARK INTER:                 -13.843
REMARK INTRA:                  -7.853
REMARK UNBOUND:                -4.749
REMARK SMILES CC(=O)N[C@@H]1[C@@H](O)C[C@](OC[C@H]2O[C@@H](O[C@H]3[C@H](O)[C@@H](O)[C@H](OCCN=[N+]=[N-])O[C@@H]3CO)[C@H](O)[C@@H](O)[C@H]2O)(C(=O)O)O[C@H]1C(O)[C@H](O)CNC(=O)OCc1cn(-c2ccccc2C(C)=O)nn1
REMARK SMILES IDX 9 1 8 2 6 3 5 4 42 5 41 6 10 7 11 8 12 9 14 10 13 11 32 12
REMARK SMILES IDX 34 13 36 14 15 15 16 16 29 17 28 18 21 19 17 20 19 21 30 22
REMARK SMILES IDX 31 23 22 25 23 26 24 27 25 28 26 29 27 30 18 31 20 33 33 35
REMARK SMILES IDX 35 37 37 39 38 41 39 42 40 43 7 45 43 47 44 48 45 50 46 51
REMARK SMILES IDX 47 53 48 54 49 55 50 57 51 58 52 59 53 60 54 61 66 62 55 63
REMARK SMILES IDX 65 64 56 65 61 66 57 67 60 68 58 69 59 70 62 71 64 72 63 73
REMARK SMILES IDX 4 74 2 75 1 77 3 78
REMARK H PARENT 31 24 18 32 20 34 33 36 35 38 37 40 40 44 7 46 44 49 46 52
REMARK H PARENT 48 56 4 76
REMARK Flexibility Score: inf
ROOT
ATOM      1  C   UNL     1      16.526  29.396  19.313  1.00  0.00     0.272 C 
ATOM      2  C   UNL     1      15.691  29.777  18.124  1.00  0.00     0.113 C 
ATOM      3  C   UNL     1      14.256  29.871  18.572  1.00  0.00     0.145 C 
ATOM      4  C   UNL     1      14.226  31.064  19.512  1.00  0.00     0.142 C 
ATOM      5  C   UNL     1      15.057  30.654  20.698  1.00  0.00     0.178 C 
ATOM      6  O   UNL     1      15.870  29.593  20.549  1.00  0.00    -0.332 OA
ENDROOT
BRANCH   1   7
ATOM      7  O   UNL     1      17.712  29.936  19.431  1.00  0.00    -0.338 OA
BRANCH   7   8
ATOM      8  C   UNL     1      18.542  30.513  18.621  1.00  0.00     0.199 C 
BRANCH   8   9
ATOM      9  C   UNL     1      19.836  29.964  18.150  1.00  0.00     0.179 C 
ATOM     10  C   UNL     1      21.433  28.410  18.771  1.00  0.00     0.282 C 
ATOM     11  O   UNL     1      20.157  28.879  19.024  1.00  0.00    -0.341 OA
ATOM     12  C   UNL     1      22.057  28.850  17.502  1.00  0.00     0.202 C 
ATOM     13  C   UNL     1      21.135  29.032  16.337  1.00  0.00     0.179 C 
ATOM     14  C   UNL     1      19.710  29.247  16.785  1.00  0.00     0.177 C 
BRANCH  10  15
ATOM     15  O   UNL     1      21.430  27.017  18.832  1.00  0.00    -0.341 OA
BRANCH  15  16
ATOM     16  C   UNL     1      22.127  26.544  19.941  1.00  0.00     0.184 C 
ATOM     17  C   UNL     1      22.796  25.249  19.551  1.00  0.00     0.178 C 
ATOM     18  O   UNL     1      22.384  24.158  20.271  1.00  0.00    -0.341 OA
ATOM     19  C   UNL     1      22.441  24.278  21.638  1.00  0.00     0.281 C 
ATOM     20  C   UNL     1      21.055  26.195  20.983  1.00  0.00     0.180 C 
ATOM     21  C   UNL     1      21.749  25.539  22.133  1.00  0.00     0.202 C 
BRANCH  17  22
ATOM     22  C   UNL     1      24.298  25.457  19.614  1.00  0.00     0.191 C 
BRANCH  22  23
ATOM     23  O   UNL     1      24.536  26.676  20.245  1.00  0.00    -0.394 OA
ATOM     24  H   UNL     1      24.340  27.460  19.701  1.00  0.00     0.210 HD
ENDBRANCH  22  23
ENDBRANCH  17  22
BRANCH  19  25
ATOM     25  O   UNL     1      23.705  24.145  22.179  1.00  0.00    -0.350 OA
BRANCH  25  26
ATOM     26  C   UNL     1      23.838  25.022  23.246  1.00  0.00     0.169 C 
BRANCH  26  27
ATOM     27  C   UNL     1      25.308  25.141  23.615  1.00  0.00     0.119 C 
BRANCH  27  28
ATOM     28  N   UNL     1      25.587  26.484  24.138  1.00  0.00    -0.092 NA
ATOM     29  N   UNL     1      25.528  27.404  23.323  1.00  0.00     0.001 N 
ATOM     30  N   UNL     1      25.620  28.392  22.616  1.00  0.00    -0.003 NA
ENDBRANCH  27  28
ENDBRANCH  26  27
ENDBRANCH  25  26
ENDBRANCH  19  25
BRANCH  20  31
ATOM     31  O   UNL     1      20.366  27.334  21.331  1.00  0.00    -0.387 OA
ATOM     32  H   UNL     1      20.344  27.470  22.328  1.00  0.00     0.211 HD
ENDBRANCH  20  31
BRANCH  21  33
ATOM     33  O   UNL     1      20.883  25.278  23.197  1.00  0.00    -0.385 OA
ATOM     34  H   UNL     1      19.935  25.370  22.874  1.00  0.00     0.211 HD
ENDBRANCH  21  33
ENDBRANCH  15  16
ENDBRANCH  10  15
BRANCH  12  35
ATOM     35  O   UNL     1      22.899  29.957  17.688  1.00  0.00    -0.385 OA
ATOM     36  H   UNL     1      23.771  29.688  18.071  1.00  0.00     0.211 HD
ENDBRANCH  12  35
BRANCH  13  37
ATOM     37  O   UNL     1      21.136  27.914  15.487  1.00  0.00    -0.387 OA
ATOM     38  H   UNL     1      20.187  27.754  15.241  1.00  0.00     0.211 HD
ENDBRANCH  13  37
BRANCH  14  39
ATOM     39  O   UNL     1      19.041  28.030  16.964  1.00  0.00    -0.387 OA
ATOM     40  H   UNL     1      19.533  27.265  16.570  1.00  0.00     0.211 HD
ENDBRANCH  14  39
ENDBRANCH   8   9
ENDBRANCH   7   8
ENDBRANCH   1   7
BRANCH   1  41
ATOM     41  C   UNL     1      16.575  27.907  19.268  1.00  0.00     0.364 C 
ATOM     42  O   UNL     1      16.426  27.226  20.341  1.00  0.00    -0.246 OA
BRANCH  41  43
ATOM     43  O   UNL     1      16.779  27.143  18.148  1.00  0.00    -0.477 OA
ATOM     44  H   UNL     1      17.528  27.318  17.493  1.00  0.00     0.296 HD
ENDBRANCH  41  43
ENDBRANCH   1  41
BRANCH   3  45
ATOM     45  O   UNL     1      13.495  30.103  17.429  1.00  0.00    -0.391 OA
ATOM     46  H   UNL     1      13.932  29.725  16.620  1.00  0.00     0.211 HD
ENDBRANCH   3  45
BRANCH   5  47
ATOM     47  C   UNL     1      15.776  31.911  21.286  1.00  0.00     0.176 C 
BRANCH  47  48
ATOM     48  O   UNL     1      16.468  32.449  20.135  1.00  0.00    -0.388 OA
ATOM     49  H   UNL     1      17.111  31.705  19.919  1.00  0.00     0.211 HD
ENDBRANCH  47  48
BRANCH  47  50
ATOM     50  C   UNL     1      16.814  31.532  22.256  1.00  0.00     0.165 C 
BRANCH  50  51
ATOM     51  O   UNL     1      16.308  31.484  23.579  1.00  0.00    -0.388 OA
ATOM     52  H   UNL     1      15.354  31.713  23.603  1.00  0.00     0.211 HD
ENDBRANCH  50  51
BRANCH  50  53
ATOM     53  C   UNL     1      18.216  31.919  22.118  1.00  0.00     0.154 C 
BRANCH  53  54
ATOM     54  N   UNL     1      19.185  30.894  22.243  1.00  0.00    -0.319 N 
ATOM     55  C   UNL     1      20.518  30.883  21.773  1.00  0.00     0.407 C 
ATOM     56  H   UNL     1      18.909  29.994  22.757  1.00  0.00     0.167 HD
ATOM     57  O   UNL     1      20.936  31.880  21.142  1.00  0.00    -0.225 OA
BRANCH  55  58
ATOM     58  O   UNL     1      21.401  29.831  21.967  1.00  0.00    -0.443 OA
BRANCH  58  59
ATOM     59  C   UNL     1      22.280  29.825  23.062  1.00  0.00     0.294 C 
BRANCH  59  60
ATOM     60  C   UNL     1      21.756  28.820  24.049  1.00  0.00     0.121 A 
ATOM     61  C   UNL     1      22.464  28.177  25.037  1.00  0.00     0.144 A 
ATOM     62  N   UNL     1      20.506  28.349  24.164  1.00  0.00    -0.131 NA
ATOM     63  N   UNL     1      21.608  27.339  25.707  1.00  0.00    -0.220 N 
ATOM     64  N   UNL     1      20.427  27.476  25.143  1.00  0.00    -0.062 NA
BRANCH  63  65
ATOM     65  C   UNL     1      22.007  26.483  26.771  1.00  0.00     0.077 A 
ATOM     66  C   UNL     1      22.062  26.810  28.078  1.00  0.00     0.043 A 
ATOM     67  C   UNL     1      22.363  25.177  26.380  1.00  0.00     0.029 A 
ATOM     68  C   UNL     1      22.479  25.816  28.988  1.00  0.00     0.014 A 
ATOM     69  C   UNL     1      22.767  24.227  27.292  1.00  0.00     0.002 A 
ATOM     70  C   UNL     1      22.827  24.546  28.626  1.00  0.00     0.001 A 
BRANCH  66  71
ATOM     71  C   UNL     1      21.720  28.124  28.568  1.00  0.00     0.161 C 
ATOM     72  O   UNL     1      22.635  29.020  28.404  1.00  0.00    -0.294 OA
ATOM     73  C   UNL     1      20.488  28.574  29.217  1.00  0.00     0.093 C 
ENDBRANCH  66  71
ENDBRANCH  63  65
ENDBRANCH  59  60
ENDBRANCH  58  59
ENDBRANCH  55  58
ENDBRANCH  53  54
ENDBRANCH  50  53
ENDBRANCH  47  50
ENDBRANCH   5  47
BRANCH   4  74
ATOM     74  N   UNL     1      12.892  31.451  19.860  1.00  0.00    -0.348 N 
ATOM     75  C   UNL     1      12.407  32.779  19.759  1.00  0.00     0.217 C 
ATOM     76  H   UNL     1      12.254  30.689  20.210  1.00  0.00     0.163 HD
ATOM     77  C   UNL     1      10.985  33.073  20.151  1.00  0.00     0.114 C 
ATOM     78  O   UNL     1      13.192  33.654  19.341  1.00  0.00    -0.275 OA
ENDBRANCH   4  74
TORSDOF 31
