REMARK VINA RESULT:    -5.367     11.231     17.512
REMARK INTER + INTRA:         -19.979
REMARK INTER:                 -13.872
REMARK INTRA:                  -6.107
REMARK UNBOUND:                -6.769
REMARK SMILES CC(=O)N[C@@H]1[C@@H](O)C[C@](OC[C@H]2O[C@@H](O[C@H]3[C@H](O)[C@@H](O)[C@H](OCCN=[N+]=[N-])O[C@@H]3CO)[C@H](O)[C@@H](O)[C@H]2O)(C(=O)O)O[C@H]1C(O)[C@H](O)CNC(=O)OCc1cn(-c2cccnc2)nn1
REMARK SMILES IDX 9 1 8 2 6 3 5 4 42 5 41 6 10 7 11 8 12 9 14 10 13 11 32 12
REMARK SMILES IDX 34 13 36 14 15 15 16 16 29 17 28 18 21 19 17 20 19 21 30 22
REMARK SMILES IDX 31 23 22 25 23 26 24 27 25 28 26 29 27 30 18 31 20 33 33 35
REMARK SMILES IDX 35 37 37 39 38 41 39 42 40 43 7 45 43 47 44 48 45 50 46 51
REMARK SMILES IDX 47 53 48 54 49 55 50 57 51 58 52 59 53 60 54 61 63 62 55 63
REMARK SMILES IDX 62 64 56 65 57 66 61 67 58 68 60 69 59 70 4 71 2 72 1 74
REMARK SMILES IDX 3 75
REMARK H PARENT 31 24 18 32 20 34 33 36 35 38 37 40 40 44 7 46 44 49 46 52
REMARK H PARENT 48 56 4 73
REMARK Flexibility Score: inf
ROOT
ATOM      1  C   UNL     1       5.788  28.421  33.223  1.00  0.00     0.272 C 
ATOM      2  C   UNL     1       4.769  29.457  33.475  1.00  0.00     0.113 C 
ATOM      3  C   UNL     1       4.512  30.298  32.274  1.00  0.00     0.145 C 
ATOM      4  C   UNL     1       4.486  29.530  30.976  1.00  0.00     0.142 C 
ATOM      5  C   UNL     1       4.717  28.072  31.146  1.00  0.00     0.178 C 
ATOM      6  O   UNL     1       5.776  27.784  31.995  1.00  0.00    -0.332 OA
ENDROOT
BRANCH   1   7
ATOM      7  O   UNL     1       5.730  27.383  34.151  1.00  0.00    -0.338 OA
BRANCH   7   8
ATOM      8  C   UNL     1       5.881  26.120  33.675  1.00  0.00     0.199 C 
BRANCH   8   9
ATOM      9  C   UNL     1       6.362  25.250  34.852  1.00  0.00     0.179 C 
ATOM     10  C   UNL     1       5.962  23.186  33.819  1.00  0.00     0.282 C 
ATOM     11  O   UNL     1       5.726  24.069  34.850  1.00  0.00    -0.341 OA
ATOM     12  C   UNL     1       7.415  23.144  33.493  1.00  0.00     0.202 C 
ATOM     13  C   UNL     1       8.180  23.663  34.719  1.00  0.00     0.179 C 
ATOM     14  C   UNL     1       7.877  25.145  34.876  1.00  0.00     0.177 C 
BRANCH  10  15
ATOM     15  O   UNL     1       5.145  23.587  32.764  1.00  0.00    -0.341 OA
BRANCH  15  16
ATOM     16  C   UNL     1       4.220  22.671  32.385  1.00  0.00     0.184 C 
ATOM     17  C   UNL     1       2.997  22.577  33.243  1.00  0.00     0.178 C 
ATOM     18  O   UNL     1       1.970  22.067  32.448  1.00  0.00    -0.341 OA
ATOM     19  C   UNL     1       2.359  20.991  31.657  1.00  0.00     0.281 C 
ATOM     20  C   UNL     1       4.762  21.246  32.341  1.00  0.00     0.180 C 
ATOM     21  C   UNL     1       3.581  20.277  32.185  1.00  0.00     0.202 C 
BRANCH  17  22
ATOM     22  C   UNL     1       2.542  23.831  33.892  1.00  0.00     0.191 C 
BRANCH  22  23
ATOM     23  O   UNL     1       2.050  24.744  32.997  1.00  0.00    -0.394 OA
ATOM     24  H   UNL     1       1.067  24.628  32.957  1.00  0.00     0.210 HD
ENDBRANCH  22  23
ENDBRANCH  17  22
BRANCH  19  25
ATOM     25  O   UNL     1       2.565  21.320  30.349  1.00  0.00    -0.350 OA
BRANCH  25  26
ATOM     26  C   UNL     1       2.130  20.502  29.369  1.00  0.00     0.169 C 
BRANCH  26  27
ATOM     27  C   UNL     1       0.688  20.136  29.335  1.00  0.00     0.119 C 
BRANCH  27  28
ATOM     28  N   UNL     1       0.017  20.267  28.088  1.00  0.00    -0.092 NA
ATOM     29  N   UNL     1       0.245  21.205  27.295  1.00  0.00     0.001 N 
ATOM     30  N   UNL     1       0.133  22.368  26.872  1.00  0.00    -0.003 NA
ENDBRANCH  27  28
ENDBRANCH  26  27
ENDBRANCH  25  26
ENDBRANCH  19  25
BRANCH  20  31
ATOM     31  O   UNL     1       5.562  21.093  31.217  1.00  0.00    -0.387 OA
ATOM     32  H   UNL     1       6.187  20.324  31.290  1.00  0.00     0.211 HD
ENDBRANCH  20  31
BRANCH  21  33
ATOM     33  O   UNL     1       3.290  19.625  33.381  1.00  0.00    -0.385 OA
ATOM     34  H   UNL     1       2.718  20.220  33.926  1.00  0.00     0.211 HD
ENDBRANCH  21  33
ENDBRANCH  15  16
ENDBRANCH  10  15
BRANCH  12  35
ATOM     35  O   UNL     1       7.834  21.805  33.381  1.00  0.00    -0.385 OA
ATOM     36  H   UNL     1       7.618  21.339  34.245  1.00  0.00     0.211 HD
ENDBRANCH  12  35
BRANCH  13  37
ATOM     37  O   UNL     1       9.524  23.400  34.660  1.00  0.00    -0.387 OA
ATOM     38  H   UNL     1       9.860  23.163  35.560  1.00  0.00     0.211 HD
ENDBRANCH  13  37
BRANCH  14  39
ATOM     39  O   UNL     1       8.487  25.892  33.888  1.00  0.00    -0.387 OA
ATOM     40  H   UNL     1       7.811  26.061  33.179  1.00  0.00     0.211 HD
ENDBRANCH  14  39
ENDBRANCH   8   9
ENDBRANCH   7   8
ENDBRANCH   1   7
BRANCH   1  41
ATOM     41  C   UNL     1       7.140  29.083  33.400  1.00  0.00     0.364 C 
ATOM     42  O   UNL     1       7.211  30.106  34.100  1.00  0.00    -0.246 OA
BRANCH  41  43
ATOM     43  O   UNL     1       8.288  28.602  32.820  1.00  0.00    -0.477 OA
ATOM     44  H   UNL     1       8.685  27.685  32.983  1.00  0.00     0.296 HD
ENDBRANCH  41  43
ENDBRANCH   1  41
BRANCH   3  45
ATOM     45  O   UNL     1       3.264  30.927  32.491  1.00  0.00    -0.391 OA
ATOM     46  H   UNL     1       2.839  31.205  31.657  1.00  0.00     0.211 HD
ENDBRANCH   3  45
BRANCH   5  47
ATOM     47  C   UNL     1       3.508  27.255  31.456  1.00  0.00     0.176 C 
BRANCH  47  48
ATOM     48  O   UNL     1       3.782  25.919  31.065  1.00  0.00    -0.388 OA
ATOM     49  H   UNL     1       4.706  25.687  31.358  1.00  0.00     0.211 HD
ENDBRANCH  47  48
BRANCH  47  50
ATOM     50  C   UNL     1       2.240  27.633  30.758  1.00  0.00     0.165 C 
BRANCH  50  51
ATOM     51  O   UNL     1       1.236  26.970  31.588  1.00  0.00    -0.388 OA
ATOM     52  H   UNL     1       0.844  26.283  30.997  1.00  0.00     0.211 HD
ENDBRANCH  50  51
BRANCH  50  53
ATOM     53  C   UNL     1       2.016  26.995  29.426  1.00  0.00     0.154 C 
BRANCH  53  54
ATOM     54  N   UNL     1       2.751  27.523  28.322  1.00  0.00    -0.319 N 
ATOM     55  C   UNL     1       3.742  26.673  27.705  1.00  0.00     0.407 C 
ATOM     56  H   UNL     1       2.642  28.440  27.901  1.00  0.00     0.167 HD
ATOM     57  O   UNL     1       3.900  25.525  28.168  1.00  0.00    -0.225 OA
BRANCH  55  58
ATOM     58  O   UNL     1       4.498  27.101  26.642  1.00  0.00    -0.443 OA
BRANCH  58  59
ATOM     59  C   UNL     1       5.013  26.168  25.725  1.00  0.00     0.294 C 
BRANCH  59  60
ATOM     60  C   UNL     1       6.370  26.594  25.321  1.00  0.00     0.121 A 
ATOM     61  C   UNL     1       6.897  27.862  25.238  1.00  0.00     0.144 A 
ATOM     62  N   UNL     1       7.387  25.764  24.942  1.00  0.00    -0.131 NA
ATOM     63  N   UNL     1       8.173  27.785  24.829  1.00  0.00    -0.219 N 
ATOM     64  N   UNL     1       8.439  26.502  24.658  1.00  0.00    -0.062 NA
BRANCH  63  65
ATOM     65  C   UNL     1       9.141  28.803  24.593  1.00  0.00     0.085 A 
ATOM     66  C   UNL     1      10.498  28.566  24.645  1.00  0.00     0.031 A 
ATOM     67  C   UNL     1       8.753  30.098  24.304  1.00  0.00     0.139 A 
ATOM     68  C   UNL     1      11.414  29.569  24.421  1.00  0.00     0.022 A 
ATOM     69  N   UNL     1       9.666  31.077  24.086  1.00  0.00    -0.262 NA
ATOM     70  C   UNL     1      10.989  30.846  24.137  1.00  0.00     0.111 A 
ENDBRANCH  63  65
ENDBRANCH  59  60
ENDBRANCH  58  59
ENDBRANCH  55  58
ENDBRANCH  53  54
ENDBRANCH  50  53
ENDBRANCH  47  50
ENDBRANCH   5  47
BRANCH   4  71
ATOM     71  N   UNL     1       5.458  30.079  30.035  1.00  0.00    -0.348 N 
ATOM     72  C   UNL     1       5.162  30.396  28.686  1.00  0.00     0.217 C 
ATOM     73  H   UNL     1       6.452  30.264  30.343  1.00  0.00     0.163 HD
ATOM     74  C   UNL     1       6.195  30.952  27.757  1.00  0.00     0.114 C 
ATOM     75  O   UNL     1       4.000  30.214  28.233  1.00  0.00    -0.275 OA
ENDBRANCH   4  71
TORSDOF 30
