REMARK VINA RESULT:    -5.261     19.173     25.063
REMARK INTER + INTRA:         -21.512
REMARK INTER:                 -16.328
REMARK INTRA:                  -5.183
REMARK UNBOUND:                -8.561
REMARK SMILES CC(=O)N[C@@H]1[C@@H](O)C[C@](OC[C@H]2O[C@@H](O[C@H]3[C@H](O)[C@@H](O)[C@H](OCCN=[N+]=[N-])O[C@@H]3CO)[C@H](O)[C@@H](O)[C@H]2O)(C(=O)O)O[C@H]1C(O)[C@H](O)CNC(=O)OCc1cn(-c2cnc3ccccc3c2)nn1
REMARK SMILES IDX 9 1 8 2 6 3 5 4 42 5 41 6 10 7 11 8 12 9 14 10 13 11 32 12
REMARK SMILES IDX 34 13 36 14 15 15 16 16 29 17 28 18 21 19 17 20 19 21 30 22
REMARK SMILES IDX 31 23 22 25 23 26 24 27 25 28 26 29 27 30 18 31 20 33 33 35
REMARK SMILES IDX 35 37 37 39 38 41 39 42 40 43 7 45 43 47 44 48 45 50 46 51
REMARK SMILES IDX 47 53 48 54 49 55 50 57 51 58 52 59 53 60 54 61 67 62 55 63
REMARK SMILES IDX 66 64 56 65 57 66 65 67 58 68 64 69 59 70 63 71 60 72 62 73
REMARK SMILES IDX 61 74 4 75 2 76 1 78 3 79
REMARK H PARENT 31 24 18 32 20 34 33 36 35 38 37 40 40 44 7 46 44 49 46 52
REMARK H PARENT 48 56 4 77
REMARK Flexibility Score: inf
ROOT
ATOM      1  C   UNL     1       3.082  21.811  31.132  1.00  0.00     0.272 C 
ATOM      2  C   UNL     1       2.016  21.433  32.096  1.00  0.00     0.113 C 
ATOM      3  C   UNL     1       2.569  21.113  33.471  1.00  0.00     0.145 C 
ATOM      4  C   UNL     1       3.497  22.281  33.812  1.00  0.00     0.142 C 
ATOM      5  C   UNL     1       4.676  22.175  32.832  1.00  0.00     0.178 C 
ATOM      6  O   UNL     1       4.099  22.585  31.612  1.00  0.00    -0.332 OA
ENDROOT
BRANCH   1   7
ATOM      7  O   UNL     1       2.552  22.542  30.048  1.00  0.00    -0.338 OA
BRANCH   7   8
ATOM      8  C   UNL     1       1.194  22.691  30.075  1.00  0.00     0.199 C 
BRANCH   8   9
ATOM      9  C   UNL     1       0.693  22.799  28.651  1.00  0.00     0.179 C 
ATOM     10  C   UNL     1       0.705  24.074  26.743  1.00  0.00     0.282 C 
ATOM     11  O   UNL     1       1.399  23.702  27.882  1.00  0.00    -0.341 OA
ATOM     12  C   UNL     1      -0.260  23.020  26.283  1.00  0.00     0.202 C 
ATOM     13  C   UNL     1       0.168  21.629  26.590  1.00  0.00     0.179 C 
ATOM     14  C   UNL     1       0.412  21.480  28.064  1.00  0.00     0.177 C 
BRANCH  10  15
ATOM     15  O   UNL     1       1.601  24.449  25.765  1.00  0.00    -0.341 OA
BRANCH  15  16
ATOM     16  C   UNL     1       2.545  25.371  26.218  1.00  0.00     0.184 C 
ATOM     17  C   UNL     1       2.187  26.797  25.878  1.00  0.00     0.178 C 
ATOM     18  O   UNL     1       3.182  27.539  25.322  1.00  0.00    -0.341 OA
ATOM     19  C   UNL     1       4.429  27.455  25.876  1.00  0.00     0.281 C 
ATOM     20  C   UNL     1       3.947  24.989  25.833  1.00  0.00     0.180 C 
ATOM     21  C   UNL     1       4.894  26.076  26.231  1.00  0.00     0.202 C 
BRANCH  17  22
ATOM     22  C   UNL     1       1.490  27.474  27.059  1.00  0.00     0.191 C 
BRANCH  22  23
ATOM     23  O   UNL     1       1.767  26.839  28.266  1.00  0.00    -0.394 OA
ATOM     24  H   UNL     1       2.254  25.998  28.152  1.00  0.00     0.210 HD
ENDBRANCH  22  23
ENDBRANCH  17  22
BRANCH  19  25
ATOM     25  O   UNL     1       4.627  28.354  26.926  1.00  0.00    -0.350 OA
BRANCH  25  26
ATOM     26  C   UNL     1       5.098  27.742  28.068  1.00  0.00     0.169 C 
BRANCH  26  27
ATOM     27  C   UNL     1       4.980  28.636  29.281  1.00  0.00     0.119 C 
BRANCH  27  28
ATOM     28  N   UNL     1       3.591  28.832  29.643  1.00  0.00    -0.092 NA
ATOM     29  N   UNL     1       3.182  28.675  30.793  1.00  0.00     0.001 N 
ATOM     30  N   UNL     1       2.866  28.911  31.959  1.00  0.00    -0.003 NA
ENDBRANCH  27  28
ENDBRANCH  26  27
ENDBRANCH  25  26
ENDBRANCH  19  25
BRANCH  20  31
ATOM     31  O   UNL     1       4.297  23.833  26.565  1.00  0.00    -0.387 OA
ATOM     32  H   UNL     1       3.936  23.894  27.491  1.00  0.00     0.211 HD
ENDBRANCH  20  31
BRANCH  21  33
ATOM     33  O   UNL     1       6.142  25.768  25.642  1.00  0.00    -0.385 OA
ATOM     34  H   UNL     1       6.161  26.117  24.702  1.00  0.00     0.211 HD
ENDBRANCH  21  33
ENDBRANCH  15  16
ENDBRANCH  10  15
BRANCH  12  35
ATOM     35  O   UNL     1      -1.555  23.206  26.757  1.00  0.00    -0.385 OA
ATOM     36  H   UNL     1      -1.577  23.324  27.737  1.00  0.00     0.211 HD
ENDBRANCH  12  35
BRANCH  13  37
ATOM     37  O   UNL     1       1.293  21.276  25.840  1.00  0.00    -0.387 OA
ATOM     38  H   UNL     1       1.789  20.578  26.298  1.00  0.00     0.211 HD
ENDBRANCH  13  37
BRANCH  14  39
ATOM     39  O   UNL     1       1.435  20.550  28.215  1.00  0.00    -0.387 OA
ATOM     40  H   UNL     1       2.102  20.588  27.504  1.00  0.00     0.211 HD
ENDBRANCH  14  39
ENDBRANCH   8   9
ENDBRANCH   7   8
ENDBRANCH   1   7
BRANCH   1  41
ATOM     41  C   UNL     1       3.709  20.549  30.606  1.00  0.00     0.364 C 
ATOM     42  O   UNL     1       3.032  19.473  30.521  1.00  0.00    -0.246 OA
BRANCH  41  43
ATOM     43  O   UNL     1       5.015  20.449  30.188  1.00  0.00    -0.477 OA
ATOM     44  H   UNL     1       5.285  20.388  29.194  1.00  0.00     0.296 HD
ENDBRANCH  41  43
ENDBRANCH   1  41
BRANCH   3  45
ATOM     45  O   UNL     1       1.582  20.952  34.413  1.00  0.00    -0.391 OA
ATOM     46  H   UNL     1       1.043  20.173  34.162  1.00  0.00     0.211 HD
ENDBRANCH   3  45
BRANCH   5  47
ATOM     47  C   UNL     1       5.736  23.199  33.135  1.00  0.00     0.176 C 
BRANCH  47  48
ATOM     48  O   UNL     1       5.565  24.259  32.206  1.00  0.00    -0.388 OA
ATOM     49  H   UNL     1       5.048  23.958  31.416  1.00  0.00     0.211 HD
ENDBRANCH  47  48
BRANCH  47  50
ATOM     50  C   UNL     1       7.164  22.711  32.935  1.00  0.00     0.165 C 
BRANCH  50  51
ATOM     51  O   UNL     1       7.046  21.303  33.216  1.00  0.00    -0.388 OA
ATOM     52  H   UNL     1       6.848  21.221  34.178  1.00  0.00     0.211 HD
ENDBRANCH  50  51
BRANCH  50  53
ATOM     53  C   UNL     1       8.048  23.196  34.064  1.00  0.00     0.154 C 
BRANCH  53  54
ATOM     54  N   UNL     1       7.893  24.547  34.454  1.00  0.00    -0.319 N 
ATOM     55  C   UNL     1       8.934  25.499  34.489  1.00  0.00     0.407 C 
ATOM     56  H   UNL     1       6.912  24.858  34.743  1.00  0.00     0.167 HD
ATOM     57  O   UNL     1      10.087  25.148  34.169  1.00  0.00    -0.225 OA
BRANCH  55  58
ATOM     58  O   UNL     1       8.628  26.782  34.880  1.00  0.00    -0.443 OA
BRANCH  58  59
ATOM     59  C   UNL     1       8.274  27.788  33.970  1.00  0.00     0.294 C 
BRANCH  59  60
ATOM     60  C   UNL     1       9.458  28.662  33.692  1.00  0.00     0.121 A 
ATOM     61  C   UNL     1      10.491  28.437  32.845  1.00  0.00     0.144 A 
ATOM     62  N   UNL     1       9.668  29.858  34.288  1.00  0.00    -0.131 NA
ATOM     63  N   UNL     1      11.305  29.505  32.949  1.00  0.00    -0.219 N 
ATOM     64  N   UNL     1      10.794  30.367  33.832  1.00  0.00    -0.062 NA
BRANCH  63  65
ATOM     65  C   UNL     1      12.519  29.665  32.220  1.00  0.00     0.085 A 
ATOM     66  C   UNL     1      13.687  29.209  32.742  1.00  0.00     0.140 A 
ATOM     67  C   UNL     1      12.474  30.282  30.981  1.00  0.00     0.040 A 
ATOM     68  N   UNL     1      14.825  29.362  32.037  1.00  0.00    -0.254 NA
ATOM     69  C   UNL     1      13.637  30.427  30.281  1.00  0.00     0.002 A 
ATOM     70  C   UNL     1      14.791  29.957  30.839  1.00  0.00     0.070 A 
ATOM     71  C   UNL     1      13.618  31.038  29.044  1.00  0.00     0.010 A 
ATOM     72  C   UNL     1      15.976  30.109  30.117  1.00  0.00     0.029 A 
ATOM     73  C   UNL     1      14.805  31.178  28.346  1.00  0.00     0.001 A 
ATOM     74  C   UNL     1      16.002  30.707  28.890  1.00  0.00     0.002 A 
ENDBRANCH  63  65
ENDBRANCH  59  60
ENDBRANCH  58  59
ENDBRANCH  55  58
ENDBRANCH  53  54
ENDBRANCH  50  53
ENDBRANCH  47  50
ENDBRANCH   5  47
BRANCH   4  75
ATOM     75  N   UNL     1       3.843  22.304  35.181  1.00  0.00    -0.348 N 
ATOM     76  C   UNL     1       3.139  23.166  36.103  1.00  0.00     0.217 C 
ATOM     77  H   UNL     1       4.585  21.718  35.616  1.00  0.00     0.163 HD
ATOM     78  C   UNL     1       3.485  23.203  37.525  1.00  0.00     0.114 C 
ATOM     79  O   UNL     1       2.213  23.883  35.616  1.00  0.00    -0.275 OA
ENDBRANCH   4  75
TORSDOF 30
