REMARK VINA RESULT:    -5.920     13.775     19.315
REMARK INTER + INTRA:         -24.418
REMARK INTER:                 -16.506
REMARK INTRA:                  -7.913
REMARK UNBOUND:                -8.981
REMARK SMILES CC(=O)N[C@@H]1[C@@H](O)C[C@](OC[C@H]2O[C@@H](O[C@H]3[C@H](O)[C@@H](O)[C@H](OCCN=[N+]=[N-])O[C@@H]3CO)[C@H](O)[C@@H](O)[C@H]2O)(C(=O)O)O[C@H]1C(O)[C@H](O)CNC(=O)OCc1cn(-c2cc(C(=O)O)nc(-c3ccccc3)c2)nn1
REMARK SMILES IDX 9 1 8 2 6 3 5 4 42 5 41 6 10 7 11 8 12 9 14 10 13 11 32 12
REMARK SMILES IDX 34 13 36 14 15 15 16 16 29 17 28 18 21 19 17 20 19 21 30 22
REMARK SMILES IDX 31 23 22 25 23 26 24 27 25 28 26 29 27 30 18 31 20 33 33 35
REMARK SMILES IDX 35 37 37 39 38 41 39 42 40 43 7 45 43 47 44 48 45 50 46 51
REMARK SMILES IDX 47 53 48 54 49 55 50 57 51 58 52 59 53 60 54 61 72 62 55 63
REMARK SMILES IDX 71 64 56 65 57 66 70 67 58 68 63 69 62 70 59 71 60 72 61 73
REMARK SMILES IDX 64 75 65 76 69 77 66 78 68 79 67 80 4 81 2 82 1 84 3 85
REMARK H PARENT 31 24 18 32 20 34 33 36 35 38 37 40 40 44 7 46 44 49 46 52
REMARK H PARENT 48 56 61 74 4 83
REMARK Flexibility Score: inf
ROOT
ATOM      1  C   UNL     1      13.789  30.041  15.708  1.00  0.00     0.272 C 
ATOM      2  C   UNL     1      14.441  31.310  15.124  1.00  0.00     0.113 C 
ATOM      3  C   UNL     1      14.227  32.532  15.940  1.00  0.00     0.145 C 
ATOM      4  C   UNL     1      12.816  32.640  16.507  1.00  0.00     0.142 C 
ATOM      5  C   UNL     1      12.057  31.482  15.852  1.00  0.00     0.178 C 
ATOM      6  O   UNL     1      12.606  30.336  16.384  1.00  0.00    -0.332 OA
ENDROOT
BRANCH   1   7
ATOM      7  O   UNL     1      14.698  29.543  16.585  1.00  0.00    -0.338 OA
BRANCH   7   8
ATOM      8  C   UNL     1      15.952  29.245  16.159  1.00  0.00     0.199 C 
BRANCH   8   9
ATOM      9  C   UNL     1      16.995  29.603  17.247  1.00  0.00     0.179 C 
ATOM     10  C   UNL     1      17.111  30.798  19.254  1.00  0.00     0.282 C 
ATOM     11  O   UNL     1      16.386  30.406  18.157  1.00  0.00    -0.341 OA
ATOM     12  C   UNL     1      18.370  29.956  19.334  1.00  0.00     0.202 C 
ATOM     13  C   UNL     1      18.111  28.480  19.150  1.00  0.00     0.179 C 
ATOM     14  C   UNL     1      17.334  28.272  17.900  1.00  0.00     0.177 C 
BRANCH  10  15
ATOM     15  O   UNL     1      16.314  30.625  20.370  1.00  0.00    -0.341 OA
BRANCH  15  16
ATOM     16  C   UNL     1      15.104  31.297  20.336  1.00  0.00     0.184 C 
ATOM     17  C   UNL     1      14.906  32.229  21.474  1.00  0.00     0.178 C 
ATOM     18  O   UNL     1      13.815  31.878  22.250  1.00  0.00    -0.341 OA
ATOM     19  C   UNL     1      13.856  30.544  22.649  1.00  0.00     0.281 C 
ATOM     20  C   UNL     1      14.022  30.267  20.180  1.00  0.00     0.180 C 
ATOM     21  C   UNL     1      13.456  29.723  21.443  1.00  0.00     0.202 C 
BRANCH  17  22
ATOM     22  C   UNL     1      14.638  33.623  20.944  1.00  0.00     0.191 C 
BRANCH  22  23
ATOM     23  O   UNL     1      14.482  33.640  19.570  1.00  0.00    -0.394 OA
ATOM     24  H   UNL     1      14.686  34.549  19.226  1.00  0.00     0.210 HD
ENDBRANCH  22  23
ENDBRANCH  17  22
BRANCH  19  25
ATOM     25  O   UNL     1      12.899  30.391  23.641  1.00  0.00    -0.350 OA
BRANCH  25  26
ATOM     26  C   UNL     1      11.602  30.465  23.131  1.00  0.00     0.169 C 
BRANCH  26  27
ATOM     27  C   UNL     1      10.748  31.367  23.986  1.00  0.00     0.119 C 
BRANCH  27  28
ATOM     28  N   UNL     1       9.454  31.531  23.364  1.00  0.00    -0.092 NA
ATOM     29  N   UNL     1       8.905  32.622  23.434  1.00  0.00     0.001 N 
ATOM     30  N   UNL     1       8.249  33.629  23.119  1.00  0.00    -0.003 NA
ENDBRANCH  27  28
ENDBRANCH  26  27
ENDBRANCH  25  26
ENDBRANCH  19  25
BRANCH  20  31
ATOM     31  O   UNL     1      12.957  30.894  19.492  1.00  0.00    -0.387 OA
ATOM     32  H   UNL     1      13.163  31.849  19.333  1.00  0.00     0.211 HD
ENDBRANCH  20  31
BRANCH  21  33
ATOM     33  O   UNL     1      13.873  28.382  21.574  1.00  0.00    -0.385 OA
ATOM     34  H   UNL     1      13.690  27.861  20.744  1.00  0.00     0.211 HD
ENDBRANCH  21  33
ENDBRANCH  15  16
ENDBRANCH  10  15
BRANCH  12  35
ATOM     35  O   UNL     1      19.348  30.341  18.426  1.00  0.00    -0.385 OA
ATOM     36  H   UNL     1      19.773  31.151  18.828  1.00  0.00     0.211 HD
ENDBRANCH  12  35
BRANCH  13  37
ATOM     37  O   UNL     1      17.436  28.046  20.291  1.00  0.00    -0.387 OA
ATOM     38  H   UNL     1      16.556  28.502  20.296  1.00  0.00     0.211 HD
ENDBRANCH  13  37
BRANCH  14  39
ATOM     39  O   UNL     1      16.124  27.651  18.270  1.00  0.00    -0.387 OA
ATOM     40  H   UNL     1      15.357  28.239  18.178  1.00  0.00     0.211 HD
ENDBRANCH  14  39
ENDBRANCH   8   9
ENDBRANCH   7   8
ENDBRANCH   1   7
BRANCH   1  41
ATOM     41  C   UNL     1      13.429  29.143  14.582  1.00  0.00     0.364 C 
ATOM     42  O   UNL     1      13.740  29.401  13.388  1.00  0.00    -0.246 OA
BRANCH  41  43
ATOM     43  O   UNL     1      12.733  27.978  14.813  1.00  0.00    -0.477 OA
ATOM     44  H   UNL     1      12.283  27.750  15.709  1.00  0.00     0.296 HD
ENDBRANCH  41  43
ENDBRANCH   1  41
BRANCH   3  45
ATOM     45  O   UNL     1      15.200  32.742  16.892  1.00  0.00    -0.391 OA
ATOM     46  H   UNL     1      15.519  33.664  16.827  1.00  0.00     0.211 HD
ENDBRANCH   3  45
BRANCH   5  47
ATOM     47  C   UNL     1      10.583  31.608  15.931  1.00  0.00     0.176 C 
BRANCH  47  48
ATOM     48  O   UNL     1      10.239  32.086  17.216  1.00  0.00    -0.388 OA
ATOM     49  H   UNL     1       9.235  32.083  17.320  1.00  0.00     0.211 HD
ENDBRANCH  47  48
BRANCH  47  50
ATOM     50  C   UNL     1       9.795  30.368  15.615  1.00  0.00     0.165 C 
BRANCH  50  51
ATOM     51  O   UNL     1      10.378  29.702  14.556  1.00  0.00    -0.388 OA
ATOM     52  H   UNL     1       9.783  29.657  13.761  1.00  0.00     0.211 HD
ENDBRANCH  50  51
BRANCH  50  53
ATOM     53  C   UNL     1       8.388  30.814  15.302  1.00  0.00     0.154 C 
BRANCH  53  54
ATOM     54  N   UNL     1       7.518  30.976  16.410  1.00  0.00    -0.319 N 
ATOM     55  C   UNL     1       6.167  30.545  16.372  1.00  0.00     0.407 C 
ATOM     56  H   UNL     1       7.854  31.423  17.299  1.00  0.00     0.167 HD
ATOM     57  O   UNL     1       5.721  30.027  15.331  1.00  0.00    -0.225 OA
BRANCH  55  58
ATOM     58  O   UNL     1       5.328  30.693  17.494  1.00  0.00    -0.443 OA
BRANCH  58  59
ATOM     59  C   UNL     1       5.842  31.325  18.639  1.00  0.00     0.294 C 
BRANCH  59  60
ATOM     60  C   UNL     1       5.781  30.432  19.820  1.00  0.00     0.121 A 
ATOM     61  C   UNL     1       6.300  30.597  21.083  1.00  0.00     0.144 A 
ATOM     62  N   UNL     1       5.195  29.201  19.872  1.00  0.00    -0.131 NA
ATOM     63  N   UNL     1       6.039  29.518  21.853  1.00  0.00    -0.220 N 
ATOM     64  N   UNL     1       5.357  28.681  21.071  1.00  0.00    -0.062 NA
BRANCH  63  65
ATOM     65  C   UNL     1       6.440  29.316  23.196  1.00  0.00     0.071 A 
ATOM     66  C   UNL     1       7.072  28.120  23.501  1.00  0.00     0.064 A 
ATOM     67  C   UNL     1       6.267  30.218  24.225  1.00  0.00     0.057 A 
ATOM     68  C   UNL     1       7.494  27.890  24.797  1.00  0.00     0.151 A 
ATOM     69  C   UNL     1       6.684  29.985  25.497  1.00  0.00     0.073 A 
ATOM     70  N   UNL     1       7.295  28.813  25.761  1.00  0.00    -0.241 NA
BRANCH  68  71
ATOM     71  C   UNL     1       8.164  26.646  25.148  1.00  0.00     0.354 C 
ATOM     72  O   UNL     1       8.331  25.790  24.243  1.00  0.00    -0.245 OA
BRANCH  71  73
ATOM     73  O   UNL     1       8.626  26.352  26.408  1.00  0.00    -0.477 OA
ATOM     74  H   UNL     1       9.586  26.033  26.591  1.00  0.00     0.297 HD
ENDBRANCH  71  73
ENDBRANCH  68  71
BRANCH  69  75
ATOM     75  C   UNL     1       6.497  30.957  26.568  1.00  0.00     0.000 A 
ATOM     76  C   UNL     1       6.968  32.252  26.363  1.00  0.00     0.010 A 
ATOM     77  C   UNL     1       5.889  30.674  27.756  1.00  0.00     0.010 A 
ATOM     78  C   UNL     1       6.834  33.230  27.312  1.00  0.00     0.001 A 
ATOM     79  C   UNL     1       5.759  31.669  28.709  1.00  0.00     0.001 A 
ATOM     80  C   UNL     1       6.217  32.940  28.516  1.00  0.00     0.000 A 
ENDBRANCH  69  75
ENDBRANCH  63  65
ENDBRANCH  59  60
ENDBRANCH  58  59
ENDBRANCH  55  58
ENDBRANCH  53  54
ENDBRANCH  50  53
ENDBRANCH  47  50
ENDBRANCH   5  47
BRANCH   4  81
ATOM     81  N   UNL     1      12.229  33.916  16.256  1.00  0.00    -0.348 N 
ATOM     82  C   UNL     1      11.826  34.739  17.338  1.00  0.00     0.217 C 
ATOM     83  H   UNL     1      12.103  34.229  15.266  1.00  0.00     0.163 HD
ATOM     84  C   UNL     1      11.211  36.077  17.138  1.00  0.00     0.114 C 
ATOM     85  O   UNL     1      11.984  34.350  18.545  1.00  0.00    -0.275 OA
ENDBRANCH   4  81
TORSDOF 33
