REMARK VINA RESULT:    -5.923     19.932     26.150
REMARK INTER + INTRA:         -22.511
REMARK INTER:                 -15.497
REMARK INTRA:                  -7.014
REMARK UNBOUND:                -7.585
REMARK SMILES COc1ccc(-n2cc(COC(=O)NC[C@@H](O)C(O)[C@@H]3O[C@@](OC[C@H]4O[C@@H](O[C@H]5[C@H](O)[C@@H](O)[C@H](OCCN=[N+]=[N-])O[C@@H]5CO)[C@H](O)[C@@H](O)[C@H]4O)(C(=O)O)C[C@H](O)[C@H]3NC(C)=O)nn2)cc1
REMARK SMILES IDX 22 1 54 2 55 3 57 4 20 5 21 6 23 7 24 8 25 9 27 10 26 11
REMARK SMILES IDX 45 12 47 13 49 14 28 15 29 16 42 17 41 18 34 19 30 20 32 21
REMARK SMILES IDX 43 22 44 23 35 25 36 26 37 27 38 28 39 29 40 30 31 31 33 33
REMARK SMILES IDX 46 35 48 37 50 39 51 41 52 42 53 43 56 45 18 47 19 48 16 50
REMARK SMILES IDX 17 51 15 53 14 54 12 55 13 57 11 58 10 59 9 60 8 61 62 62
REMARK SMILES IDX 7 63 63 64 6 65 5 66 64 67 4 68 65 69 3 70 2 71 1 72 58 73
REMARK SMILES IDX 59 74 60 76 61 77
REMARK H PARENT 44 24 31 32 33 34 46 36 48 38 50 40 53 44 56 46 19 49 17 52
REMARK H PARENT 14 56 58 75
REMARK Flexibility Score: inf
ROOT
ATOM      1  C   UNL     1       1.911  21.838  28.654  1.00  0.00     0.272 C 
ATOM      2  C   UNL     1       2.129  22.466  27.329  1.00  0.00     0.113 C 
ATOM      3  C   UNL     1       2.971  23.680  27.288  1.00  0.00     0.145 C 
ATOM      4  C   UNL     1       2.954  24.318  28.692  1.00  0.00     0.142 C 
ATOM      5  C   UNL     1       1.586  24.120  29.243  1.00  0.00     0.178 C 
ATOM      6  O   UNL     1       1.478  22.779  29.606  1.00  0.00    -0.332 OA
ENDROOT
BRANCH   1   7
ATOM      7  O   UNL     1       2.725  21.010  29.229  1.00  0.00    -0.338 OA
BRANCH   7   8
ATOM      8  C   UNL     1       2.833  20.245  30.250  1.00  0.00     0.199 C 
BRANCH   8   9
ATOM      9  C   UNL     1       3.220  20.710  31.625  1.00  0.00     0.179 C 
ATOM     10  C   UNL     1       4.416  22.188  32.892  1.00  0.00     0.282 C 
ATOM     11  O   UNL     1       3.933  21.859  31.614  1.00  0.00    -0.341 OA
ATOM     12  C   UNL     1       3.342  22.382  33.913  1.00  0.00     0.202 C 
ATOM     13  C   UNL     1       2.022  21.793  33.582  1.00  0.00     0.179 C 
ATOM     14  C   UNL     1       2.045  20.717  32.572  1.00  0.00     0.177 C 
BRANCH  10  15
ATOM     15  O   UNL     1       5.141  23.368  32.761  1.00  0.00    -0.341 OA
BRANCH  15  16
ATOM     16  C   UNL     1       5.939  23.632  33.841  1.00  0.00     0.184 C 
ATOM     17  C   UNL     1       5.970  25.073  34.196  1.00  0.00     0.178 C 
ATOM     18  O   UNL     1       6.887  25.311  35.255  1.00  0.00    -0.341 OA
ATOM     19  C   UNL     1       8.172  25.125  34.681  1.00  0.00     0.281 C 
ATOM     20  C   UNL     1       7.364  23.158  33.505  1.00  0.00     0.180 C 
ATOM     21  C   UNL     1       8.308  23.603  34.590  1.00  0.00     0.202 C 
BRANCH  17  22
ATOM     22  C   UNL     1       4.613  25.587  34.602  1.00  0.00     0.191 C 
BRANCH  22  23
ATOM     23  O   UNL     1       3.894  25.910  33.464  1.00  0.00    -0.394 OA
ATOM     24  H   UNL     1       3.686  26.869  33.400  1.00  0.00     0.210 HD
ENDBRANCH  22  23
ENDBRANCH  17  22
BRANCH  19  25
ATOM     25  O   UNL     1       9.141  25.681  35.442  1.00  0.00    -0.350 OA
BRANCH  25  26
ATOM     26  C   UNL     1       9.029  25.674  36.797  1.00  0.00     0.169 C 
BRANCH  26  27
ATOM     27  C   UNL     1       9.928  24.761  37.559  1.00  0.00     0.119 C 
BRANCH  27  28
ATOM     28  N   UNL     1      11.199  24.489  36.957  1.00  0.00    -0.092 NA
ATOM     29  N   UNL     1      11.513  23.354  36.615  1.00  0.00     0.001 N 
ATOM     30  N   UNL     1      11.744  22.154  36.431  1.00  0.00    -0.003 NA
ENDBRANCH  27  28
ENDBRANCH  26  27
ENDBRANCH  25  26
ENDBRANCH  19  25
BRANCH  20  31
ATOM     31  O   UNL     1       7.350  21.783  33.358  1.00  0.00    -0.387 OA
ATOM     32  H   UNL     1       7.181  21.393  34.271  1.00  0.00     0.211 HD
ENDBRANCH  20  31
BRANCH  21  33
ATOM     33  O   UNL     1       9.609  23.313  34.245  1.00  0.00    -0.385 OA
ATOM     34  H   UNL     1      10.069  24.104  33.869  1.00  0.00     0.211 HD
ENDBRANCH  21  33
ENDBRANCH  15  16
ENDBRANCH  10  15
BRANCH  12  35
ATOM     35  O   UNL     1       3.717  21.857  35.162  1.00  0.00    -0.385 OA
ATOM     36  H   UNL     1       2.999  21.310  35.552  1.00  0.00     0.211 HD
ENDBRANCH  12  35
BRANCH  13  37
ATOM     37  O   UNL     1       1.099  22.806  33.298  1.00  0.00    -0.387 OA
ATOM     38  H   UNL     1       1.411  23.434  32.615  1.00  0.00     0.211 HD
ENDBRANCH  13  37
BRANCH  14  39
ATOM     39  O   UNL     1       0.828  20.719  31.886  1.00  0.00    -0.387 OA
ATOM     40  H   UNL     1       1.045  20.720  30.919  1.00  0.00     0.211 HD
ENDBRANCH  14  39
ENDBRANCH   8   9
ENDBRANCH   7   8
ENDBRANCH   1   7
BRANCH   1  41
ATOM     41  C   UNL     1       0.584  21.045  28.433  1.00  0.00     0.364 C 
ATOM     42  O   UNL     1      -0.250  20.961  29.337  1.00  0.00    -0.246 OA
BRANCH  41  43
ATOM     43  O   UNL     1       0.421  20.469  27.198  1.00  0.00    -0.477 OA
ATOM     44  H   UNL     1       0.264  21.036  26.352  1.00  0.00     0.296 HD
ENDBRANCH  41  43
ENDBRANCH   1  41
BRANCH   3  45
ATOM     45  O   UNL     1       4.236  23.542  26.795  1.00  0.00    -0.391 OA
ATOM     46  H   UNL     1       4.829  24.319  26.903  1.00  0.00     0.211 HD
ENDBRANCH   3  45
BRANCH   5  47
ATOM     47  C   UNL     1       1.334  24.902  30.553  1.00  0.00     0.176 C 
BRANCH  47  48
ATOM     48  O   UNL     1       2.308  24.644  31.468  1.00  0.00    -0.388 OA
ATOM     49  H   UNL     1       3.062  24.187  31.028  1.00  0.00     0.211 HD
ENDBRANCH  47  48
BRANCH  47  50
ATOM     50  C   UNL     1       0.821  26.229  30.319  1.00  0.00     0.165 C 
BRANCH  50  51
ATOM     51  O   UNL     1       0.515  26.995  31.478  1.00  0.00    -0.388 OA
ATOM     52  H   UNL     1       0.895  26.496  32.228  1.00  0.00     0.211 HD
ENDBRANCH  50  51
BRANCH  50  53
ATOM     53  C   UNL     1      -0.257  26.555  29.371  1.00  0.00     0.154 C 
BRANCH  53  54
ATOM     54  N   UNL     1       0.066  26.925  28.068  1.00  0.00    -0.319 N 
ATOM     55  C   UNL     1      -0.222  26.213  26.894  1.00  0.00     0.407 C 
ATOM     56  H   UNL     1       0.594  27.854  27.927  1.00  0.00     0.167 HD
ATOM     57  O   UNL     1      -0.844  25.138  26.911  1.00  0.00    -0.225 OA
BRANCH  55  58
ATOM     58  O   UNL     1       0.205  26.733  25.651  1.00  0.00    -0.443 OA
BRANCH  58  59
ATOM     59  C   UNL     1       1.231  26.042  24.982  1.00  0.00     0.294 C 
BRANCH  59  60
ATOM     60  C   UNL     1       2.542  26.650  25.312  1.00  0.00     0.121 A 
ATOM     61  C   UNL     1       3.799  26.371  24.810  1.00  0.00     0.144 A 
ATOM     62  N   UNL     1       2.709  27.646  26.204  1.00  0.00    -0.131 NA
ATOM     63  N   UNL     1       4.664  27.198  25.408  1.00  0.00    -0.220 N 
ATOM     64  N   UNL     1       3.974  27.966  26.256  1.00  0.00    -0.062 NA
BRANCH  63  65
ATOM     65  C   UNL     1       6.068  27.356  25.272  1.00  0.00     0.067 A 
ATOM     66  C   UNL     1       6.688  28.557  25.052  1.00  0.00     0.032 A 
ATOM     67  C   UNL     1       6.880  26.227  25.353  1.00  0.00     0.032 A 
ATOM     68  C   UNL     1       8.067  28.640  24.917  1.00  0.00     0.048 A 
ATOM     69  C   UNL     1       8.252  26.309  25.218  1.00  0.00     0.048 A 
ATOM     70  C   UNL     1       8.874  27.519  24.997  1.00  0.00     0.119 A 
BRANCH  70  71
ATOM     71  O   UNL     1      10.272  27.618  24.857  1.00  0.00    -0.497 OA
ATOM     72  C   UNL     1      10.803  28.913  24.541  1.00  0.00     0.278 C 
ENDBRANCH  70  71
ENDBRANCH  63  65
ENDBRANCH  59  60
ENDBRANCH  58  59
ENDBRANCH  55  58
ENDBRANCH  53  54
ENDBRANCH  50  53
ENDBRANCH  47  50
ENDBRANCH   5  47
BRANCH   4  73
ATOM     73  N   UNL     1       3.452  25.660  28.591  1.00  0.00    -0.348 N 
ATOM     74  C   UNL     1       4.345  26.190  29.558  1.00  0.00     0.217 C 
ATOM     75  H   UNL     1       3.180  26.244  27.781  1.00  0.00     0.163 HD
ATOM     76  C   UNL     1       4.844  27.584  29.430  1.00  0.00     0.114 C 
ATOM     77  O   UNL     1       4.747  25.525  30.549  1.00  0.00    -0.275 OA
ENDBRANCH   4  73
TORSDOF 31
