REMARK VINA RESULT:    -5.341     11.620     17.995
REMARK INTER + INTRA:         -21.044
REMARK INTER:                 -13.728
REMARK INTRA:                  -7.316
REMARK UNBOUND:                -7.585
REMARK SMILES COc1ccc(-n2cc(COC(=O)NC[C@@H](O)C(O)[C@@H]3O[C@@](OC[C@H]4O[C@@H](O[C@H]5[C@H](O)[C@@H](O)[C@H](OCCN=[N+]=[N-])O[C@@H]5CO)[C@H](O)[C@@H](O)[C@H]4O)(C(=O)O)C[C@H](O)[C@H]3NC(C)=O)nn2)cc1
REMARK SMILES IDX 22 1 54 2 55 3 57 4 20 5 21 6 23 7 24 8 25 9 27 10 26 11
REMARK SMILES IDX 45 12 47 13 49 14 28 15 29 16 42 17 41 18 34 19 30 20 32 21
REMARK SMILES IDX 43 22 44 23 35 25 36 26 37 27 38 28 39 29 40 30 31 31 33 33
REMARK SMILES IDX 46 35 48 37 50 39 51 41 52 42 53 43 56 45 18 47 19 48 16 50
REMARK SMILES IDX 17 51 15 53 14 54 12 55 13 57 11 58 10 59 9 60 8 61 62 62
REMARK SMILES IDX 7 63 63 64 6 65 5 66 64 67 4 68 65 69 3 70 2 71 1 72 58 73
REMARK SMILES IDX 59 74 60 76 61 77
REMARK H PARENT 44 24 31 32 33 34 46 36 48 38 50 40 53 44 56 46 19 49 17 52
REMARK H PARENT 14 56 58 75
REMARK Flexibility Score: inf
ROOT
ATOM      1  C   UNL     1      16.201  29.396  20.488  1.00  0.00     0.272 C 
ATOM      2  C   UNL     1      16.503  28.036  19.980  1.00  0.00     0.113 C 
ATOM      3  C   UNL     1      16.705  27.889  18.523  1.00  0.00     0.145 C 
ATOM      4  C   UNL     1      16.003  29.071  17.824  1.00  0.00     0.142 C 
ATOM      5  C   UNL     1      14.762  29.356  18.593  1.00  0.00     0.178 C 
ATOM      6  O   UNL     1      15.146  29.991  19.773  1.00  0.00    -0.332 OA
ENDROOT
BRANCH   1   7
ATOM      7  O   UNL     1      17.086  30.304  20.755  1.00  0.00    -0.338 OA
BRANCH   7   8
ATOM      8  C   UNL     1      17.235  31.572  20.849  1.00  0.00     0.199 C 
BRANCH   8   9
ATOM      9  C   UNL     1      17.270  32.332  22.144  1.00  0.00     0.179 C 
ATOM     10  C   UNL     1      16.099  33.166  23.920  1.00  0.00     0.282 C 
ATOM     11  O   UNL     1      16.084  32.323  22.796  1.00  0.00    -0.341 OA
ATOM     12  C   UNL     1      17.130  32.800  24.939  1.00  0.00     0.202 C 
ATOM     13  C   UNL     1      18.234  31.936  24.458  1.00  0.00     0.179 C 
ATOM     14  C   UNL     1      18.451  31.941  22.999  1.00  0.00     0.177 C 
BRANCH  10  15
ATOM     15  O   UNL     1      14.836  33.092  24.499  1.00  0.00    -0.341 OA
BRANCH  15  16
ATOM     16  C   UNL     1      14.021  32.173  23.897  1.00  0.00     0.184 C 
ATOM     17  C   UNL     1      12.720  32.747  23.469  1.00  0.00     0.178 C 
ATOM     18  O   UNL     1      11.872  31.735  22.943  1.00  0.00    -0.341 OA
ATOM     19  C   UNL     1      11.490  30.953  24.064  1.00  0.00     0.281 C 
ATOM     20  C   UNL     1      13.771  31.031  24.899  1.00  0.00     0.180 C 
ATOM     21  C   UNL     1      12.728  30.098  24.345  1.00  0.00     0.202 C 
BRANCH  17  22
ATOM     22  C   UNL     1      12.891  33.827  22.434  1.00  0.00     0.191 C 
BRANCH  22  23
ATOM     23  O   UNL     1      13.807  33.405  21.486  1.00  0.00    -0.394 OA
ATOM     24  H   UNL     1      14.625  33.950  21.473  1.00  0.00     0.210 HD
ENDBRANCH  22  23
ENDBRANCH  17  22
BRANCH  19  25
ATOM     25  O   UNL     1      10.399  30.202  23.796  1.00  0.00    -0.350 OA
BRANCH  25  26
ATOM     26  C   UNL     1       9.156  30.706  24.017  1.00  0.00     0.169 C 
BRANCH  26  27
ATOM     27  C   UNL     1       8.130  29.787  24.588  1.00  0.00     0.119 C 
BRANCH  27  28
ATOM     28  N   UNL     1       8.471  28.396  24.596  1.00  0.00    -0.092 NA
ATOM     29  N   UNL     1       7.651  27.539  24.906  1.00  0.00     0.001 N 
ATOM     30  N   UNL     1       6.767  26.800  25.351  1.00  0.00    -0.003 NA
ENDBRANCH  27  28
ENDBRANCH  26  27
ENDBRANCH  25  26
ENDBRANCH  19  25
BRANCH  20  31
ATOM     31  O   UNL     1      14.970  30.388  25.146  1.00  0.00    -0.387 OA
ATOM     32  H   UNL     1      14.743  29.450  25.436  1.00  0.00     0.211 HD
ENDBRANCH  20  31
BRANCH  21  33
ATOM     33  O   UNL     1      12.385  29.148  25.280  1.00  0.00    -0.385 OA
ATOM     34  H   UNL     1      11.881  28.402  24.871  1.00  0.00     0.211 HD
ENDBRANCH  21  33
ENDBRANCH  15  16
ENDBRANCH  10  15
BRANCH  12  35
ATOM     35  O   UNL     1      17.725  33.941  25.502  1.00  0.00    -0.385 OA
ATOM     36  H   UNL     1      17.695  33.915  26.484  1.00  0.00     0.211 HD
ENDBRANCH  12  35
BRANCH  13  37
ATOM     37  O   UNL     1      18.113  30.651  25.001  1.00  0.00    -0.387 OA
ATOM     38  H   UNL     1      17.928  30.654  25.963  1.00  0.00     0.211 HD
ENDBRANCH  13  37
BRANCH  14  39
ATOM     39  O   UNL     1      18.976  30.703  22.618  1.00  0.00    -0.387 OA
ATOM     40  H   UNL     1      19.900  30.663  22.972  1.00  0.00     0.211 HD
ENDBRANCH  14  39
ENDBRANCH   8   9
ENDBRANCH   7   8
ENDBRANCH   1   7
BRANCH   1  41
ATOM     41  C   UNL     1      15.479  29.095  21.839  1.00  0.00     0.364 C 
ATOM     42  O   UNL     1      14.303  28.724  21.848  1.00  0.00    -0.246 OA
BRANCH  41  43
ATOM     43  O   UNL     1      16.226  29.269  22.977  1.00  0.00    -0.477 OA
ATOM     44  H   UNL     1      16.162  30.128  23.542  1.00  0.00     0.296 HD
ENDBRANCH  41  43
ENDBRANCH   1  41
BRANCH   3  45
ATOM     45  O   UNL     1      17.987  27.715  18.089  1.00  0.00    -0.391 OA
ATOM     46  H   UNL     1      18.663  27.560  18.786  1.00  0.00     0.211 HD
ENDBRANCH   3  45
BRANCH   5  47
ATOM     47  C   UNL     1      13.825  30.367  17.891  1.00  0.00     0.176 C 
BRANCH  47  48
ATOM     48  O   UNL     1      13.076  29.753  16.935  1.00  0.00    -0.388 OA
ATOM     49  H   UNL     1      12.268  29.365  17.347  1.00  0.00     0.211 HD
ENDBRANCH  47  48
BRANCH  47  50
ATOM     50  C   UNL     1      13.275  31.340  18.802  1.00  0.00     0.165 C 
BRANCH  50  51
ATOM     51  O   UNL     1      12.830  30.842  20.057  1.00  0.00    -0.388 OA
ATOM     52  H   UNL     1      13.271  29.976  20.164  1.00  0.00     0.211 HD
ENDBRANCH  50  51
BRANCH  50  53
ATOM     53  C   UNL     1      12.274  32.356  18.436  1.00  0.00     0.154 C 
BRANCH  53  54
ATOM     54  N   UNL     1      11.842  32.448  17.116  1.00  0.00    -0.319 N 
ATOM     55  C   UNL     1      12.411  33.226  16.096  1.00  0.00     0.407 C 
ATOM     56  H   UNL     1      10.980  31.868  16.829  1.00  0.00     0.167 HD
ATOM     57  O   UNL     1      13.419  33.926  16.285  1.00  0.00    -0.225 OA
BRANCH  55  58
ATOM     58  O   UNL     1      11.821  33.214  14.811  1.00  0.00    -0.443 OA
BRANCH  58  59
ATOM     59  C   UNL     1      12.344  32.309  13.871  1.00  0.00     0.294 C 
BRANCH  59  60
ATOM     60  C   UNL     1      11.412  31.169  13.701  1.00  0.00     0.121 A 
ATOM     61  C   UNL     1      10.746  30.731  12.572  1.00  0.00     0.144 A 
ATOM     62  N   UNL     1      11.068  30.322  14.690  1.00  0.00    -0.131 NA
ATOM     63  N   UNL     1      10.034  29.652  12.918  1.00  0.00    -0.220 N 
ATOM     64  N   UNL     1      10.247  29.423  14.218  1.00  0.00    -0.062 NA
BRANCH  63  65
ATOM     65  C   UNL     1       9.180  28.802  12.168  1.00  0.00     0.067 A 
ATOM     66  C   UNL     1       7.827  28.975  12.059  1.00  0.00     0.032 A 
ATOM     67  C   UNL     1       9.738  27.713  11.501  1.00  0.00     0.032 A 
ATOM     68  C   UNL     1       7.047  28.099  11.317  1.00  0.00     0.048 A 
ATOM     69  C   UNL     1       8.962  26.841  10.762  1.00  0.00     0.048 A 
ATOM     70  C   UNL     1       7.599  27.017  10.655  1.00  0.00     0.119 A 
BRANCH  70  71
ATOM     71  O   UNL     1       6.796  26.135   9.905  1.00  0.00    -0.497 OA
ATOM     72  C   UNL     1       7.472  25.264   8.987  1.00  0.00     0.278 C 
ENDBRANCH  70  71
ENDBRANCH  63  65
ENDBRANCH  59  60
ENDBRANCH  58  59
ENDBRANCH  55  58
ENDBRANCH  53  54
ENDBRANCH  50  53
ENDBRANCH  47  50
ENDBRANCH   5  47
BRANCH   4  73
ATOM     73  N   UNL     1      15.875  28.765  16.427  1.00  0.00    -0.348 N 
ATOM     74  C   UNL     1      16.850  29.191  15.488  1.00  0.00     0.217 C 
ATOM     75  H   UNL     1      15.073  28.198  16.102  1.00  0.00     0.163 HD
ATOM     76  C   UNL     1      16.693  28.862  14.047  1.00  0.00     0.114 C 
ATOM     77  O   UNL     1      17.870  29.851  15.817  1.00  0.00    -0.275 OA
ENDBRANCH   4  73
TORSDOF 31
