REMARK VINA RESULT:    -5.883      3.215      8.108
REMARK INTER + INTRA:         -20.682
REMARK INTER:                 -10.987
REMARK INTRA:                  -9.695
REMARK UNBOUND:                -5.342
REMARK SMILES CC(=O)N[C@@H]1[C@@H](O)C[C@](OC[C@H]2O[C@@H](O[C@H]3[C@H](O)[C@@H](O)[C@H](OCCN=[N+]=[N-])O[C@@H]3CO)[C@H](O)[C@@H](O)[C@H]2O)(C(=O)O)O[C@H]1C(O)[C@H](O)CNC(=O)OCc1cn(CCC(=O)O)nn1
REMARK SMILES IDX 43 1 42 2 9 3 8 4 41 5 6 6 5 7 10 8 11 9 12 10 14 11 13 12
REMARK SMILES IDX 32 13 34 14 36 15 15 16 16 17 29 18 28 19 21 20 17 21 19 22
REMARK SMILES IDX 30 23 31 24 22 26 23 27 24 28 25 29 26 30 27 31 18 32 20 34
REMARK SMILES IDX 33 36 35 38 37 40 38 42 39 43 40 44 7 46 4 48 2 49 1 51 3 52
REMARK SMILES IDX 44 53 45 55 46 56 47 58 48 59 49 60 50 62 51 63 52 64 53 65
REMARK SMILES IDX 54 66 62 67 55 68 61 69 56 70 57 71 58 72 59 73 60 74
REMARK H PARENT 31 25 18 33 20 35 33 37 35 39 37 41 40 45 7 47 4 50 44 54
REMARK H PARENT 46 57 48 61 60 75
REMARK Flexibility Score: inf
ROOT
ATOM      1  C   UNL     1       3.985  21.130  33.303  1.00  0.00     0.176 C 
ENDROOT
BRANCH   1   2
ATOM      2  C   UNL     1       2.516  20.826  33.135  1.00  0.00     0.178 C 
ATOM      3  C   UNL     1       1.014  19.819  31.640  1.00  0.00     0.272 C 
ATOM      4  C   UNL     1       0.177  20.114  32.872  1.00  0.00     0.113 C 
ATOM      5  O   UNL     1       2.138  20.710  31.822  1.00  0.00    -0.332 OA
ATOM      6  C   UNL     1       0.235  21.611  33.239  1.00  0.00     0.145 C 
ATOM      7  C   UNL     1       1.642  21.919  33.735  1.00  0.00     0.142 C 
BRANCH   3   8
ATOM      8  O   UNL     1       0.357  20.172  30.519  1.00  0.00    -0.338 OA
BRANCH   8   9
ATOM      9  C   UNL     1       0.822  20.393  29.321  1.00  0.00     0.199 C 
BRANCH   9  10
ATOM     10  C   UNL     1       1.024  21.692  28.669  1.00  0.00     0.179 C 
ATOM     11  C   UNL     1       1.345  23.962  28.802  1.00  0.00     0.282 C 
ATOM     12  O   UNL     1       1.025  22.809  29.458  1.00  0.00    -0.341 OA
ATOM     13  C   UNL     1       1.607  23.830  27.328  1.00  0.00     0.202 C 
ATOM     14  C   UNL     1       2.523  22.662  27.016  1.00  0.00     0.179 C 
ATOM     15  C   UNL     1       2.500  21.637  28.126  1.00  0.00     0.177 C 
BRANCH  11  16
ATOM     16  O   UNL     1       2.448  24.624  29.340  1.00  0.00    -0.341 OA
BRANCH  16  17
ATOM     17  C   UNL     1       2.332  24.875  30.705  1.00  0.00     0.184 C 
ATOM     18  C   UNL     1       1.534  26.117  30.895  1.00  0.00     0.178 C 
ATOM     19  O   UNL     1       2.266  27.186  31.439  1.00  0.00    -0.341 OA
ATOM     20  C   UNL     1       3.400  27.304  30.610  1.00  0.00     0.281 C 
ATOM     21  C   UNL     1       3.720  24.936  31.269  1.00  0.00     0.180 C 
ATOM     22  C   UNL     1       4.380  26.270  31.114  1.00  0.00     0.202 C 
BRANCH  18  23
ATOM     23  C   UNL     1       0.331  25.872  31.793  1.00  0.00     0.191 C 
BRANCH  23  24
ATOM     24  O   UNL     1       0.717  25.181  32.938  1.00  0.00    -0.394 OA
ATOM     25  H   UNL     1       0.640  24.215  32.759  1.00  0.00     0.210 HD
ENDBRANCH  23  24
ENDBRANCH  18  23
BRANCH  20  26
ATOM     26  O   UNL     1       3.922  28.576  30.631  1.00  0.00    -0.350 OA
BRANCH  26  27
ATOM     27  C   UNL     1       4.043  29.045  29.326  1.00  0.00     0.169 C 
BRANCH  27  28
ATOM     28  C   UNL     1       3.044  28.315  28.437  1.00  0.00     0.119 C 
BRANCH  28  29
ATOM     29  N   UNL     1       3.710  28.096  27.169  1.00  0.00    -0.092 NA
ATOM     30  N   UNL     1       4.074  26.956  26.887  1.00  0.00     0.001 N 
ATOM     31  N   UNL     1       4.453  25.910  26.318  1.00  0.00    -0.003 NA
ENDBRANCH  28  29
ENDBRANCH  27  28
ENDBRANCH  26  27
ENDBRANCH  20  26
BRANCH  21  32
ATOM     32  O   UNL     1       3.631  24.642  32.626  1.00  0.00    -0.387 OA
ATOM     33  H   UNL     1       3.864  23.702  32.754  1.00  0.00     0.211 HD
ENDBRANCH  21  32
BRANCH  22  34
ATOM     34  O   UNL     1       5.494  26.184  30.277  1.00  0.00    -0.385 OA
ATOM     35  H   UNL     1       6.333  26.261  30.811  1.00  0.00     0.211 HD
ENDBRANCH  22  34
ENDBRANCH  16  17
ENDBRANCH  11  16
BRANCH  13  36
ATOM     36  O   UNL     1       0.435  23.794  26.558  1.00  0.00    -0.385 OA
ATOM     37  H   UNL     1      -0.339  23.904  27.134  1.00  0.00     0.211 HD
ENDBRANCH  13  36
BRANCH  14  38
ATOM     38  O   UNL     1       3.790  23.109  26.718  1.00  0.00    -0.387 OA
ATOM     39  H   UNL     1       3.897  24.052  26.954  1.00  0.00     0.211 HD
ENDBRANCH  14  38
BRANCH  15  40
ATOM     40  O   UNL     1       3.292  21.988  29.192  1.00  0.00    -0.387 OA
ATOM     41  H   UNL     1       4.246  21.760  29.097  1.00  0.00     0.211 HD
ENDBRANCH  15  40
ENDBRANCH   9  10
ENDBRANCH   8   9
ENDBRANCH   3   8
BRANCH   3  42
ATOM     42  C   UNL     1       1.582  18.468  31.613  1.00  0.00     0.364 C 
ATOM     43  O   UNL     1       0.902  17.491  32.013  1.00  0.00    -0.246 OA
BRANCH  42  44
ATOM     44  O   UNL     1       2.854  18.234  31.157  1.00  0.00    -0.477 OA
ATOM     45  H   UNL     1       3.683  18.217  31.717  1.00  0.00     0.296 HD
ENDBRANCH  42  44
ENDBRANCH   3  42
BRANCH   6  46
ATOM     46  O   UNL     1       0.017  22.320  32.078  1.00  0.00    -0.391 OA
ATOM     47  H   UNL     1      -0.789  22.898  32.217  1.00  0.00     0.211 HD
ENDBRANCH   6  46
BRANCH   7  48
ATOM     48  N   UNL     1       1.685  21.927  35.161  1.00  0.00    -0.348 N 
ATOM     49  C   UNL     1       2.076  23.110  35.842  1.00  0.00     0.217 C 
ATOM     50  H   UNL     1       1.441  21.094  35.739  1.00  0.00     0.163 HD
ATOM     51  C   UNL     1       2.151  23.204  37.320  1.00  0.00     0.114 C 
ATOM     52  O   UNL     1       2.385  24.156  35.200  1.00  0.00    -0.275 OA
ENDBRANCH   7  48
ENDBRANCH   1   2
BRANCH   1  53
ATOM     53  O   UNL     1       4.604  19.997  33.832  1.00  0.00    -0.388 OA
ATOM     54  H   UNL     1       5.423  20.227  34.314  1.00  0.00     0.211 HD
ENDBRANCH   1  53
BRANCH   1  55
ATOM     55  C   UNL     1       4.693  21.517  32.043  1.00  0.00     0.165 C 
BRANCH  55  56
ATOM     56  O   UNL     1       4.786  20.390  31.220  1.00  0.00    -0.388 OA
ATOM     57  H   UNL     1       4.532  19.595  31.747  1.00  0.00     0.211 HD
ENDBRANCH  55  56
BRANCH  55  58
ATOM     58  C   UNL     1       6.121  21.904  32.442  1.00  0.00     0.154 C 
BRANCH  58  59
ATOM     59  N   UNL     1       6.112  22.834  33.538  1.00  0.00    -0.319 N 
ATOM     60  C   UNL     1       7.273  23.431  34.098  1.00  0.00     0.407 C 
ATOM     61  H   UNL     1       5.192  23.126  33.988  1.00  0.00     0.167 HD
ATOM     62  O   UNL     1       8.386  23.123  33.600  1.00  0.00    -0.225 OA
BRANCH  60  63
ATOM     63  O   UNL     1       7.215  24.322  35.155  1.00  0.00    -0.443 OA
BRANCH  63  64
ATOM     64  C   UNL     1       7.777  25.602  35.007  1.00  0.00     0.294 C 
BRANCH  64  65
ATOM     65  C   UNL     1       6.762  26.574  34.560  1.00  0.00     0.120 A 
ATOM     66  C   UNL     1       5.456  26.577  35.033  1.00  0.00     0.138 A 
ATOM     67  N   UNL     1       6.895  27.594  33.677  1.00  0.00    -0.132 NA
ATOM     68  N   UNL     1       4.845  27.612  34.410  1.00  0.00    -0.252 N 
ATOM     69  N   UNL     1       5.726  28.196  33.611  1.00  0.00    -0.067 NA
BRANCH  68  70
ATOM     70  C   UNL     1       3.468  28.025  34.585  1.00  0.00     0.158 C 
BRANCH  70  71
ATOM     71  C   UNL     1       2.837  27.475  35.844  1.00  0.00     0.146 C 
BRANCH  71  72
ATOM     72  C   UNL     1       1.377  27.555  35.698  1.00  0.00     0.305 C 
ATOM     73  O   UNL     1       0.817  28.672  35.682  1.00  0.00    -0.252 OA
BRANCH  72  74
ATOM     74  O   UNL     1       0.587  26.413  35.576  1.00  0.00    -0.481 OA
ATOM     75  H   UNL     1      -0.328  26.319  36.006  1.00  0.00     0.296 HD
ENDBRANCH  72  74
ENDBRANCH  71  72
ENDBRANCH  70  71
ENDBRANCH  68  70
ENDBRANCH  64  65
ENDBRANCH  63  64
ENDBRANCH  60  63
ENDBRANCH  58  59
ENDBRANCH  55  58
ENDBRANCH   1  55
TORSDOF 33
