REMARK VINA RESULT:    -5.792      5.849      8.715
REMARK INTER + INTRA:         -21.401
REMARK INTER:                 -15.897
REMARK INTRA:                  -5.503
REMARK UNBOUND:                -7.145
REMARK SMILES CC(=O)N[C@@H]1[C@@H](O)C[C@](OC[C@H]2O[C@@H](O[C@H]3[C@H](O)[C@@H](O)[C@H](OCCN=[N+]=[N-])O[C@@H]3CO)[C@H](O)[C@@H](O)[C@H]2O)(C(=O)O)O[C@H]1C(O)[C@H](O)CNC(=O)OCc1cn(-c2ccccc2Br)nn1
REMARK SMILES IDX 9 1 8 2 6 3 5 4 42 5 41 6 10 7 11 8 12 9 14 10 13 11 32 12
REMARK SMILES IDX 34 13 36 14 15 15 16 16 29 17 28 18 21 19 17 20 19 21 30 22
REMARK SMILES IDX 31 23 22 25 23 26 24 27 25 28 26 29 27 30 18 31 20 33 33 35
REMARK SMILES IDX 35 37 37 39 38 41 39 42 40 43 7 45 43 47 44 48 45 50 46 51
REMARK SMILES IDX 47 53 48 54 49 55 50 57 51 58 52 59 53 60 54 61 64 62 55 63
REMARK SMILES IDX 63 64 56 65 57 66 61 67 58 68 60 69 62 70 59 71 4 72 2 73
REMARK SMILES IDX 1 75 3 76
REMARK H PARENT 31 24 18 32 20 34 33 36 35 38 37 40 40 44 7 46 44 49 46 52
REMARK H PARENT 48 56 4 74
REMARK Flexibility Score: inf
ROOT
ATOM      1  C   UNL     1      23.293  24.888  21.116  1.00  0.00     0.272 C 
ATOM      2  C   UNL     1      22.147  24.232  21.790  1.00  0.00     0.113 C 
ATOM      3  C   UNL     1      21.655  25.024  22.957  1.00  0.00     0.145 C 
ATOM      4  C   UNL     1      21.522  26.488  22.736  1.00  0.00     0.142 C 
ATOM      5  C   UNL     1      22.199  26.936  21.488  1.00  0.00     0.178 C 
ATOM      6  O   UNL     1      23.311  26.266  21.104  1.00  0.00    -0.332 OA
ENDROOT
BRANCH   1   7
ATOM      7  O   UNL     1      23.488  24.535  19.793  1.00  0.00    -0.338 OA
BRANCH   7   8
ATOM      8  C   UNL     1      24.726  24.706  19.274  1.00  0.00     0.199 C 
BRANCH   8   9
ATOM      9  C   UNL     1      24.541  25.254  17.837  1.00  0.00     0.179 C 
ATOM     10  C   UNL     1      24.860  24.509  15.673  1.00  0.00     0.282 C 
ATOM     11  O   UNL     1      25.336  24.632  16.951  1.00  0.00    -0.341 OA
ATOM     12  C   UNL     1      24.107  25.734  15.204  1.00  0.00     0.202 C 
ATOM     13  C   UNL     1      22.976  26.069  16.153  1.00  0.00     0.179 C 
ATOM     14  C   UNL     1      23.116  25.307  17.457  1.00  0.00     0.177 C 
BRANCH  10  15
ATOM     15  O   UNL     1      24.144  23.338  15.470  1.00  0.00    -0.341 OA
BRANCH  15  16
ATOM     16  C   UNL     1      24.547  22.603  14.380  1.00  0.00     0.184 C 
ATOM     17  C   UNL     1      23.419  22.134  13.495  1.00  0.00     0.178 C 
ATOM     18  O   UNL     1      23.989  21.796  12.278  1.00  0.00    -0.341 OA
ATOM     19  C   UNL     1      24.951  20.838  12.332  1.00  0.00     0.281 C 
ATOM     20  C   UNL     1      25.248  21.319  14.812  1.00  0.00     0.180 C 
ATOM     21  C   UNL     1      25.485  20.451  13.647  1.00  0.00     0.202 C 
BRANCH  17  22
ATOM     22  C   UNL     1      22.339  23.140  13.276  1.00  0.00     0.191 C 
BRANCH  22  23
ATOM     23  O   UNL     1      21.601  23.278  14.449  1.00  0.00    -0.394 OA
ATOM     24  H   UNL     1      20.654  23.156  14.260  1.00  0.00     0.210 HD
ENDBRANCH  22  23
ENDBRANCH  17  22
BRANCH  19  25
ATOM     25  O   UNL     1      26.022  21.309  11.537  1.00  0.00    -0.350 OA
BRANCH  25  26
ATOM     26  C   UNL     1      27.060  20.425  11.441  1.00  0.00     0.169 C 
BRANCH  26  27
ATOM     27  C   UNL     1      27.726  20.354  10.102  1.00  0.00     0.119 C 
BRANCH  27  28
ATOM     28  N   UNL     1      29.151  20.179  10.340  1.00  0.00    -0.092 NA
ATOM     29  N   UNL     1      29.554  19.197  10.948  1.00  0.00     0.001 N 
ATOM     30  N   UNL     1      29.986  18.189  11.492  1.00  0.00    -0.003 NA
ENDBRANCH  27  28
ENDBRANCH  26  27
ENDBRANCH  25  26
ENDBRANCH  19  25
BRANCH  20  31
ATOM     31  O   UNL     1      26.444  21.585  15.459  1.00  0.00    -0.387 OA
ATOM     32  H   UNL     1      26.327  22.056  16.317  1.00  0.00     0.211 HD
ENDBRANCH  20  31
BRANCH  21  33
ATOM     33  O   UNL     1      25.018  19.157  14.024  1.00  0.00    -0.385 OA
ATOM     34  H   UNL     1      25.507  18.452  13.540  1.00  0.00     0.211 HD
ENDBRANCH  21  33
ENDBRANCH  15  16
ENDBRANCH  10  15
BRANCH  12  35
ATOM     35  O   UNL     1      24.965  26.816  15.001  1.00  0.00    -0.385 OA
ATOM     36  H   UNL     1      25.409  26.767  14.120  1.00  0.00     0.211 HD
ENDBRANCH  12  35
BRANCH  13  37
ATOM     37  O   UNL     1      21.749  25.891  15.546  1.00  0.00    -0.387 OA
ATOM     38  H   UNL     1      21.835  25.911  14.571  1.00  0.00     0.211 HD
ENDBRANCH  13  37
BRANCH  14  39
ATOM     39  O   UNL     1      22.522  24.068  17.290  1.00  0.00    -0.387 OA
ATOM     40  H   UNL     1      21.585  24.043  17.605  1.00  0.00     0.211 HD
ENDBRANCH  14  39
ENDBRANCH   8   9
ENDBRANCH   7   8
ENDBRANCH   1   7
BRANCH   1  41
ATOM     41  C   UNL     1      24.516  24.521  21.936  1.00  0.00     0.364 C 
ATOM     42  O   UNL     1      25.234  25.469  22.322  1.00  0.00    -0.246 OA
BRANCH  41  43
ATOM     43  O   UNL     1      24.855  23.241  22.259  1.00  0.00    -0.477 OA
ATOM     44  H   UNL     1      24.210  22.464  22.050  1.00  0.00     0.296 HD
ENDBRANCH  41  43
ENDBRANCH   1  41
BRANCH   3  45
ATOM     45  O   UNL     1      20.428  24.463  23.381  1.00  0.00    -0.391 OA
ATOM     46  H   UNL     1      20.644  23.745  24.038  1.00  0.00     0.211 HD
ENDBRANCH   3  45
BRANCH   5  47
ATOM     47  C   UNL     1      21.193  27.205  20.370  1.00  0.00     0.176 C 
BRANCH  47  48
ATOM     48  O   UNL     1      21.757  27.222  19.120  1.00  0.00    -0.388 OA
ATOM     49  H   UNL     1      22.697  26.876  19.134  1.00  0.00     0.211 HD
ENDBRANCH  47  48
BRANCH  47  50
ATOM     50  C   UNL     1      20.479  28.551  20.581  1.00  0.00     0.165 C 
BRANCH  50  51
ATOM     51  O   UNL     1      19.137  28.296  20.707  1.00  0.00    -0.388 OA
ATOM     52  H   UNL     1      18.528  29.030  20.518  1.00  0.00     0.211 HD
ENDBRANCH  50  51
BRANCH  50  53
ATOM     53  C   UNL     1      20.758  29.471  19.438  1.00  0.00     0.154 C 
BRANCH  53  54
ATOM     54  N   UNL     1      19.609  29.695  18.629  1.00  0.00    -0.319 N 
ATOM     55  C   UNL     1      19.193  28.962  17.497  1.00  0.00     0.407 C 
ATOM     56  H   UNL     1      18.970  30.511  18.892  1.00  0.00     0.167 HD
ATOM     57  O   UNL     1      19.839  27.988  17.102  1.00  0.00    -0.225 OA
BRANCH  55  58
ATOM     58  O   UNL     1      18.040  29.326  16.801  1.00  0.00    -0.443 OA
BRANCH  58  59
ATOM     59  C   UNL     1      16.806  28.657  16.893  1.00  0.00     0.294 C 
BRANCH  59  60
ATOM     60  C   UNL     1      16.416  28.444  18.325  1.00  0.00     0.121 A 
ATOM     61  C   UNL     1      15.559  29.278  19.043  1.00  0.00     0.144 A 
ATOM     62  N   UNL     1      16.785  27.490  19.165  1.00  0.00    -0.131 NA
ATOM     63  N   UNL     1      15.461  28.776  20.282  1.00  0.00    -0.219 N 
ATOM     64  N   UNL     1      16.202  27.697  20.351  1.00  0.00    -0.062 NA
BRANCH  63  65
ATOM     65  C   UNL     1      14.695  29.308  21.349  1.00  0.00     0.081 A 
ATOM     66  C   UNL     1      13.363  28.999  21.507  1.00  0.00     0.029 A 
ATOM     67  C   UNL     1      15.275  30.151  22.258  1.00  0.00     0.043 A 
ATOM     68  C   UNL     1      12.642  29.540  22.569  1.00  0.00     0.002 A 
ATOM     69  C   UNL     1      14.570  30.689  23.308  1.00  0.00     0.018 A 
ATOM     70  Br  UNL     1      17.116  30.607  22.073  1.00  0.00    -0.048 Br
ATOM     71  C   UNL     1      13.240  30.388  23.477  1.00  0.00     0.001 A 
ENDBRANCH  63  65
ENDBRANCH  59  60
ENDBRANCH  58  59
ENDBRANCH  55  58
ENDBRANCH  53  54
ENDBRANCH  50  53
ENDBRANCH  47  50
ENDBRANCH   5  47
BRANCH   4  72
ATOM     72  N   UNL     1      21.972  27.277  23.861  1.00  0.00    -0.348 N 
ATOM     73  C   UNL     1      21.130  27.519  24.974  1.00  0.00     0.217 C 
ATOM     74  H   UNL     1      22.928  27.681  23.867  1.00  0.00     0.163 HD
ATOM     75  C   UNL     1      21.675  28.345  26.093  1.00  0.00     0.114 C 
ATOM     76  O   UNL     1      19.970  27.069  25.040  1.00  0.00    -0.275 OA
ENDBRANCH   4  72
TORSDOF 30
