REMARK VINA RESULT:    -6.585      3.630      6.537
REMARK INTER + INTRA:         -21.344
REMARK INTER:                 -14.712
REMARK INTRA:                  -6.632
REMARK UNBOUND:                -4.749
REMARK SMILES CC(=O)N[C@@H]1[C@@H](O)C[C@](OC[C@H]2O[C@@H](O[C@H]3[C@H](O)[C@@H](O)[C@H](OCCN=[N+]=[N-])O[C@@H]3CO)[C@H](O)[C@@H](O)[C@H]2O)(C(=O)O)O[C@H]1C(O)[C@H](O)CNC(=O)OCc1cn(-c2ccccc2C(C)=O)nn1
REMARK SMILES IDX 9 1 8 2 6 3 5 4 42 5 41 6 10 7 11 8 12 9 14 10 13 11 32 12
REMARK SMILES IDX 34 13 36 14 15 15 16 16 29 17 28 18 21 19 17 20 19 21 30 22
REMARK SMILES IDX 31 23 22 25 23 26 24 27 25 28 26 29 27 30 18 31 20 33 33 35
REMARK SMILES IDX 35 37 37 39 38 41 39 42 40 43 7 45 43 47 44 48 45 50 46 51
REMARK SMILES IDX 47 53 48 54 49 55 50 57 51 58 52 59 53 60 54 61 66 62 55 63
REMARK SMILES IDX 65 64 56 65 61 66 57 67 60 68 58 69 59 70 62 71 64 72 63 73
REMARK SMILES IDX 4 74 2 75 1 77 3 78
REMARK H PARENT 31 24 18 32 20 34 33 36 35 38 37 40 40 44 7 46 44 49 46 52
REMARK H PARENT 48 56 4 76
REMARK Flexibility Score: inf
ROOT
ATOM      1  C   UNL     1      19.733  32.071  21.373  1.00  0.00     0.272 C 
ATOM      2  C   UNL     1      19.232  32.478  20.018  1.00  0.00     0.113 C 
ATOM      3  C   UNL     1      20.238  32.024  18.992  1.00  0.00     0.145 C 
ATOM      4  C   UNL     1      20.167  30.507  19.034  1.00  0.00     0.142 C 
ATOM      5  C   UNL     1      20.685  30.124  20.394  1.00  0.00     0.178 C 
ATOM      6  O   UNL     1      20.748  31.089  21.328  1.00  0.00    -0.332 OA
ENDROOT
BRANCH   1   7
ATOM      7  O   UNL     1      18.858  31.662  22.256  1.00  0.00    -0.338 OA
BRANCH   7   8
ATOM      8  C   UNL     1      18.017  32.244  23.052  1.00  0.00     0.199 C 
BRANCH   8   9
ATOM      9  C   UNL     1      16.595  31.876  23.247  1.00  0.00     0.179 C 
ATOM     10  C   UNL     1      14.717  31.335  22.008  1.00  0.00     0.282 C 
ATOM     11  O   UNL     1      16.086  31.528  21.957  1.00  0.00    -0.341 OA
ATOM     12  C   UNL     1      14.122  31.189  23.357  1.00  0.00     0.202 C 
ATOM     13  C   UNL     1      14.966  30.499  24.383  1.00  0.00     0.179 C 
ATOM     14  C   UNL     1      16.430  30.548  24.023  1.00  0.00     0.177 C 
BRANCH  10  15
ATOM     15  O   UNL     1      14.381  30.230  21.227  1.00  0.00    -0.341 OA
BRANCH  15  16
ATOM     16  C   UNL     1      15.143  30.166  20.063  1.00  0.00     0.184 C 
ATOM     17  C   UNL     1      14.268  30.594  18.911  1.00  0.00     0.178 C 
ATOM     18  O   UNL     1      14.075  29.631  17.955  1.00  0.00    -0.341 OA
ATOM     19  C   UNL     1      15.210  29.053  17.442  1.00  0.00     0.281 C 
ATOM     20  C   UNL     1      15.455  28.677  19.855  1.00  0.00     0.180 C 
ATOM     21  C   UNL     1      16.141  28.546  18.533  1.00  0.00     0.202 C 
BRANCH  17  22
ATOM     22  C   UNL     1      14.837  31.879  18.338  1.00  0.00     0.191 C 
BRANCH  22  23
ATOM     23  O   UNL     1      16.124  32.043  18.848  1.00  0.00    -0.394 OA
ATOM     24  H   UNL     1      16.246  31.712  19.757  1.00  0.00     0.210 HD
ENDBRANCH  22  23
ENDBRANCH  17  22
BRANCH  19  25
ATOM     25  O   UNL     1      15.885  29.823  16.516  1.00  0.00    -0.350 OA
BRANCH  25  26
ATOM     26  C   UNL     1      15.991  29.117  15.327  1.00  0.00     0.169 C 
BRANCH  26  27
ATOM     27  C   UNL     1      14.921  29.600  14.360  1.00  0.00     0.119 C 
BRANCH  27  28
ATOM     28  N   UNL     1      13.595  29.174  14.826  1.00  0.00    -0.092 NA
ATOM     29  N   UNL     1      12.953  28.466  14.052  1.00  0.00     0.001 N 
ATOM     30  N   UNL     1      12.159  27.861  13.353  1.00  0.00    -0.003 NA
ENDBRANCH  27  28
ENDBRANCH  26  27
ENDBRANCH  25  26
ENDBRANCH  19  25
BRANCH  20  31
ATOM     31  O   UNL     1      16.201  28.214  20.914  1.00  0.00    -0.387 OA
ATOM     32  H   UNL     1      16.880  27.529  20.624  1.00  0.00     0.211 HD
ENDBRANCH  20  31
BRANCH  21  33
ATOM     33  O   UNL     1      16.575  27.242  18.289  1.00  0.00    -0.385 OA
ATOM     34  H   UNL     1      15.819  26.718  17.884  1.00  0.00     0.211 HD
ENDBRANCH  21  33
ENDBRANCH  15  16
ENDBRANCH  10  15
BRANCH  12  35
ATOM     35  O   UNL     1      13.598  32.401  23.832  1.00  0.00    -0.385 OA
ATOM     36  H   UNL     1      14.251  33.140  23.737  1.00  0.00     0.211 HD
ENDBRANCH  12  35
BRANCH  13  37
ATOM     37  O   UNL     1      14.620  29.144  24.520  1.00  0.00    -0.387 OA
ATOM     38  H   UNL     1      13.630  29.118  24.594  1.00  0.00     0.211 HD
ENDBRANCH  13  37
BRANCH  14  39
ATOM     39  O   UNL     1      16.789  29.481  23.192  1.00  0.00    -0.387 OA
ATOM     40  H   UNL     1      17.593  29.000  23.515  1.00  0.00     0.211 HD
ENDBRANCH  14  39
ENDBRANCH   8   9
ENDBRANCH   7   8
ENDBRANCH   1   7
BRANCH   1  41
ATOM     41  C   UNL     1      20.517  33.247  21.846  1.00  0.00     0.364 C 
ATOM     42  O   UNL     1      20.192  34.429  21.478  1.00  0.00    -0.246 OA
BRANCH  41  43
ATOM     43  O   UNL     1      21.612  33.204  22.671  1.00  0.00    -0.477 OA
ATOM     44  H   UNL     1      21.583  32.808  23.601  1.00  0.00     0.296 HD
ENDBRANCH  41  43
ENDBRANCH   1  41
BRANCH   3  45
ATOM     45  O   UNL     1      19.809  32.521  17.764  1.00  0.00    -0.391 OA
ATOM     46  H   UNL     1      19.672  31.790  17.105  1.00  0.00     0.211 HD
ENDBRANCH   3  45
BRANCH   5  47
ATOM     47  C   UNL     1      19.952  28.832  20.882  1.00  0.00     0.176 C 
BRANCH  47  48
ATOM     48  O   UNL     1      19.735  29.102  22.287  1.00  0.00    -0.388 OA
ATOM     49  H   UNL     1      19.170  29.934  22.249  1.00  0.00     0.211 HD
ENDBRANCH  47  48
BRANCH  47  50
ATOM     50  C   UNL     1      20.832  27.657  20.815  1.00  0.00     0.165 C 
BRANCH  50  51
ATOM     51  O   UNL     1      20.600  26.760  21.888  1.00  0.00    -0.388 OA
ATOM     52  H   UNL     1      20.568  27.235  22.746  1.00  0.00     0.211 HD
ENDBRANCH  50  51
BRANCH  50  53
ATOM     53  C   UNL     1      22.202  27.713  20.309  1.00  0.00     0.154 C 
BRANCH  53  54
ATOM     54  N   UNL     1      23.031  26.593  20.562  1.00  0.00    -0.319 N 
ATOM     55  C   UNL     1      23.069  25.356  19.880  1.00  0.00     0.407 C 
ATOM     56  H   UNL     1      23.737  26.655  21.368  1.00  0.00     0.167 HD
ATOM     57  O   UNL     1      22.271  25.172  18.933  1.00  0.00    -0.225 OA
BRANCH  55  58
ATOM     58  O   UNL     1      23.940  24.322  20.193  1.00  0.00    -0.443 OA
BRANCH  58  59
ATOM     59  C   UNL     1      24.591  24.284  21.436  1.00  0.00     0.294 C 
BRANCH  59  60
ATOM     60  C   UNL     1      23.542  24.477  22.495  1.00  0.00     0.121 A 
ATOM     61  C   UNL     1      23.721  24.980  23.762  1.00  0.00     0.144 A 
ATOM     62  N   UNL     1      22.233  24.197  22.422  1.00  0.00    -0.131 NA
ATOM     63  N   UNL     1      22.507  24.980  24.403  1.00  0.00    -0.220 N 
ATOM     64  N   UNL     1      21.631  24.495  23.550  1.00  0.00    -0.062 NA
BRANCH  63  65
ATOM     65  C   UNL     1      22.322  25.397  25.750  1.00  0.00     0.077 A 
ATOM     66  C   UNL     1      21.789  26.568  26.155  1.00  0.00     0.043 A 
ATOM     67  C   UNL     1      22.742  24.469  26.723  1.00  0.00     0.029 A 
ATOM     68  C   UNL     1      21.682  26.799  27.542  1.00  0.00     0.014 A 
ATOM     69  C   UNL     1      22.625  24.722  28.072  1.00  0.00     0.002 A 
ATOM     70  C   UNL     1      22.084  25.910  28.498  1.00  0.00     0.001 A 
BRANCH  66  71
ATOM     71  C   UNL     1      21.336  27.579  25.229  1.00  0.00     0.161 C 
ATOM     72  O   UNL     1      20.102  27.473  24.868  1.00  0.00    -0.294 OA
ATOM     73  C   UNL     1      22.082  28.699  24.651  1.00  0.00     0.093 C 
ENDBRANCH  66  71
ENDBRANCH  63  65
ENDBRANCH  59  60
ENDBRANCH  58  59
ENDBRANCH  55  58
ENDBRANCH  53  54
ENDBRANCH  50  53
ENDBRANCH  47  50
ENDBRANCH   5  47
BRANCH   4  74
ATOM     74  N   UNL     1      20.891  29.897  17.959  1.00  0.00    -0.348 N 
ATOM     75  C   UNL     1      20.415  28.784  17.223  1.00  0.00     0.217 C 
ATOM     76  H   UNL     1      21.828  30.317  17.720  1.00  0.00     0.163 HD
ATOM     77  C   UNL     1      21.259  28.223  16.111  1.00  0.00     0.114 C 
ATOM     78  O   UNL     1      19.301  28.314  17.534  1.00  0.00    -0.275 OA
ENDBRANCH   4  74
TORSDOF 31
