REMARK VINA RESULT:    -5.656      9.298     12.623
REMARK INTER + INTRA:         -21.341
REMARK INTER:                 -15.527
REMARK INTRA:                  -5.813
REMARK UNBOUND:                -7.419
REMARK SMILES CC(=O)N[C@@H]1[C@@H](O)C[C@](OC[C@H]2O[C@@H](O[C@H]3[C@H](O)[C@@H](O)[C@H](OCCN=[N+]=[N-])O[C@@H]3CO)[C@H](O)[C@@H](O)[C@H]2O)(C(=O)O)O[C@H]1C(O)[C@H](O)CNC(=O)OCc1cn(-c2ccc(C)cc2)nn1
REMARK SMILES IDX 9 1 8 2 6 3 5 4 42 5 41 6 10 7 11 8 12 9 14 10 13 11 32 12
REMARK SMILES IDX 34 13 36 14 15 15 16 16 29 17 28 18 21 19 17 20 19 21 30 22
REMARK SMILES IDX 31 23 22 25 23 26 24 27 25 28 26 29 27 30 18 31 20 33 33 35
REMARK SMILES IDX 35 37 37 39 38 41 39 42 40 43 7 45 43 47 44 48 45 50 46 51
REMARK SMILES IDX 47 53 48 54 49 55 50 57 51 58 52 59 53 60 54 61 64 62 55 63
REMARK SMILES IDX 63 64 56 65 57 66 62 67 58 68 61 69 59 70 60 71 4 72 2 73
REMARK SMILES IDX 1 75 3 76
REMARK H PARENT 31 24 18 32 20 34 33 36 35 38 37 40 40 44 7 46 44 49 46 52
REMARK H PARENT 48 56 4 74
REMARK Flexibility Score: inf
ROOT
ATOM      1  C   UNL     1      13.022  30.586  16.014  1.00  0.00     0.272 C 
ATOM      2  C   UNL     1      12.271  29.347  15.539  1.00  0.00     0.113 C 
ATOM      3  C   UNL     1      12.131  29.316  14.065  1.00  0.00     0.145 C 
ATOM      4  C   UNL     1      13.249  29.932  13.300  1.00  0.00     0.142 C 
ATOM      5  C   UNL     1      14.459  30.369  14.119  1.00  0.00     0.178 C 
ATOM      6  O   UNL     1      14.094  30.880  15.318  1.00  0.00    -0.332 OA
ENDROOT
BRANCH   1   7
ATOM      7  O   UNL     1      13.450  30.234  17.332  1.00  0.00    -0.338 OA
BRANCH   7   8
ATOM      8  C   UNL     1      14.298  31.241  17.797  1.00  0.00     0.199 C 
BRANCH   8   9
ATOM      9  C   UNL     1      15.084  30.820  18.981  1.00  0.00     0.179 C 
ATOM     10  C   UNL     1      14.951  29.933  21.090  1.00  0.00     0.282 C 
ATOM     11  O   UNL     1      14.281  30.123  19.886  1.00  0.00    -0.341 OA
ATOM     12  C   UNL     1      16.055  28.960  20.918  1.00  0.00     0.202 C 
ATOM     13  C   UNL     1      16.347  28.746  19.459  1.00  0.00     0.179 C 
ATOM     14  C   UNL     1      16.315  30.023  18.646  1.00  0.00     0.177 C 
BRANCH  10  15
ATOM     15  O   UNL     1      14.055  29.456  22.044  1.00  0.00    -0.341 OA
BRANCH  15  16
ATOM     16  C   UNL     1      12.980  30.328  22.216  1.00  0.00     0.184 C 
ATOM     17  C   UNL     1      13.370  31.726  22.607  1.00  0.00     0.178 C 
ATOM     18  O   UNL     1      12.863  32.036  23.874  1.00  0.00    -0.341 OA
ATOM     19  C   UNL     1      13.456  31.214  24.814  1.00  0.00     0.281 C 
ATOM     20  C   UNL     1      12.157  29.745  23.345  1.00  0.00     0.180 C 
ATOM     21  C   UNL     1      13.076  29.766  24.576  1.00  0.00     0.202 C 
BRANCH  17  22
ATOM     22  C   UNL     1      12.700  32.745  21.670  1.00  0.00     0.191 C 
BRANCH  22  23
ATOM     23  O   UNL     1      12.141  32.101  20.569  1.00  0.00    -0.394 OA
ATOM     24  H   UNL     1      12.518  32.548  19.754  1.00  0.00     0.210 HD
ENDBRANCH  22  23
ENDBRANCH  17  22
BRANCH  19  25
ATOM     25  O   UNL     1      13.146  31.578  26.115  1.00  0.00    -0.350 OA
BRANCH  25  26
ATOM     26  C   UNL     1      14.235  31.636  26.948  1.00  0.00     0.169 C 
BRANCH  26  27
ATOM     27  C   UNL     1      15.460  32.274  26.358  1.00  0.00     0.119 C 
BRANCH  27  28
ATOM     28  N   UNL     1      16.577  31.362  26.317  1.00  0.00    -0.092 NA
ATOM     29  N   UNL     1      17.002  30.962  25.247  1.00  0.00     0.001 N 
ATOM     30  N   UNL     1      17.501  30.621  24.174  1.00  0.00    -0.003 NA
ENDBRANCH  27  28
ENDBRANCH  26  27
ENDBRANCH  25  26
ENDBRANCH  19  25
BRANCH  20  31
ATOM     31  O   UNL     1      11.004  30.470  23.605  1.00  0.00    -0.387 OA
ATOM     32  H   UNL     1      10.495  30.518  22.759  1.00  0.00     0.211 HD
ENDBRANCH  20  31
BRANCH  21  33
ATOM     33  O   UNL     1      14.246  29.099  24.160  1.00  0.00    -0.385 OA
ATOM     34  H   UNL     1      15.050  29.422  24.627  1.00  0.00     0.211 HD
ENDBRANCH  21  33
ENDBRANCH  15  16
ENDBRANCH  10  15
BRANCH  12  35
ATOM     35  O   UNL     1      17.220  29.351  21.604  1.00  0.00    -0.385 OA
ATOM     36  H   UNL     1      17.803  28.525  21.593  1.00  0.00     0.211 HD
ENDBRANCH  12  35
BRANCH  13  37
ATOM     37  O   UNL     1      15.538  27.749  18.973  1.00  0.00    -0.387 OA
ATOM     38  H   UNL     1      14.902  28.050  18.249  1.00  0.00     0.211 HD
ENDBRANCH  13  37
BRANCH  14  39
ATOM     39  O   UNL     1      16.266  29.699  17.304  1.00  0.00    -0.387 OA
ATOM     40  H   UNL     1      15.392  29.393  16.985  1.00  0.00     0.211 HD
ENDBRANCH  14  39
ENDBRANCH   8   9
ENDBRANCH   7   8
ENDBRANCH   1   7
BRANCH   1  41
ATOM     41  C   UNL     1      12.002  31.651  16.085  1.00  0.00     0.364 C 
ATOM     42  O   UNL     1      11.080  31.673  16.933  1.00  0.00    -0.246 OA
BRANCH  41  43
ATOM     43  O   UNL     1      12.086  32.696  15.145  1.00  0.00    -0.477 OA
ATOM     44  H   UNL     1      11.881  32.487  14.167  1.00  0.00     0.296 HD
ENDBRANCH  41  43
ENDBRANCH   1  41
BRANCH   3  45
ATOM     45  O   UNL     1      11.822  28.011  13.621  1.00  0.00    -0.391 OA
ATOM     46  H   UNL     1      11.501  28.132  12.670  1.00  0.00     0.211 HD
ENDBRANCH   3  45
BRANCH   5  47
ATOM     47  C   UNL     1      15.422  29.204  14.222  1.00  0.00     0.176 C 
BRANCH  47  48
ATOM     48  O   UNL     1      14.823  27.960  14.088  1.00  0.00    -0.388 OA
ATOM     49  H   UNL     1      15.486  27.392  13.613  1.00  0.00     0.211 HD
ENDBRANCH  47  48
BRANCH  47  50
ATOM     50  C   UNL     1      16.732  29.279  13.594  1.00  0.00     0.165 C 
BRANCH  50  51
ATOM     51  O   UNL     1      17.164  28.121  12.914  1.00  0.00    -0.388 OA
ATOM     52  H   UNL     1      17.026  27.321  13.487  1.00  0.00     0.211 HD
ENDBRANCH  50  51
BRANCH  50  53
ATOM     53  C   UNL     1      17.915  29.840  14.302  1.00  0.00     0.154 C 
BRANCH  53  54
ATOM     54  N   UNL     1      18.334  29.091  15.457  1.00  0.00    -0.319 N 
ATOM     55  C   UNL     1      19.686  28.667  15.611  1.00  0.00     0.407 C 
ATOM     56  H   UNL     1      17.644  28.845  16.204  1.00  0.00     0.167 HD
ATOM     57  O   UNL     1      20.522  28.972  14.725  1.00  0.00    -0.225 OA
BRANCH  55  58
ATOM     58  O   UNL     1      20.053  27.931  16.716  1.00  0.00    -0.443 OA
BRANCH  58  59
ATOM     59  C   UNL     1      21.105  28.268  17.554  1.00  0.00     0.294 C 
BRANCH  59  60
ATOM     60  C   UNL     1      20.775  28.029  18.960  1.00  0.00     0.121 A 
ATOM     61  C   UNL     1      21.543  27.293  19.881  1.00  0.00     0.144 A 
ATOM     62  N   UNL     1      19.719  28.433  19.652  1.00  0.00    -0.131 NA
ATOM     63  N   UNL     1      20.910  27.300  21.054  1.00  0.00    -0.220 N 
ATOM     64  N   UNL     1      19.805  27.997  20.893  1.00  0.00    -0.062 NA
BRANCH  63  65
ATOM     65  C   UNL     1      21.398  26.641  22.236  1.00  0.00     0.066 A 
ATOM     66  C   UNL     1      21.127  25.306  22.441  1.00  0.00     0.029 A 
ATOM     67  C   UNL     1      22.154  27.300  23.183  1.00  0.00     0.029 A 
ATOM     68  C   UNL     1      21.610  24.652  23.578  1.00  0.00     0.005 A 
ATOM     69  C   UNL     1      22.638  26.647  24.322  1.00  0.00     0.005 A 
ATOM     70  C   UNL     1      22.364  25.313  24.521  1.00  0.00    -0.051 A 
ATOM     71  C   UNL     1      22.892  24.610  25.735  1.00  0.00     0.044 C 
ENDBRANCH  63  65
ENDBRANCH  59  60
ENDBRANCH  58  59
ENDBRANCH  55  58
ENDBRANCH  53  54
ENDBRANCH  50  53
ENDBRANCH  47  50
ENDBRANCH   5  47
BRANCH   4  72
ATOM     72  N   UNL     1      12.802  30.961  12.381  1.00  0.00    -0.348 N 
ATOM     73  C   UNL     1      12.322  30.693  11.063  1.00  0.00     0.217 C 
ATOM     74  H   UNL     1      12.821  31.963  12.654  1.00  0.00     0.163 HD
ATOM     75  C   UNL     1      11.882  31.794  10.152  1.00  0.00     0.114 C 
ATOM     76  O   UNL     1      12.299  29.481  10.736  1.00  0.00    -0.275 OA
ENDBRANCH   4  72
TORSDOF 30
