REMARK VINA RESULT:    -5.709      1.393      2.057
REMARK INTER + INTRA:         -22.158
REMARK INTER:                 -16.916
REMARK INTRA:                  -5.242
REMARK UNBOUND:                -7.606
REMARK SMILES CC(=O)N[C@@H]1[C@@H](O)C[C@](OC[C@H]2O[C@@H](O[C@H]3[C@H](O)[C@@H](O)[C@H](OCCN=[N+]=[N-])O[C@@H]3CO)[C@H](O)[C@@H](O)[C@H]2O)(C(=O)O)O[C@H]1C(O)[C@H](O)CNC(=O)OCc1cn(-c2ccc(CO)cn2)nn1
REMARK SMILES IDX 9 1 8 2 6 3 5 4 42 5 41 6 10 7 11 8 12 9 14 10 13 11 32 12
REMARK SMILES IDX 34 13 36 14 15 15 16 16 29 17 28 18 21 19 17 20 19 21 30 22
REMARK SMILES IDX 31 23 22 25 23 26 24 27 25 28 26 29 27 30 18 31 20 33 33 35
REMARK SMILES IDX 35 37 37 39 38 41 39 42 40 43 7 45 43 47 44 48 45 50 46 51
REMARK SMILES IDX 47 53 48 54 49 55 50 57 51 58 52 59 53 60 54 61 65 62 55 63
REMARK SMILES IDX 64 64 56 65 57 66 63 67 58 68 62 69 59 70 60 71 61 72 4 74
REMARK SMILES IDX 2 75 1 77 3 78
REMARK H PARENT 31 24 18 32 20 34 33 36 35 38 37 40 40 44 7 46 44 49 46 52
REMARK H PARENT 48 56 61 73 4 76
REMARK Flexibility Score: inf
ROOT
ATOM      1  C   UNL     1      25.589  25.667  19.738  1.00  0.00     0.272 C 
ATOM      2  C   UNL     1      25.826  24.463  20.572  1.00  0.00     0.113 C 
ATOM      3  C   UNL     1      25.325  24.631  21.979  1.00  0.00     0.145 C 
ATOM      4  C   UNL     1      23.914  25.186  21.966  1.00  0.00     0.142 C 
ATOM      5  C   UNL     1      23.835  26.380  21.107  1.00  0.00     0.178 C 
ATOM      6  O   UNL     1      24.330  26.198  19.863  1.00  0.00    -0.332 OA
ENDROOT
BRANCH   1   7
ATOM      7  O   UNL     1      25.811  25.465  18.387  1.00  0.00    -0.338 OA
BRANCH   7   8
ATOM      8  C   UNL     1      25.412  24.218  17.951  1.00  0.00     0.199 C 
BRANCH   8   9
ATOM      9  C   UNL     1      24.668  24.351  16.656  1.00  0.00     0.179 C 
ATOM     10  C   UNL     1      24.031  23.185  14.827  1.00  0.00     0.282 C 
ATOM     11  O   UNL     1      24.116  23.123  16.242  1.00  0.00    -0.341 OA
ATOM     12  C   UNL     1      23.354  24.427  14.414  1.00  0.00     0.202 C 
ATOM     13  C   UNL     1      22.637  25.189  15.516  1.00  0.00     0.179 C 
ATOM     14  C   UNL     1      23.532  25.316  16.745  1.00  0.00     0.177 C 
BRANCH  10  15
ATOM     15  O   UNL     1      23.450  22.005  14.350  1.00  0.00    -0.341 OA
BRANCH  15  16
ATOM     16  C   UNL     1      23.703  21.791  13.013  1.00  0.00     0.184 C 
ATOM     17  C   UNL     1      22.500  21.734  12.125  1.00  0.00     0.178 C 
ATOM     18  O   UNL     1      22.258  20.470  11.594  1.00  0.00    -0.341 OA
ATOM     19  C   UNL     1      22.113  19.497  12.551  1.00  0.00     0.281 C 
ATOM     20  C   UNL     1      24.386  20.413  12.925  1.00  0.00     0.180 C 
ATOM     21  C   UNL     1      23.335  19.441  13.480  1.00  0.00     0.202 C 
BRANCH  17  22
ATOM     22  C   UNL     1      22.807  22.618  10.901  1.00  0.00     0.191 C 
BRANCH  22  23
ATOM     23  O   UNL     1      23.216  21.812   9.828  1.00  0.00    -0.394 OA
ATOM     24  H   UNL     1      23.636  20.964  10.166  1.00  0.00     0.210 HD
ENDBRANCH  22  23
ENDBRANCH  17  22
BRANCH  19  25
ATOM     25  O   UNL     1      21.981  18.268  11.910  1.00  0.00    -0.350 OA
BRANCH  25  26
ATOM     26  C   UNL     1      22.070  18.353  10.545  1.00  0.00     0.169 C 
BRANCH  26  27
ATOM     27  C   UNL     1      20.918  17.556   9.946  1.00  0.00     0.119 C 
BRANCH  27  28
ATOM     28  N   UNL     1      19.706  18.363   9.920  1.00  0.00    -0.092 NA
ATOM     29  N   UNL     1      18.856  18.339  10.795  1.00  0.00     0.001 N 
ATOM     30  N   UNL     1      18.177  18.668  11.768  1.00  0.00    -0.003 NA
ENDBRANCH  27  28
ENDBRANCH  26  27
ENDBRANCH  25  26
ENDBRANCH  19  25
BRANCH  20  31
ATOM     31  O   UNL     1      24.797  20.100  11.659  1.00  0.00    -0.387 OA
ATOM     32  H   UNL     1      25.014  19.157  11.609  1.00  0.00     0.211 HD
ENDBRANCH  20  31
BRANCH  21  33
ATOM     33  O   UNL     1      22.994  19.920  14.742  1.00  0.00    -0.385 OA
ATOM     34  H   UNL     1      22.012  19.835  14.836  1.00  0.00     0.211 HD
ENDBRANCH  21  33
ENDBRANCH  15  16
ENDBRANCH  10  15
BRANCH  12  35
ATOM     35  O   UNL     1      24.309  25.300  13.840  1.00  0.00    -0.385 OA
ATOM     36  H   UNL     1      23.921  25.817  13.088  1.00  0.00     0.211 HD
ENDBRANCH  12  35
BRANCH  13  37
ATOM     37  O   UNL     1      21.398  24.645  15.807  1.00  0.00    -0.387 OA
ATOM     38  H   UNL     1      20.650  25.230  15.615  1.00  0.00     0.211 HD
ENDBRANCH  13  37
BRANCH  14  39
ATOM     39  O   UNL     1      22.746  25.087  17.853  1.00  0.00    -0.387 OA
ATOM     40  H   UNL     1      22.649  25.914  18.363  1.00  0.00     0.211 HD
ENDBRANCH  14  39
ENDBRANCH   8   9
ENDBRANCH   7   8
ENDBRANCH   1   7
BRANCH   1  41
ATOM     41  C   UNL     1      26.525  26.795  20.120  1.00  0.00     0.364 C 
ATOM     42  O   UNL     1      26.279  28.000  19.872  1.00  0.00    -0.246 OA
BRANCH  41  43
ATOM     43  O   UNL     1      27.713  26.527  20.769  1.00  0.00    -0.477 OA
ATOM     44  H   UNL     1      27.920  26.990  21.663  1.00  0.00     0.296 HD
ENDBRANCH  41  43
ENDBRANCH   1  41
BRANCH   3  45
ATOM     45  O   UNL     1      25.221  23.334  22.519  1.00  0.00    -0.391 OA
ATOM     46  H   UNL     1      24.513  23.245  23.182  1.00  0.00     0.211 HD
ENDBRANCH   3  45
BRANCH   5  47
ATOM     47  C   UNL     1      22.446  26.988  21.039  1.00  0.00     0.176 C 
BRANCH  47  48
ATOM     48  O   UNL     1      21.518  25.999  20.719  1.00  0.00    -0.388 OA
ATOM     49  H   UNL     1      20.819  25.940  21.410  1.00  0.00     0.211 HD
ENDBRANCH  47  48
BRANCH  47  50
ATOM     50  C   UNL     1      22.284  28.108  20.083  1.00  0.00     0.165 C 
BRANCH  50  51
ATOM     51  O   UNL     1      23.362  29.004  20.099  1.00  0.00    -0.388 OA
ATOM     52  H   UNL     1      23.171  29.850  19.667  1.00  0.00     0.211 HD
ENDBRANCH  50  51
BRANCH  50  53
ATOM     53  C   UNL     1      20.976  28.844  20.140  1.00  0.00     0.154 C 
BRANCH  53  54
ATOM     54  N   UNL     1      20.094  28.411  19.089  1.00  0.00    -0.319 N 
ATOM     55  C   UNL     1      19.960  29.183  17.911  1.00  0.00     0.407 C 
ATOM     56  H   UNL     1      19.538  27.501  19.202  1.00  0.00     0.167 HD
ATOM     57  O   UNL     1      20.585  30.250  17.722  1.00  0.00    -0.225 OA
BRANCH  55  58
ATOM     58  O   UNL     1      19.107  28.780  16.878  1.00  0.00    -0.443 OA
BRANCH  58  59
ATOM     59  C   UNL     1      17.743  29.078  16.962  1.00  0.00     0.294 C 
BRANCH  59  60
ATOM     60  C   UNL     1      17.049  28.576  18.141  1.00  0.00     0.121 A 
ATOM     61  C   UNL     1      16.365  29.315  19.074  1.00  0.00     0.146 A 
ATOM     62  N   UNL     1      16.952  27.297  18.540  1.00  0.00    -0.131 NA
ATOM     63  N   UNL     1      15.875  28.475  20.008  1.00  0.00    -0.202 N 
ATOM     64  N   UNL     1      16.253  27.263  19.647  1.00  0.00    -0.061 NA
BRANCH  63  65
ATOM     65  C   UNL     1      15.113  28.876  21.136  1.00  0.00     0.155 A 
ATOM     66  C   UNL     1      15.711  29.428  22.264  1.00  0.00     0.049 A 
ATOM     67  N   UNL     1      13.778  28.727  21.161  1.00  0.00    -0.237 NA
ATOM     68  C   UNL     1      14.950  29.806  23.362  1.00  0.00     0.011 A 
ATOM     69  C   UNL     1      13.017  29.089  22.221  1.00  0.00     0.119 A 
ATOM     70  C   UNL     1      13.583  29.641  23.358  1.00  0.00    -0.004 A 
BRANCH  70  71
ATOM     71  C   UNL     1      12.774  30.046  24.539  1.00  0.00     0.193 C 
BRANCH  71  72
ATOM     72  O   UNL     1      11.936  29.008  24.947  1.00  0.00    -0.392 OA
ATOM     73  H   UNL     1      12.193  28.639  25.817  1.00  0.00     0.211 HD
ENDBRANCH  71  72
ENDBRANCH  70  71
ENDBRANCH  63  65
ENDBRANCH  59  60
ENDBRANCH  58  59
ENDBRANCH  55  58
ENDBRANCH  53  54
ENDBRANCH  50  53
ENDBRANCH  47  50
ENDBRANCH   5  47
BRANCH   4  74
ATOM     74  N   UNL     1      23.489  25.457  23.340  1.00  0.00    -0.348 N 
ATOM     75  C   UNL     1      22.284  24.990  23.859  1.00  0.00     0.217 C 
ATOM     76  H   UNL     1      24.127  26.016  23.942  1.00  0.00     0.163 HD
ATOM     77  C   UNL     1      21.965  25.350  25.293  1.00  0.00     0.114 C 
ATOM     78  O   UNL     1      21.469  24.307  23.223  1.00  0.00    -0.275 OA
ENDBRANCH   4  74
TORSDOF 32
