REMARK VINA RESULT:    -5.907      2.951      9.320
REMARK INTER + INTRA:         -21.014
REMARK INTER:                 -14.095
REMARK INTRA:                  -6.918
REMARK UNBOUND:                -5.091
REMARK SMILES C=CCCCCn1cc(COC(=O)NC[C@@H](O)C(O)[C@@H]2O[C@@](OC[C@H]3O[C@@H](O[C@H]4[C@H](O)[C@@H](O)[C@H](OCCN=[N+]=[N-])O[C@@H]4CO)[C@H](O)[C@@H](O)[C@H]3O)(C(=O)O)C[C@H](O)[C@H]2NC(C)=O)nn1
REMARK SMILES IDX 18 1 20 2 22 3 54 4 21 5 55 6 57 7 23 8 24 9 25 10 27 11
REMARK SMILES IDX 26 12 45 13 47 14 49 15 28 16 29 17 42 18 41 19 34 20 30 21
REMARK SMILES IDX 32 22 43 23 44 24 35 26 36 27 37 28 38 29 39 30 40 31 31 32
REMARK SMILES IDX 33 34 46 36 48 38 50 40 51 42 52 43 53 44 56 46 58 48 59 49
REMARK SMILES IDX 60 51 61 52 19 53 16 55 17 56 15 58 14 59 12 60 13 62 11 63
REMARK SMILES IDX 10 64 9 65 8 66 62 67 7 68 63 69 6 70 5 71 4 72 3 73 2 74
REMARK SMILES IDX 1 75
REMARK H PARENT 44 25 31 33 33 35 46 37 48 39 50 41 53 45 56 47 58 50 19 54
REMARK H PARENT 17 57 14 61
REMARK Flexibility Score: inf
ROOT
ATOM      1  C   UNL     1      15.305  33.604  23.064  1.00  0.00     0.176 C 
ENDROOT
BRANCH   1   2
ATOM      2  C   UNL     1      15.682  32.128  23.215  1.00  0.00     0.178 C 
ATOM      3  C   UNL     1      16.931  30.480  22.209  1.00  0.00     0.272 C 
ATOM      4  C   UNL     1      15.880  29.490  22.494  1.00  0.00     0.113 C 
ATOM      5  O   UNL     1      16.261  31.753  22.056  1.00  0.00    -0.332 OA
ATOM      6  C   UNL     1      15.031  29.774  23.656  1.00  0.00     0.145 C 
ATOM      7  C   UNL     1      14.752  31.248  23.901  1.00  0.00     0.142 C 
BRANCH   3   8
ATOM      8  O   UNL     1      17.485  30.365  20.943  1.00  0.00    -0.338 OA
BRANCH   8   9
ATOM      9  C   UNL     1      18.553  31.034  20.554  1.00  0.00     0.199 C 
BRANCH   9  10
ATOM     10  C   UNL     1      19.901  30.424  20.550  1.00  0.00     0.179 C 
ATOM     11  C   UNL     1      21.398  29.384  22.022  1.00  0.00     0.282 C 
ATOM     12  O   UNL     1      20.391  30.297  21.872  1.00  0.00    -0.341 OA
ATOM     13  C   UNL     1      22.068  28.998  20.762  1.00  0.00     0.202 C 
ATOM     14  C   UNL     1      21.138  28.539  19.672  1.00  0.00     0.179 C 
ATOM     15  C   UNL     1      19.756  29.010  20.002  1.00  0.00     0.177 C 
BRANCH  11  16
ATOM     16  O   UNL     1      20.944  28.389  22.847  1.00  0.00    -0.341 OA
BRANCH  16  17
ATOM     17  C   UNL     1      21.880  27.583  23.423  1.00  0.00     0.184 C 
ATOM     18  C   UNL     1      21.185  26.413  24.078  1.00  0.00     0.178 C 
ATOM     19  O   UNL     1      21.789  26.090  25.304  1.00  0.00    -0.341 OA
ATOM     20  C   UNL     1      21.361  27.034  26.232  1.00  0.00     0.281 C 
ATOM     21  C   UNL     1      22.623  28.313  24.565  1.00  0.00     0.180 C 
ATOM     22  C   UNL     1      21.724  28.415  25.776  1.00  0.00     0.202 C 
BRANCH  18  23
ATOM     23  C   UNL     1      21.112  25.188  23.182  1.00  0.00     0.191 C 
BRANCH  23  24
ATOM     24  O   UNL     1      20.582  25.512  21.945  1.00  0.00    -0.394 OA
ATOM     25  H   UNL     1      19.848  24.886  21.739  1.00  0.00     0.210 HD
ENDBRANCH  23  24
ENDBRANCH  18  23
BRANCH  20  26
ATOM     26  O   UNL     1      22.001  26.729  27.435  1.00  0.00    -0.350 OA
BRANCH  26  27
ATOM     27  C   UNL     1      22.303  25.388  27.578  1.00  0.00     0.169 C 
BRANCH  27  28
ATOM     28  C   UNL     1      23.815  25.262  27.586  1.00  0.00     0.119 C 
BRANCH  28  29
ATOM     29  N   UNL     1      24.270  24.205  26.722  1.00  0.00    -0.092 NA
ATOM     30  N   UNL     1      24.501  24.401  25.535  1.00  0.00     0.001 N 
ATOM     31  N   UNL     1      24.866  24.767  24.418  1.00  0.00    -0.003 NA
ENDBRANCH  28  29
ENDBRANCH  27  28
ENDBRANCH  26  27
ENDBRANCH  20  26
BRANCH  21  32
ATOM     32  O   UNL     1      23.691  27.488  24.909  1.00  0.00    -0.387 OA
ATOM     33  H   UNL     1      23.544  26.539  24.719  1.00  0.00     0.211 HD
ENDBRANCH  21  32
BRANCH  22  34
ATOM     34  O   UNL     1      20.620  29.217  25.500  1.00  0.00    -0.385 OA
ATOM     35  H   UNL     1      20.739  30.065  26.009  1.00  0.00     0.211 HD
ENDBRANCH  22  34
ENDBRANCH  16  17
ENDBRANCH  11  16
BRANCH  13  36
ATOM     36  O   UNL     1      22.761  30.121  20.289  1.00  0.00    -0.385 OA
ATOM     37  H   UNL     1      22.838  30.823  20.960  1.00  0.00     0.211 HD
ENDBRANCH  13  36
BRANCH  14  38
ATOM     38  O   UNL     1      21.179  27.155  19.490  1.00  0.00    -0.387 OA
ATOM     39  H   UNL     1      20.419  26.918  18.920  1.00  0.00     0.211 HD
ENDBRANCH  14  38
BRANCH  15  40
ATOM     40  O   UNL     1      19.123  28.181  20.938  1.00  0.00    -0.387 OA
ATOM     41  H   UNL     1      18.300  28.563  21.296  1.00  0.00     0.211 HD
ENDBRANCH  15  40
ENDBRANCH   9  10
ENDBRANCH   8   9
ENDBRANCH   3   8
BRANCH   3  42
ATOM     42  C   UNL     1      17.843  30.677  23.327  1.00  0.00     0.364 C 
ATOM     43  O   UNL     1      18.168  31.825  23.702  1.00  0.00    -0.246 OA
BRANCH  42  44
ATOM     44  O   UNL     1      18.395  29.637  24.014  1.00  0.00    -0.477 OA
ATOM     45  H   UNL     1      18.020  28.705  23.970  1.00  0.00     0.296 HD
ENDBRANCH  42  44
ENDBRANCH   3  42
BRANCH   6  46
ATOM     46  O   UNL     1      13.808  29.075  23.506  1.00  0.00    -0.391 OA
ATOM     47  H   UNL     1      13.502  28.683  24.363  1.00  0.00     0.211 HD
ENDBRANCH   6  46
BRANCH   7  48
ATOM     48  N   UNL     1      14.801  31.502  25.353  1.00  0.00    -0.348 N 
ATOM     49  C   UNL     1      13.711  31.257  26.219  1.00  0.00     0.217 C 
ATOM     50  H   UNL     1      15.668  31.888  25.818  1.00  0.00     0.163 HD
ATOM     51  C   UNL     1      13.821  31.548  27.697  1.00  0.00     0.114 C 
ATOM     52  O   UNL     1      12.646  30.794  25.738  1.00  0.00    -0.275 OA
ENDBRANCH   7  48
ENDBRANCH   1   2
BRANCH   1  53
ATOM     53  O   UNL     1      16.616  34.301  23.224  1.00  0.00    -0.388 OA
ATOM     54  H   UNL     1      16.643  34.365  24.232  1.00  0.00     0.211 HD
ENDBRANCH   1  53
BRANCH   1  55
ATOM     55  C   UNL     1      14.934  34.028  21.715  1.00  0.00     0.165 C 
BRANCH  55  56
ATOM     56  O   UNL     1      15.018  35.417  21.467  1.00  0.00    -0.388 OA
ATOM     57  H   UNL     1      15.733  35.512  20.791  1.00  0.00     0.211 HD
ENDBRANCH  55  56
BRANCH  55  58
ATOM     58  C   UNL     1      13.715  33.494  21.087  1.00  0.00     0.154 C 
BRANCH  58  59
ATOM     59  N   UNL     1      13.892  32.393  20.221  1.00  0.00    -0.319 N 
ATOM     60  C   UNL     1      13.390  31.087  20.262  1.00  0.00     0.407 C 
ATOM     61  H   UNL     1      14.532  32.588  19.362  1.00  0.00     0.167 HD
ATOM     62  O   UNL     1      12.648  30.710  21.183  1.00  0.00    -0.225 OA
BRANCH  60  63
ATOM     63  O   UNL     1      13.703  30.153  19.264  1.00  0.00    -0.443 OA
BRANCH  63  64
ATOM     64  C   UNL     1      14.088  28.840  19.672  1.00  0.00     0.294 C 
BRANCH  64  65
ATOM     65  C   UNL     1      15.377  28.452  19.044  1.00  0.00     0.120 A 
ATOM     66  C   UNL     1      15.912  29.047  17.902  1.00  0.00     0.138 A 
ATOM     67  N   UNL     1      16.254  27.506  19.409  1.00  0.00    -0.132 NA
ATOM     68  N   UNL     1      17.072  28.435  17.639  1.00  0.00    -0.252 N 
ATOM     69  N   UNL     1      17.273  27.512  18.543  1.00  0.00    -0.067 NA
BRANCH  68  70
ATOM     70  C   UNL     1      17.935  28.789  16.503  1.00  0.00     0.146 C 
BRANCH  70  71
ATOM     71  C   UNL     1      17.727  30.242  16.168  1.00  0.00     0.024 C 
BRANCH  71  72
ATOM     72  C   UNL     1      17.425  30.351  14.690  1.00  0.00     0.006 C 
BRANCH  72  73
ATOM     73  C   UNL     1      17.201  28.974  14.108  1.00  0.00     0.027 C 
BRANCH  73  74
ATOM     74  C   UNL     1      17.525  28.938  12.665  1.00  0.00    -0.035 C 
ATOM     75  C   UNL     1      16.882  29.716  11.816  1.00  0.00     0.004 C 
ENDBRANCH  73  74
ENDBRANCH  72  73
ENDBRANCH  71  72
ENDBRANCH  70  71
ENDBRANCH  68  70
ENDBRANCH  64  65
ENDBRANCH  63  64
ENDBRANCH  60  63
ENDBRANCH  58  59
ENDBRANCH  55  58
ENDBRANCH   1  55
TORSDOF 34
