REMARK VINA RESULT:    -5.776      1.593      2.009
REMARK INTER + INTRA:         -24.261
REMARK INTER:                 -14.133
REMARK INTRA:                 -10.127
REMARK UNBOUND:                -8.356
REMARK SMILES CC(=O)N[C@@H]1[C@@H](O)C[C@](OC[C@H]2O[C@@H](O[C@H]3[C@H](O)[C@@H](O)[C@H](OCCN=[N+]=[N-])O[C@@H]3CO)[C@H](O)[C@@H](O)[C@H]2O)(C(=O)O)O[C@H]1C(O)[C@H](O)CNC(=O)OCc1cn([C@@H](CCC(=O)O)C(=O)O)nn1
REMARK SMILES IDX 43 1 42 2 9 3 8 4 41 5 6 6 5 7 10 8 11 9 12 10 14 11 13 12
REMARK SMILES IDX 32 13 34 14 36 15 15 16 16 17 29 18 28 19 21 20 17 21 19 22
REMARK SMILES IDX 30 23 31 24 22 26 23 27 24 28 25 29 26 30 27 31 18 32 20 34
REMARK SMILES IDX 33 36 35 38 37 40 38 42 39 43 40 44 7 46 4 48 2 49 1 51 3 52
REMARK SMILES IDX 44 53 45 55 46 56 47 58 48 59 49 60 50 62 51 63 52 64 53 65
REMARK SMILES IDX 54 66 66 67 55 68 65 69 56 70 57 71 58 72 59 73 60 74 61 75
REMARK SMILES IDX 62 77 63 78 64 79
REMARK H PARENT 31 25 18 33 20 35 33 37 35 39 37 41 40 45 7 47 4 50 44 54
REMARK H PARENT 46 57 48 61 61 76 64 80
REMARK Flexibility Score: inf
ROOT
ATOM      1  C   UNL     1      15.180  32.945  20.931  1.00  0.00     0.176 C 
ENDROOT
BRANCH   1   2
ATOM      2  C   UNL     1      14.928  31.626  21.662  1.00  0.00     0.178 C 
ATOM      3  C   UNL     1      15.772  29.438  21.454  1.00  0.00     0.272 C 
ATOM      4  C   UNL     1      14.459  28.824  21.178  1.00  0.00     0.113 C 
ATOM      5  O   UNL     1      15.689  30.735  20.905  1.00  0.00    -0.332 OA
ATOM      6  C   UNL     1      13.405  29.848  20.857  1.00  0.00     0.145 C 
ATOM      7  C   UNL     1      13.505  31.160  21.550  1.00  0.00     0.142 C 
BRANCH   3   8
ATOM      8  O   UNL     1      16.788  28.804  20.768  1.00  0.00    -0.338 OA
BRANCH   8   9
ATOM      9  C   UNL     1      16.634  27.838  19.900  1.00  0.00     0.199 C 
BRANCH   9  10
ATOM     10  C   UNL     1      16.745  28.018  18.411  1.00  0.00     0.179 C 
ATOM     11  C   UNL     1      16.097  29.758  16.998  1.00  0.00     0.282 C 
ATOM     12  O   UNL     1      15.740  28.785  17.896  1.00  0.00    -0.341 OA
ATOM     13  C   UNL     1      17.061  30.706  17.677  1.00  0.00     0.202 C 
ATOM     14  C   UNL     1      18.316  29.961  18.001  1.00  0.00     0.179 C 
ATOM     15  C   UNL     1      18.144  28.484  18.028  1.00  0.00     0.177 C 
BRANCH  11  16
ATOM     16  O   UNL     1      14.951  30.473  16.643  1.00  0.00    -0.341 OA
BRANCH  16  17
ATOM     17  C   UNL     1      14.106  29.829  15.774  1.00  0.00     0.184 C 
ATOM     18  C   UNL     1      14.084  30.505  14.406  1.00  0.00     0.178 C 
ATOM     19  O   UNL     1      12.790  30.947  14.139  1.00  0.00    -0.341 OA
ATOM     20  C   UNL     1      12.467  32.033  15.000  1.00  0.00     0.281 C 
ATOM     21  C   UNL     1      12.707  29.938  16.346  1.00  0.00     0.180 C 
ATOM     22  C   UNL     1      12.359  31.441  16.372  1.00  0.00     0.202 C 
BRANCH  18  23
ATOM     23  C   UNL     1      14.442  29.488  13.337  1.00  0.00     0.191 C 
BRANCH  23  24
ATOM     24  O   UNL     1      14.230  28.190  13.763  1.00  0.00    -0.394 OA
ATOM     25  H   UNL     1      13.403  27.801  13.375  1.00  0.00     0.210 HD
ENDBRANCH  23  24
ENDBRANCH  18  23
BRANCH  20  26
ATOM     26  O   UNL     1      11.337  32.615  14.502  1.00  0.00    -0.350 OA
BRANCH  26  27
ATOM     27  C   UNL     1      10.727  31.947  13.476  1.00  0.00     0.169 C 
BRANCH  27  28
ATOM     28  C   UNL     1       9.314  31.496  13.783  1.00  0.00     0.119 C 
BRANCH  28  29
ATOM     29  N   UNL     1       9.254  30.634  14.947  1.00  0.00    -0.092 NA
ATOM     30  N   UNL     1       8.542  30.850  15.923  1.00  0.00     0.001 N 
ATOM     31  N   UNL     1       7.679  31.050  16.749  1.00  0.00    -0.003 NA
ENDBRANCH  28  29
ENDBRANCH  27  28
ENDBRANCH  26  27
ENDBRANCH  20  26
BRANCH  21  32
ATOM     32  O   UNL     1      11.767  29.235  15.602  1.00  0.00    -0.387 OA
ATOM     33  H   UNL     1      11.187  29.841  15.042  1.00  0.00     0.211 HD
ENDBRANCH  21  32
BRANCH  22  34
ATOM     34  O   UNL     1      13.399  32.012  17.146  1.00  0.00    -0.385 OA
ATOM     35  H   UNL     1      14.113  32.293  16.518  1.00  0.00     0.211 HD
ENDBRANCH  22  34
ENDBRANCH  16  17
ENDBRANCH  11  16
BRANCH  13  36
ATOM     36  O   UNL     1      17.336  31.799  16.853  1.00  0.00    -0.385 OA
ATOM     37  H   UNL     1      16.489  32.349  16.839  1.00  0.00     0.211 HD
ENDBRANCH  13  36
BRANCH  14  38
ATOM     38  O   UNL     1      18.903  30.404  19.190  1.00  0.00    -0.387 OA
ATOM     39  H   UNL     1      19.789  29.949  19.303  1.00  0.00     0.211 HD
ENDBRANCH  14  38
BRANCH  15  40
ATOM     40  O   UNL     1      19.044  27.991  18.975  1.00  0.00    -0.387 OA
ATOM     41  H   UNL     1      18.571  27.637  19.761  1.00  0.00     0.211 HD
ENDBRANCH  15  40
ENDBRANCH   9  10
ENDBRANCH   8   9
ENDBRANCH   3   8
BRANCH   3  42
ATOM     42  C   UNL     1      16.200  29.564  22.841  1.00  0.00     0.364 C 
ATOM     43  O   UNL     1      15.323  29.368  23.760  1.00  0.00    -0.246 OA
BRANCH  42  44
ATOM     44  O   UNL     1      17.453  29.877  23.333  1.00  0.00    -0.477 OA
ATOM     45  H   UNL     1      18.211  30.120  22.739  1.00  0.00     0.296 HD
ENDBRANCH  42  44
ENDBRANCH   3  42
BRANCH   6  46
ATOM     46  O   UNL     1      13.527  30.131  19.468  1.00  0.00    -0.391 OA
ATOM     47  H   UNL     1      14.453  29.971  19.154  1.00  0.00     0.211 HD
ENDBRANCH   6  46
BRANCH   7  48
ATOM     48  N   UNL     1      12.735  31.077  22.741  1.00  0.00    -0.348 N 
ATOM     49  C   UNL     1      11.431  31.612  22.885  1.00  0.00     0.217 C 
ATOM     50  H   UNL     1      13.093  30.587  23.584  1.00  0.00     0.163 HD
ATOM     51  C   UNL     1      10.673  31.492  24.181  1.00  0.00     0.114 C 
ATOM     52  O   UNL     1      10.887  32.190  21.948  1.00  0.00    -0.275 OA
ENDBRANCH   7  48
ENDBRANCH   1   2
BRANCH   1  53
ATOM     53  O   UNL     1      15.130  32.727  19.559  1.00  0.00    -0.388 OA
ATOM     54  H   UNL     1      14.185  32.640  19.264  1.00  0.00     0.211 HD
ENDBRANCH   1  53
BRANCH   1  55
ATOM     55  C   UNL     1      16.370  33.697  21.307  1.00  0.00     0.165 C 
BRANCH  55  56
ATOM     56  O   UNL     1      16.164  35.063  20.947  1.00  0.00    -0.388 OA
ATOM     57  H   UNL     1      15.574  35.076  20.158  1.00  0.00     0.211 HD
ENDBRANCH  55  56
BRANCH  55  58
ATOM     58  C   UNL     1      17.675  33.327  20.668  1.00  0.00     0.154 C 
BRANCH  58  59
ATOM     59  N   UNL     1      18.340  32.226  21.322  1.00  0.00    -0.319 N 
ATOM     60  C   UNL     1      19.434  32.385  22.224  1.00  0.00     0.407 C 
ATOM     61  H   UNL     1      18.026  31.262  21.128  1.00  0.00     0.167 HD
ATOM     62  O   UNL     1      19.872  33.503  22.493  1.00  0.00    -0.225 OA
BRANCH  60  63
ATOM     63  O   UNL     1      19.983  31.256  22.780  1.00  0.00    -0.443 OA
BRANCH  63  64
ATOM     64  C   UNL     1      21.279  30.807  22.510  1.00  0.00     0.294 C 
BRANCH  64  65
ATOM     65  C   UNL     1      21.228  29.412  22.006  1.00  0.00     0.120 A 
ATOM     66  C   UNL     1      22.261  28.590  21.608  1.00  0.00     0.139 A 
ATOM     67  N   UNL     1      20.096  28.681  21.824  1.00  0.00    -0.132 NA
ATOM     68  N   UNL     1      21.741  27.396  21.199  1.00  0.00    -0.238 N 
ATOM     69  N   UNL     1      20.419  27.497  21.348  1.00  0.00    -0.066 NA
BRANCH  68  70
ATOM     70  C   UNL     1      22.468  26.272  20.737  1.00  0.00     0.219 C 
BRANCH  70  71
ATOM     71  C   UNL     1      22.221  24.940  21.342  1.00  0.00     0.051 C 
BRANCH  71  72
ATOM     72  C   UNL     1      22.695  24.652  22.706  1.00  0.00     0.125 C 
BRANCH  72  73
ATOM     73  C   UNL     1      21.767  24.702  23.816  1.00  0.00     0.303 C 
ATOM     74  O   UNL     1      21.950  24.368  25.000  1.00  0.00    -0.252 OA
BRANCH  73  75
ATOM     75  O   UNL     1      20.444  25.194  23.579  1.00  0.00    -0.481 OA
ATOM     76  H   UNL     1      19.906  24.799  22.824  1.00  0.00     0.296 HD
ENDBRANCH  73  75
ENDBRANCH  72  73
ENDBRANCH  71  72
ENDBRANCH  70  71
BRANCH  70  77
ATOM     77  C   UNL     1      22.271  26.155  19.258  1.00  0.00     0.328 C 
ATOM     78  O   UNL     1      22.633  25.128  18.652  1.00  0.00    -0.250 OA
BRANCH  77  79
ATOM     79  O   UNL     1      21.689  27.167  18.516  1.00  0.00    -0.480 OA
ATOM     80  H   UNL     1      22.009  27.394  17.573  1.00  0.00     0.296 HD
ENDBRANCH  77  79
ENDBRANCH  70  77
ENDBRANCH  68  70
ENDBRANCH  64  65
ENDBRANCH  63  64
ENDBRANCH  60  63
ENDBRANCH  58  59
ENDBRANCH  55  58
ENDBRANCH   1  55
TORSDOF 36
