REMARK VINA RESULT:    -6.248      4.050      8.365
REMARK INTER + INTRA:         -21.570
REMARK INTER:                 -14.205
REMARK INTRA:                  -7.365
REMARK UNBOUND:                -5.460
REMARK SMILES CC(=O)N[C@@H]1[C@@H](O)C[C@](OC[C@H]2O[C@@H](O[C@H]3[C@H](O)[C@@H](O)[C@H](OCCN=[N+]=[N-])O[C@@H]3CO)[C@H](O)[C@@H](O)[C@H]2O)(C(=O)O)O[C@H]1C(O)[C@H](O)CNC(=O)OCc1cn(C(c2ccccc2)c2ccccc2)nn1
REMARK SMILES IDX 9 1 8 2 6 3 5 4 42 5 41 6 10 7 11 8 12 9 14 10 13 11 32 12
REMARK SMILES IDX 34 13 36 14 15 15 16 16 29 17 28 18 21 19 17 20 19 21 30 22
REMARK SMILES IDX 31 23 22 25 23 26 24 27 25 28 26 29 27 30 18 31 20 33 33 35
REMARK SMILES IDX 35 37 37 39 38 41 39 42 40 43 7 45 43 47 44 48 45 50 46 51
REMARK SMILES IDX 47 53 48 54 49 55 50 57 51 58 52 59 53 60 54 61 70 62 55 63
REMARK SMILES IDX 69 64 56 65 57 66 58 67 62 68 59 69 61 70 60 71 63 72 64 73
REMARK SMILES IDX 68 74 65 75 67 76 66 77 4 78 2 79 1 81 3 82
REMARK H PARENT 31 24 18 32 20 34 33 36 35 38 37 40 40 44 7 46 44 49 46 52
REMARK H PARENT 48 56 4 80
REMARK Flexibility Score: inf
ROOT
ATOM      1  C   UNL     1      14.818  30.364  20.598  1.00  0.00     0.272 C 
ATOM      2  C   UNL     1      15.994  30.035  21.541  1.00  0.00     0.113 C 
ATOM      3  C   UNL     1      17.123  29.492  20.764  1.00  0.00     0.145 C 
ATOM      4  C   UNL     1      17.552  30.489  19.716  1.00  0.00     0.142 C 
ATOM      5  C   UNL     1      16.494  31.470  19.367  1.00  0.00     0.178 C 
ATOM      6  O   UNL     1      15.212  31.050  19.514  1.00  0.00    -0.332 OA
ENDROOT
BRANCH   1   7
ATOM      7  O   UNL     1      13.898  31.134  21.330  1.00  0.00    -0.338 OA
BRANCH   7   8
ATOM      8  C   UNL     1      14.333  31.358  22.610  1.00  0.00     0.199 C 
BRANCH   8   9
ATOM      9  C   UNL     1      13.351  30.839  23.659  1.00  0.00     0.179 C 
ATOM     10  C   UNL     1      14.210  30.809  25.883  1.00  0.00     0.282 C 
ATOM     11  O   UNL     1      13.960  30.280  24.669  1.00  0.00    -0.341 OA
ATOM     12  C   UNL     1      13.820  32.198  26.056  1.00  0.00     0.202 C 
ATOM     13  C   UNL     1      12.626  32.623  25.275  1.00  0.00     0.179 C 
ATOM     14  C   UNL     1      12.329  31.891  24.025  1.00  0.00     0.177 C 
BRANCH  10  15
ATOM     15  O   UNL     1      15.601  30.543  26.074  1.00  0.00    -0.341 OA
BRANCH  15  16
ATOM     16  C   UNL     1      16.227  31.561  26.728  1.00  0.00     0.184 C 
ATOM     17  C   UNL     1      17.494  31.962  26.061  1.00  0.00     0.178 C 
ATOM     18  O   UNL     1      17.991  33.142  26.630  1.00  0.00    -0.341 OA
ATOM     19  C   UNL     1      18.478  32.884  27.883  1.00  0.00     0.281 C 
ATOM     20  C   UNL     1      16.604  31.163  28.150  1.00  0.00     0.180 C 
ATOM     21  C   UNL     1      17.950  31.657  28.506  1.00  0.00     0.202 C 
BRANCH  17  22
ATOM     22  C   UNL     1      17.410  32.086  24.552  1.00  0.00     0.191 C 
BRANCH  22  23
ATOM     23  O   UNL     1      18.101  31.028  23.970  1.00  0.00    -0.394 OA
ATOM     24  H   UNL     1      17.643  30.628  23.202  1.00  0.00     0.210 HD
ENDBRANCH  22  23
ENDBRANCH  17  22
BRANCH  19  25
ATOM     25  O   UNL     1      18.368  34.003  28.725  1.00  0.00    -0.350 OA
BRANCH  25  26
ATOM     26  C   UNL     1      17.853  35.121  28.136  1.00  0.00     0.169 C 
BRANCH  26  27
ATOM     27  C   UNL     1      16.521  35.456  28.767  1.00  0.00     0.119 C 
BRANCH  27  28
ATOM     28  N   UNL     1      15.403  34.998  27.946  1.00  0.00    -0.092 NA
ATOM     29  N   UNL     1      15.316  35.262  26.753  1.00  0.00     0.001 N 
ATOM     30  N   UNL     1      15.152  35.850  25.677  1.00  0.00    -0.003 NA
ENDBRANCH  27  28
ENDBRANCH  26  27
ENDBRANCH  25  26
ENDBRANCH  19  25
BRANCH  20  31
ATOM     31  O   UNL     1      15.577  31.611  28.983  1.00  0.00    -0.387 OA
ATOM     32  H   UNL     1      15.813  31.507  29.944  1.00  0.00     0.211 HD
ENDBRANCH  20  31
BRANCH  21  33
ATOM     33  O   UNL     1      18.869  30.586  28.304  1.00  0.00    -0.385 OA
ATOM     34  H   UNL     1      19.081  30.607  27.329  1.00  0.00     0.211 HD
ENDBRANCH  21  33
ENDBRANCH  15  16
ENDBRANCH  10  15
BRANCH  12  35
ATOM     35  O   UNL     1      13.526  32.536  27.403  1.00  0.00    -0.385 OA
ATOM     36  H   UNL     1      12.817  31.908  27.681  1.00  0.00     0.211 HD
ENDBRANCH  12  35
BRANCH  13  37
ATOM     37  O   UNL     1      12.678  34.009  24.978  1.00  0.00    -0.387 OA
ATOM     38  H   UNL     1      13.324  34.161  24.241  1.00  0.00     0.211 HD
ENDBRANCH  13  37
BRANCH  14  39
ATOM     39  O   UNL     1      12.318  32.797  22.951  1.00  0.00    -0.387 OA
ATOM     40  H   UNL     1      11.477  33.310  22.911  1.00  0.00     0.211 HD
ENDBRANCH  14  39
ENDBRANCH   8   9
ENDBRANCH   7   8
ENDBRANCH   1   7
BRANCH   1  41
ATOM     41  C   UNL     1      14.210  29.073  20.273  1.00  0.00     0.364 C 
ATOM     42  O   UNL     1      13.691  28.365  21.157  1.00  0.00    -0.246 OA
BRANCH  41  43
ATOM     43  O   UNL     1      14.179  28.568  18.971  1.00  0.00    -0.477 OA
ATOM     44  H   UNL     1      14.113  29.186  18.175  1.00  0.00     0.296 HD
ENDBRANCH  41  43
ENDBRANCH   1  41
BRANCH   3  45
ATOM     45  O   UNL     1      18.184  29.273  21.669  1.00  0.00    -0.391 OA
ATOM     46  H   UNL     1      17.905  29.482  22.595  1.00  0.00     0.211 HD
ENDBRANCH   3  45
BRANCH   5  47
ATOM     47  C   UNL     1      16.646  32.856  19.927  1.00  0.00     0.176 C 
BRANCH  47  48
ATOM     48  O   UNL     1      15.661  33.643  19.293  1.00  0.00    -0.388 OA
ATOM     49  H   UNL     1      15.105  33.137  18.675  1.00  0.00     0.211 HD
ENDBRANCH  47  48
BRANCH  47  50
ATOM     50  C   UNL     1      17.962  33.511  19.716  1.00  0.00     0.165 C 
BRANCH  50  51
ATOM     51  O   UNL     1      18.569  32.874  18.640  1.00  0.00    -0.388 OA
ATOM     52  H   UNL     1      19.380  32.365  18.897  1.00  0.00     0.211 HD
ENDBRANCH  50  51
BRANCH  50  53
ATOM     53  C   UNL     1      18.889  33.516  20.881  1.00  0.00     0.154 C 
BRANCH  53  54
ATOM     54  N   UNL     1      19.273  32.240  21.393  1.00  0.00    -0.319 N 
ATOM     55  C   UNL     1      20.567  31.745  21.585  1.00  0.00     0.407 C 
ATOM     56  H   UNL     1      18.481  31.573  21.666  1.00  0.00     0.167 HD
ATOM     57  O   UNL     1      21.550  32.434  21.286  1.00  0.00    -0.225 OA
BRANCH  55  58
ATOM     58  O   UNL     1      20.785  30.475  22.113  1.00  0.00    -0.443 OA
BRANCH  58  59
ATOM     59  C   UNL     1      21.462  30.333  23.371  1.00  0.00     0.294 C 
BRANCH  59  60
ATOM     60  C   UNL     1      21.092  29.020  23.957  1.00  0.00     0.120 A 
ATOM     61  C   UNL     1      21.922  27.936  23.962  1.00  0.00     0.139 A 
ATOM     62  N   UNL     1      19.939  28.720  24.547  1.00  0.00    -0.132 NA
ATOM     63  N   UNL     1      21.234  26.958  24.577  1.00  0.00    -0.240 N 
ATOM     64  N   UNL     1      20.038  27.446  24.926  1.00  0.00    -0.066 NA
BRANCH  63  65
ATOM     65  C   UNL     1      21.634  25.598  24.870  1.00  0.00     0.169 C 
BRANCH  65  66
ATOM     66  C   UNL     1      22.331  25.599  26.163  1.00  0.00    -0.019 A 
ATOM     67  C   UNL     1      22.970  26.736  26.615  1.00  0.00     0.006 A 
ATOM     68  C   UNL     1      22.402  24.489  26.976  1.00  0.00     0.006 A 
ATOM     69  C   UNL     1      23.647  26.755  27.827  1.00  0.00     0.000 A 
ATOM     70  C   UNL     1      23.079  24.496  28.193  1.00  0.00     0.000 A 
ATOM     71  C   UNL     1      23.712  25.643  28.629  1.00  0.00     0.000 A 
ENDBRANCH  65  66
BRANCH  65  72
ATOM     72  C   UNL     1      22.406  25.031  23.746  1.00  0.00    -0.019 A 
ATOM     73  C   UNL     1      21.700  24.716  22.591  1.00  0.00     0.006 A 
ATOM     74  C   UNL     1      23.745  24.771  23.770  1.00  0.00     0.006 A 
ATOM     75  C   UNL     1      22.339  24.162  21.513  1.00  0.00     0.000 A 
ATOM     76  C   UNL     1      24.397  24.213  22.685  1.00  0.00     0.000 A 
ATOM     77  C   UNL     1      23.694  23.904  21.549  1.00  0.00     0.000 A 
ENDBRANCH  65  72
ENDBRANCH  63  65
ENDBRANCH  59  60
ENDBRANCH  58  59
ENDBRANCH  55  58
ENDBRANCH  53  54
ENDBRANCH  50  53
ENDBRANCH  47  50
ENDBRANCH   5  47
BRANCH   4  78
ATOM     78  N   UNL     1      17.887  29.670  18.535  1.00  0.00    -0.348 N 
ATOM     79  C   UNL     1      19.203  29.614  17.999  1.00  0.00     0.217 C 
ATOM     80  H   UNL     1      17.157  29.094  18.045  1.00  0.00     0.163 HD
ATOM     81  C   UNL     1      19.513  28.768  16.796  1.00  0.00     0.114 C 
ATOM     82  O   UNL     1      20.140  30.263  18.511  1.00  0.00    -0.275 OA
ENDBRANCH   4  78
TORSDOF 32
