REMARK VINA RESULT:    -6.089      1.998      2.757
REMARK INTER + INTRA:         -20.432
REMARK INTER:                 -15.163
REMARK INTRA:                  -5.269
REMARK UNBOUND:                -4.909
REMARK SMILES CC(=O)N[C@@H]1[C@@H](O)C[C@](OC[C@H]2O[C@@H](O[C@H]3[C@H](O)[C@@H](O)[C@H](OCCN=[N+]=[N-])O[C@@H]3CO)[C@H](O)[C@@H](O)[C@H]2O)(C(=O)O)O[C@H]1C(O)[C@H](O)CNC(=O)OCc1cn(CCO)nn1
REMARK SMILES IDX 9 1 8 2 6 3 5 4 42 5 41 6 10 7 11 8 12 9 14 10 13 11 32 12
REMARK SMILES IDX 34 13 36 14 15 15 16 16 29 17 28 18 21 19 17 20 19 21 30 22
REMARK SMILES IDX 31 23 22 25 23 26 24 27 25 28 26 29 27 30 18 31 20 33 33 35
REMARK SMILES IDX 35 37 37 39 38 41 39 42 40 43 7 45 43 47 44 48 45 50 46 51
REMARK SMILES IDX 47 53 48 54 49 55 50 57 51 58 52 59 53 60 54 61 60 62 55 63
REMARK SMILES IDX 59 64 56 65 57 66 58 67 4 69 2 70 1 72 3 73
REMARK H PARENT 31 24 18 32 20 34 33 36 35 38 37 40 40 44 7 46 44 49 46 52
REMARK H PARENT 48 56 58 68 4 71
REMARK Flexibility Score: inf
ROOT
ATOM      1  C   UNL     1       2.888  21.572  31.103  1.00  0.00     0.272 C 
ATOM      2  C   UNL     1       1.926  21.169  32.172  1.00  0.00     0.113 C 
ATOM      3  C   UNL     1       2.658  20.931  33.464  1.00  0.00     0.145 C 
ATOM      4  C   UNL     1       3.408  22.229  33.766  1.00  0.00     0.142 C 
ATOM      5  C   UNL     1       4.453  22.373  32.666  1.00  0.00     0.178 C 
ATOM      6  O   UNL     1       3.675  22.609  31.508  1.00  0.00    -0.332 OA
ENDROOT
BRANCH   1   7
ATOM      7  O   UNL     1       2.206  21.986  29.936  1.00  0.00    -0.338 OA
BRANCH   7   8
ATOM      8  C   UNL     1       1.349  23.025  30.089  1.00  0.00     0.199 C 
BRANCH   8   9
ATOM      9  C   UNL     1       1.314  23.904  28.828  1.00  0.00     0.179 C 
ATOM     10  C   UNL     1       2.676  25.005  27.307  1.00  0.00     0.282 C 
ATOM     11  O   UNL     1       2.585  24.349  28.534  1.00  0.00    -0.341 OA
ATOM     12  C   UNL     1       2.341  24.100  26.150  1.00  0.00     0.202 C 
ATOM     13  C   UNL     1       1.515  22.900  26.538  1.00  0.00     0.179 C 
ATOM     14  C   UNL     1       0.611  23.257  27.685  1.00  0.00     0.177 C 
BRANCH  10  15
ATOM     15  O   UNL     1       3.948  25.419  27.191  1.00  0.00    -0.341 OA
BRANCH  15  16
ATOM     16  C   UNL     1       4.247  26.659  26.773  1.00  0.00     0.184 C 
ATOM     17  C   UNL     1       3.227  27.690  26.580  1.00  0.00     0.178 C 
ATOM     18  O   UNL     1       3.548  28.501  25.507  1.00  0.00    -0.341 OA
ATOM     19  C   UNL     1       4.843  28.883  25.359  1.00  0.00     0.281 C 
ATOM     20  C   UNL     1       4.932  26.457  25.396  1.00  0.00     0.180 C 
ATOM     21  C   UNL     1       5.797  27.687  25.222  1.00  0.00     0.202 C 
BRANCH  17  22
ATOM     22  C   UNL     1       3.039  28.596  27.793  1.00  0.00     0.191 C 
BRANCH  22  23
ATOM     23  O   UNL     1       2.432  29.805  27.449  1.00  0.00    -0.394 OA
ATOM     24  H   UNL     1       1.695  29.613  26.838  1.00  0.00     0.210 HD
ENDBRANCH  22  23
ENDBRANCH  17  22
BRANCH  19  25
ATOM     25  O   UNL     1       5.324  29.810  26.240  1.00  0.00    -0.350 OA
BRANCH  25  26
ATOM     26  C   UNL     1       5.602  31.051  25.750  1.00  0.00     0.169 C 
BRANCH  26  27
ATOM     27  C   UNL     1       7.072  31.292  25.681  1.00  0.00     0.119 C 
BRANCH  27  28
ATOM     28  N   UNL     1       7.590  30.751  24.413  1.00  0.00    -0.092 NA
ATOM     29  N   UNL     1       8.601  30.035  24.529  1.00  0.00     0.001 N 
ATOM     30  N   UNL     1       9.185  28.937  24.550  1.00  0.00    -0.003 NA
ENDBRANCH  27  28
ENDBRANCH  26  27
ENDBRANCH  25  26
ENDBRANCH  19  25
BRANCH  20  31
ATOM     31  O   UNL     1       5.641  25.285  25.369  1.00  0.00    -0.387 OA
ATOM     32  H   UNL     1       6.183  25.143  26.186  1.00  0.00     0.211 HD
ENDBRANCH  20  31
BRANCH  21  33
ATOM     33  O   UNL     1       6.466  27.658  24.028  1.00  0.00    -0.385 OA
ATOM     34  H   UNL     1       7.144  26.939  23.983  1.00  0.00     0.211 HD
ENDBRANCH  21  33
ENDBRANCH  15  16
ENDBRANCH  10  15
BRANCH  12  35
ATOM     35  O   UNL     1       1.547  24.832  25.254  1.00  0.00    -0.385 OA
ATOM     36  H   UNL     1       1.056  25.562  25.679  1.00  0.00     0.211 HD
ENDBRANCH  12  35
BRANCH  13  37
ATOM     37  O   UNL     1       2.340  21.837  26.795  1.00  0.00    -0.387 OA
ATOM     38  H   UNL     1       2.160  21.428  27.699  1.00  0.00     0.211 HD
ENDBRANCH  13  37
BRANCH  14  39
ATOM     39  O   UNL     1       0.055  22.049  28.162  1.00  0.00    -0.387 OA
ATOM     40  H   UNL     1       0.678  21.596  28.783  1.00  0.00     0.211 HD
ENDBRANCH  14  39
ENDBRANCH   8   9
ENDBRANCH   7   8
ENDBRANCH   1   7
BRANCH   1  41
ATOM     41  C   UNL     1       3.647  20.379  30.672  1.00  0.00     0.364 C 
ATOM     42  O   UNL     1       3.172  19.228  30.697  1.00  0.00    -0.246 OA
BRANCH  41  43
ATOM     43  O   UNL     1       4.947  20.497  30.210  1.00  0.00    -0.477 OA
ATOM     44  H   UNL     1       5.532  21.330  30.396  1.00  0.00     0.296 HD
ENDBRANCH  41  43
ENDBRANCH   1  41
BRANCH   3  45
ATOM     45  O   UNL     1       1.745  20.752  34.527  1.00  0.00    -0.391 OA
ATOM     46  H   UNL     1       1.780  21.552  35.117  1.00  0.00     0.211 HD
ENDBRANCH   3  45
BRANCH   5  47
ATOM     47  C   UNL     1       5.204  23.648  32.875  1.00  0.00     0.176 C 
BRANCH  47  48
ATOM     48  O   UNL     1       6.509  23.567  32.387  1.00  0.00    -0.388 OA
ATOM     49  H   UNL     1       6.553  23.089  31.517  1.00  0.00     0.211 HD
ENDBRANCH  47  48
BRANCH  47  50
ATOM     50  C   UNL     1       4.579  24.922  32.459  1.00  0.00     0.165 C 
BRANCH  50  51
ATOM     51  O   UNL     1       5.380  25.293  31.293  1.00  0.00    -0.388 OA
ATOM     52  H   UNL     1       4.807  25.813  30.684  1.00  0.00     0.211 HD
ENDBRANCH  50  51
BRANCH  50  53
ATOM     53  C   UNL     1       4.865  26.092  33.384  1.00  0.00     0.154 C 
BRANCH  53  54
ATOM     54  N   UNL     1       6.249  26.260  33.692  1.00  0.00    -0.319 N 
ATOM     55  C   UNL     1       6.717  27.446  34.313  1.00  0.00     0.407 C 
ATOM     56  H   UNL     1       6.965  25.516  33.458  1.00  0.00     0.167 HD
ATOM     57  O   UNL     1       5.835  28.335  34.563  1.00  0.00    -0.225 OA
BRANCH  55  58
ATOM     58  O   UNL     1       8.011  27.718  34.665  1.00  0.00    -0.443 OA
BRANCH  58  59
ATOM     59  C   UNL     1       9.063  27.241  33.847  1.00  0.00     0.294 C 
BRANCH  59  60
ATOM     60  C   UNL     1       9.574  25.936  34.273  1.00  0.00     0.120 A 
ATOM     61  C   UNL     1      10.587  25.734  35.178  1.00  0.00     0.138 A 
ATOM     62  N   UNL     1       9.183  24.710  33.891  1.00  0.00    -0.132 NA
ATOM     63  N   UNL     1      10.790  24.410  35.326  1.00  0.00    -0.250 N 
ATOM     64  N   UNL     1       9.930  23.806  34.539  1.00  0.00    -0.067 NA
BRANCH  63  65
ATOM     65  C   UNL     1      11.789  23.792  36.210  1.00  0.00     0.174 C 
BRANCH  65  66
ATOM     66  C   UNL     1      11.079  22.818  37.116  1.00  0.00     0.179 C 
BRANCH  66  67
ATOM     67  O   UNL     1      11.074  21.570  36.470  1.00  0.00    -0.394 OA
ATOM     68  H   UNL     1      10.351  20.988  36.759  1.00  0.00     0.210 HD
ENDBRANCH  66  67
ENDBRANCH  65  66
ENDBRANCH  63  65
ENDBRANCH  59  60
ENDBRANCH  58  59
ENDBRANCH  55  58
ENDBRANCH  53  54
ENDBRANCH  50  53
ENDBRANCH  47  50
ENDBRANCH   5  47
BRANCH   4  69
ATOM     69  N   UNL     1       3.868  22.318  35.095  1.00  0.00    -0.348 N 
ATOM     70  C   UNL     1       3.217  23.004  36.147  1.00  0.00     0.217 C 
ATOM     71  H   UNL     1       4.760  21.831  35.365  1.00  0.00     0.163 HD
ATOM     72  C   UNL     1       3.820  23.018  37.496  1.00  0.00     0.114 C 
ATOM     73  O   UNL     1       2.145  23.598  35.955  1.00  0.00    -0.275 OA
ENDBRANCH   4  69
TORSDOF 32
