REMARK VINA RESULT:    -5.568     13.987     19.348
REMARK INTER + INTRA:         -21.443
REMARK INTER:                 -15.709
REMARK INTRA:                  -5.734
REMARK UNBOUND:                -6.761
REMARK SMILES CC(=O)N[C@@H]1[C@@H](O)C[C@](OC[C@H]2O[C@@H](O[C@H]3[C@H](O)[C@@H](O)[C@H](OCCN=[N+]=[N-])O[C@@H]3CO)[C@H](O)[C@@H](O)[C@H]2O)(C(=O)O)O[C@H]1C(O)[C@H](O)CNC(=O)OCc1cn(CCNS(C)(=O)=O)nn1
REMARK SMILES IDX 43 1 42 2 9 3 8 4 41 5 6 6 5 7 10 8 11 9 12 10 14 11 13 12
REMARK SMILES IDX 32 13 34 14 36 15 15 16 16 17 29 18 28 19 21 20 17 21 19 22
REMARK SMILES IDX 30 23 31 24 22 26 23 27 24 28 25 29 26 30 27 31 18 32 20 34
REMARK SMILES IDX 33 36 35 38 37 40 38 42 39 43 40 44 7 46 4 48 2 49 1 51 3 52
REMARK SMILES IDX 44 53 45 55 46 56 47 58 48 59 49 60 50 62 51 63 52 64 53 65
REMARK SMILES IDX 54 66 64 67 55 68 63 69 56 70 57 71 58 72 59 74 61 75 62 76
REMARK SMILES IDX 60 77
REMARK H PARENT 31 25 18 33 20 35 33 37 35 39 37 41 40 45 7 47 4 50 44 54
REMARK H PARENT 46 57 48 61 58 73
REMARK Flexibility Score: inf
ROOT
ATOM      1  C   UNL     1       3.950  23.074  33.720  1.00  0.00     0.176 C 
ENDROOT
BRANCH   1   2
ATOM      2  C   UNL     1       3.464  21.870  32.893  1.00  0.00     0.178 C 
ATOM      3  C   UNL     1       2.674  21.489  30.722  1.00  0.00     0.272 C 
ATOM      4  C   UNL     1       1.337  21.031  31.149  1.00  0.00     0.113 C 
ATOM      5  O   UNL     1       3.254  22.350  31.645  1.00  0.00    -0.332 OA
ATOM      6  C   UNL     1       1.077  21.082  32.629  1.00  0.00     0.145 C 
ATOM      7  C   UNL     1       2.260  21.279  33.513  1.00  0.00     0.142 C 
BRANCH   3   8
ATOM      8  O   UNL     1       2.725  22.199  29.518  1.00  0.00    -0.338 OA
BRANCH   8   9
ATOM      9  C   UNL     1       2.155  21.507  28.464  1.00  0.00     0.199 C 
BRANCH   9  10
ATOM     10  C   UNL     1       1.411  22.440  27.574  1.00  0.00     0.179 C 
ATOM     11  C   UNL     1       1.233  24.604  26.796  1.00  0.00     0.282 C 
ATOM     12  O   UNL     1       2.048  23.662  27.446  1.00  0.00    -0.341 OA
ATOM     13  C   UNL     1       0.924  24.193  25.398  1.00  0.00     0.202 C 
ATOM     14  C   UNL     1       0.150  22.895  25.473  1.00  0.00     0.179 C 
ATOM     15  C   UNL     1       0.903  21.893  26.282  1.00  0.00     0.177 C 
BRANCH  11  16
ATOM     16  O   UNL     1       1.887  25.798  26.850  1.00  0.00    -0.341 OA
BRANCH  16  17
ATOM     17  C   UNL     1       3.222  25.748  27.060  1.00  0.00     0.184 C 
ATOM     18  C   UNL     1       3.879  26.714  27.965  1.00  0.00     0.178 C 
ATOM     19  O   UNL     1       5.214  26.839  27.580  1.00  0.00    -0.341 OA
ATOM     20  C   UNL     1       5.362  27.586  26.447  1.00  0.00     0.281 C 
ATOM     21  C   UNL     1       4.001  25.736  25.716  1.00  0.00     0.180 C 
ATOM     22  C   UNL     1       4.287  27.200  25.453  1.00  0.00     0.202 C 
BRANCH  18  23
ATOM     23  C   UNL     1       3.944  26.159  29.384  1.00  0.00     0.191 C 
BRANCH  23  24
ATOM     24  O   UNL     1       3.621  24.782  29.370  1.00  0.00    -0.394 OA
ATOM     25  H   UNL     1       2.771  24.604  29.830  1.00  0.00     0.210 HD
ENDBRANCH  23  24
ENDBRANCH  18  23
BRANCH  20  26
ATOM     26  O   UNL     1       6.642  27.435  25.892  1.00  0.00    -0.350 OA
BRANCH  26  27
ATOM     27  C   UNL     1       7.207  28.602  25.445  1.00  0.00     0.169 C 
BRANCH  27  28
ATOM     28  C   UNL     1       6.546  29.748  26.142  1.00  0.00     0.119 C 
BRANCH  28  29
ATOM     29  N   UNL     1       6.599  30.974  25.356  1.00  0.00    -0.092 NA
ATOM     30  N   UNL     1       7.135  31.939  25.928  1.00  0.00     0.001 N 
ATOM     31  N   UNL     1       7.538  33.054  26.240  1.00  0.00    -0.003 NA
ENDBRANCH  28  29
ENDBRANCH  27  28
ENDBRANCH  26  27
ENDBRANCH  20  26
BRANCH  21  32
ATOM     32  O   UNL     1       5.228  25.089  25.889  1.00  0.00    -0.387 OA
ATOM     33  H   UNL     1       5.839  25.689  26.392  1.00  0.00     0.211 HD
ENDBRANCH  21  32
BRANCH  22  34
ATOM     34  O   UNL     1       3.177  28.011  25.526  1.00  0.00    -0.385 OA
ATOM     35  H   UNL     1       3.200  28.787  24.911  1.00  0.00     0.211 HD
ENDBRANCH  22  34
ENDBRANCH  16  17
ENDBRANCH  11  16
BRANCH  13  36
ATOM     36  O   UNL     1       0.050  25.104  24.786  1.00  0.00    -0.385 OA
ATOM     37  H   UNL     1      -0.363  25.721  25.443  1.00  0.00     0.211 HD
ENDBRANCH  13  36
BRANCH  14  38
ATOM     38  O   UNL     1      -0.253  22.453  24.237  1.00  0.00    -0.387 OA
ATOM     39  H   UNL     1      -0.606  21.509  24.265  1.00  0.00     0.211 HD
ENDBRANCH  14  38
BRANCH  15  40
ATOM     40  O   UNL     1       1.989  21.446  25.536  1.00  0.00    -0.387 OA
ATOM     41  H   UNL     1       1.722  20.969  24.709  1.00  0.00     0.211 HD
ENDBRANCH  15  40
ENDBRANCH   9  10
ENDBRANCH   8   9
ENDBRANCH   3   8
BRANCH   3  42
ATOM     42  C   UNL     1       3.589  20.343  30.506  1.00  0.00     0.364 C 
ATOM     43  O   UNL     1       3.186  19.135  30.583  1.00  0.00    -0.246 OA
BRANCH  42  44
ATOM     44  O   UNL     1       4.932  20.466  30.208  1.00  0.00    -0.477 OA
ATOM     45  H   UNL     1       5.653  20.582  30.914  1.00  0.00     0.296 HD
ENDBRANCH  42  44
ENDBRANCH   3  42
BRANCH   6  46
ATOM     46  O   UNL     1       0.104  22.022  32.935  1.00  0.00    -0.391 OA
ATOM     47  H   UNL     1      -0.536  22.217  32.221  1.00  0.00     0.211 HD
ENDBRANCH   6  46
BRANCH   7  48
ATOM     48  N   UNL     1       2.599  19.974  34.106  1.00  0.00    -0.348 N 
ATOM     49  C   UNL     1       2.754  19.702  35.468  1.00  0.00     0.217 C 
ATOM     50  H   UNL     1       2.710  19.127  33.445  1.00  0.00     0.163 HD
ATOM     51  C   UNL     1       3.117  18.323  35.953  1.00  0.00     0.114 C 
ATOM     52  O   UNL     1       2.602  20.592  36.348  1.00  0.00    -0.275 OA
ENDBRANCH   7  48
ENDBRANCH   1   2
BRANCH   1  53
ATOM     53  O   UNL     1       4.064  22.674  35.063  1.00  0.00    -0.388 OA
ATOM     54  H   UNL     1       4.379  21.752  35.061  1.00  0.00     0.211 HD
ENDBRANCH   1  53
BRANCH   1  55
ATOM     55  C   UNL     1       5.286  23.517  33.248  1.00  0.00     0.165 C 
BRANCH  55  56
ATOM     56  O   UNL     1       5.937  22.663  32.392  1.00  0.00    -0.388 OA
ATOM     57  H   UNL     1       6.926  22.752  32.419  1.00  0.00     0.211 HD
ENDBRANCH  55  56
BRANCH  55  58
ATOM     58  C   UNL     1       6.208  24.039  34.306  1.00  0.00     0.154 C 
BRANCH  58  59
ATOM     59  N   UNL     1       7.543  23.522  34.168  1.00  0.00    -0.319 N 
ATOM     60  C   UNL     1       8.641  24.451  34.334  1.00  0.00     0.407 C 
ATOM     61  H   UNL     1       7.770  22.538  33.958  1.00  0.00     0.167 HD
ATOM     62  O   UNL     1       8.336  25.639  34.612  1.00  0.00    -0.225 OA
BRANCH  60  63
ATOM     63  O   UNL     1       9.940  24.039  34.191  1.00  0.00    -0.443 OA
BRANCH  63  64
ATOM     64  C   UNL     1      10.903  24.370  35.163  1.00  0.00     0.294 C 
BRANCH  64  65
ATOM     65  C   UNL     1      10.646  23.656  36.427  1.00  0.00     0.120 A 
ATOM     66  C   UNL     1      10.380  24.212  37.668  1.00  0.00     0.138 A 
ATOM     67  N   UNL     1      10.584  22.345  36.609  1.00  0.00    -0.132 NA
ATOM     68  N   UNL     1      10.167  23.240  38.556  1.00  0.00    -0.251 N 
ATOM     69  N   UNL     1      10.296  22.090  37.893  1.00  0.00    -0.067 NA
BRANCH  68  70
ATOM     70  C   UNL     1       9.865  23.406  39.968  1.00  0.00     0.162 C 
BRANCH  70  71
ATOM     71  C   UNL     1       8.383  23.732  40.143  1.00  0.00     0.122 C 
BRANCH  71  72
ATOM     72  N   UNL     1       7.580  22.949  39.248  1.00  0.00    -0.214 NA
ATOM     73  H   UNL     1       7.213  22.106  39.766  1.00  0.00     0.141 HD
BRANCH  72  74
ATOM     74  S   UNL     1       6.209  23.803  38.654  1.00  0.00     0.208 S 
ATOM     75  O   UNL     1       5.346  22.879  37.812  1.00  0.00    -0.213 OA
ATOM     76  O   UNL     1       5.411  24.224  39.874  1.00  0.00    -0.213 OA
ATOM     77  C   UNL     1       6.698  25.225  37.727  1.00  0.00     0.176 C 
ENDBRANCH  72  74
ENDBRANCH  71  72
ENDBRANCH  70  71
ENDBRANCH  68  70
ENDBRANCH  64  65
ENDBRANCH  63  64
ENDBRANCH  60  63
ENDBRANCH  58  59
ENDBRANCH  55  58
ENDBRANCH   1  55
TORSDOF 33
