REMARK VINA RESULT:    -6.352      9.004     15.638
REMARK INTER + INTRA:         -20.829
REMARK INTER:                 -16.008
REMARK INTRA:                  -4.822
REMARK UNBOUND:                -4.822
REMARK SMILES CC(=O)N[C@@H]1[C@@H](O)C[C@](OC[C@H]2O[C@@H](O[C@H]3[C@H](O)[C@@H](O)[C@H](OCCN=[N+]=[N-])O[C@@H]3CO)[C@H](O)[C@@H](O)[C@H]2O)(C(=O)O)O[C@H]1C(O)[C@H](O)CNC(=O)OCc1cn(Cc2ccccc2Br)nn1
REMARK SMILES IDX 9 1 8 2 6 3 5 4 42 5 41 6 10 7 11 8 12 9 14 10 13 11 32 12
REMARK SMILES IDX 34 13 36 14 15 15 16 16 29 17 28 18 21 19 17 20 19 21 30 22
REMARK SMILES IDX 31 23 22 25 23 26 24 27 25 28 26 29 27 30 18 31 20 33 33 35
REMARK SMILES IDX 35 37 37 39 38 41 39 42 40 43 7 45 43 47 44 48 45 50 46 51
REMARK SMILES IDX 47 53 48 54 49 55 50 57 51 58 52 59 53 60 54 61 65 62 55 63
REMARK SMILES IDX 64 64 56 65 57 66 58 67 62 68 59 69 61 70 63 71 60 72 4 73
REMARK SMILES IDX 2 74 1 76 3 77
REMARK H PARENT 31 24 18 32 20 34 33 36 35 38 37 40 40 44 7 46 44 49 46 52
REMARK H PARENT 48 56 4 75
REMARK Flexibility Score: inf
ROOT
ATOM      1  C   UNL     1      18.208  28.835  19.602  1.00  0.00     0.272 C 
ATOM      2  C   UNL     1      18.562  30.217  19.218  1.00  0.00     0.113 C 
ATOM      3  C   UNL     1      17.354  31.024  18.900  1.00  0.00     0.145 C 
ATOM      4  C   UNL     1      16.424  31.013  20.080  1.00  0.00     0.142 C 
ATOM      5  C   UNL     1      16.413  29.740  20.835  1.00  0.00     0.178 C 
ATOM      6  O   UNL     1      17.552  29.019  20.909  1.00  0.00    -0.332 OA
ENDROOT
BRANCH   1   7
ATOM      7  O   UNL     1      19.242  28.020  19.881  1.00  0.00    -0.338 OA
BRANCH   7   8
ATOM      8  C   UNL     1      20.160  28.099  20.790  1.00  0.00     0.199 C 
BRANCH   8   9
ATOM      9  C   UNL     1      21.220  27.159  21.159  1.00  0.00     0.179 C 
ATOM     10  C   UNL     1      22.062  25.539  22.548  1.00  0.00     0.282 C 
ATOM     11  O   UNL     1      20.879  26.107  22.016  1.00  0.00    -0.341 OA
ATOM     12  C   UNL     1      22.633  24.668  21.463  1.00  0.00     0.202 C 
ATOM     13  C   UNL     1      22.741  25.402  20.172  1.00  0.00     0.179 C 
ATOM     14  C   UNL     1      22.275  26.831  20.166  1.00  0.00     0.177 C 
BRANCH  10  15
ATOM     15  O   UNL     1      21.693  24.848  23.663  1.00  0.00    -0.341 OA
BRANCH  15  16
ATOM     16  C   UNL     1      21.883  25.436  24.877  1.00  0.00     0.184 C 
ATOM     17  C   UNL     1      22.322  26.858  24.860  1.00  0.00     0.178 C 
ATOM     18  O   UNL     1      23.415  26.989  25.712  1.00  0.00    -0.341 OA
ATOM     19  C   UNL     1      24.453  26.218  25.129  1.00  0.00     0.281 C 
ATOM     20  C   UNL     1      22.767  24.618  25.805  1.00  0.00     0.180 C 
ATOM     21  C   UNL     1      24.229  24.761  25.431  1.00  0.00     0.202 C 
BRANCH  17  22
ATOM     22  C   UNL     1      21.247  27.802  25.396  1.00  0.00     0.191 C 
BRANCH  22  23
ATOM     23  O   UNL     1      20.054  27.634  24.692  1.00  0.00    -0.394 OA
ATOM     24  H   UNL     1      19.978  26.740  24.287  1.00  0.00     0.210 HD
ENDBRANCH  22  23
ENDBRANCH  17  22
BRANCH  19  25
ATOM     25  O   UNL     1      25.638  26.716  25.663  1.00  0.00    -0.350 OA
BRANCH  25  26
ATOM     26  C   UNL     1      25.408  27.498  26.795  1.00  0.00     0.169 C 
BRANCH  26  27
ATOM     27  C   UNL     1      26.181  26.881  27.948  1.00  0.00     0.119 C 
BRANCH  27  28
ATOM     28  N   UNL     1      25.324  25.921  28.597  1.00  0.00    -0.092 NA
ATOM     29  N   UNL     1      25.393  25.705  29.810  1.00  0.00     0.001 N 
ATOM     30  N   UNL     1      25.842  25.276  30.893  1.00  0.00    -0.003 NA
ENDBRANCH  27  28
ENDBRANCH  26  27
ENDBRANCH  25  26
ENDBRANCH  19  25
BRANCH  20  31
ATOM     31  O   UNL     1      22.657  25.070  27.122  1.00  0.00    -0.387 OA
ATOM     32  H   UNL     1      21.713  25.374  27.235  1.00  0.00     0.211 HD
ENDBRANCH  20  31
BRANCH  21  33
ATOM     33  O   UNL     1      24.617  23.911  24.428  1.00  0.00    -0.385 OA
ATOM     34  H   UNL     1      25.597  23.803  24.447  1.00  0.00     0.211 HD
ENDBRANCH  21  33
ENDBRANCH  15  16
ENDBRANCH  10  15
BRANCH  12  35
ATOM     35  O   UNL     1      23.931  24.241  21.785  1.00  0.00    -0.385 OA
ATOM     36  H   UNL     1      23.832  23.434  22.339  1.00  0.00     0.211 HD
ENDBRANCH  12  35
BRANCH  13  37
ATOM     37  O   UNL     1      22.017  24.707  19.193  1.00  0.00    -0.387 OA
ATOM     38  H   UNL     1      22.548  24.004  18.767  1.00  0.00     0.211 HD
ENDBRANCH  13  37
BRANCH  14  39
ATOM     39  O   UNL     1      21.905  27.123  18.862  1.00  0.00    -0.387 OA
ATOM     40  H   UNL     1      22.491  27.720  18.374  1.00  0.00     0.211 HD
ENDBRANCH  14  39
ENDBRANCH   8   9
ENDBRANCH   7   8
ENDBRANCH   1   7
BRANCH   1  41
ATOM     41  C   UNL     1      17.119  28.168  18.858  1.00  0.00     0.364 C 
ATOM     42  O   UNL     1      16.801  28.371  17.664  1.00  0.00    -0.246 OA
BRANCH  41  43
ATOM     43  O   UNL     1      16.348  27.224  19.516  1.00  0.00    -0.477 OA
ATOM     44  H   UNL     1      16.643  26.811  20.401  1.00  0.00     0.296 HD
ENDBRANCH  41  43
ENDBRANCH   1  41
BRANCH   3  45
ATOM     45  O   UNL     1      17.834  32.363  18.729  1.00  0.00    -0.391 OA
ATOM     46  H   UNL     1      18.263  32.682  19.547  1.00  0.00     0.211 HD
ENDBRANCH   3  45
BRANCH   5  47
ATOM     47  C   UNL     1      15.975  30.009  22.277  1.00  0.00     0.176 C 
BRANCH  47  48
ATOM     48  O   UNL     1      16.957  29.493  23.109  1.00  0.00    -0.388 OA
ATOM     49  H   UNL     1      17.604  30.155  23.409  1.00  0.00     0.211 HD
ENDBRANCH  47  48
BRANCH  47  50
ATOM     50  C   UNL     1      14.665  29.383  22.608  1.00  0.00     0.165 C 
BRANCH  50  51
ATOM     51  O   UNL     1      13.585  30.230  22.303  1.00  0.00    -0.388 OA
ATOM     52  H   UNL     1      12.742  29.711  22.270  1.00  0.00     0.211 HD
ENDBRANCH  50  51
BRANCH  50  53
ATOM     53  C   UNL     1      14.563  29.116  24.087  1.00  0.00     0.154 C 
BRANCH  53  54
ATOM     54  N   UNL     1      14.190  30.292  24.788  1.00  0.00    -0.319 N 
ATOM     55  C   UNL     1      15.041  31.000  25.662  1.00  0.00     0.407 C 
ATOM     56  H   UNL     1      13.203  30.658  24.641  1.00  0.00     0.167 HD
ATOM     57  O   UNL     1      16.219  30.623  25.878  1.00  0.00    -0.225 OA
BRANCH  55  58
ATOM     58  O   UNL     1      14.607  32.155  26.325  1.00  0.00    -0.443 OA
BRANCH  58  59
ATOM     59  C   UNL     1      14.288  33.331  25.631  1.00  0.00     0.294 C 
BRANCH  59  60
ATOM     60  C   UNL     1      12.840  33.636  25.584  1.00  0.00     0.120 A 
ATOM     61  C   UNL     1      11.979  33.185  24.571  1.00  0.00     0.138 A 
ATOM     62  N   UNL     1      12.074  34.349  26.414  1.00  0.00    -0.132 NA
ATOM     63  N   UNL     1      10.759  33.638  24.835  1.00  0.00    -0.248 N 
ATOM     64  N   UNL     1      10.837  34.348  25.966  1.00  0.00    -0.067 NA
BRANCH  63  65
ATOM     65  C   UNL     1       9.514  33.435  24.095  1.00  0.00     0.182 C 
BRANCH  65  66
ATOM     66  C   UNL     1       8.724  32.282  24.576  1.00  0.00    -0.012 A 
ATOM     67  C   UNL     1       9.053  31.019  24.057  1.00  0.00     0.007 A 
ATOM     68  C   UNL     1       7.686  32.371  25.463  1.00  0.00     0.023 A 
ATOM     69  C   UNL     1       8.331  29.934  24.450  1.00  0.00     0.000 A 
ATOM     70  C   UNL     1       6.960  31.257  25.853  1.00  0.00     0.016 A 
ATOM     71  Br  UNL     1       7.229  34.040  26.248  1.00  0.00    -0.050 Br
ATOM     72  C   UNL     1       7.294  30.033  25.337  1.00  0.00     0.001 A 
ENDBRANCH  65  66
ENDBRANCH  63  65
ENDBRANCH  59  60
ENDBRANCH  58  59
ENDBRANCH  55  58
ENDBRANCH  53  54
ENDBRANCH  50  53
ENDBRANCH  47  50
ENDBRANCH   5  47
BRANCH   4  73
ATOM     73  N   UNL     1      15.096  31.340  19.631  1.00  0.00    -0.348 N 
ATOM     74  C   UNL     1      14.423  32.549  19.984  1.00  0.00     0.217 C 
ATOM     75  H   UNL     1      14.548  30.700  19.018  1.00  0.00     0.163 HD
ATOM     76  C   UNL     1      13.040  32.823  19.482  1.00  0.00     0.114 C 
ATOM     77  O   UNL     1      15.015  33.356  20.712  1.00  0.00    -0.275 OA
ENDBRANCH   4  73
TORSDOF 31
