REMARK VINA RESULT:    -5.504      4.438     12.419
REMARK INTER + INTRA:         -20.724
REMARK INTER:                 -16.430
REMARK INTRA:                  -4.294
REMARK UNBOUND:                -6.855
REMARK SMILES CC(=O)N[C@@H]1[C@@H](O)C[C@](OC[C@H]2O[C@@H](O[C@H]3[C@H](O)[C@@H](O)[C@H](OCCN=[N+]=[N-])O[C@@H]3CO)[C@H](O)[C@@H](O)[C@H]2O)(C(=O)O)O[C@H]1C(O)[C@H](O)CNC(=O)OCc1cn(Cc2ccsc2)nn1
REMARK SMILES IDX 9 1 8 2 6 3 5 4 42 5 41 6 10 7 11 8 12 9 14 10 13 11 32 12
REMARK SMILES IDX 34 13 36 14 15 15 16 16 29 17 28 18 21 19 17 20 19 21 30 22
REMARK SMILES IDX 31 23 22 25 23 26 24 27 25 28 26 29 27 30 18 31 20 33 33 35
REMARK SMILES IDX 35 37 37 39 38 41 39 42 40 43 7 45 43 47 44 48 45 50 46 51
REMARK SMILES IDX 47 53 48 54 49 55 50 57 51 58 52 59 53 60 54 61 63 62 55 63
REMARK SMILES IDX 62 64 56 65 57 66 58 67 61 68 59 69 60 70 4 71 2 72 1 74
REMARK SMILES IDX 3 75
REMARK H PARENT 31 24 18 32 20 34 33 36 35 38 37 40 40 44 7 46 44 49 46 52
REMARK H PARENT 48 56 4 73
REMARK Flexibility Score: inf
ROOT
ATOM      1  C   UNL     1      21.789  22.226  12.623  1.00  0.00     0.272 C 
ATOM      2  C   UNL     1      20.330  21.960  12.408  1.00  0.00     0.113 C 
ATOM      3  C   UNL     1      20.023  20.859  11.429  1.00  0.00     0.145 C 
ATOM      4  C   UNL     1      20.895  19.675  11.590  1.00  0.00     0.142 C 
ATOM      5  C   UNL     1      22.266  19.971  12.168  1.00  0.00     0.178 C 
ATOM      6  O   UNL     1      22.326  20.960  13.084  1.00  0.00    -0.332 OA
ENDROOT
BRANCH   1   7
ATOM      7  O   UNL     1      21.958  23.002  13.715  1.00  0.00    -0.338 OA
BRANCH   7   8
ATOM      8  C   UNL     1      23.054  23.079  14.446  1.00  0.00     0.199 C 
BRANCH   8   9
ATOM      9  C   UNL     1      23.503  24.274  15.179  1.00  0.00     0.179 C 
ATOM     10  C   UNL     1      22.993  25.313  17.137  1.00  0.00     0.282 C 
ATOM     11  O   UNL     1      23.158  24.032  16.562  1.00  0.00    -0.341 OA
ATOM     12  C   UNL     1      24.132  26.229  16.846  1.00  0.00     0.202 C 
ATOM     13  C   UNL     1      25.301  25.636  16.147  1.00  0.00     0.179 C 
ATOM     14  C   UNL     1      25.009  24.450  15.272  1.00  0.00     0.177 C 
BRANCH  10  15
ATOM     15  O   UNL     1      22.750  25.142  18.476  1.00  0.00    -0.341 OA
BRANCH  15  16
ATOM     16  C   UNL     1      23.069  26.265  19.259  1.00  0.00     0.184 C 
ATOM     17  C   UNL     1      23.730  25.886  20.536  1.00  0.00     0.178 C 
ATOM     18  O   UNL     1      22.945  25.780  21.643  1.00  0.00    -0.341 OA
ATOM     19  C   UNL     1      21.569  25.955  21.414  1.00  0.00     0.281 C 
ATOM     20  C   UNL     1      21.915  27.210  19.379  1.00  0.00     0.180 C 
ATOM     21  C   UNL     1      21.430  27.334  20.830  1.00  0.00     0.202 C 
BRANCH  17  22
ATOM     22  C   UNL     1      24.910  26.784  20.871  1.00  0.00     0.191 C 
BRANCH  22  23
ATOM     23  O   UNL     1      25.726  26.813  19.741  1.00  0.00    -0.394 OA
ATOM     24  H   UNL     1      26.020  27.747  19.522  1.00  0.00     0.210 HD
ENDBRANCH  22  23
ENDBRANCH  17  22
BRANCH  19  25
ATOM     25  O   UNL     1      20.930  25.752  22.607  1.00  0.00    -0.350 OA
BRANCH  25  26
ATOM     26  C   UNL     1      21.580  26.295  23.698  1.00  0.00     0.169 C 
BRANCH  26  27
ATOM     27  C   UNL     1      21.323  25.625  25.007  1.00  0.00     0.119 C 
BRANCH  27  28
ATOM     28  N   UNL     1      22.251  24.550  25.232  1.00  0.00    -0.092 NA
ATOM     29  N   UNL     1      23.422  24.698  24.849  1.00  0.00     0.001 N 
ATOM     30  N   UNL     1      24.637  24.603  24.675  1.00  0.00    -0.003 NA
ENDBRANCH  27  28
ENDBRANCH  26  27
ENDBRANCH  25  26
ENDBRANCH  19  25
BRANCH  20  31
ATOM     31  O   UNL     1      22.138  28.454  18.828  1.00  0.00    -0.387 OA
ATOM     32  H   UNL     1      22.171  29.150  19.516  1.00  0.00     0.211 HD
ENDBRANCH  20  31
BRANCH  21  33
ATOM     33  O   UNL     1      20.151  27.821  20.917  1.00  0.00    -0.385 OA
ATOM     34  H   UNL     1      19.884  28.344  20.113  1.00  0.00     0.211 HD
ENDBRANCH  21  33
ENDBRANCH  15  16
ENDBRANCH  10  15
BRANCH  12  35
ATOM     35  O   UNL     1      23.690  27.418  16.208  1.00  0.00    -0.385 OA
ATOM     36  H   UNL     1      23.733  27.303  15.222  1.00  0.00     0.211 HD
ENDBRANCH  12  35
BRANCH  13  37
ATOM     37  O   UNL     1      26.236  25.209  17.111  1.00  0.00    -0.387 OA
ATOM     38  H   UNL     1      25.783  24.583  17.722  1.00  0.00     0.211 HD
ENDBRANCH  13  37
BRANCH  14  39
ATOM     39  O   UNL     1      25.472  23.259  15.883  1.00  0.00    -0.387 OA
ATOM     40  H   UNL     1      25.708  23.538  16.822  1.00  0.00     0.211 HD
ENDBRANCH  14  39
ENDBRANCH   8   9
ENDBRANCH   7   8
ENDBRANCH   1   7
BRANCH   1  41
ATOM     41  C   UNL     1      22.554  22.512  11.410  1.00  0.00     0.364 C 
ATOM     42  O   UNL     1      22.029  22.890  10.345  1.00  0.00    -0.246 OA
BRANCH  41  43
ATOM     43  O   UNL     1      23.954  22.376  11.360  1.00  0.00    -0.477 OA
ATOM     44  H   UNL     1      24.451  21.857  12.070  1.00  0.00     0.296 HD
ENDBRANCH  41  43
ENDBRANCH   1  41
BRANCH   3  45
ATOM     45  O   UNL     1      18.693  20.470  11.745  1.00  0.00    -0.391 OA
ATOM     46  H   UNL     1      18.364  19.812  11.071  1.00  0.00     0.211 HD
ENDBRANCH   3  45
BRANCH   5  47
ATOM     47  C   UNL     1      22.744  18.701  12.915  1.00  0.00     0.176 C 
BRANCH  47  48
ATOM     48  O   UNL     1      23.016  19.034  14.240  1.00  0.00    -0.388 OA
ATOM     49  H   UNL     1      23.974  19.230  14.349  1.00  0.00     0.211 HD
ENDBRANCH  47  48
BRANCH  47  50
ATOM     50  C   UNL     1      24.009  18.248  12.278  1.00  0.00     0.165 C 
BRANCH  50  51
ATOM     51  O   UNL     1      24.519  17.168  12.998  1.00  0.00    -0.388 OA
ATOM     52  H   UNL     1      25.397  17.388  13.393  1.00  0.00     0.211 HD
ENDBRANCH  50  51
BRANCH  50  53
ATOM     53  C   UNL     1      25.085  19.298  12.201  1.00  0.00     0.154 C 
BRANCH  53  54
ATOM     54  N   UNL     1      26.101  19.145  13.199  1.00  0.00    -0.319 N 
ATOM     55  C   UNL     1      26.196  19.888  14.381  1.00  0.00     0.407 C 
ATOM     56  H   UNL     1      26.845  18.404  13.024  1.00  0.00     0.167 HD
ATOM     57  O   UNL     1      25.340  20.766  14.620  1.00  0.00    -0.225 OA
BRANCH  55  58
ATOM     58  O   UNL     1      27.230  19.638  15.259  1.00  0.00    -0.443 OA
BRANCH  58  59
ATOM     59  C   UNL     1      27.904  20.626  15.983  1.00  0.00     0.294 C 
BRANCH  59  60
ATOM     60  C   UNL     1      28.260  20.095  17.314  1.00  0.00     0.120 A 
ATOM     61  C   UNL     1      28.105  20.721  18.511  1.00  0.00     0.138 A 
ATOM     62  N   UNL     1      28.801  18.890  17.545  1.00  0.00    -0.132 NA
ATOM     63  N   UNL     1      28.557  19.878  19.456  1.00  0.00    -0.248 N 
ATOM     64  N   UNL     1      28.974  18.778  18.865  1.00  0.00    -0.067 NA
BRANCH  63  65
ATOM     65  C   UNL     1      28.574  20.150  20.871  1.00  0.00     0.182 C 
BRANCH  65  66
ATOM     66  C   UNL     1      28.683  21.667  21.072  1.00  0.00    -0.016 A 
ATOM     67  C   UNL     1      27.666  22.437  21.402  1.00  0.00     0.017 A 
ATOM     68  C   UNL     1      29.939  22.244  20.891  1.00  0.00     0.070 A 
ATOM     69  C   UNL     1      27.822  23.801  21.572  1.00  0.00     0.065 A 
ATOM     70  S   UNL     1      29.609  23.986  21.218  1.00  0.00    -0.152 S 
ENDBRANCH  65  66
ENDBRANCH  63  65
ENDBRANCH  59  60
ENDBRANCH  58  59
ENDBRANCH  55  58
ENDBRANCH  53  54
ENDBRANCH  50  53
ENDBRANCH  47  50
ENDBRANCH   5  47
BRANCH   4  71
ATOM     71  N   UNL     1      21.088  18.903  10.400  1.00  0.00    -0.348 N 
ATOM     72  C   UNL     1      20.154  17.930   9.957  1.00  0.00     0.217 C 
ATOM     73  H   UNL     1      21.942  19.045   9.818  1.00  0.00     0.163 HD
ATOM     74  C   UNL     1      20.345  17.118   8.715  1.00  0.00     0.114 C 
ATOM     75  O   UNL     1      19.131  17.784  10.686  1.00  0.00    -0.275 OA
ENDBRANCH   4  71
TORSDOF 31
