REMARK VINA RESULT:    -4.777      4.319      9.753
REMARK INTER + INTRA:         -21.113
REMARK INTER:                 -12.178
REMARK INTRA:                  -8.936
REMARK UNBOUND:                -8.936
REMARK SMILES CC(=O)N[C@@H]1[C@@H](O)C[C@](OC[C@H]2O[C@@H](O[C@H]3[C@H](O)[C@@H](O)[C@H](OCCN=[N+]=[N-])O[C@@H]3CO)[C@H](O)[C@@H](O)[C@H]2O)(C(=O)O)O[C@H]1C(O)[C@H](O)CNC(=O)OCc1cn(-c2ccc(S(N)(=O)=O)cc2)nn1
REMARK SMILES IDX 9 1 8 2 6 3 5 4 42 5 41 6 10 7 11 8 12 9 14 10 13 11 32 12
REMARK SMILES IDX 34 13 36 14 15 15 16 16 29 17 28 18 21 19 17 20 19 21 30 22
REMARK SMILES IDX 31 23 22 25 23 26 24 27 25 28 26 29 27 30 18 31 20 33 33 35
REMARK SMILES IDX 35 37 37 39 38 41 39 42 40 43 7 45 43 47 44 48 45 50 46 51
REMARK SMILES IDX 47 53 48 54 49 55 50 57 51 58 52 59 53 60 54 61 67 62 55 63
REMARK SMILES IDX 66 64 56 65 57 66 65 67 58 68 64 69 59 70 60 71 62 72 63 73
REMARK SMILES IDX 61 74 4 77 2 78 1 80 3 81
REMARK H PARENT 31 24 18 32 20 34 33 36 35 38 37 40 40 44 7 46 44 49 46 52
REMARK H PARENT 48 56 61 75 61 76 4 79
REMARK Flexibility Score: inf
ROOT
ATOM      1  C   UNL     1      22.974  25.989  20.475  1.00  0.00     0.272 C 
ATOM      2  C   UNL     1      22.538  24.814  21.365  1.00  0.00     0.113 C 
ATOM      3  C   UNL     1      21.766  25.268  22.554  1.00  0.00     0.145 C 
ATOM      4  C   UNL     1      22.383  26.533  23.091  1.00  0.00     0.142 C 
ATOM      5  C   UNL     1      23.823  26.534  22.563  1.00  0.00     0.178 C 
ATOM      6  O   UNL     1      23.724  26.872  21.215  1.00  0.00    -0.332 OA
ENDROOT
BRANCH   1   7
ATOM      7  O   UNL     1      21.799  26.521  19.961  1.00  0.00    -0.338 OA
BRANCH   7   8
ATOM      8  C   UNL     1      21.976  27.401  18.930  1.00  0.00     0.199 C 
BRANCH   8   9
ATOM      9  C   UNL     1      20.967  28.546  19.123  1.00  0.00     0.179 C 
ATOM     10  C   UNL     1      18.910  28.827  20.203  1.00  0.00     0.282 C 
ATOM     11  O   UNL     1      19.784  27.971  19.462  1.00  0.00    -0.341 OA
ATOM     12  C   UNL     1      19.634  29.020  21.504  1.00  0.00     0.202 C 
ATOM     13  C   UNL     1      20.873  29.878  21.281  1.00  0.00     0.179 C 
ATOM     14  C   UNL     1      21.490  29.650  19.950  1.00  0.00     0.177 C 
BRANCH  10  15
ATOM     15  O   UNL     1      17.747  28.161  20.368  1.00  0.00    -0.341 OA
BRANCH  15  16
ATOM     16  C   UNL     1      16.600  28.818  19.850  1.00  0.00     0.184 C 
ATOM     17  C   UNL     1      17.049  29.864  18.936  1.00  0.00     0.178 C 
ATOM     18  O   UNL     1      16.374  31.067  18.978  1.00  0.00    -0.341 OA
ATOM     19  C   UNL     1      15.089  31.037  19.439  1.00  0.00     0.281 C 
ATOM     20  C   UNL     1      15.728  29.271  20.998  1.00  0.00     0.180 C 
ATOM     21  C   UNL     1      15.135  30.621  20.885  1.00  0.00     0.202 C 
BRANCH  17  22
ATOM     22  C   UNL     1      17.082  29.447  17.480  1.00  0.00     0.191 C 
BRANCH  22  23
ATOM     23  O   UNL     1      16.139  28.459  17.233  1.00  0.00    -0.394 OA
ATOM     24  H   UNL     1      15.963  28.346  16.266  1.00  0.00     0.210 HD
ENDBRANCH  22  23
ENDBRANCH  17  22
BRANCH  19  25
ATOM     25  O   UNL     1      14.197  30.298  18.700  1.00  0.00    -0.350 OA
BRANCH  25  26
ATOM     26  C   UNL     1      13.492  31.124  17.832  1.00  0.00     0.169 C 
BRANCH  26  27
ATOM     27  C   UNL     1      12.950  30.257  16.699  1.00  0.00     0.119 C 
BRANCH  27  28
ATOM     28  N   UNL     1      14.031  29.966  15.799  1.00  0.00    -0.092 NA
ATOM     29  N   UNL     1      14.597  30.859  15.131  1.00  0.00     0.001 N 
ATOM     30  N   UNL     1      14.783  31.505  14.085  1.00  0.00    -0.003 NA
ENDBRANCH  27  28
ENDBRANCH  26  27
ENDBRANCH  25  26
ENDBRANCH  19  25
BRANCH  20  31
ATOM     31  O   UNL     1      14.688  28.366  21.227  1.00  0.00    -0.387 OA
ATOM     32  H   UNL     1      13.968  28.820  21.722  1.00  0.00     0.211 HD
ENDBRANCH  20  31
BRANCH  21  33
ATOM     33  O   UNL     1      15.784  31.596  21.634  1.00  0.00    -0.385 OA
ATOM     34  H   UNL     1      15.609  32.457  21.133  1.00  0.00     0.211 HD
ENDBRANCH  21  33
ENDBRANCH  15  16
ENDBRANCH  10  15
BRANCH  12  35
ATOM     35  O   UNL     1      18.867  29.447  22.547  1.00  0.00    -0.385 OA
ATOM     36  H   UNL     1      19.356  29.750  23.336  1.00  0.00     0.211 HD
ENDBRANCH  12  35
BRANCH  13  37
ATOM     37  O   UNL     1      21.743  29.802  22.356  1.00  0.00    -0.387 OA
ATOM     38  H   UNL     1      22.522  30.393  22.309  1.00  0.00     0.211 HD
ENDBRANCH  13  37
BRANCH  14  39
ATOM     39  O   UNL     1      22.867  29.398  20.168  1.00  0.00    -0.387 OA
ATOM     40  H   UNL     1      23.070  28.587  19.617  1.00  0.00     0.211 HD
ENDBRANCH  14  39
ENDBRANCH   8   9
ENDBRANCH   7   8
ENDBRANCH   1   7
BRANCH   1  41
ATOM     41  C   UNL     1      23.780  25.331  19.380  1.00  0.00     0.364 C 
ATOM     42  O   UNL     1      23.321  24.355  18.737  1.00  0.00    -0.246 OA
BRANCH  41  43
ATOM     43  O   UNL     1      25.043  25.782  19.049  1.00  0.00    -0.477 OA
ATOM     44  H   UNL     1      25.542  26.338  19.727  1.00  0.00     0.296 HD
ENDBRANCH  41  43
ENDBRANCH   1  41
BRANCH   3  45
ATOM     45  O   UNL     1      20.430  25.417  22.188  1.00  0.00    -0.391 OA
ATOM     46  H   UNL     1      20.378  25.969  21.373  1.00  0.00     0.211 HD
ENDBRANCH   3  45
BRANCH   5  47
ATOM     47  C   UNL     1      24.655  27.570  23.270  1.00  0.00     0.176 C 
BRANCH  47  48
ATOM     48  O   UNL     1      25.547  27.050  24.185  1.00  0.00    -0.388 OA
ATOM     49  H   UNL     1      26.486  27.081  23.871  1.00  0.00     0.211 HD
ENDBRANCH  47  48
BRANCH  47  50
ATOM     50  C   UNL     1      25.392  28.426  22.266  1.00  0.00     0.165 C 
BRANCH  50  51
ATOM     51  O   UNL     1      26.610  27.813  21.904  1.00  0.00    -0.388 OA
ATOM     52  H   UNL     1      27.313  28.017  22.585  1.00  0.00     0.211 HD
ENDBRANCH  50  51
BRANCH  50  53
ATOM     53  C   UNL     1      25.657  29.813  22.794  1.00  0.00     0.154 C 
BRANCH  53  54
ATOM     54  N   UNL     1      24.532  30.694  22.586  1.00  0.00    -0.319 N 
ATOM     55  C   UNL     1      23.930  31.342  23.695  1.00  0.00     0.407 C 
ATOM     56  H   UNL     1      24.134  30.877  21.643  1.00  0.00     0.167 HD
ATOM     57  O   UNL     1      24.400  31.127  24.851  1.00  0.00    -0.225 OA
BRANCH  55  58
ATOM     58  O   UNL     1      22.853  32.206  23.601  1.00  0.00    -0.443 OA
BRANCH  58  59
ATOM     59  C   UNL     1      22.180  32.705  24.732  1.00  0.00     0.294 C 
BRANCH  59  60
ATOM     60  C   UNL     1      20.855  32.039  24.841  1.00  0.00     0.121 A 
ATOM     61  C   UNL     1      19.609  32.671  24.754  1.00  0.00     0.144 A 
ATOM     62  N   UNL     1      20.555  30.745  25.042  1.00  0.00    -0.131 NA
ATOM     63  N   UNL     1      18.630  31.745  24.904  1.00  0.00    -0.220 N 
ATOM     64  N   UNL     1      19.222  30.601  25.075  1.00  0.00    -0.062 NA
BRANCH  63  65
ATOM     65  C   UNL     1      17.218  31.982  24.882  1.00  0.00     0.066 A 
ATOM     66  C   UNL     1      16.320  30.961  25.095  1.00  0.00     0.030 A 
ATOM     67  C   UNL     1      16.714  33.242  24.650  1.00  0.00     0.030 A 
ATOM     68  C   UNL     1      14.947  31.196  25.075  1.00  0.00     0.024 A 
ATOM     69  C   UNL     1      15.342  33.488  24.629  1.00  0.00     0.024 A 
ATOM     70  C   UNL     1      14.445  32.461  24.842  1.00  0.00     0.082 A 
BRANCH  70  71
ATOM     71  S   UNL     1      12.702  32.726  24.825  1.00  0.00     0.238 S 
ATOM     72  O   UNL     1      11.963  31.439  24.547  1.00  0.00    -0.207 OA
ATOM     73  O   UNL     1      12.236  33.225  26.158  1.00  0.00    -0.207 OA
BRANCH  71  74
ATOM     74  N   UNL     1      12.266  33.897  23.620  1.00  0.00    -0.225 NA
ATOM     75  H   UNL     1      11.702  34.652  24.105  1.00  0.00     0.137 HD
ATOM     76  H   UNL     1      11.712  33.474  22.839  1.00  0.00     0.137 HD
ENDBRANCH  71  74
ENDBRANCH  70  71
ENDBRANCH  63  65
ENDBRANCH  59  60
ENDBRANCH  58  59
ENDBRANCH  55  58
ENDBRANCH  53  54
ENDBRANCH  50  53
ENDBRANCH  47  50
ENDBRANCH   5  47
BRANCH   4  77
ATOM     77  N   UNL     1      22.364  26.642  24.526  1.00  0.00    -0.348 N 
ATOM     78  C   UNL     1      21.212  27.116  25.187  1.00  0.00     0.217 C 
ATOM     79  H   UNL     1      23.190  26.373  25.092  1.00  0.00     0.163 HD
ATOM     80  C   UNL     1      21.232  27.215  26.668  1.00  0.00     0.114 C 
ATOM     81  O   UNL     1      20.172  27.459  24.580  1.00  0.00    -0.275 OA
ENDBRANCH   4  77
TORSDOF 32
