REMARK VINA RESULT:    -6.090      9.742     13.994
REMARK INTER + INTRA:         -20.954
REMARK INTER:                 -16.935
REMARK INTRA:                  -4.019
REMARK UNBOUND:                -5.964
REMARK SMILES CC(=O)N[C@@H]1[C@@H](O)C[C@](OC[C@H]2O[C@@H](O[C@H]3[C@H](O)[C@@H](O)[C@H](OCCN=[N+]=[N-])O[C@@H]3CO)[C@H](O)[C@@H](O)[C@H]2O)(C(=O)O)O[C@H]1C(O)[C@H](O)CNC(=O)OCc1cn(C2CCN(C)CC2)nn1
REMARK SMILES IDX 9 1 8 2 6 3 5 4 42 5 41 6 10 7 11 8 12 9 14 10 13 11 32 12
REMARK SMILES IDX 34 13 36 14 15 15 16 16 29 17 28 18 21 19 17 20 19 21 30 22
REMARK SMILES IDX 31 23 22 25 23 26 24 27 25 28 26 29 27 30 18 31 20 33 33 35
REMARK SMILES IDX 35 37 37 39 38 41 39 42 40 43 7 45 43 47 44 48 45 50 46 51
REMARK SMILES IDX 47 53 48 54 49 55 50 57 51 58 52 59 53 60 54 61 64 62 55 63
REMARK SMILES IDX 63 64 56 65 57 66 62 67 58 68 61 69 59 70 60 71 4 72 2 73
REMARK SMILES IDX 1 75 3 76
REMARK H PARENT 31 24 18 32 20 34 33 36 35 38 37 40 40 44 7 46 44 49 46 52
REMARK H PARENT 48 56 4 74
REMARK Flexibility Score: inf
ROOT
ATOM      1  C   UNL     1      19.856  28.459  20.350  1.00  0.00     0.272 C 
ATOM      2  C   UNL     1      19.821  29.880  20.885  1.00  0.00     0.113 C 
ATOM      3  C   UNL     1      19.056  30.857  20.094  1.00  0.00     0.145 C 
ATOM      4  C   UNL     1      17.771  30.327  19.497  1.00  0.00     0.142 C 
ATOM      5  C   UNL     1      17.743  28.852  19.371  1.00  0.00     0.178 C 
ATOM      6  O   UNL     1      18.486  28.086  20.161  1.00  0.00    -0.332 OA
ENDROOT
BRANCH   1   7
ATOM      7  O   UNL     1      20.241  27.643  21.343  1.00  0.00    -0.338 OA
BRANCH   7   8
ATOM      8  C   UNL     1      21.307  26.951  21.561  1.00  0.00     0.199 C 
BRANCH   8   9
ATOM      9  C   UNL     1      21.317  25.478  21.834  1.00  0.00     0.179 C 
ATOM     10  C   UNL     1      23.592  24.783  22.035  1.00  0.00     0.282 C 
ATOM     11  O   UNL     1      22.476  24.989  21.298  1.00  0.00    -0.341 OA
ATOM     12  C   UNL     1      23.485  25.189  23.440  1.00  0.00     0.202 C 
ATOM     13  C   UNL     1      22.222  24.495  23.979  1.00  0.00     0.179 C 
ATOM     14  C   UNL     1      21.080  25.120  23.263  1.00  0.00     0.177 C 
BRANCH  10  15
ATOM     15  O   UNL     1      24.613  25.334  21.271  1.00  0.00    -0.341 OA
BRANCH  15  16
ATOM     16  C   UNL     1      25.106  24.602  20.271  1.00  0.00     0.184 C 
ATOM     17  C   UNL     1      26.588  24.481  20.362  1.00  0.00     0.178 C 
ATOM     18  O   UNL     1      26.995  23.395  19.579  1.00  0.00    -0.341 OA
ATOM     19  C   UNL     1      26.783  23.672  18.249  1.00  0.00     0.281 C 
ATOM     20  C   UNL     1      24.872  25.209  18.878  1.00  0.00     0.180 C 
ATOM     21  C   UNL     1      25.396  24.151  17.912  1.00  0.00     0.202 C 
BRANCH  17  22
ATOM     22  C   UNL     1      27.140  24.427  21.744  1.00  0.00     0.191 C 
BRANCH  22  23
ATOM     23  O   UNL     1      26.553  23.365  22.420  1.00  0.00    -0.394 OA
ATOM     24  H   UNL     1      26.300  23.608  23.346  1.00  0.00     0.210 HD
ENDBRANCH  22  23
ENDBRANCH  17  22
BRANCH  19  25
ATOM     25  O   UNL     1      26.949  22.462  17.561  1.00  0.00    -0.350 OA
BRANCH  25  26
ATOM     26  C   UNL     1      28.143  21.836  17.807  1.00  0.00     0.169 C 
BRANCH  26  27
ATOM     27  C   UNL     1      28.100  20.337  17.589  1.00  0.00     0.119 C 
BRANCH  27  28
ATOM     28  N   UNL     1      27.714  20.020  16.227  1.00  0.00    -0.092 NA
ATOM     29  N   UNL     1      28.440  20.311  15.279  1.00  0.00     0.001 N 
ATOM     30  N   UNL     1      28.803  20.918  14.269  1.00  0.00    -0.003 NA
ENDBRANCH  27  28
ENDBRANCH  26  27
ENDBRANCH  25  26
ENDBRANCH  19  25
BRANCH  20  31
ATOM     31  O   UNL     1      23.548  25.388  18.583  1.00  0.00    -0.387 OA
ATOM     32  H   UNL     1      23.470  25.961  17.789  1.00  0.00     0.211 HD
ENDBRANCH  20  31
BRANCH  21  33
ATOM     33  O   UNL     1      25.360  24.648  16.633  1.00  0.00    -0.385 OA
ATOM     34  H   UNL     1      24.469  24.650  16.248  1.00  0.00     0.211 HD
ENDBRANCH  21  33
ENDBRANCH  15  16
ENDBRANCH  10  15
BRANCH  12  35
ATOM     35  O   UNL     1      24.492  24.705  24.274  1.00  0.00    -0.385 OA
ATOM     36  H   UNL     1      25.042  25.453  24.616  1.00  0.00     0.211 HD
ENDBRANCH  12  35
BRANCH  13  37
ATOM     37  O   UNL     1      22.113  24.584  25.344  1.00  0.00    -0.387 OA
ATOM     38  H   UNL     1      22.401  23.717  25.727  1.00  0.00     0.211 HD
ENDBRANCH  13  37
BRANCH  14  39
ATOM     39  O   UNL     1      20.698  26.265  23.957  1.00  0.00    -0.387 OA
ATOM     40  H   UNL     1      19.723  26.346  24.066  1.00  0.00     0.211 HD
ENDBRANCH  14  39
ENDBRANCH   8   9
ENDBRANCH   7   8
ENDBRANCH   1   7
BRANCH   1  41
ATOM     41  C   UNL     1      20.516  28.456  19.053  1.00  0.00     0.364 C 
ATOM     42  O   UNL     1      21.667  29.052  18.980  1.00  0.00    -0.246 OA
BRANCH  41  43
ATOM     43  O   UNL     1      20.129  27.925  17.852  1.00  0.00    -0.477 OA
ATOM     44  H   UNL     1      19.526  27.109  17.751  1.00  0.00     0.296 HD
ENDBRANCH  41  43
ENDBRANCH   1  41
BRANCH   3  45
ATOM     45  O   UNL     1      18.739  31.971  20.927  1.00  0.00    -0.391 OA
ATOM     46  H   UNL     1      17.805  32.243  20.808  1.00  0.00     0.211 HD
ENDBRANCH   3  45
BRANCH   5  47
ATOM     47  C   UNL     1      16.286  28.321  19.465  1.00  0.00     0.176 C 
BRANCH  47  48
ATOM     48  O   UNL     1      15.697  28.390  18.210  1.00  0.00    -0.388 OA
ATOM     49  H   UNL     1      15.911  27.621  17.642  1.00  0.00     0.211 HD
ENDBRANCH  47  48
BRANCH  47  50
ATOM     50  C   UNL     1      15.528  29.063  20.467  1.00  0.00     0.165 C 
BRANCH  50  51
ATOM     51  O   UNL     1      16.156  28.770  21.740  1.00  0.00    -0.388 OA
ATOM     52  H   UNL     1      16.019  29.537  22.347  1.00  0.00     0.211 HD
ENDBRANCH  50  51
BRANCH  50  53
ATOM     53  C   UNL     1      14.087  28.845  20.641  1.00  0.00     0.154 C 
BRANCH  53  54
ATOM     54  N   UNL     1      13.464  28.776  21.894  1.00  0.00    -0.319 N 
ATOM     55  C   UNL     1      12.716  29.791  22.541  1.00  0.00     0.407 C 
ATOM     56  H   UNL     1      13.558  27.851  22.439  1.00  0.00     0.167 HD
ATOM     57  O   UNL     1      12.505  30.892  21.995  1.00  0.00    -0.225 OA
BRANCH  55  58
ATOM     58  O   UNL     1      12.208  29.531  23.834  1.00  0.00    -0.443 OA
BRANCH  58  59
ATOM     59  C   UNL     1      10.969  30.082  24.198  1.00  0.00     0.294 C 
BRANCH  59  60
ATOM     60  C   UNL     1      10.033  28.977  24.514  1.00  0.00     0.120 A 
ATOM     61  C   UNL     1       8.629  29.063  24.514  1.00  0.00     0.138 A 
ATOM     62  N   UNL     1      10.273  27.701  24.847  1.00  0.00    -0.132 NA
ATOM     63  N   UNL     1       8.102  27.869  24.838  1.00  0.00    -0.249 N 
ATOM     64  N   UNL     1       9.116  27.067  25.033  1.00  0.00    -0.067 NA
BRANCH  63  65
ATOM     65  C   UNL     1       6.697  27.553  24.943  1.00  0.00     0.111 C 
ATOM     66  C   UNL     1       6.369  27.414  26.402  1.00  0.00     0.043 C 
ATOM     67  C   UNL     1       5.826  28.618  24.336  1.00  0.00     0.043 C 
ATOM     68  C   UNL     1       5.650  28.658  26.872  1.00  0.00     0.086 C 
ATOM     69  C   UNL     1       4.403  28.569  24.826  1.00  0.00     0.086 C 
ATOM     70  N   UNL     1       4.318  28.653  26.269  1.00  0.00    -0.306 NA
ATOM     71  C   UNL     1       3.613  27.486  26.772  1.00  0.00     0.105 C 
ENDBRANCH  63  65
ENDBRANCH  59  60
ENDBRANCH  58  59
ENDBRANCH  55  58
ENDBRANCH  53  54
ENDBRANCH  50  53
ENDBRANCH  47  50
ENDBRANCH   5  47
BRANCH   4  72
ATOM     72  N   UNL     1      17.463  30.972  18.236  1.00  0.00    -0.348 N 
ATOM     73  C   UNL     1      16.544  32.046  18.216  1.00  0.00     0.217 C 
ATOM     74  H   UNL     1      17.898  30.670  17.330  1.00  0.00     0.163 HD
ATOM     75  C   UNL     1      16.188  32.745  16.939  1.00  0.00     0.114 C 
ATOM     76  O   UNL     1      16.001  32.437  19.299  1.00  0.00    -0.275 OA
ENDBRANCH   4  72
TORSDOF 30
