REMARK VINA RESULT:    -6.013      4.459     11.906
REMARK INTER + INTRA:         -22.355
REMARK INTER:                 -18.383
REMARK INTRA:                  -3.972
REMARK UNBOUND:                -7.203
REMARK SMILES CC(=O)N[C@@H]1[C@@H](O)C[C@](OC[C@H]2O[C@@H](O[C@H]3[C@H](O)[C@@H](O)[C@H](OCCN=[N+]=[N-])O[C@@H]3CO)[C@H](O)[C@@H](O)[C@H]2O)(C(=O)O)O[C@H]1C(O)[C@H](O)CNC(=O)OCc1cn(CC2=CC[C@H]3C[C@@H]2C3(C)C)nn1
REMARK SMILES IDX 9 1 8 2 6 3 5 4 42 5 41 6 10 7 11 8 12 9 14 10 13 11 32 12
REMARK SMILES IDX 34 13 36 14 15 15 16 16 29 17 28 18 21 19 17 20 19 21 30 22
REMARK SMILES IDX 31 23 22 25 23 26 24 27 25 28 26 29 27 30 18 31 20 33 33 35
REMARK SMILES IDX 35 37 37 39 38 41 39 42 40 43 7 45 43 47 44 48 45 50 46 51
REMARK SMILES IDX 47 53 48 54 49 55 50 57 51 58 52 59 53 60 54 61 67 62 55 63
REMARK SMILES IDX 66 64 56 65 57 66 58 67 62 68 59 69 61 70 63 71 60 72 64 73
REMARK SMILES IDX 65 74 4 75 2 76 1 78 3 79
REMARK H PARENT 31 24 18 32 20 34 33 36 35 38 37 40 40 44 7 46 44 49 46 52
REMARK H PARENT 48 56 4 77
REMARK Flexibility Score: inf
ROOT
ATOM      1  C   UNL     1      19.884  29.041  20.666  1.00  0.00     0.272 C 
ATOM      2  C   UNL     1      19.599  30.497  20.843  1.00  0.00     0.113 C 
ATOM      3  C   UNL     1      18.374  30.689  21.754  1.00  0.00     0.145 C 
ATOM      4  C   UNL     1      17.162  30.093  21.134  1.00  0.00     0.142 C 
ATOM      5  C   UNL     1      17.637  29.196  20.010  1.00  0.00     0.178 C 
ATOM      6  O   UNL     1      18.639  28.379  20.395  1.00  0.00    -0.332 OA
ENDROOT
BRANCH   1   7
ATOM      7  O   UNL     1      20.376  28.390  21.708  1.00  0.00    -0.338 OA
BRANCH   7   8
ATOM      8  C   UNL     1      21.617  28.233  22.092  1.00  0.00     0.199 C 
BRANCH   8   9
ATOM      9  C   UNL     1      22.322  26.960  22.300  1.00  0.00     0.179 C 
ATOM     10  C   UNL     1      22.914  25.565  24.047  1.00  0.00     0.282 C 
ATOM     11  O   UNL     1      22.033  26.560  23.641  1.00  0.00    -0.341 OA
ATOM     12  C   UNL     1      23.202  24.525  23.061  1.00  0.00     0.202 C 
ATOM     13  C   UNL     1      22.680  24.659  21.685  1.00  0.00     0.179 C 
ATOM     14  C   UNL     1      21.691  25.786  21.525  1.00  0.00     0.177 C 
BRANCH  10  15
ATOM     15  O   UNL     1      22.291  24.992  25.173  1.00  0.00    -0.341 OA
BRANCH  15  16
ATOM     16  C   UNL     1      22.819  25.451  26.365  1.00  0.00     0.184 C 
ATOM     17  C   UNL     1      22.587  26.929  26.500  1.00  0.00     0.178 C 
ATOM     18  O   UNL     1      23.375  27.542  27.458  1.00  0.00    -0.341 OA
ATOM     19  C   UNL     1      24.077  26.716  28.286  1.00  0.00     0.281 C 
ATOM     20  C   UNL     1      24.337  25.256  26.279  1.00  0.00     0.180 C 
ATOM     21  C   UNL     1      24.957  25.730  27.558  1.00  0.00     0.202 C 
BRANCH  17  22
ATOM     22  C   UNL     1      21.113  27.142  26.865  1.00  0.00     0.191 C 
BRANCH  22  23
ATOM     23  O   UNL     1      20.400  27.293  25.685  1.00  0.00    -0.394 OA
ATOM     24  H   UNL     1      20.999  27.751  25.019  1.00  0.00     0.210 HD
ENDBRANCH  22  23
ENDBRANCH  17  22
BRANCH  19  25
ATOM     25  O   UNL     1      23.237  26.009  29.157  1.00  0.00    -0.350 OA
BRANCH  25  26
ATOM     26  C   UNL     1      23.570  26.230  30.495  1.00  0.00     0.169 C 
BRANCH  26  27
ATOM     27  C   UNL     1      24.390  25.010  30.918  1.00  0.00     0.119 C 
BRANCH  27  28
ATOM     28  N   UNL     1      25.765  25.408  31.135  1.00  0.00    -0.092 NA
ATOM     29  N   UNL     1      26.092  26.156  32.038  1.00  0.00     0.001 N 
ATOM     30  N   UNL     1      26.362  27.024  32.877  1.00  0.00    -0.003 NA
ENDBRANCH  27  28
ENDBRANCH  26  27
ENDBRANCH  25  26
ENDBRANCH  19  25
BRANCH  20  31
ATOM     31  O   UNL     1      24.629  23.889  26.128  1.00  0.00    -0.387 OA
ATOM     32  H   UNL     1      23.853  23.343  26.379  1.00  0.00     0.211 HD
ENDBRANCH  20  31
BRANCH  21  33
ATOM     33  O   UNL     1      26.232  26.262  27.371  1.00  0.00    -0.385 OA
ATOM     34  H   UNL     1      26.765  26.080  28.197  1.00  0.00     0.211 HD
ENDBRANCH  21  33
ENDBRANCH  15  16
ENDBRANCH  10  15
BRANCH  12  35
ATOM     35  O   UNL     1      24.616  24.410  22.970  1.00  0.00    -0.385 OA
ATOM     36  H   UNL     1      24.928  24.536  22.039  1.00  0.00     0.211 HD
ENDBRANCH  12  35
BRANCH  13  37
ATOM     37  O   UNL     1      22.193  23.448  21.184  1.00  0.00    -0.387 OA
ATOM     38  H   UNL     1      22.232  22.747  21.890  1.00  0.00     0.211 HD
ENDBRANCH  13  37
BRANCH  14  39
ATOM     39  O   UNL     1      20.520  25.421  22.219  1.00  0.00    -0.387 OA
ATOM     40  H   UNL     1      20.216  24.527  21.924  1.00  0.00     0.211 HD
ENDBRANCH  14  39
ENDBRANCH   8   9
ENDBRANCH   7   8
ENDBRANCH   1   7
BRANCH   1  41
ATOM     41  C   UNL     1      20.609  28.812  19.389  1.00  0.00     0.364 C 
ATOM     42  O   UNL     1      20.603  27.649  18.852  1.00  0.00    -0.246 OA
BRANCH  41  43
ATOM     43  O   UNL     1      21.301  29.773  18.733  1.00  0.00    -0.477 OA
ATOM     44  H   UNL     1      21.559  29.800  17.761  1.00  0.00     0.296 HD
ENDBRANCH  41  43
ENDBRANCH   1  41
BRANCH   3  45
ATOM     45  O   UNL     1      18.679  29.916  22.885  1.00  0.00    -0.391 OA
ATOM     46  H   UNL     1      17.831  29.722  23.354  1.00  0.00     0.211 HD
ENDBRANCH   3  45
BRANCH   5  47
ATOM     47  C   UNL     1      16.489  28.316  19.508  1.00  0.00     0.176 C 
BRANCH  47  48
ATOM     48  O   UNL     1      16.424  27.151  20.228  1.00  0.00    -0.388 OA
ATOM     49  H   UNL     1      17.201  26.989  20.832  1.00  0.00     0.211 HD
ENDBRANCH  47  48
BRANCH  47  50
ATOM     50  C   UNL     1      16.632  28.044  18.040  1.00  0.00     0.165 C 
BRANCH  50  51
ATOM     51  O   UNL     1      18.016  27.775  17.839  1.00  0.00    -0.388 OA
ATOM     52  H   UNL     1      18.342  27.565  18.770  1.00  0.00     0.211 HD
ENDBRANCH  50  51
BRANCH  50  53
ATOM     53  C   UNL     1      16.328  29.251  17.211  1.00  0.00     0.154 C 
BRANCH  53  54
ATOM     54  N   UNL     1      15.219  29.113  16.324  1.00  0.00    -0.319 N 
ATOM     55  C   UNL     1      15.433  28.871  14.946  1.00  0.00     0.407 C 
ATOM     56  H   UNL     1      14.244  29.185  16.707  1.00  0.00     0.167 HD
ATOM     57  O   UNL     1      16.584  28.777  14.500  1.00  0.00    -0.225 OA
BRANCH  55  58
ATOM     58  O   UNL     1      14.367  28.733  14.077  1.00  0.00    -0.443 OA
BRANCH  58  59
ATOM     59  C   UNL     1      13.853  29.704  13.228  1.00  0.00     0.294 C 
BRANCH  59  60
ATOM     60  C   UNL     1      12.409  29.535  12.894  1.00  0.00     0.120 A 
ATOM     61  C   UNL     1      11.750  29.934  11.756  1.00  0.00     0.138 A 
ATOM     62  N   UNL     1      11.467  28.933  13.673  1.00  0.00    -0.132 NA
ATOM     63  N   UNL     1      10.466  29.581  11.858  1.00  0.00    -0.248 N 
ATOM     64  N   UNL     1      10.323  28.979  13.023  1.00  0.00    -0.067 NA
BRANCH  63  65
ATOM     65  C   UNL     1       9.400  29.809  10.866  1.00  0.00     0.177 C 
BRANCH  65  66
ATOM     66  C   UNL     1       9.054  28.445  10.344  1.00  0.00    -0.049 C 
ATOM     67  C   UNL     1       9.861  27.821   9.462  1.00  0.00    -0.025 C 
ATOM     68  C   UNL     1       7.842  27.724  10.760  1.00  0.00     0.023 C 
ATOM     69  C   UNL     1       9.410  26.551   8.852  1.00  0.00     0.031 C 
ATOM     70  C   UNL     1       8.261  26.267  11.002  1.00  0.00     0.013 C 
ATOM     71  C   UNL     1       7.105  27.239   9.549  1.00  0.00    -0.026 C 
ATOM     72  C   UNL     1       8.126  26.095   9.484  1.00  0.00    -0.000 C 
ATOM     73  C   UNL     1       5.736  26.668   9.830  1.00  0.00     0.012 C 
ATOM     74  C   UNL     1       7.079  28.134   8.356  1.00  0.00     0.012 C 
ENDBRANCH  65  66
ENDBRANCH  63  65
ENDBRANCH  59  60
ENDBRANCH  58  59
ENDBRANCH  55  58
ENDBRANCH  53  54
ENDBRANCH  50  53
ENDBRANCH  47  50
ENDBRANCH   5  47
BRANCH   4  75
ATOM     75  N   UNL     1      16.201  30.992  20.598  1.00  0.00    -0.348 N 
ATOM     76  C   UNL     1      14.959  31.327  21.157  1.00  0.00     0.217 C 
ATOM     77  H   UNL     1      16.465  31.450  19.678  1.00  0.00     0.163 HD
ATOM     78  C   UNL     1      14.046  32.289  20.487  1.00  0.00     0.114 C 
ATOM     79  O   UNL     1      14.662  30.783  22.236  1.00  0.00    -0.275 OA
ENDBRANCH   4  75
TORSDOF 31
