REMARK VINA RESULT:    -6.359      4.179     12.536
REMARK INTER + INTRA:         -24.261
REMARK INTER:                 -17.352
REMARK INTRA:                  -6.909
REMARK UNBOUND:                -7.494
REMARK SMILES CC(=O)N[C@@H]1[C@@H](O)C[C@](OC[C@H]2O[C@@H](O[C@H]3[C@H](O)[C@@H](O)[C@H](OCCN=[N+]=[N-])O[C@@H]3CO)[C@H](O)[C@@H](O)[C@H]2O)(C(=O)O)O[C@H]1C(O)[C@H](O)CNC(=O)OCc1cn(C(C)CC(=O)c2ccccc2)nn1
REMARK SMILES IDX 43 1 42 2 9 3 8 4 41 5 6 6 5 7 10 8 11 9 12 10 14 11 13 12
REMARK SMILES IDX 32 13 34 14 36 15 15 16 16 17 29 18 28 19 21 20 17 21 19 22
REMARK SMILES IDX 30 23 31 24 22 26 23 27 24 28 25 29 26 30 27 31 18 32 20 34
REMARK SMILES IDX 33 36 35 38 37 40 38 42 39 43 40 44 7 46 4 48 2 49 1 51 3 52
REMARK SMILES IDX 44 53 45 55 46 56 47 58 48 59 49 60 50 62 51 63 52 64 53 65
REMARK SMILES IDX 54 66 68 67 55 68 67 69 56 70 57 71 58 72 59 73 60 74 61 75
REMARK SMILES IDX 62 76 66 77 63 78 65 79 64 80
REMARK H PARENT 31 25 18 33 20 35 33 37 35 39 37 41 40 45 7 47 4 50 44 54
REMARK H PARENT 46 57 48 61
REMARK Flexibility Score: inf
ROOT
ATOM      1  C   UNL     1      17.713  30.157  22.213  1.00  0.00     0.176 C 
ENDROOT
BRANCH   1   2
ATOM      2  C   UNL     1      16.607  29.284  21.812  1.00  0.00     0.178 C 
ATOM      3  C   UNL     1      15.964  29.268  19.542  1.00  0.00     0.272 C 
ATOM      4  C   UNL     1      14.530  29.000  19.850  1.00  0.00     0.113 C 
ATOM      5  O   UNL     1      16.682  28.653  20.633  1.00  0.00    -0.332 OA
ATOM      6  C   UNL     1      14.251  29.101  21.337  1.00  0.00     0.145 C 
ATOM      7  C   UNL     1      15.239  29.972  22.018  1.00  0.00     0.142 C 
BRANCH   3   8
ATOM      8  O   UNL     1      16.440  30.470  19.402  1.00  0.00    -0.338 OA
BRANCH   8   9
ATOM      9  C   UNL     1      16.412  31.442  18.561  1.00  0.00     0.199 C 
BRANCH   9  10
ATOM     10  C   UNL     1      15.219  32.071  17.917  1.00  0.00     0.179 C 
ATOM     11  C   UNL     1      13.463  31.320  16.517  1.00  0.00     0.282 C 
ATOM     12  O   UNL     1      14.702  31.215  17.029  1.00  0.00    -0.341 OA
ATOM     13  C   UNL     1      12.437  31.465  17.591  1.00  0.00     0.202 C 
ATOM     14  C   UNL     1      12.838  32.375  18.662  1.00  0.00     0.179 C 
ATOM     15  C   UNL     1      14.265  32.787  18.788  1.00  0.00     0.177 C 
BRANCH  11  16
ATOM     16  O   UNL     1      13.262  30.115  15.792  1.00  0.00    -0.341 OA
BRANCH  16  17
ATOM     17  C   UNL     1      13.858  30.221  14.559  1.00  0.00     0.184 C 
ATOM     18  C   UNL     1      12.975  30.940  13.582  1.00  0.00     0.178 C 
ATOM     19  O   UNL     1      11.818  30.226  13.310  1.00  0.00    -0.341 OA
ATOM     20  C   UNL     1      11.964  28.943  12.883  1.00  0.00     0.281 C 
ATOM     21  C   UNL     1      14.139  28.799  14.030  1.00  0.00     0.180 C 
ATOM     22  C   UNL     1      12.880  28.090  13.691  1.00  0.00     0.202 C 
BRANCH  18  23
ATOM     23  C   UNL     1      13.723  31.303  12.315  1.00  0.00     0.191 C 
BRANCH  23  24
ATOM     24  O   UNL     1      12.887  31.812  11.329  1.00  0.00    -0.394 OA
ATOM     25  H   UNL     1      13.273  32.660  10.983  1.00  0.00     0.210 HD
ENDBRANCH  23  24
ENDBRANCH  18  23
BRANCH  20  26
ATOM     26  O   UNL     1      12.217  28.803  11.542  1.00  0.00    -0.350 OA
BRANCH  26  27
ATOM     27  C   UNL     1      11.114  28.641  10.750  1.00  0.00     0.169 C 
BRANCH  27  28
ATOM     28  C   UNL     1      10.152  27.615  11.287  1.00  0.00     0.119 C 
BRANCH  28  29
ATOM     29  N   UNL     1       8.817  27.950  10.825  1.00  0.00    -0.092 NA
ATOM     30  N   UNL     1       8.061  27.054  10.459  1.00  0.00     0.001 N 
ATOM     31  N   UNL     1       7.254  26.138  10.290  1.00  0.00    -0.003 NA
ENDBRANCH  28  29
ENDBRANCH  27  28
ENDBRANCH  26  27
ENDBRANCH  20  26
BRANCH  21  32
ATOM     32  O   UNL     1      15.056  28.835  12.987  1.00  0.00    -0.387 OA
ATOM     33  H   UNL     1      15.777  28.169  13.090  1.00  0.00     0.211 HD
ENDBRANCH  21  32
BRANCH  22  34
ATOM     34  O   UNL     1      12.265  27.534  14.815  1.00  0.00    -0.385 OA
ATOM     35  H   UNL     1      12.204  26.562  14.631  1.00  0.00     0.211 HD
ENDBRANCH  22  34
ENDBRANCH  16  17
ENDBRANCH  11  16
BRANCH  13  36
ATOM     36  O   UNL     1      11.218  31.944  17.029  1.00  0.00    -0.385 OA
ATOM     37  H   UNL     1      11.503  32.577  16.317  1.00  0.00     0.211 HD
ENDBRANCH  13  36
BRANCH  14  38
ATOM     38  O   UNL     1      12.396  31.812  19.895  1.00  0.00    -0.387 OA
ATOM     39  H   UNL     1      11.885  32.465  20.427  1.00  0.00     0.211 HD
ENDBRANCH  14  38
BRANCH  15  40
ATOM     40  O   UNL     1      14.583  32.826  20.130  1.00  0.00    -0.387 OA
ATOM     41  H   UNL     1      14.080  33.409  20.703  1.00  0.00     0.211 HD
ENDBRANCH  15  40
ENDBRANCH   9  10
ENDBRANCH   8   9
ENDBRANCH   3   8
BRANCH   3  42
ATOM     42  C   UNL     1      16.347  28.358  18.376  1.00  0.00     0.364 C 
ATOM     43  O   UNL     1      17.111  27.405  18.568  1.00  0.00    -0.246 OA
BRANCH  42  44
ATOM     44  O   UNL     1      15.848  28.585  17.113  1.00  0.00    -0.477 OA
ATOM     45  H   UNL     1      15.976  29.512  16.722  1.00  0.00     0.296 HD
ENDBRANCH  42  44
ENDBRANCH   3  42
BRANCH   6  46
ATOM     46  O   UNL     1      12.933  29.466  21.583  1.00  0.00    -0.391 OA
ATOM     47  H   UNL     1      12.920  30.017  22.434  1.00  0.00     0.211 HD
ENDBRANCH   6  46
BRANCH   7  48
ATOM     48  N   UNL     1      15.001  29.983  23.458  1.00  0.00    -0.348 N 
ATOM     49  C   UNL     1      14.239  30.988  24.112  1.00  0.00     0.217 C 
ATOM     50  H   UNL     1      15.405  29.223  24.035  1.00  0.00     0.163 HD
ATOM     51  C   UNL     1      14.005  30.996  25.557  1.00  0.00     0.114 C 
ATOM     52  O   UNL     1      13.737  31.930  23.407  1.00  0.00    -0.275 OA
ENDBRANCH   7  48
ENDBRANCH   1   2
BRANCH   1  53
ATOM     53  O   UNL     1      17.408  31.539  22.175  1.00  0.00    -0.388 OA
ATOM     54  H   UNL     1      16.517  31.611  21.713  1.00  0.00     0.211 HD
ENDBRANCH   1  53
BRANCH   1  55
ATOM     55  C   UNL     1      19.028  30.004  21.480  1.00  0.00     0.165 C 
BRANCH  55  56
ATOM     56  O   UNL     1      19.386  28.724  21.206  1.00  0.00    -0.388 OA
ATOM     57  H   UNL     1      20.361  28.668  21.074  1.00  0.00     0.211 HD
ENDBRANCH  55  56
BRANCH  55  58
ATOM     58  C   UNL     1      20.093  30.667  22.367  1.00  0.00     0.154 C 
BRANCH  58  59
ATOM     59  N   UNL     1      19.964  30.215  23.734  1.00  0.00    -0.319 N 
ATOM     60  C   UNL     1      20.560  29.060  24.286  1.00  0.00     0.407 C 
ATOM     61  H   UNL     1      19.380  30.781  24.427  1.00  0.00     0.167 HD
ATOM     62  O   UNL     1      21.314  28.340  23.603  1.00  0.00    -0.225 OA
BRANCH  60  63
ATOM     63  O   UNL     1      20.321  28.679  25.622  1.00  0.00    -0.443 OA
BRANCH  63  64
ATOM     64  C   UNL     1      20.899  29.480  26.674  1.00  0.00     0.294 C 
BRANCH  64  65
ATOM     65  C   UNL     1      22.124  28.697  27.079  1.00  0.00     0.120 A 
ATOM     66  C   UNL     1      22.109  27.301  27.264  1.00  0.00     0.138 A 
ATOM     67  N   UNL     1      23.351  29.078  27.376  1.00  0.00    -0.132 NA
ATOM     68  N   UNL     1      23.326  26.906  27.669  1.00  0.00    -0.249 N 
ATOM     69  N   UNL     1      24.063  27.987  27.730  1.00  0.00    -0.067 NA
BRANCH  68  70
ATOM     70  C   UNL     1      23.665  25.516  27.983  1.00  0.00     0.114 C 
ATOM     71  C   UNL     1      23.407  25.273  29.437  1.00  0.00     0.034 C 
BRANCH  70  72
ATOM     72  C   UNL     1      22.985  24.580  27.039  1.00  0.00     0.108 C 
BRANCH  72  73
ATOM     73  C   UNL     1      23.746  24.589  25.762  1.00  0.00     0.164 C 
ATOM     74  O   UNL     1      24.979  24.605  25.747  1.00  0.00    -0.294 OA
BRANCH  73  75
ATOM     75  C   UNL     1      22.970  24.575  24.512  1.00  0.00     0.018 A 
ATOM     76  C   UNL     1      21.624  24.599  24.489  1.00  0.00     0.012 A 
ATOM     77  C   UNL     1      23.702  24.539  23.314  1.00  0.00     0.012 A 
ATOM     78  C   UNL     1      20.936  24.593  23.264  1.00  0.00     0.001 A 
ATOM     79  C   UNL     1      23.015  24.532  22.135  1.00  0.00     0.001 A 
ATOM     80  C   UNL     1      21.647  24.559  22.087  1.00  0.00     0.000 A 
ENDBRANCH  73  75
ENDBRANCH  72  73
ENDBRANCH  70  72
ENDBRANCH  68  70
ENDBRANCH  64  65
ENDBRANCH  63  64
ENDBRANCH  60  63
ENDBRANCH  58  59
ENDBRANCH  55  58
ENDBRANCH   1  55
TORSDOF 33
