REMARK VINA RESULT:    -5.805      7.618     14.125
REMARK INTER + INTRA:         -24.118
REMARK INTER:                 -14.898
REMARK INTRA:                  -9.220
REMARK UNBOUND:                -8.981
REMARK SMILES CC(=O)N[C@@H]1[C@@H](O)C[C@](OC[C@H]2O[C@@H](O[C@H]3[C@H](O)[C@@H](O)[C@H](OCCN=[N+]=[N-])O[C@@H]3CO)[C@H](O)[C@@H](O)[C@H]2O)(C(=O)O)O[C@H]1C(O)[C@H](O)CNC(=O)OCc1cn(-c2cc(C(=O)O)nc(-c3ccccc3)c2)nn1
REMARK SMILES IDX 9 1 8 2 6 3 5 4 42 5 41 6 10 7 11 8 12 9 14 10 13 11 32 12
REMARK SMILES IDX 34 13 36 14 15 15 16 16 29 17 28 18 21 19 17 20 19 21 30 22
REMARK SMILES IDX 31 23 22 25 23 26 24 27 25 28 26 29 27 30 18 31 20 33 33 35
REMARK SMILES IDX 35 37 37 39 38 41 39 42 40 43 7 45 43 47 44 48 45 50 46 51
REMARK SMILES IDX 47 53 48 54 49 55 50 57 51 58 52 59 53 60 54 61 72 62 55 63
REMARK SMILES IDX 71 64 56 65 57 66 70 67 58 68 63 69 62 70 59 71 60 72 61 73
REMARK SMILES IDX 64 75 65 76 69 77 66 78 68 79 67 80 4 81 2 82 1 84 3 85
REMARK H PARENT 31 24 18 32 20 34 33 36 35 38 37 40 40 44 7 46 44 49 46 52
REMARK H PARENT 48 56 61 74 4 83
REMARK Flexibility Score: inf
ROOT
ATOM      1  C   UNL     1      23.201  25.617  23.138  1.00  0.00     0.272 C 
ATOM      2  C   UNL     1      23.464  24.165  22.691  1.00  0.00     0.113 C 
ATOM      3  C   UNL     1      24.691  23.995  21.871  1.00  0.00     0.145 C 
ATOM      4  C   UNL     1      24.896  25.112  20.854  1.00  0.00     0.142 C 
ATOM      5  C   UNL     1      23.611  25.942  20.942  1.00  0.00     0.178 C 
ATOM      6  O   UNL     1      23.640  26.534  22.185  1.00  0.00    -0.332 OA
ENDROOT
BRANCH   1   7
ATOM      7  O   UNL     1      23.916  25.774  24.281  1.00  0.00    -0.338 OA
BRANCH   7   8
ATOM      8  C   UNL     1      24.150  24.703  25.081  1.00  0.00     0.199 C 
BRANCH   8   9
ATOM      9  C   UNL     1      24.324  25.154  26.553  1.00  0.00     0.179 C 
ATOM     10  C   UNL     1      24.246  27.120  27.817  1.00  0.00     0.282 C 
ATOM     11  O   UNL     1      24.191  26.505  26.593  1.00  0.00    -0.341 OA
ATOM     12  C   UNL     1      24.136  26.064  28.901  1.00  0.00     0.202 C 
ATOM     13  C   UNL     1      23.021  25.076  28.657  1.00  0.00     0.179 C 
ATOM     14  C   UNL     1      23.157  24.513  27.288  1.00  0.00     0.177 C 
BRANCH  10  15
ATOM     15  O   UNL     1      23.202  28.023  27.883  1.00  0.00    -0.341 OA
BRANCH  15  16
ATOM     16  C   UNL     1      22.858  28.610  26.677  1.00  0.00     0.184 C 
ATOM     17  C   UNL     1      23.548  29.899  26.422  1.00  0.00     0.178 C 
ATOM     18  O   UNL     1      22.658  30.952  26.311  1.00  0.00    -0.341 OA
ATOM     19  C   UNL     1      21.778  31.019  27.390  1.00  0.00     0.281 C 
ATOM     20  C   UNL     1      21.359  28.686  26.626  1.00  0.00     0.180 C 
ATOM     21  C   UNL     1      20.752  29.929  27.174  1.00  0.00     0.202 C 
BRANCH  17  22
ATOM     22  C   UNL     1      24.299  29.818  25.108  1.00  0.00     0.191 C 
BRANCH  22  23
ATOM     23  O   UNL     1      23.939  28.708  24.367  1.00  0.00    -0.394 OA
ATOM     24  H   UNL     1      24.558  27.958  24.574  1.00  0.00     0.210 HD
ENDBRANCH  22  23
ENDBRANCH  17  22
BRANCH  19  25
ATOM     25  O   UNL     1      21.151  32.254  27.323  1.00  0.00    -0.350 OA
BRANCH  25  26
ATOM     26  C   UNL     1      20.349  32.370  26.186  1.00  0.00     0.169 C 
BRANCH  26  27
ATOM     27  C   UNL     1      19.380  33.516  26.338  1.00  0.00     0.119 C 
BRANCH  27  28
ATOM     28  N   UNL     1      18.028  33.004  26.319  1.00  0.00    -0.092 NA
ATOM     29  N   UNL     1      17.812  31.905  26.810  1.00  0.00     0.001 N 
ATOM     30  N   UNL     1      17.257  30.986  27.435  1.00  0.00    -0.003 NA
ENDBRANCH  27  28
ENDBRANCH  26  27
ENDBRANCH  25  26
ENDBRANCH  19  25
BRANCH  20  31
ATOM     31  O   UNL     1      20.993  28.621  25.261  1.00  0.00    -0.387 OA
ATOM     32  H   UNL     1      21.774  28.375  24.705  1.00  0.00     0.211 HD
ENDBRANCH  20  31
BRANCH  21  33
ATOM     33  O   UNL     1      20.087  29.604  28.375  1.00  0.00    -0.385 OA
ATOM     34  H   UNL     1      20.658  29.794  29.170  1.00  0.00     0.211 HD
ENDBRANCH  21  33
ENDBRANCH  15  16
ENDBRANCH  10  15
BRANCH  12  35
ATOM     35  O   UNL     1      25.312  25.351  29.095  1.00  0.00    -0.385 OA
ATOM     36  H   UNL     1      25.871  25.545  28.290  1.00  0.00     0.211 HD
ENDBRANCH  12  35
BRANCH  13  37
ATOM     37  O   UNL     1      21.824  25.767  28.847  1.00  0.00    -0.387 OA
ATOM     38  H   UNL     1      21.123  25.269  28.353  1.00  0.00     0.211 HD
ENDBRANCH  13  37
BRANCH  14  39
ATOM     39  O   UNL     1      21.975  24.842  26.593  1.00  0.00    -0.387 OA
ATOM     40  H   UNL     1      22.075  24.772  25.629  1.00  0.00     0.211 HD
ENDBRANCH  14  39
ENDBRANCH   8   9
ENDBRANCH   7   8
ENDBRANCH   1   7
BRANCH   1  41
ATOM     41  C   UNL     1      21.734  25.803  23.270  1.00  0.00     0.364 C 
ATOM     42  O   UNL     1      21.168  26.902  23.018  1.00  0.00    -0.246 OA
BRANCH  41  43
ATOM     43  O   UNL     1      20.932  24.761  23.678  1.00  0.00    -0.477 OA
ATOM     44  H   UNL     1      21.291  23.900  24.107  1.00  0.00     0.296 HD
ENDBRANCH  41  43
ENDBRANCH   1  41
BRANCH   3  45
ATOM     45  O   UNL     1      25.823  23.735  22.612  1.00  0.00    -0.391 OA
ATOM     46  H   UNL     1      26.609  24.039  22.115  1.00  0.00     0.211 HD
ENDBRANCH   3  45
BRANCH   5  47
ATOM     47  C   UNL     1      23.398  26.842  19.785  1.00  0.00     0.176 C 
BRANCH  47  48
ATOM     48  O   UNL     1      24.193  27.998  19.959  1.00  0.00    -0.388 OA
ATOM     49  H   UNL     1      24.585  28.001  20.889  1.00  0.00     0.211 HD
ENDBRANCH  47  48
BRANCH  47  50
ATOM     50  C   UNL     1      21.974  27.236  19.507  1.00  0.00     0.165 C 
BRANCH  50  51
ATOM     51  O   UNL     1      21.631  26.869  18.221  1.00  0.00    -0.388 OA
ATOM     52  H   UNL     1      21.634  27.639  17.592  1.00  0.00     0.211 HD
ENDBRANCH  50  51
BRANCH  50  53
ATOM     53  C   UNL     1      21.886  28.728  19.716  1.00  0.00     0.154 C 
BRANCH  53  54
ATOM     54  N   UNL     1      21.278  29.159  20.922  1.00  0.00    -0.319 N 
ATOM     55  C   UNL     1      22.006  29.856  21.921  1.00  0.00     0.407 C 
ATOM     56  H   UNL     1      20.263  28.973  21.111  1.00  0.00     0.167 HD
ATOM     57  O   UNL     1      23.218  30.081  21.748  1.00  0.00    -0.225 OA
BRANCH  55  58
ATOM     58  O   UNL     1      21.376  30.296  23.101  1.00  0.00    -0.443 OA
BRANCH  58  59
ATOM     59  C   UNL     1      20.383  31.286  23.004  1.00  0.00     0.294 C 
BRANCH  59  60
ATOM     60  C   UNL     1      19.026  30.701  23.122  1.00  0.00     0.121 A 
ATOM     61  C   UNL     1      17.888  30.949  22.391  1.00  0.00     0.144 A 
ATOM     62  N   UNL     1      18.621  29.781  24.045  1.00  0.00    -0.131 NA
ATOM     63  N   UNL     1      16.853  30.215  22.853  1.00  0.00    -0.220 N 
ATOM     64  N   UNL     1      17.345  29.509  23.871  1.00  0.00    -0.062 NA
BRANCH  63  65
ATOM     65  C   UNL     1      15.520  30.227  22.371  1.00  0.00     0.071 A 
ATOM     66  C   UNL     1      14.505  30.026  23.293  1.00  0.00     0.064 A 
ATOM     67  C   UNL     1      15.149  30.439  21.059  1.00  0.00     0.057 A 
ATOM     68  C   UNL     1      13.191  30.046  22.866  1.00  0.00     0.151 A 
ATOM     69  C   UNL     1      13.854  30.458  20.647  1.00  0.00     0.073 A 
ATOM     70  N   UNL     1      12.891  30.258  21.568  1.00  0.00    -0.241 NA
BRANCH  68  71
ATOM     71  C   UNL     1      12.102  29.841  23.812  1.00  0.00     0.354 C 
ATOM     72  O   UNL     1      11.071  30.549  23.688  1.00  0.00    -0.245 OA
BRANCH  71  73
ATOM     73  O   UNL     1      12.135  28.919  24.831  1.00  0.00    -0.477 OA
ATOM     74  H   UNL     1      11.721  27.982  24.749  1.00  0.00     0.297 HD
ENDBRANCH  71  73
ENDBRANCH  68  71
BRANCH  69  75
ATOM     75  C   UNL     1      13.483  30.691  19.256  1.00  0.00     0.000 A 
ATOM     76  C   UNL     1      12.664  31.781  18.973  1.00  0.00     0.010 A 
ATOM     77  C   UNL     1      13.891  29.905  18.217  1.00  0.00     0.010 A 
ATOM     78  C   UNL     1      12.267  32.077  17.696  1.00  0.00     0.001 A 
ATOM     79  C   UNL     1      13.484  30.213  16.931  1.00  0.00     0.001 A 
ATOM     80  C   UNL     1      12.682  31.279  16.645  1.00  0.00     0.000 A 
ENDBRANCH  69  75
ENDBRANCH  63  65
ENDBRANCH  59  60
ENDBRANCH  58  59
ENDBRANCH  55  58
ENDBRANCH  53  54
ENDBRANCH  50  53
ENDBRANCH  47  50
ENDBRANCH   5  47
BRANCH   4  81
ATOM     81  N   UNL     1      25.158  24.610  19.546  1.00  0.00    -0.348 N 
ATOM     82  C   UNL     1      26.473  24.223  19.182  1.00  0.00     0.217 C 
ATOM     83  H   UNL     1      24.367  24.534  18.865  1.00  0.00     0.163 HD
ATOM     84  C   UNL     1      26.806  23.692  17.834  1.00  0.00     0.114 C 
ATOM     85  O   UNL     1      27.434  24.319  20.018  1.00  0.00    -0.275 OA
ENDBRANCH   4  81
TORSDOF 33
