REMARK VINA RESULT:    -6.079      8.662     11.587
REMARK INTER + INTRA:         -21.740
REMARK INTER:                 -15.335
REMARK INTRA:                  -6.406
REMARK UNBOUND:                -6.778
REMARK SMILES CC(=O)N[C@@H]1[C@@H](O)C[C@](OC[C@H]2O[C@@H](O[C@H]3[C@H](O)[C@@H](O)[C@H](OCCN=[N+]=[N-])O[C@@H]3CO)[C@H](O)[C@@H](O)[C@H]2O)(C(=O)O)O[C@H]1C(O)[C@H](O)CNC(=O)OCc1cn(-c2ccc3c(c2)OCO3)nn1
REMARK SMILES IDX 9 1 8 2 6 3 5 4 42 5 41 6 10 7 11 8 12 9 14 10 13 11 32 12
REMARK SMILES IDX 34 13 36 14 15 15 16 16 29 17 28 18 21 19 17 20 19 21 30 22
REMARK SMILES IDX 31 23 22 25 23 26 24 27 25 28 26 29 27 30 18 31 20 33 33 35
REMARK SMILES IDX 35 37 37 39 38 41 39 42 40 43 7 45 43 47 44 48 45 50 46 51
REMARK SMILES IDX 47 53 48 54 49 55 50 57 51 58 52 59 53 60 54 61 66 62 55 63
REMARK SMILES IDX 65 64 56 65 57 66 61 67 58 68 60 69 59 70 62 71 64 72 63 73
REMARK SMILES IDX 4 74 2 75 1 77 3 78
REMARK H PARENT 31 24 18 32 20 34 33 36 35 38 37 40 40 44 7 46 44 49 46 52
REMARK H PARENT 48 56 4 76
REMARK Flexibility Score: inf
ROOT
ATOM      1  C   UNL     1      32.945  19.163  21.773  1.00  0.00     0.272 C 
ATOM      2  C   UNL     1      33.596  20.457  22.177  1.00  0.00     0.113 C 
ATOM      3  C   UNL     1      32.787  21.195  23.259  1.00  0.00     0.145 C 
ATOM      4  C   UNL     1      31.507  21.625  22.573  1.00  0.00     0.142 C 
ATOM      5  C   UNL     1      30.925  20.364  21.967  1.00  0.00     0.178 C 
ATOM      6  O   UNL     1      31.601  19.223  22.239  1.00  0.00    -0.332 OA
ENDROOT
BRANCH   1   7
ATOM      7  O   UNL     1      33.461  18.087  22.345  1.00  0.00    -0.338 OA
BRANCH   7   8
ATOM      8  C   UNL     1      34.561  17.849  22.991  1.00  0.00     0.199 C 
BRANCH   8   9
ATOM      9  C   UNL     1      34.606  16.957  24.202  1.00  0.00     0.179 C 
ATOM     10  C   UNL     1      34.852  17.162  26.509  1.00  0.00     0.282 C 
ATOM     11  O   UNL     1      35.059  17.697  25.264  1.00  0.00    -0.341 OA
ATOM     12  C   UNL     1      34.405  15.738  26.497  1.00  0.00     0.202 C 
ATOM     13  C   UNL     1      33.159  15.545  25.649  1.00  0.00     0.179 C 
ATOM     14  C   UNL     1      33.157  16.483  24.485  1.00  0.00     0.177 C 
BRANCH  10  15
ATOM     15  O   UNL     1      33.813  17.905  27.105  1.00  0.00    -0.341 OA
BRANCH  15  16
ATOM     16  C   UNL     1      33.931  18.000  28.468  1.00  0.00     0.184 C 
ATOM     17  C   UNL     1      32.598  18.373  29.063  1.00  0.00     0.178 C 
ATOM     18  O   UNL     1      32.359  19.727  29.090  1.00  0.00    -0.341 OA
ATOM     19  C   UNL     1      33.010  20.415  28.065  1.00  0.00     0.281 C 
ATOM     20  C   UNL     1      34.995  19.033  28.755  1.00  0.00     0.180 C 
ATOM     21  C   UNL     1      34.510  20.362  28.219  1.00  0.00     0.202 C 
BRANCH  17  22
ATOM     22  C   UNL     1      32.460  17.860  30.489  1.00  0.00     0.191 C 
BRANCH  22  23
ATOM     23  O   UNL     1      31.672  16.717  30.540  1.00  0.00    -0.394 OA
ATOM     24  H   UNL     1      31.816  16.191  31.386  1.00  0.00     0.210 HD
ENDBRANCH  22  23
ENDBRANCH  17  22
BRANCH  19  25
ATOM     25  O   UNL     1      32.613  21.739  28.190  1.00  0.00    -0.350 OA
BRANCH  25  26
ATOM     26  C   UNL     1      31.891  22.100  27.057  1.00  0.00     0.169 C 
BRANCH  26  27
ATOM     27  C   UNL     1      32.397  23.418  26.480  1.00  0.00     0.119 C 
BRANCH  27  28
ATOM     28  N   UNL     1      32.308  24.409  27.563  1.00  0.00    -0.092 NA
ATOM     29  N   UNL     1      32.406  25.622  27.278  1.00  0.00     0.001 N 
ATOM     30  N   UNL     1      32.576  26.757  26.798  1.00  0.00    -0.003 NA
ENDBRANCH  27  28
ENDBRANCH  26  27
ENDBRANCH  25  26
ENDBRANCH  19  25
BRANCH  20  31
ATOM     31  O   UNL     1      35.352  19.098  30.087  1.00  0.00    -0.387 OA
ATOM     32  H   UNL     1      34.624  19.439  30.685  1.00  0.00     0.211 HD
ENDBRANCH  20  31
BRANCH  21  33
ATOM     33  O   UNL     1      35.069  20.531  26.950  1.00  0.00    -0.385 OA
ATOM     34  H   UNL     1      34.650  21.269  26.439  1.00  0.00     0.211 HD
ENDBRANCH  21  33
ENDBRANCH  15  16
ENDBRANCH  10  15
BRANCH  12  35
ATOM     35  O   UNL     1      35.374  14.833  26.073  1.00  0.00    -0.385 OA
ATOM     36  H   UNL     1      36.274  15.276  26.176  1.00  0.00     0.211 HD
ENDBRANCH  12  35
BRANCH  13  37
ATOM     37  O   UNL     1      32.047  15.767  26.465  1.00  0.00    -0.387 OA
ATOM     38  H   UNL     1      31.588  16.609  26.289  1.00  0.00     0.211 HD
ENDBRANCH  13  37
BRANCH  14  39
ATOM     39  O   UNL     1      32.360  17.579  24.801  1.00  0.00    -0.387 OA
ATOM     40  H   UNL     1      32.432  17.869  25.725  1.00  0.00     0.211 HD
ENDBRANCH  14  39
ENDBRANCH   8   9
ENDBRANCH   7   8
ENDBRANCH   1   7
BRANCH   1  41
ATOM     41  C   UNL     1      32.840  19.059  20.282  1.00  0.00     0.364 C 
ATOM     42  O   UNL     1      32.333  17.971  19.836  1.00  0.00    -0.246 OA
BRANCH  41  43
ATOM     43  O   UNL     1      33.231  19.997  19.381  1.00  0.00    -0.477 OA
ATOM     44  H   UNL     1      32.823  20.916  19.308  1.00  0.00     0.296 HD
ENDBRANCH  41  43
ENDBRANCH   1  41
BRANCH   3  45
ATOM     45  O   UNL     1      32.532  20.235  24.248  1.00  0.00    -0.391 OA
ATOM     46  H   UNL     1      31.621  19.880  24.155  1.00  0.00     0.211 HD
ENDBRANCH   3  45
BRANCH   5  47
ATOM     47  C   UNL     1      29.555  20.201  22.658  1.00  0.00     0.176 C 
BRANCH  47  48
ATOM     48  O   UNL     1      29.071  21.370  23.171  1.00  0.00    -0.388 OA
ATOM     49  H   UNL     1      28.758  21.309  24.107  1.00  0.00     0.211 HD
ENDBRANCH  47  48
BRANCH  47  50
ATOM     50  C   UNL     1      28.534  19.589  21.707  1.00  0.00     0.165 C 
BRANCH  50  51
ATOM     51  O   UNL     1      28.684  18.251  21.561  1.00  0.00    -0.388 OA
ATOM     52  H   UNL     1      29.433  17.944  21.010  1.00  0.00     0.211 HD
ENDBRANCH  50  51
BRANCH  50  53
ATOM     53  C   UNL     1      28.682  20.319  20.409  1.00  0.00     0.154 C 
BRANCH  53  54
ATOM     54  N   UNL     1      28.033  21.593  20.418  1.00  0.00    -0.319 N 
ATOM     55  C   UNL     1      28.038  22.534  19.357  1.00  0.00     0.407 C 
ATOM     56  H   UNL     1      27.473  21.919  21.283  1.00  0.00     0.167 HD
ATOM     57  O   UNL     1      28.631  22.289  18.287  1.00  0.00    -0.225 OA
BRANCH  55  58
ATOM     58  O   UNL     1      27.384  23.764  19.472  1.00  0.00    -0.443 OA
BRANCH  58  59
ATOM     59  C   UNL     1      26.288  24.137  18.683  1.00  0.00     0.294 C 
BRANCH  59  60
ATOM     60  C   UNL     1      25.127  24.434  19.588  1.00  0.00     0.121 A 
ATOM     61  C   UNL     1      25.112  24.267  20.975  1.00  0.00     0.144 A 
ATOM     62  N   UNL     1      23.916  24.910  19.274  1.00  0.00    -0.131 NA
ATOM     63  N   UNL     1      23.902  24.644  21.440  1.00  0.00    -0.220 N 
ATOM     64  N   UNL     1      23.215  25.025  20.374  1.00  0.00    -0.062 NA
BRANCH  63  65
ATOM     65  C   UNL     1      23.444  24.650  22.770  1.00  0.00     0.070 A 
ATOM     66  C   UNL     1      22.105  24.649  23.046  1.00  0.00     0.032 A 
ATOM     67  C   UNL     1      24.338  24.652  23.813  1.00  0.00     0.079 A 
ATOM     68  C   UNL     1      21.665  24.650  24.378  1.00  0.00     0.053 A 
ATOM     69  C   UNL     1      23.923  24.654  25.128  1.00  0.00     0.167 A 
ATOM     70  C   UNL     1      22.579  24.653  25.401  1.00  0.00     0.165 A 
ATOM     71  O   UNL     1      24.629  24.657  26.310  1.00  0.00    -0.454 OA
ATOM     72  O   UNL     1      22.425  24.655  26.782  1.00  0.00    -0.454 OA
ATOM     73  C   UNL     1      23.676  24.951  27.339  1.00  0.00     0.468 C 
ENDBRANCH  63  65
ENDBRANCH  59  60
ENDBRANCH  58  59
ENDBRANCH  55  58
ENDBRANCH  53  54
ENDBRANCH  50  53
ENDBRANCH  47  50
ENDBRANCH   5  47
BRANCH   4  74
ATOM     74  N   UNL     1      31.801  22.654  21.623  1.00  0.00    -0.348 N 
ATOM     75  C   UNL     1      30.873  23.727  21.359  1.00  0.00     0.217 C 
ATOM     76  H   UNL     1      32.676  22.713  21.060  1.00  0.00     0.163 HD
ATOM     77  C   UNL     1      31.191  24.791  20.369  1.00  0.00     0.114 C 
ATOM     78  O   UNL     1      29.799  23.758  21.968  1.00  0.00    -0.275 OA
ENDBRANCH   4  74
TORSDOF 30
