REMARK VINA RESULT:    -8.715      5.347     10.499
REMARK INTER + INTRA:         -20.759
REMARK INTER:                 -16.045
REMARK INTRA:                  -4.715
REMARK UNBOUND:                 2.731
REMARK SMILES CC(=O)N[C@@H]1[C@@H](O)C[C@](OC[C@H]2O[C@@H](O[C@H]3[C@H](O)[C@@H](O)[C@H](OCCN=[N+]=[N-])O[C@@H]3CO)[C@H](O)[C@@H](O)[C@H]2O)(C(=O)O)O[C@H]1C(O)[C@H](O)CNC(=O)OCc1cn(C2CCc3ccccc3NC2=O)nn1
REMARK SMILES IDX 43 1 42 2 9 3 8 4 41 5 6 6 5 7 10 8 11 9 12 10 14 11 13 12
REMARK SMILES IDX 32 13 34 14 36 15 15 16 16 17 29 18 28 19 21 20 17 21 19 22
REMARK SMILES IDX 30 23 31 24 22 26 23 27 24 28 25 29 26 30 27 31 18 32 20 34
REMARK SMILES IDX 33 36 35 38 37 40 38 42 39 43 40 44 7 46 4 48 2 49 1 51 3 52
REMARK SMILES IDX 44 53 45 55 46 56 47 58 48 59 49 60 50 62 51 63 52 64 53 65
REMARK SMILES IDX 54 66 69 67 55 68 68 69 56 70 57 71 66 73 65 74 67 75 64 77
REMARK SMILES IDX 59 78 63 79 60 80 62 81 61 82 58 83
REMARK H PARENT 31 25 18 33 20 35 33 37 35 39 37 41 40 45 7 47 4 50 44 54
REMARK H PARENT 46 57 48 61 65 76
REMARK Flexibility Score: 90.00
ROOT
ATOM      1  C   UNL     1      21.729  27.013  20.703  1.00  0.00     0.176 C 
ENDROOT
BRANCH   1   2
ATOM      2  C   UNL     1      22.775  26.329  21.606  1.00  0.00     0.178 C 
ATOM      3  C   UNL     1      24.741  25.290  20.743  1.00  0.00     0.272 C 
ATOM      4  C   UNL     1      24.238  23.963  21.145  1.00  0.00     0.113 C 
ATOM      5  O   UNL     1      24.013  26.408  21.155  1.00  0.00    -0.332 OA
ATOM      6  C   UNL     1      22.749  23.882  21.145  1.00  0.00     0.145 C 
ATOM      7  C   UNL     1      22.234  24.996  22.045  1.00  0.00     0.142 C 
BRANCH   3   8
ATOM      8  O   UNL     1      24.944  25.471  19.421  1.00  0.00    -0.338 OA
BRANCH   8   9
ATOM      9  C   UNL     1      25.425  24.564  18.587  1.00  0.00     0.199 C 
BRANCH   9  10
ATOM     10  C   UNL     1      26.843  24.298  18.322  1.00  0.00     0.179 C 
ATOM     11  C   UNL     1      28.572  23.019  19.175  1.00  0.00     0.282 C 
ATOM     12  O   UNL     1      27.186  23.172  19.143  1.00  0.00    -0.341 OA
ATOM     13  C   UNL     1      29.328  23.700  18.105  1.00  0.00     0.202 C 
ATOM     14  C   UNL     1      28.652  23.872  16.788  1.00  0.00     0.179 C 
ATOM     15  C   UNL     1      27.155  23.756  16.928  1.00  0.00     0.177 C 
BRANCH  11  16
ATOM     16  O   UNL     1      28.860  21.645  19.304  1.00  0.00    -0.341 OA
BRANCH  16  17
ATOM     17  C   UNL     1      29.362  21.327  20.538  1.00  0.00     0.184 C 
ATOM     18  C   UNL     1      30.574  20.433  20.534  1.00  0.00     0.178 C 
ATOM     19  O   UNL     1      30.998  20.360  21.863  1.00  0.00    -0.341 OA
ATOM     20  C   UNL     1      30.199  19.507  22.610  1.00  0.00     0.281 C 
ATOM     21  C   UNL     1      28.315  20.633  21.396  1.00  0.00     0.180 C 
ATOM     22  C   UNL     1      28.799  19.407  22.081  1.00  0.00     0.202 C 
BRANCH  18  23
ATOM     23  C   UNL     1      31.720  21.035  19.747  1.00  0.00     0.191 C 
BRANCH  23  24
ATOM     24  O   UNL     1      31.494  20.974  18.374  1.00  0.00    -0.394 OA
ATOM     25  H   UNL     1      30.824  20.304  18.122  1.00  0.00     0.210 HD
ENDBRANCH  23  24
ENDBRANCH  18  23
BRANCH  20  26
ATOM     26  O   UNL     1      30.239  19.913  23.931  1.00  0.00    -0.350 OA
BRANCH  26  27
ATOM     27  C   UNL     1      30.736  21.198  24.061  1.00  0.00     0.169 C 
BRANCH  27  28
ATOM     28  C   UNL     1      31.602  21.422  25.258  1.00  0.00     0.119 C 
BRANCH  28  29
ATOM     29  N   UNL     1      30.937  20.883  26.433  1.00  0.00    -0.092 NA
ATOM     30  N   UNL     1      31.346  19.857  27.006  1.00  0.00     0.001 N 
ATOM     31  N   UNL     1      32.109  19.181  27.711  1.00  0.00    -0.003 NA
ENDBRANCH  28  29
ENDBRANCH  27  28
ENDBRANCH  26  27
ENDBRANCH  20  26
BRANCH  21  32
ATOM     32  O   UNL     1      27.697  21.535  22.276  1.00  0.00    -0.387 OA
ATOM     33  H   UNL     1      27.701  22.434  21.857  1.00  0.00     0.211 HD
ENDBRANCH  21  32
BRANCH  22  34
ATOM     34  O   UNL     1      28.692  18.254  21.269  1.00  0.00    -0.385 OA
ATOM     35  H   UNL     1      29.558  17.838  21.102  1.00  0.00     0.211 HD
ENDBRANCH  22  34
ENDBRANCH  16  17
ENDBRANCH  11  16
BRANCH  13  36
ATOM     36  O   UNL     1      29.874  24.892  18.592  1.00  0.00    -0.385 OA
ATOM     37  H   UNL     1      30.400  24.705  19.413  1.00  0.00     0.211 HD
ENDBRANCH  13  36
BRANCH  14  38
ATOM     38  O   UNL     1      29.161  23.036  15.796  1.00  0.00    -0.387 OA
ATOM     39  H   UNL     1      30.149  23.071  15.888  1.00  0.00     0.211 HD
ENDBRANCH  14  38
BRANCH  15  40
ATOM     40  O   UNL     1      26.774  22.392  16.873  1.00  0.00    -0.387 OA
ATOM     41  H   UNL     1      25.803  22.395  16.725  1.00  0.00     0.211 HD
ENDBRANCH  15  40
ENDBRANCH   9  10
ENDBRANCH   8   9
ENDBRANCH   3   8
BRANCH   3  42
ATOM     42  C   UNL     1      26.018  25.504  21.525  1.00  0.00     0.364 C 
ATOM     43  O   UNL     1      26.387  26.605  21.862  1.00  0.00    -0.246 OA
BRANCH  42  44
ATOM     44  O   UNL     1      26.806  24.401  21.872  1.00  0.00    -0.477 OA
ATOM     45  H   UNL     1      26.429  23.471  21.947  1.00  0.00     0.296 HD
ENDBRANCH  42  44
ENDBRANCH   3  42
BRANCH   6  46
ATOM     46  O   UNL     1      22.318  24.097  19.825  1.00  0.00    -0.391 OA
ATOM     47  H   UNL     1      22.214  25.038  19.606  1.00  0.00     0.211 HD
ENDBRANCH   6  46
BRANCH   7  48
ATOM     48  N   UNL     1      22.514  24.642  23.396  1.00  0.00    -0.348 N 
ATOM     49  C   UNL     1      21.700  25.125  24.458  1.00  0.00     0.217 C 
ATOM     50  H   UNL     1      23.323  24.023  23.640  1.00  0.00     0.163 HD
ATOM     51  C   UNL     1      21.953  24.784  25.884  1.00  0.00     0.114 C 
ATOM     52  O   UNL     1      20.746  25.855  24.165  1.00  0.00    -0.275 OA
ENDBRANCH   7  48
ENDBRANCH   1   2
BRANCH   1  53
ATOM     53  O   UNL     1      20.462  26.883  21.282  1.00  0.00    -0.388 OA
ATOM     54  H   UNL     1      20.150  27.703  21.725  1.00  0.00     0.211 HD
ENDBRANCH   1  53
BRANCH   1  55
ATOM     55  C   UNL     1      21.995  28.459  20.490  1.00  0.00     0.165 C 
BRANCH  55  56
ATOM     56  O   UNL     1      20.945  29.307  20.821  1.00  0.00    -0.388 OA
ATOM     57  H   UNL     1      20.253  28.762  21.282  1.00  0.00     0.211 HD
ENDBRANCH  55  56
BRANCH  55  58
ATOM     58  C   UNL     1      22.480  28.851  19.133  1.00  0.00     0.154 C 
BRANCH  58  59
ATOM     59  N   UNL     1      21.462  29.195  18.188  1.00  0.00    -0.319 N 
ATOM     60  C   UNL     1      21.073  28.377  17.102  1.00  0.00     0.407 C 
ATOM     61  H   UNL     1      20.973  30.106  18.306  1.00  0.00     0.167 HD
ATOM     62  O   UNL     1      21.620  27.266  16.900  1.00  0.00    -0.225 OA
BRANCH  60  63
ATOM     63  O   UNL     1      20.079  28.814  16.258  1.00  0.00    -0.443 OA
BRANCH  63  64
ATOM     64  C   UNL     1      18.727  28.648  16.504  1.00  0.00     0.294 C 
BRANCH  64  65
ATOM     65  C   UNL     1      18.421  28.890  17.916  1.00  0.00     0.120 A 
ATOM     66  C   UNL     1      18.074  30.091  18.483  1.00  0.00     0.139 A 
ATOM     67  N   UNL     1      18.422  28.003  18.940  1.00  0.00    -0.132 NA
ATOM     68  N   UNL     1      17.872  29.918  19.813  1.00  0.00    -0.240 N 
ATOM     69  N   UNL     1      18.093  28.641  20.051  1.00  0.00    -0.066 NA
BRANCH  68  70
ATOM     70  C   UNL     1      17.483  30.950  20.789  1.00  0.00     0.198 C 
BRANCH  70  71
ATOM     71  C   UNL     1      16.257  31.590  20.254  1.00  0.00     0.042 CG0
ATOM     72  G   UNL     1      15.460  32.419  21.199  1.00  0.00     0.000 G0
ENDBRANCH  70  71
BRANCH  70  73
ATOM     73  C   UNL     1      17.350  30.254  22.072  1.00  0.00     0.249 C 
ATOM     74  N   UNL     1      16.192  29.781  22.743  1.00  0.00    -0.324 N 
ATOM     75  O   UNL     1      18.438  30.044  22.673  1.00  0.00    -0.272 OA
ATOM     76  H   UNL     1      16.293  29.006  23.434  1.00  0.00     0.170 HD
BRANCH  74  77
ATOM     77  C   UNL     1      14.865  30.308  22.525  1.00  0.00     0.044 A 
ATOM     78  C   UNL     1      14.480  31.463  21.854  1.00  0.00    -0.024 A 
ATOM     79  C   UNL     1      13.900  29.502  23.089  1.00  0.00     0.026 A 
ATOM     80  C   UNL     1      13.158  31.822  21.737  1.00  0.00     0.006 A 
ATOM     81  C   UNL     1      12.564  29.840  22.987  1.00  0.00     0.002 A 
ATOM     82  C   UNL     1      12.208  31.008  22.305  1.00  0.00     0.000 A 
BRANCH  78  83
ATOM     83  C   UNL     1      15.446  32.398  21.211  1.00  0.00     0.040 CG0
ATOM     84  G   UNL     1      16.266  31.591  20.265  1.00  0.00     0.000 G0
ENDBRANCH  78  83
ENDBRANCH  74  77
ENDBRANCH  70  73
ENDBRANCH  68  70
ENDBRANCH  64  65
ENDBRANCH  63  64
ENDBRANCH  60  63
ENDBRANCH  58  59
ENDBRANCH  55  58
ENDBRANCH   1  55
TORSDOF 30
