REMARK VINA RESULT:    -5.842      4.083      8.474
REMARK INTER + INTRA:         -20.585
REMARK INTER:                 -14.722
REMARK INTRA:                  -5.863
REMARK UNBOUND:                -5.863
REMARK SMILES CC(=O)N[C@@H]1[C@@H](O)C[C@](OC[C@H]2O[C@@H](O[C@H]3[C@H](O)[C@@H](O)[C@H](OCCN=[N+]=[N-])O[C@@H]3CO)[C@H](O)[C@@H](O)[C@H]2O)(C(=O)O)O[C@H]1C(O)[C@H](O)CNC(=O)OCc1cn(-c2ncccc2C#N)nn1
REMARK SMILES IDX 9 1 8 2 6 3 5 4 42 5 41 6 10 7 11 8 12 9 14 10 13 11 32 12
REMARK SMILES IDX 34 13 36 14 15 15 16 16 29 17 28 18 21 19 17 20 19 21 30 22
REMARK SMILES IDX 31 23 22 25 23 26 24 27 25 28 26 29 27 30 18 31 20 33 33 35
REMARK SMILES IDX 35 37 37 39 38 41 39 42 40 43 7 45 43 47 44 48 45 50 46 51
REMARK SMILES IDX 47 53 48 54 49 55 50 57 51 58 52 59 53 60 54 61 65 62 55 63
REMARK SMILES IDX 64 64 56 65 57 66 61 67 58 68 60 69 59 70 62 71 63 72 4 73
REMARK SMILES IDX 2 74 1 76 3 77
REMARK H PARENT 31 24 18 32 20 34 33 36 35 38 37 40 40 44 7 46 44 49 46 52
REMARK H PARENT 48 56 4 75
REMARK Flexibility Score: inf
ROOT
ATOM      1  C   UNL     1      21.588  28.053  24.961  1.00  0.00     0.272 C 
ATOM      2  C   UNL     1      23.052  28.173  24.914  1.00  0.00     0.113 C 
ATOM      3  C   UNL     1      23.754  27.225  25.805  1.00  0.00     0.145 C 
ATOM      4  C   UNL     1      23.067  25.929  26.080  1.00  0.00     0.142 C 
ATOM      5  C   UNL     1      21.776  25.690  25.349  1.00  0.00     0.178 C 
ATOM      6  O   UNL     1      21.098  26.769  25.028  1.00  0.00    -0.332 OA
ENDROOT
BRANCH   1   7
ATOM      7  O   UNL     1      20.814  28.647  24.047  1.00  0.00    -0.338 OA
BRANCH   7   8
ATOM      8  C   UNL     1      20.943  29.647  23.232  1.00  0.00     0.199 C 
BRANCH   8   9
ATOM      9  C   UNL     1      20.509  29.162  21.844  1.00  0.00     0.179 C 
ATOM     10  C   UNL     1      19.435  29.746  19.935  1.00  0.00     0.282 C 
ATOM     11  O   UNL     1      19.487  29.934  21.364  1.00  0.00    -0.341 OA
ATOM     12  C   UNL     1      20.587  30.437  19.301  1.00  0.00     0.202 C 
ATOM     13  C   UNL     1      21.906  30.012  19.953  1.00  0.00     0.179 C 
ATOM     14  C   UNL     1      21.624  28.907  20.899  1.00  0.00     0.177 C 
BRANCH  10  15
ATOM     15  O   UNL     1      18.245  30.161  19.446  1.00  0.00    -0.341 OA
BRANCH  15  16
ATOM     16  C   UNL     1      17.566  29.251  18.685  1.00  0.00     0.184 C 
ATOM     17  C   UNL     1      16.423  29.967  17.907  1.00  0.00     0.178 C 
ATOM     18  O   UNL     1      15.208  29.550  18.448  1.00  0.00    -0.341 OA
ATOM     19  C   UNL     1      15.185  29.764  19.835  1.00  0.00     0.281 C 
ATOM     20  C   UNL     1      16.952  28.113  19.458  1.00  0.00     0.180 C 
ATOM     21  C   UNL     1      15.974  28.671  20.498  1.00  0.00     0.202 C 
BRANCH  17  22
ATOM     22  C   UNL     1      16.552  29.631  16.456  1.00  0.00     0.191 C 
BRANCH  22  23
ATOM     23  O   UNL     1      15.568  28.715  16.039  1.00  0.00    -0.394 OA
ATOM     24  H   UNL     1      14.656  29.054  16.202  1.00  0.00     0.210 HD
ENDBRANCH  22  23
ENDBRANCH  17  22
BRANCH  19  25
ATOM     25  O   UNL     1      13.861  29.776  20.210  1.00  0.00    -0.350 OA
BRANCH  25  26
ATOM     26  C   UNL     1      13.509  30.993  20.822  1.00  0.00     0.169 C 
BRANCH  26  27
ATOM     27  C   UNL     1      12.587  30.745  21.998  1.00  0.00     0.119 C 
BRANCH  27  28
ATOM     28  N   UNL     1      13.015  29.472  22.592  1.00  0.00    -0.092 NA
ATOM     29  N   UNL     1      13.894  29.565  23.488  1.00  0.00     0.001 N 
ATOM     30  N   UNL     1      14.976  29.535  24.094  1.00  0.00    -0.003 NA
ENDBRANCH  27  28
ENDBRANCH  26  27
ENDBRANCH  25  26
ENDBRANCH  19  25
BRANCH  20  31
ATOM     31  O   UNL     1      16.305  27.203  18.656  1.00  0.00    -0.387 OA
ATOM     32  H   UNL     1      16.069  27.483  17.757  1.00  0.00     0.211 HD
ENDBRANCH  20  31
BRANCH  21  33
ATOM     33  O   UNL     1      16.678  29.129  21.608  1.00  0.00    -0.385 OA
ATOM     34  H   UNL     1      16.024  29.199  22.356  1.00  0.00     0.211 HD
ENDBRANCH  21  33
ENDBRANCH  15  16
ENDBRANCH  10  15
BRANCH  12  35
ATOM     35  O   UNL     1      20.646  30.159  17.947  1.00  0.00    -0.385 OA
ATOM     36  H   UNL     1      20.692  31.047  17.461  1.00  0.00     0.211 HD
ENDBRANCH  12  35
BRANCH  13  37
ATOM     37  O   UNL     1      22.475  31.130  20.608  1.00  0.00    -0.387 OA
ATOM     38  H   UNL     1      23.412  31.269  20.293  1.00  0.00     0.211 HD
ENDBRANCH  13  37
BRANCH  14  39
ATOM     39  O   UNL     1      22.750  28.468  21.602  1.00  0.00    -0.387 OA
ATOM     40  H   UNL     1      23.456  28.146  20.955  1.00  0.00     0.211 HD
ENDBRANCH  14  39
ENDBRANCH   8   9
ENDBRANCH   7   8
ENDBRANCH   1   7
BRANCH   1  41
ATOM     41  C   UNL     1      21.178  28.689  26.289  1.00  0.00     0.364 C 
ATOM     42  O   UNL     1      20.727  28.078  27.243  1.00  0.00    -0.246 OA
BRANCH  41  43
ATOM     43  O   UNL     1      21.322  30.082  26.444  1.00  0.00    -0.477 OA
ATOM     44  H   UNL     1      21.013  30.741  25.746  1.00  0.00     0.296 HD
ENDBRANCH  41  43
ENDBRANCH   1  41
BRANCH   3  45
ATOM     45  O   UNL     1      25.077  27.023  25.369  1.00  0.00    -0.391 OA
ATOM     46  H   UNL     1      25.638  27.159  26.201  1.00  0.00     0.211 HD
ENDBRANCH   3  45
BRANCH   5  47
ATOM     47  C   UNL     1      21.981  24.716  24.154  1.00  0.00     0.176 C 
BRANCH  47  48
ATOM     48  O   UNL     1      23.321  24.240  24.271  1.00  0.00    -0.388 OA
ATOM     49  H   UNL     1      23.336  23.279  24.417  1.00  0.00     0.211 HD
ENDBRANCH  47  48
BRANCH  47  50
ATOM     50  C   UNL     1      21.856  25.282  22.836  1.00  0.00     0.165 C 
BRANCH  50  51
ATOM     51  O   UNL     1      20.564  25.291  22.254  1.00  0.00    -0.388 OA
ATOM     52  H   UNL     1      20.277  26.249  22.123  1.00  0.00     0.211 HD
ENDBRANCH  50  51
BRANCH  50  53
ATOM     53  C   UNL     1      22.701  24.635  21.786  1.00  0.00     0.154 C 
BRANCH  53  54
ATOM     54  N   UNL     1      23.731  25.358  21.152  1.00  0.00    -0.319 N 
ATOM     55  C   UNL     1      24.964  25.781  21.650  1.00  0.00     0.407 C 
ATOM     56  H   UNL     1      23.557  25.648  20.114  1.00  0.00     0.167 HD
ATOM     57  O   UNL     1      25.249  25.486  22.836  1.00  0.00    -0.225 OA
BRANCH  55  58
ATOM     58  O   UNL     1      25.840  26.507  20.819  1.00  0.00    -0.443 OA
BRANCH  58  59
ATOM     59  C   UNL     1      26.288  25.916  19.635  1.00  0.00     0.294 C 
BRANCH  59  60
ATOM     60  C   UNL     1      27.214  24.824  19.866  1.00  0.00     0.121 A 
ATOM     61  C   UNL     1      26.893  23.529  20.027  1.00  0.00     0.146 A 
ATOM     62  N   UNL     1      28.604  24.927  20.029  1.00  0.00    -0.131 NA
ATOM     63  N   UNL     1      27.984  22.818  20.281  1.00  0.00    -0.201 N 
ATOM     64  N   UNL     1      28.943  23.695  20.266  1.00  0.00    -0.060 NA
BRANCH  63  65
ATOM     65  C   UNL     1      28.163  21.429  20.462  1.00  0.00     0.173 A 
ATOM     66  N   UNL     1      28.297  21.017  21.750  1.00  0.00    -0.236 NA
ATOM     67  C   UNL     1      28.343  20.553  19.383  1.00  0.00     0.097 A 
ATOM     68  C   UNL     1      28.645  19.633  21.978  1.00  0.00     0.113 A 
ATOM     69  C   UNL     1      28.681  19.250  19.679  1.00  0.00     0.025 A 
ATOM     70  C   UNL     1      28.817  18.850  20.942  1.00  0.00     0.022 A 
BRANCH  67  71
ATOM     71  C   UNL     1      28.115  20.887  18.014  1.00  0.00     0.103 C 
ATOM     72  N   UNL     1      27.919  21.150  16.849  1.00  0.00    -0.192 NA
ENDBRANCH  67  71
ENDBRANCH  63  65
ENDBRANCH  59  60
ENDBRANCH  58  59
ENDBRANCH  55  58
ENDBRANCH  53  54
ENDBRANCH  50  53
ENDBRANCH  47  50
ENDBRANCH   5  47
BRANCH   4  73
ATOM     73  N   UNL     1      23.042  25.792  27.520  1.00  0.00    -0.348 N 
ATOM     74  C   UNL     1      24.126  25.636  28.388  1.00  0.00     0.217 C 
ATOM     75  H   UNL     1      22.073  25.794  28.006  1.00  0.00     0.163 HD
ATOM     76  C   UNL     1      23.909  25.558  29.888  1.00  0.00     0.114 C 
ATOM     77  O   UNL     1      25.323  25.554  28.036  1.00  0.00    -0.275 OA
ENDBRANCH   4  73
TORSDOF 31
