REMARK VINA RESULT:    -6.377      2.791      9.201
REMARK INTER + INTRA:         -21.271
REMARK INTER:                 -13.641
REMARK INTRA:                  -7.629
REMARK UNBOUND:                -4.828
REMARK SMILES CC(=O)N[C@@H]1[C@@H](O)C[C@](OC[C@H]2O[C@@H](O[C@H]3[C@H](O)[C@@H](O)[C@H](OCCN=[N+]=[N-])O[C@@H]3CO)[C@H](O)[C@@H](O)[C@H]2O)(C(=O)O)O[C@H]1C(O)[C@H](O)CNC(=O)OCc1cn(CCN2CCCC2)nn1
REMARK SMILES IDX 9 1 8 2 6 3 5 4 42 5 41 6 10 7 11 8 12 9 14 10 13 11 32 12
REMARK SMILES IDX 34 13 36 14 15 15 16 16 29 17 28 18 21 19 17 20 19 21 30 22
REMARK SMILES IDX 31 23 22 25 23 26 24 27 25 28 26 29 27 30 18 31 20 33 33 35
REMARK SMILES IDX 35 37 37 39 38 41 39 42 40 43 7 45 43 47 44 48 45 50 46 51
REMARK SMILES IDX 47 53 48 54 49 55 50 57 51 58 52 59 53 60 54 61 64 62 55 63
REMARK SMILES IDX 63 64 56 65 57 66 58 67 59 68 62 69 60 70 61 71 4 72 2 73
REMARK SMILES IDX 1 75 3 76
REMARK H PARENT 31 24 18 32 20 34 33 36 35 38 37 40 40 44 7 46 44 49 46 52
REMARK H PARENT 48 56 4 74
REMARK Flexibility Score: inf
ROOT
ATOM      1  C   UNL     1      17.799  31.819  23.011  1.00  0.00     0.272 C 
ATOM      2  C   UNL     1      18.964  32.636  23.473  1.00  0.00     0.113 C 
ATOM      3  C   UNL     1      19.892  32.971  22.297  1.00  0.00     0.145 C 
ATOM      4  C   UNL     1      20.460  31.604  21.822  1.00  0.00     0.142 C 
ATOM      5  C   UNL     1      19.292  30.735  21.534  1.00  0.00     0.178 C 
ATOM      6  O   UNL     1      18.087  31.423  21.699  1.00  0.00    -0.332 OA
ENDROOT
BRANCH   1   7
ATOM      7  O   UNL     1      16.647  32.595  22.855  1.00  0.00    -0.338 OA
BRANCH   7   8
ATOM      8  C   UNL     1      15.757  32.614  23.866  1.00  0.00     0.199 C 
BRANCH   8   9
ATOM      9  C   UNL     1      14.358  32.177  23.438  1.00  0.00     0.179 C 
ATOM     10  C   UNL     1      13.137  31.381  21.667  1.00  0.00     0.282 C 
ATOM     11  O   UNL     1      14.353  31.393  22.297  1.00  0.00    -0.341 OA
ATOM     12  C   UNL     1      12.029  31.339  22.664  1.00  0.00     0.202 C 
ATOM     13  C   UNL     1      12.532  30.683  23.937  1.00  0.00     0.179 C 
ATOM     14  C   UNL     1      13.631  31.502  24.584  1.00  0.00     0.177 C 
BRANCH  10  15
ATOM     15  O   UNL     1      13.020  30.502  20.632  1.00  0.00    -0.341 OA
BRANCH  15  16
ATOM     16  C   UNL     1      14.070  30.013  19.981  1.00  0.00     0.184 C 
ATOM     17  C   UNL     1      14.024  30.021  18.467  1.00  0.00     0.178 C 
ATOM     18  O   UNL     1      15.349  30.001  18.022  1.00  0.00    -0.341 OA
ATOM     19  C   UNL     1      15.787  28.656  18.198  1.00  0.00     0.281 C 
ATOM     20  C   UNL     1      14.495  28.604  20.354  1.00  0.00     0.180 C 
ATOM     21  C   UNL     1      15.849  28.425  19.695  1.00  0.00     0.202 C 
BRANCH  17  22
ATOM     22  C   UNL     1      13.270  31.163  17.875  1.00  0.00     0.191 C 
BRANCH  22  23
ATOM     23  O   UNL     1      13.839  32.344  18.345  1.00  0.00    -0.394 OA
ATOM     24  H   UNL     1      14.788  32.186  18.603  1.00  0.00     0.210 HD
ENDBRANCH  22  23
ENDBRANCH  17  22
BRANCH  19  25
ATOM     25  O   UNL     1      17.057  28.620  17.718  1.00  0.00    -0.350 OA
BRANCH  25  26
ATOM     26  C   UNL     1      17.307  28.966  16.435  1.00  0.00     0.169 C 
BRANCH  26  27
ATOM     27  C   UNL     1      18.532  29.762  16.150  1.00  0.00     0.119 C 
BRANCH  27  28
ATOM     28  N   UNL     1      18.451  31.149  16.540  1.00  0.00    -0.092 NA
ATOM     29  N   UNL     1      18.306  32.008  15.682  1.00  0.00     0.001 N 
ATOM     30  N   UNL     1      18.075  32.763  14.732  1.00  0.00    -0.003 NA
ENDBRANCH  27  28
ENDBRANCH  26  27
ENDBRANCH  25  26
ENDBRANCH  19  25
BRANCH  20  31
ATOM     31  O   UNL     1      14.705  28.483  21.720  1.00  0.00    -0.387 OA
ATOM     32  H   UNL     1      14.678  27.566  22.055  1.00  0.00     0.211 HD
ENDBRANCH  20  31
BRANCH  21  33
ATOM     33  O   UNL     1      16.465  27.243  20.029  1.00  0.00    -0.385 OA
ATOM     34  H   UNL     1      15.915  26.575  20.474  1.00  0.00     0.211 HD
ENDBRANCH  21  33
ENDBRANCH  15  16
ENDBRANCH  10  15
BRANCH  12  35
ATOM     35  O   UNL     1      11.556  32.607  23.023  1.00  0.00    -0.385 OA
ATOM     36  H   UNL     1      12.152  33.319  22.648  1.00  0.00     0.211 HD
ENDBRANCH  12  35
BRANCH  13  37
ATOM     37  O   UNL     1      13.079  29.431  23.641  1.00  0.00    -0.387 OA
ATOM     38  H   UNL     1      14.087  29.482  23.680  1.00  0.00     0.211 HD
ENDBRANCH  13  37
BRANCH  14  39
ATOM     39  O   UNL     1      14.452  30.602  25.260  1.00  0.00    -0.387 OA
ATOM     40  H   UNL     1      15.161  30.349  24.598  1.00  0.00     0.211 HD
ENDBRANCH  14  39
ENDBRANCH   8   9
ENDBRANCH   7   8
ENDBRANCH   1   7
BRANCH   1  41
ATOM     41  C   UNL     1      17.524  30.624  23.851  1.00  0.00     0.364 C 
ATOM     42  O   UNL     1      18.107  30.548  24.976  1.00  0.00    -0.246 OA
BRANCH  41  43
ATOM     43  O   UNL     1      16.695  29.583  23.526  1.00  0.00    -0.477 OA
ATOM     44  H   UNL     1      16.853  28.853  22.870  1.00  0.00     0.296 HD
ENDBRANCH  41  43
ENDBRANCH   1  41
BRANCH   3  45
ATOM     45  O   UNL     1      19.192  33.490  21.236  1.00  0.00    -0.391 OA
ATOM     46  H   UNL     1      19.729  33.536  20.399  1.00  0.00     0.211 HD
ENDBRANCH   3  45
BRANCH   5  47
ATOM     47  C   UNL     1      19.273  30.328  20.079  1.00  0.00     0.176 C 
BRANCH  47  48
ATOM     48  O   UNL     1      19.881  31.226  19.223  1.00  0.00    -0.388 OA
ATOM     49  H   UNL     1      19.363  32.035  19.018  1.00  0.00     0.211 HD
ENDBRANCH  47  48
BRANCH  47  50
ATOM     50  C   UNL     1      19.603  28.931  19.725  1.00  0.00     0.165 C 
BRANCH  50  51
ATOM     51  O   UNL     1      19.145  27.951  20.574  1.00  0.00    -0.388 OA
ATOM     52  H   UNL     1      19.396  27.029  20.342  1.00  0.00     0.211 HD
ENDBRANCH  50  51
BRANCH  50  53
ATOM     53  C   UNL     1      20.911  28.696  19.044  1.00  0.00     0.154 C 
BRANCH  53  54
ATOM     54  N   UNL     1      21.750  27.772  19.712  1.00  0.00    -0.319 N 
ATOM     55  C   UNL     1      22.380  26.668  19.039  1.00  0.00     0.407 C 
ATOM     56  H   UNL     1      21.941  27.875  20.738  1.00  0.00     0.167 HD
ATOM     57  O   UNL     1      22.236  26.442  17.823  1.00  0.00    -0.225 OA
BRANCH  55  58
ATOM     58  O   UNL     1      23.201  25.791  19.747  1.00  0.00    -0.443 OA
BRANCH  58  59
ATOM     59  C   UNL     1      22.661  24.576  20.277  1.00  0.00     0.294 C 
BRANCH  59  60
ATOM     60  C   UNL     1      22.210  24.766  21.670  1.00  0.00     0.120 A 
ATOM     61  C   UNL     1      22.797  24.511  22.877  1.00  0.00     0.138 A 
ATOM     62  N   UNL     1      20.991  25.290  21.989  1.00  0.00    -0.132 NA
ATOM     63  N   UNL     1      21.970  24.867  23.860  1.00  0.00    -0.251 N 
ATOM     64  N   UNL     1      20.852  25.349  23.279  1.00  0.00    -0.067 NA
BRANCH  63  65
ATOM     65  C   UNL     1      22.133  24.794  25.278  1.00  0.00     0.161 C 
BRANCH  65  66
ATOM     66  C   UNL     1      22.082  26.104  25.974  1.00  0.00     0.108 C 
BRANCH  66  67
ATOM     67  N   UNL     1      23.182  26.532  26.731  1.00  0.00    -0.301 NA
ATOM     68  C   UNL     1      23.185  26.411  28.134  1.00  0.00     0.084 C 
ATOM     69  C   UNL     1      24.474  26.237  26.188  1.00  0.00     0.084 C 
ATOM     70  C   UNL     1      24.515  25.796  28.545  1.00  0.00     0.017 C 
ATOM     71  C   UNL     1      25.389  25.934  27.333  1.00  0.00     0.017 C 
ENDBRANCH  66  67
ENDBRANCH  65  66
ENDBRANCH  63  65
ENDBRANCH  59  60
ENDBRANCH  58  59
ENDBRANCH  55  58
ENDBRANCH  53  54
ENDBRANCH  50  53
ENDBRANCH  47  50
ENDBRANCH   5  47
BRANCH   4  72
ATOM     72  N   UNL     1      21.320  31.139  22.894  1.00  0.00    -0.348 N 
ATOM     73  C   UNL     1      22.508  30.381  22.685  1.00  0.00     0.217 C 
ATOM     74  H   UNL     1      21.090  31.351  23.882  1.00  0.00     0.163 HD
ATOM     75  C   UNL     1      23.319  29.942  23.873  1.00  0.00     0.114 C 
ATOM     76  O   UNL     1      22.850  30.097  21.536  1.00  0.00    -0.275 OA
ENDBRANCH   4  72
TORSDOF 32
