REMARK VINA RESULT:    -5.711      4.962      9.755
REMARK INTER + INTRA:         -20.826
REMARK INTER:                 -14.558
REMARK INTRA:                  -6.268
REMARK UNBOUND:                -6.268
REMARK SMILES CC(=O)N[C@@H]1[C@@H](O)C[C@](OC[C@H]2O[C@@H](O[C@H]3[C@H](O)[C@@H](O)[C@H](OCCN=[N+]=[N-])O[C@@H]3CO)[C@H](O)[C@@H](O)[C@H]2O)(C(=O)O)O[C@H]1C(O)[C@H](O)CNC(=O)OCc1cn(C(C)(C)CO)nn1
REMARK SMILES IDX 9 1 8 2 6 3 5 4 42 5 41 6 10 7 11 8 12 9 14 10 13 11 32 12
REMARK SMILES IDX 34 13 36 14 15 15 16 16 29 17 28 18 21 19 17 20 19 21 30 22
REMARK SMILES IDX 31 23 22 25 23 26 24 27 25 28 26 29 27 30 18 31 20 33 33 35
REMARK SMILES IDX 35 37 37 39 38 41 39 42 40 43 7 45 43 47 44 48 45 50 46 51
REMARK SMILES IDX 47 53 48 54 49 55 50 57 51 58 52 59 53 60 54 61 62 62 55 63
REMARK SMILES IDX 61 64 56 65 57 66 58 67 59 68 60 69 4 71 2 72 1 74 3 75
REMARK H PARENT 31 24 18 32 20 34 33 36 35 38 37 40 40 44 7 46 44 49 46 52
REMARK H PARENT 48 56 60 70 4 73
REMARK Flexibility Score: inf
ROOT
ATOM      1  C   UNL     1      14.500  32.846  16.549  1.00  0.00     0.272 C 
ATOM      2  C   UNL     1      13.395  33.411  17.402  1.00  0.00     0.113 C 
ATOM      3  C   UNL     1      12.557  32.254  17.891  1.00  0.00     0.145 C 
ATOM      4  C   UNL     1      11.799  31.750  16.640  1.00  0.00     0.142 C 
ATOM      5  C   UNL     1      12.838  31.469  15.596  1.00  0.00     0.178 C 
ATOM      6  O   UNL     1      14.126  31.526  16.091  1.00  0.00    -0.332 OA
ENDROOT
BRANCH   1   7
ATOM      7  O   UNL     1      15.652  32.601  17.222  1.00  0.00    -0.338 OA
BRANCH   7   8
ATOM      8  C   UNL     1      16.476  31.603  16.950  1.00  0.00     0.199 C 
BRANCH   8   9
ATOM      9  C   UNL     1      16.886  30.548  17.894  1.00  0.00     0.179 C 
ATOM     10  C   UNL     1      16.617  29.946  20.104  1.00  0.00     0.282 C 
ATOM     11  O   UNL     1      16.081  30.676  19.076  1.00  0.00    -0.341 OA
ATOM     12  C   UNL     1      17.551  28.852  19.725  1.00  0.00     0.202 C 
ATOM     13  C   UNL     1      17.237  28.201  18.396  1.00  0.00     0.179 C 
ATOM     14  C   UNL     1      16.552  29.130  17.446  1.00  0.00     0.177 C 
BRANCH  10  15
ATOM     15  O   UNL     1      15.562  29.522  20.918  1.00  0.00    -0.341 OA
BRANCH  15  16
ATOM     16  C   UNL     1      15.194  30.439  21.874  1.00  0.00     0.184 C 
ATOM     17  C   UNL     1      15.130  29.866  23.272  1.00  0.00     0.178 C 
ATOM     18  O   UNL     1      13.992  30.227  23.964  1.00  0.00    -0.341 OA
ATOM     19  C   UNL     1      12.804  29.816  23.421  1.00  0.00     0.281 C 
ATOM     20  C   UNL     1      13.774  30.898  21.490  1.00  0.00     0.180 C 
ATOM     21  C   UNL     1      12.887  29.742  21.913  1.00  0.00     0.202 C 
BRANCH  17  22
ATOM     22  C   UNL     1      16.306  30.474  24.024  1.00  0.00     0.191 C 
BRANCH  22  23
ATOM     23  O   UNL     1      17.447  29.698  23.813  1.00  0.00    -0.394 OA
ATOM     24  H   UNL     1      18.277  30.209  23.834  1.00  0.00     0.210 HD
ENDBRANCH  22  23
ENDBRANCH  17  22
BRANCH  19  25
ATOM     25  O   UNL     1      11.823  30.690  23.856  1.00  0.00    -0.350 OA
BRANCH  25  26
ATOM     26  C   UNL     1      10.644  30.122  24.224  1.00  0.00     0.169 C 
BRANCH  26  27
ATOM     27  C   UNL     1      10.760  28.664  24.642  1.00  0.00     0.119 C 
BRANCH  27  28
ATOM     28  N   UNL     1       9.458  28.025  24.673  1.00  0.00    -0.092 NA
ATOM     29  N   UNL     1       9.342  27.002  25.362  1.00  0.00     0.001 N 
ATOM     30  N   UNL     1       9.025  26.213  26.279  1.00  0.00    -0.003 NA
ENDBRANCH  27  28
ENDBRANCH  26  27
ENDBRANCH  25  26
ENDBRANCH  19  25
BRANCH  20  31
ATOM     31  O   UNL     1      13.541  32.046  22.253  1.00  0.00    -0.387 OA
ATOM     32  H   UNL     1      13.029  32.658  21.661  1.00  0.00     0.211 HD
ENDBRANCH  20  31
BRANCH  21  33
ATOM     33  O   UNL     1      13.575  28.558  21.597  1.00  0.00    -0.385 OA
ATOM     34  H   UNL     1      13.850  28.570  20.632  1.00  0.00     0.211 HD
ENDBRANCH  21  33
ENDBRANCH  15  16
ENDBRANCH  10  15
BRANCH  12  35
ATOM     35  O   UNL     1      18.902  29.189  19.818  1.00  0.00    -0.385 OA
ATOM     36  H   UNL     1      19.018  29.658  20.669  1.00  0.00     0.211 HD
ENDBRANCH  12  35
BRANCH  13  37
ATOM     37  O   UNL     1      16.493  27.023  18.577  1.00  0.00    -0.387 OA
ATOM     38  H   UNL     1      16.539  26.716  19.522  1.00  0.00     0.211 HD
ENDBRANCH  13  37
BRANCH  14  39
ATOM     39  O   UNL     1      15.163  28.962  17.648  1.00  0.00    -0.387 OA
ATOM     40  H   UNL     1      14.958  28.012  17.774  1.00  0.00     0.211 HD
ENDBRANCH  14  39
ENDBRANCH   8   9
ENDBRANCH   7   8
ENDBRANCH   1   7
BRANCH   1  41
ATOM     41  C   UNL     1      14.681  33.577  15.296  1.00  0.00     0.364 C 
ATOM     42  O   UNL     1      15.376  33.148  14.371  1.00  0.00    -0.246 OA
BRANCH  41  43
ATOM     43  O   UNL     1      14.075  34.824  15.058  1.00  0.00    -0.477 OA
ATOM     44  H   UNL     1      13.092  34.908  15.295  1.00  0.00     0.296 HD
ENDBRANCH  41  43
ENDBRANCH   1  41
BRANCH   3  45
ATOM     45  O   UNL     1      13.429  31.214  18.218  1.00  0.00    -0.391 OA
ATOM     46  H   UNL     1      13.195  30.809  19.077  1.00  0.00     0.211 HD
ENDBRANCH   3  45
BRANCH   5  47
ATOM     47  C   UNL     1      12.658  29.987  15.218  1.00  0.00     0.176 C 
BRANCH  47  48
ATOM     48  O   UNL     1      12.694  29.221  16.408  1.00  0.00    -0.388 OA
ATOM     49  H   UNL     1      13.415  28.570  16.402  1.00  0.00     0.211 HD
ENDBRANCH  47  48
BRANCH  47  50
ATOM     50  C   UNL     1      13.833  29.464  14.408  1.00  0.00     0.165 C 
BRANCH  50  51
ATOM     51  O   UNL     1      14.345  30.378  13.547  1.00  0.00    -0.388 OA
ATOM     52  H   UNL     1      14.176  30.220  12.589  1.00  0.00     0.211 HD
ENDBRANCH  50  51
BRANCH  50  53
ATOM     53  C   UNL     1      13.435  28.194  13.682  1.00  0.00     0.154 C 
BRANCH  53  54
ATOM     54  N   UNL     1      12.048  28.013  13.459  1.00  0.00    -0.319 N 
ATOM     55  C   UNL     1      11.466  27.813  12.204  1.00  0.00     0.407 C 
ATOM     56  H   UNL     1      11.376  28.028  14.301  1.00  0.00     0.167 HD
ATOM     57  O   UNL     1      12.136  27.766  11.160  1.00  0.00    -0.225 OA
BRANCH  55  58
ATOM     58  O   UNL     1      10.067  27.652  12.058  1.00  0.00    -0.443 OA
BRANCH  58  59
ATOM     59  C   UNL     1       9.229  28.750  11.774  1.00  0.00     0.294 C 
BRANCH  59  60
ATOM     60  C   UNL     1       8.785  29.482  12.977  1.00  0.00     0.120 A 
ATOM     61  C   UNL     1       7.495  29.612  13.452  1.00  0.00     0.139 A 
ATOM     62  N   UNL     1       9.554  30.160  13.843  1.00  0.00    -0.132 NA
ATOM     63  N   UNL     1       7.513  30.359  14.583  1.00  0.00    -0.244 N 
ATOM     64  N   UNL     1       8.778  30.679  14.798  1.00  0.00    -0.066 NA
BRANCH  63  65
ATOM     65  C   UNL     1       6.362  30.712  15.374  1.00  0.00     0.082 C 
ATOM     66  C   UNL     1       5.406  29.557  15.422  1.00  0.00     0.039 C 
ATOM     67  C   UNL     1       5.613  31.883  14.720  1.00  0.00     0.039 C 
BRANCH  65  68
ATOM     68  C   UNL     1       6.695  31.136  16.776  1.00  0.00     0.186 C 
BRANCH  68  69
ATOM     69  O   UNL     1       6.097  30.361  17.743  1.00  0.00    -0.394 OA
ATOM     70  H   UNL     1       5.274  29.923  17.476  1.00  0.00     0.210 HD
ENDBRANCH  68  69
ENDBRANCH  65  68
ENDBRANCH  63  65
ENDBRANCH  59  60
ENDBRANCH  58  59
ENDBRANCH  55  58
ENDBRANCH  53  54
ENDBRANCH  50  53
ENDBRANCH  47  50
ENDBRANCH   5  47
BRANCH   4  71
ATOM     71  N   UNL     1      10.864  32.780  16.318  1.00  0.00    -0.348 N 
ATOM     72  C   UNL     1       9.731  33.151  17.080  1.00  0.00     0.217 C 
ATOM     73  H   UNL     1      10.992  33.344  15.425  1.00  0.00     0.163 HD
ATOM     74  C   UNL     1       8.809  34.240  16.658  1.00  0.00     0.114 C 
ATOM     75  O   UNL     1       9.489  32.551  18.140  1.00  0.00    -0.275 OA
ENDBRANCH   4  71
TORSDOF 32
