REMARK VINA RESULT:    -6.698      7.418     11.920
REMARK INTER + INTRA:         -22.230
REMARK INTER:                 -16.348
REMARK INTRA:                  -5.882
REMARK UNBOUND:                -5.351
REMARK SMILES CC(=O)N[C@@H]1[C@@H](O)C[C@](OC[C@H]2O[C@@H](O[C@H]3[C@H](O)[C@@H](O)[C@H](OCCN=[N+]=[N-])O[C@@H]3CO)[C@H](O)[C@@H](O)[C@H]2O)(C(=O)O)O[C@H]1C(O)[C@H](O)CNC(=O)OCc1cn(-c2ccc([N+](=O)[O-])cc2)nn1
REMARK SMILES IDX 9 1 8 2 6 3 5 4 42 5 41 6 10 7 11 8 12 9 14 10 13 11 32 12
REMARK SMILES IDX 34 13 36 14 15 15 16 16 29 17 28 18 21 19 17 20 19 21 30 22
REMARK SMILES IDX 31 23 22 25 23 26 24 27 25 28 26 29 27 30 18 31 20 33 33 35
REMARK SMILES IDX 35 37 37 39 38 41 39 42 40 43 7 45 43 47 44 48 45 50 46 51
REMARK SMILES IDX 47 53 48 54 49 55 50 57 51 58 52 59 53 60 54 61 66 62 55 63
REMARK SMILES IDX 65 64 56 65 57 66 64 67 58 68 63 69 59 70 60 71 61 72 62 73
REMARK SMILES IDX 4 74 2 75 1 77 3 78
REMARK H PARENT 31 24 18 32 20 34 33 36 35 38 37 40 40 44 7 46 44 49 46 52
REMARK H PARENT 48 56 4 76
REMARK Flexibility Score: inf
ROOT
ATOM      1  C   UNL     1      29.423  19.870  20.436  1.00  0.00     0.272 C 
ATOM      2  C   UNL     1      29.046  18.620  19.709  1.00  0.00     0.113 C 
ATOM      3  C   UNL     1      28.806  18.910  18.290  1.00  0.00     0.145 C 
ATOM      4  C   UNL     1      28.670  20.399  17.924  1.00  0.00     0.142 C 
ATOM      5  C   UNL     1      27.997  21.095  19.013  1.00  0.00     0.178 C 
ATOM      6  O   UNL     1      28.382  20.773  20.310  1.00  0.00    -0.332 OA
ENDROOT
BRANCH   1   7
ATOM      7  O   UNL     1      30.645  20.384  20.135  1.00  0.00    -0.338 OA
BRANCH   7   8
ATOM      8  C   UNL     1      31.685  19.513  20.083  1.00  0.00     0.199 C 
BRANCH   8   9
ATOM      9  C   UNL     1      32.931  20.078  20.754  1.00  0.00     0.179 C 
ATOM     10  C   UNL     1      33.363  18.838  22.689  1.00  0.00     0.282 C 
ATOM     11  O   UNL     1      32.901  19.983  22.120  1.00  0.00    -0.341 OA
ATOM     12  C   UNL     1      33.921  17.788  21.818  1.00  0.00     0.202 C 
ATOM     13  C   UNL     1      34.736  18.376  20.697  1.00  0.00     0.179 C 
ATOM     14  C   UNL     1      34.217  19.654  20.141  1.00  0.00     0.177 C 
BRANCH  10  15
ATOM     15  O   UNL     1      32.386  18.388  23.572  1.00  0.00    -0.341 OA
BRANCH  15  16
ATOM     16  C   UNL     1      32.590  18.613  24.892  1.00  0.00     0.184 C 
ATOM     17  C   UNL     1      32.417  17.390  25.765  1.00  0.00     0.178 C 
ATOM     18  O   UNL     1      32.598  17.779  27.108  1.00  0.00    -0.341 OA
ATOM     19  C   UNL     1      31.483  18.508  27.522  1.00  0.00     0.281 C 
ATOM     20  C   UNL     1      31.462  19.560  25.347  1.00  0.00     0.180 C 
ATOM     21  C   UNL     1      31.631  19.866  26.822  1.00  0.00     0.202 C 
BRANCH  17  22
ATOM     22  C   UNL     1      33.426  16.300  25.511  1.00  0.00     0.191 C 
BRANCH  22  23
ATOM     23  O   UNL     1      34.680  16.959  25.469  1.00  0.00    -0.394 OA
ATOM     24  H   UNL     1      35.416  16.299  25.372  1.00  0.00     0.210 HD
ENDBRANCH  22  23
ENDBRANCH  17  22
BRANCH  19  25
ATOM     25  O   UNL     1      31.520  18.714  28.876  1.00  0.00    -0.350 OA
BRANCH  25  26
ATOM     26  C   UNL     1      32.737  19.071  29.399  1.00  0.00     0.169 C 
BRANCH  26  27
ATOM     27  C   UNL     1      33.158  18.299  30.617  1.00  0.00     0.119 C 
BRANCH  27  28
ATOM     28  N   UNL     1      33.758  17.038  30.175  1.00  0.00    -0.092 NA
ATOM     29  N   UNL     1      34.590  17.048  29.280  1.00  0.00     0.001 N 
ATOM     30  N   UNL     1      35.575  17.114  28.562  1.00  0.00    -0.003 NA
ENDBRANCH  27  28
ENDBRANCH  26  27
ENDBRANCH  25  26
ENDBRANCH  19  25
BRANCH  20  31
ATOM     31  O   UNL     1      31.383  20.679  24.567  1.00  0.00    -0.387 OA
ATOM     32  H   UNL     1      31.018  20.547  23.671  1.00  0.00     0.211 HD
ENDBRANCH  20  31
BRANCH  21  33
ATOM     33  O   UNL     1      30.682  20.766  27.225  1.00  0.00    -0.385 OA
ATOM     34  H   UNL     1      30.090  20.335  27.887  1.00  0.00     0.211 HD
ENDBRANCH  21  33
ENDBRANCH  15  16
ENDBRANCH  10  15
BRANCH  12  35
ATOM     35  O   UNL     1      34.845  17.027  22.561  1.00  0.00    -0.385 OA
ATOM     36  H   UNL     1      35.214  16.291  22.039  1.00  0.00     0.211 HD
ENDBRANCH  12  35
BRANCH  13  37
ATOM     37  O   UNL     1      34.893  17.395  19.687  1.00  0.00    -0.387 OA
ATOM     38  H   UNL     1      35.190  17.852  18.884  1.00  0.00     0.211 HD
ENDBRANCH  13  37
BRANCH  14  39
ATOM     39  O   UNL     1      34.117  19.691  18.757  1.00  0.00    -0.387 OA
ATOM     40  H   UNL     1      34.996  20.004  18.410  1.00  0.00     0.211 HD
ENDBRANCH  14  39
ENDBRANCH   8   9
ENDBRANCH   7   8
ENDBRANCH   1   7
BRANCH   1  41
ATOM     41  C   UNL     1      29.396  19.559  21.919  1.00  0.00     0.364 C 
ATOM     42  O   UNL     1      29.232  20.475  22.748  1.00  0.00    -0.246 OA
BRANCH  41  43
ATOM     43  O   UNL     1      29.557  18.270  22.342  1.00  0.00    -0.477 OA
ATOM     44  H   UNL     1      30.422  17.739  22.281  1.00  0.00     0.296 HD
ENDBRANCH  41  43
ENDBRANCH   1  41
BRANCH   3  45
ATOM     45  O   UNL     1      29.835  18.413  17.493  1.00  0.00    -0.391 OA
ATOM     46  H   UNL     1      30.609  18.160  18.034  1.00  0.00     0.211 HD
ENDBRANCH   3  45
BRANCH   5  47
ATOM     47  C   UNL     1      27.830  22.550  19.040  1.00  0.00     0.176 C 
BRANCH  47  48
ATOM     48  O   UNL     1      27.217  23.084  20.178  1.00  0.00    -0.388 OA
ATOM     49  H   UNL     1      27.797  23.171  20.954  1.00  0.00     0.211 HD
ENDBRANCH  47  48
BRANCH  47  50
ATOM     50  C   UNL     1      28.975  23.460  18.734  1.00  0.00     0.165 C 
BRANCH  50  51
ATOM     51  O   UNL     1      30.011  23.460  19.616  1.00  0.00    -0.388 OA
ATOM     52  H   UNL     1      30.580  22.649  19.545  1.00  0.00     0.211 HD
ENDBRANCH  50  51
BRANCH  50  53
ATOM     53  C   UNL     1      28.545  24.790  18.176  1.00  0.00     0.154 C 
BRANCH  53  54
ATOM     54  N   UNL     1      27.122  25.002  18.138  1.00  0.00    -0.319 N 
ATOM     55  C   UNL     1      26.489  26.240  18.403  1.00  0.00     0.407 C 
ATOM     56  H   UNL     1      26.472  24.206  17.900  1.00  0.00     0.167 HD
ATOM     57  O   UNL     1      27.169  27.226  18.699  1.00  0.00    -0.225 OA
BRANCH  55  58
ATOM     58  O   UNL     1      25.101  26.383  18.343  1.00  0.00    -0.443 OA
BRANCH  58  59
ATOM     59  C   UNL     1      24.207  25.327  18.111  1.00  0.00     0.294 C 
BRANCH  59  60
ATOM     60  C   UNL     1      23.567  24.902  19.374  1.00  0.00     0.121 A 
ATOM     61  C   UNL     1      23.993  25.133  20.680  1.00  0.00     0.144 A 
ATOM     62  N   UNL     1      22.405  24.200  19.523  1.00  0.00    -0.131 NA
ATOM     63  N   UNL     1      23.114  24.590  21.543  1.00  0.00    -0.220 N 
ATOM     64  N   UNL     1      22.171  24.037  20.813  1.00  0.00    -0.062 NA
BRANCH  63  65
ATOM     65  C   UNL     1      23.175  24.616  22.973  1.00  0.00     0.067 A 
ATOM     66  C   UNL     1      22.066  24.674  23.784  1.00  0.00     0.035 A 
ATOM     67  C   UNL     1      24.413  24.593  23.599  1.00  0.00     0.035 A 
ATOM     68  C   UNL     1      22.183  24.707  25.172  1.00  0.00     0.088 A 
ATOM     69  C   UNL     1      24.532  24.626  24.973  1.00  0.00     0.088 A 
ATOM     70  C   UNL     1      23.421  24.684  25.787  1.00  0.00     0.269 A 
BRANCH  70  71
ATOM     71  N   UNL     1      23.528  24.721  27.206  1.00  0.00     0.062 N 
ATOM     72  O   UNL     1      24.386  25.372  27.824  1.00  0.00    -0.258 OA
ATOM     73  O   UNL     1      22.625  23.989  27.934  1.00  0.00    -0.258 OA
ENDBRANCH  70  71
ENDBRANCH  63  65
ENDBRANCH  59  60
ENDBRANCH  58  59
ENDBRANCH  55  58
ENDBRANCH  53  54
ENDBRANCH  50  53
ENDBRANCH  47  50
ENDBRANCH   5  47
BRANCH   4  74
ATOM     74  N   UNL     1      27.768  20.308  16.763  1.00  0.00    -0.348 N 
ATOM     75  C   UNL     1      27.950  21.077  15.601  1.00  0.00     0.217 C 
ATOM     76  H   UNL     1      26.982  19.638  16.824  1.00  0.00     0.163 HD
ATOM     77  C   UNL     1      26.974  20.911  14.482  1.00  0.00     0.114 C 
ATOM     78  O   UNL     1      28.884  21.883  15.472  1.00  0.00    -0.275 OA
ENDBRANCH   4  74
TORSDOF 31
