REMARK VINA RESULT:    -5.932      4.305      8.901
REMARK INTER + INTRA:         -23.136
REMARK INTER:                 -14.884
REMARK INTRA:                  -8.252
REMARK UNBOUND:                -7.494
REMARK SMILES CC(=O)N[C@@H]1[C@@H](O)C[C@](OC[C@H]2O[C@@H](O[C@H]3[C@H](O)[C@@H](O)[C@H](OCCN=[N+]=[N-])O[C@@H]3CO)[C@H](O)[C@@H](O)[C@H]2O)(C(=O)O)O[C@H]1C(O)[C@H](O)CNC(=O)OCc1cn(C(C)CC(=O)c2ccccc2)nn1
REMARK SMILES IDX 43 1 42 2 9 3 8 4 41 5 6 6 5 7 10 8 11 9 12 10 14 11 13 12
REMARK SMILES IDX 32 13 34 14 36 15 15 16 16 17 29 18 28 19 21 20 17 21 19 22
REMARK SMILES IDX 30 23 31 24 22 26 23 27 24 28 25 29 26 30 27 31 18 32 20 34
REMARK SMILES IDX 33 36 35 38 37 40 38 42 39 43 40 44 7 46 4 48 2 49 1 51 3 52
REMARK SMILES IDX 44 53 45 55 46 56 47 58 48 59 49 60 50 62 51 63 52 64 53 65
REMARK SMILES IDX 54 66 68 67 55 68 67 69 56 70 57 71 58 72 59 73 60 74 61 75
REMARK SMILES IDX 62 76 66 77 63 78 65 79 64 80
REMARK H PARENT 31 25 18 33 20 35 33 37 35 39 37 41 40 45 7 47 4 50 44 54
REMARK H PARENT 46 57 48 61
REMARK Flexibility Score: inf
ROOT
ATOM      1  C   UNL     1      13.750  29.944  20.042  1.00  0.00     0.176 C 
ENDROOT
BRANCH   1   2
ATOM      2  C   UNL     1      14.318  29.425  18.795  1.00  0.00     0.178 C 
ATOM      3  C   UNL     1      16.662  29.478  18.531  1.00  0.00     0.272 C 
ATOM      4  C   UNL     1      16.588  29.674  17.055  1.00  0.00     0.113 C 
ATOM      5  O   UNL     1      15.465  28.737  18.851  1.00  0.00    -0.332 OA
ATOM      6  C   UNL     1      15.166  29.937  16.598  1.00  0.00     0.145 C 
ATOM      7  C   UNL     1      14.340  30.505  17.690  1.00  0.00     0.142 C 
BRANCH   3   8
ATOM      8  O   UNL     1      16.731  30.471  19.369  1.00  0.00    -0.338 OA
BRANCH   8   9
ATOM      9  C   UNL     1      17.309  31.613  19.489  1.00  0.00     0.199 C 
BRANCH   9  10
ATOM     10  C   UNL     1      18.557  31.941  20.243  1.00  0.00     0.179 C 
ATOM     11  C   UNL     1      20.874  31.595  19.907  1.00  0.00     0.282 C 
ATOM     12  O   UNL     1      19.584  31.285  19.692  1.00  0.00    -0.341 OA
ATOM     13  C   UNL     1      21.137  33.044  19.667  1.00  0.00     0.202 C 
ATOM     14  C   UNL     1      20.102  33.923  20.206  1.00  0.00     0.179 C 
ATOM     15  C   UNL     1      18.786  33.353  20.611  1.00  0.00     0.177 C 
BRANCH  11  16
ATOM     16  O   UNL     1      21.602  30.795  18.985  1.00  0.00    -0.341 OA
BRANCH  16  17
ATOM     17  C   UNL     1      21.397  29.468  19.275  1.00  0.00     0.184 C 
ATOM     18  C   UNL     1      22.288  29.004  20.390  1.00  0.00     0.178 C 
ATOM     19  O   UNL     1      23.626  29.042  20.031  1.00  0.00    -0.341 OA
ATOM     20  C   UNL     1      23.986  28.380  18.899  1.00  0.00     0.281 C 
ATOM     21  C   UNL     1      21.703  28.640  18.009  1.00  0.00     0.180 C 
ATOM     22  C   UNL     1      23.154  28.654  17.693  1.00  0.00     0.202 C 
BRANCH  18  23
ATOM     23  C   UNL     1      21.881  27.636  20.898  1.00  0.00     0.191 C 
BRANCH  23  24
ATOM     24  O   UNL     1      20.503  27.492  21.001  1.00  0.00    -0.394 OA
ATOM     25  H   UNL     1      20.287  27.038  21.858  1.00  0.00     0.210 HD
ENDBRANCH  23  24
ENDBRANCH  18  23
BRANCH  20  26
ATOM     26  O   UNL     1      24.196  27.033  19.056  1.00  0.00    -0.350 OA
BRANCH  26  27
ATOM     27  C   UNL     1      24.577  26.363  17.926  1.00  0.00     0.169 C 
BRANCH  27  28
ATOM     28  C   UNL     1      24.377  24.874  18.034  1.00  0.00     0.119 C 
BRANCH  28  29
ATOM     29  N   UNL     1      25.668  24.254  18.276  1.00  0.00    -0.092 NA
ATOM     30  N   UNL     1      26.108  24.202  19.421  1.00  0.00     0.001 N 
ATOM     31  N   UNL     1      26.440  23.977  20.587  1.00  0.00    -0.003 NA
ENDBRANCH  28  29
ENDBRANCH  27  28
ENDBRANCH  26  27
ENDBRANCH  20  26
BRANCH  21  32
ATOM     32  O   UNL     1      21.170  27.362  18.117  1.00  0.00    -0.387 OA
ATOM     33  H   UNL     1      20.825  27.169  19.022  1.00  0.00     0.211 HD
ENDBRANCH  21  32
BRANCH  22  34
ATOM     34  O   UNL     1      23.536  29.811  17.012  1.00  0.00    -0.385 OA
ATOM     35  H   UNL     1      23.342  29.632  16.056  1.00  0.00     0.211 HD
ENDBRANCH  22  34
ENDBRANCH  16  17
ENDBRANCH  11  16
BRANCH  13  36
ATOM     36  O   UNL     1      22.385  33.408  20.252  1.00  0.00    -0.385 OA
ATOM     37  H   UNL     1      22.746  34.114  19.653  1.00  0.00     0.211 HD
ENDBRANCH  13  36
BRANCH  14  38
ATOM     38  O   UNL     1      19.896  34.974  19.267  1.00  0.00    -0.387 OA
ATOM     39  H   UNL     1      20.697  35.540  19.177  1.00  0.00     0.211 HD
ENDBRANCH  14  38
BRANCH  15  40
ATOM     40  O   UNL     1      17.800  34.243  20.237  1.00  0.00    -0.387 OA
ATOM     41  H   UNL     1      17.854  34.647  19.367  1.00  0.00     0.211 HD
ENDBRANCH  15  40
ENDBRANCH   9  10
ENDBRANCH   8   9
ENDBRANCH   3   8
BRANCH   3  42
ATOM     42  C   UNL     1      17.746  28.432  18.788  1.00  0.00     0.364 C 
ATOM     43  O   UNL     1      18.125  28.216  19.945  1.00  0.00    -0.246 OA
BRANCH  42  44
ATOM     44  O   UNL     1      18.303  27.725  17.747  1.00  0.00    -0.477 OA
ATOM     45  H   UNL     1      18.416  28.209  16.864  1.00  0.00     0.296 HD
ENDBRANCH  42  44
ENDBRANCH   3  42
BRANCH   6  46
ATOM     46  O   UNL     1      15.139  30.697  15.435  1.00  0.00    -0.391 OA
ATOM     47  H   UNL     1      15.932  30.418  14.867  1.00  0.00     0.211 HD
ENDBRANCH   6  46
BRANCH   7  48
ATOM     48  N   UNL     1      12.957  30.667  17.252  1.00  0.00    -0.348 N 
ATOM     49  C   UNL     1      12.278  31.915  17.273  1.00  0.00     0.217 C 
ATOM     50  H   UNL     1      12.444  29.836  16.908  1.00  0.00     0.163 HD
ATOM     51  C   UNL     1      10.890  32.072  16.834  1.00  0.00     0.114 C 
ATOM     52  O   UNL     1      12.906  32.946  17.696  1.00  0.00    -0.275 OA
ENDBRANCH   7  48
ENDBRANCH   1   2
BRANCH   1  53
ATOM     53  O   UNL     1      13.907  31.339  20.218  1.00  0.00    -0.388 OA
ATOM     54  H   UNL     1      14.013  31.723  19.294  1.00  0.00     0.211 HD
ENDBRANCH   1  53
BRANCH   1  55
ATOM     55  C   UNL     1      14.205  29.309  21.338  1.00  0.00     0.165 C 
BRANCH  55  56
ATOM     56  O   UNL     1      13.378  28.351  21.828  1.00  0.00    -0.388 OA
ATOM     57  H   UNL     1      12.727  28.754  22.448  1.00  0.00     0.211 HD
ENDBRANCH  55  56
BRANCH  55  58
ATOM     58  C   UNL     1      14.338  30.455  22.353  1.00  0.00     0.154 C 
BRANCH  58  59
ATOM     59  N   UNL     1      15.722  30.849  22.492  1.00  0.00    -0.319 N 
ATOM     60  C   UNL     1      16.664  30.272  23.372  1.00  0.00     0.407 C 
ATOM     61  H   UNL     1      16.112  31.638  21.888  1.00  0.00     0.167 HD
ATOM     62  O   UNL     1      16.359  29.302  24.093  1.00  0.00    -0.225 OA
BRANCH  60  63
ATOM     63  O   UNL     1      17.979  30.772  23.468  1.00  0.00    -0.443 OA
BRANCH  63  64
ATOM     64  C   UNL     1      19.062  29.939  23.003  1.00  0.00     0.294 C 
BRANCH  64  65
ATOM     65  C   UNL     1      19.837  29.636  24.263  1.00  0.00     0.120 A 
ATOM     66  C   UNL     1      20.853  28.663  24.316  1.00  0.00     0.138 A 
ATOM     67  N   UNL     1      19.737  30.108  25.490  1.00  0.00    -0.132 NA
ATOM     68  N   UNL     1      21.315  28.589  25.574  1.00  0.00    -0.249 N 
ATOM     69  N   UNL     1      20.634  29.467  26.268  1.00  0.00    -0.067 NA
BRANCH  68  70
ATOM     70  C   UNL     1      22.362  27.659  26.001  1.00  0.00     0.114 C 
ATOM     71  C   UNL     1      23.268  28.360  26.964  1.00  0.00     0.034 C 
BRANCH  70  72
ATOM     72  C   UNL     1      21.765  26.379  26.486  1.00  0.00     0.108 C 
BRANCH  72  73
ATOM     73  C   UNL     1      22.613  25.263  25.990  1.00  0.00     0.164 C 
ATOM     74  O   UNL     1      23.381  24.655  26.739  1.00  0.00    -0.294 OA
BRANCH  73  75
ATOM     75  C   UNL     1      22.499  24.911  24.566  1.00  0.00     0.018 A 
ATOM     76  C   UNL     1      23.569  24.667  23.786  1.00  0.00     0.012 A 
ATOM     77  C   UNL     1      21.200  24.830  24.038  1.00  0.00     0.012 A 
ATOM     78  C   UNL     1      23.398  24.325  22.434  1.00  0.00     0.001 A 
ATOM     79  C   UNL     1      21.055  24.498  22.722  1.00  0.00     0.001 A 
ATOM     80  C   UNL     1      22.128  24.243  21.911  1.00  0.00     0.000 A 
ENDBRANCH  73  75
ENDBRANCH  72  73
ENDBRANCH  70  72
ENDBRANCH  68  70
ENDBRANCH  64  65
ENDBRANCH  63  64
ENDBRANCH  60  63
ENDBRANCH  58  59
ENDBRANCH  55  58
ENDBRANCH   1  55
TORSDOF 33
