REMARK VINA RESULT:    -5.802     13.309     18.845
REMARK INTER + INTRA:         -22.647
REMARK INTER:                 -16.980
REMARK INTRA:                  -5.667
REMARK UNBOUND:                -7.010
REMARK SMILES CC(=O)N[C@@H]1[C@@H](O)C[C@](OC[C@H]2O[C@@H](O[C@H]3[C@H](O)[C@@H](O)[C@H](OCCN=[N+]=[N-])O[C@@H]3CO)[C@H](O)[C@@H](O)[C@H]2O)(C(=O)O)O[C@H]1C(O)[C@H](O)CNC(=O)OCc1cn([C@@H](CC(=O)O)C(=O)O)nn1
REMARK SMILES IDX 43 1 42 2 9 3 8 4 41 5 6 6 5 7 10 8 11 9 12 10 14 11 13 12
REMARK SMILES IDX 32 13 34 14 36 15 15 16 16 17 29 18 28 19 21 20 17 21 19 22
REMARK SMILES IDX 30 23 31 24 22 26 23 27 24 28 25 29 26 30 27 31 18 32 20 34
REMARK SMILES IDX 33 36 35 38 37 40 38 42 39 43 40 44 7 46 4 48 2 49 1 51 3 52
REMARK SMILES IDX 44 53 45 55 46 56 47 58 48 59 49 60 50 62 51 63 52 64 53 65
REMARK SMILES IDX 54 66 65 67 55 68 64 69 56 70 57 71 58 72 59 73 60 74 61 76
REMARK SMILES IDX 62 77 63 78
REMARK H PARENT 31 25 18 33 20 35 33 37 35 39 37 41 40 45 7 47 4 50 44 54
REMARK H PARENT 46 57 48 61 60 75 63 79
REMARK Flexibility Score: inf
ROOT
ATOM      1  C   UNL     1       2.775  20.524  30.051  1.00  0.00     0.176 C 
ENDROOT
BRANCH   1   2
ATOM      2  C   UNL     1       2.230  20.680  31.460  1.00  0.00     0.178 C 
ATOM      3  C   UNL     1       2.326  22.146  33.296  1.00  0.00     0.272 C 
ATOM      4  C   UNL     1       1.793  20.842  33.906  1.00  0.00     0.113 C 
ATOM      5  O   UNL     1       2.785  21.796  32.006  1.00  0.00    -0.332 OA
ATOM      6  C   UNL     1       2.855  19.794  33.611  1.00  0.00     0.145 C 
ATOM      7  C   UNL     1       2.538  19.372  32.166  1.00  0.00     0.142 C 
BRANCH   3   8
ATOM      8  O   UNL     1       3.232  22.648  34.000  1.00  0.00    -0.338 OA
BRANCH   8   9
ATOM      9  C   UNL     1       4.139  23.142  34.694  1.00  0.00     0.199 C 
BRANCH   9  10
ATOM     10  C   UNL     1       3.866  24.486  35.369  1.00  0.00     0.179 C 
ATOM     11  C   UNL     1       5.917  25.028  36.261  1.00  0.00     0.282 C 
ATOM     12  O   UNL     1       4.599  24.746  36.476  1.00  0.00    -0.341 OA
ATOM     13  C   UNL     1       6.120  26.148  35.316  1.00  0.00     0.202 C 
ATOM     14  C   UNL     1       4.729  26.752  35.066  1.00  0.00     0.179 C 
ATOM     15  C   UNL     1       3.939  25.641  34.399  1.00  0.00     0.177 C 
BRANCH  11  16
ATOM     16  O   UNL     1       6.756  23.935  36.117  1.00  0.00    -0.341 OA
BRANCH  16  17
ATOM     17  C   UNL     1       7.988  24.248  35.590  1.00  0.00     0.184 C 
ATOM     18  C   UNL     1       8.442  23.247  34.589  1.00  0.00     0.178 C 
ATOM     19  O   UNL     1       9.660  23.609  34.027  1.00  0.00    -0.341 OA
ATOM     20  C   UNL     1      10.548  24.203  34.929  1.00  0.00     0.281 C 
ATOM     21  C   UNL     1       8.956  24.266  36.770  1.00  0.00     0.180 C 
ATOM     22  C   UNL     1      10.269  23.694  36.340  1.00  0.00     0.202 C 
BRANCH  18  23
ATOM     23  C   UNL     1       7.438  23.262  33.438  1.00  0.00     0.191 C 
BRANCH  23  24
ATOM     24  O   UNL     1       6.772  22.019  33.410  1.00  0.00    -0.394 OA
ATOM     25  H   UNL     1       5.935  22.171  33.939  1.00  0.00     0.210 HD
ENDBRANCH  23  24
ENDBRANCH  18  23
BRANCH  20  26
ATOM     26  O   UNL     1      10.301  25.564  34.921  1.00  0.00    -0.350 OA
BRANCH  26  27
ATOM     27  C   UNL     1      10.463  26.211  33.735  1.00  0.00     0.169 C 
BRANCH  27  28
ATOM     28  C   UNL     1      10.899  27.628  33.953  1.00  0.00     0.119 C 
BRANCH  28  29
ATOM     29  N   UNL     1      10.070  28.493  33.111  1.00  0.00    -0.092 NA
ATOM     30  N   UNL     1       8.838  28.484  33.311  1.00  0.00     0.001 N 
ATOM     31  N   UNL     1       7.637  28.405  32.993  1.00  0.00    -0.003 NA
ENDBRANCH  28  29
ENDBRANCH  27  28
ENDBRANCH  26  27
ENDBRANCH  20  26
BRANCH  21  32
ATOM     32  O   UNL     1       9.134  25.570  37.214  1.00  0.00    -0.387 OA
ATOM     33  H   UNL     1       8.403  26.157  36.862  1.00  0.00     0.211 HD
ENDBRANCH  21  32
BRANCH  22  34
ATOM     34  O   UNL     1      10.323  22.300  36.380  1.00  0.00    -0.385 OA
ATOM     35  H   UNL     1      11.262  22.076  36.086  1.00  0.00     0.211 HD
ENDBRANCH  22  34
ENDBRANCH  16  17
ENDBRANCH  11  16
BRANCH  13  36
ATOM     36  O   UNL     1       6.888  27.191  35.836  1.00  0.00    -0.385 OA
ATOM     37  H   UNL     1       7.427  26.815  36.591  1.00  0.00     0.211 HD
ENDBRANCH  13  36
BRANCH  14  38
ATOM     38  O   UNL     1       4.770  27.886  34.294  1.00  0.00    -0.387 OA
ATOM     39  H   UNL     1       5.559  28.459  34.508  1.00  0.00     0.211 HD
ENDBRANCH  14  38
BRANCH  15  40
ATOM     40  O   UNL     1       4.551  25.296  33.214  1.00  0.00    -0.387 OA
ATOM     41  H   UNL     1       4.466  25.959  32.508  1.00  0.00     0.211 HD
ENDBRANCH  15  40
ENDBRANCH   9  10
ENDBRANCH   8   9
ENDBRANCH   3   8
BRANCH   3  42
ATOM     42  C   UNL     1       1.071  22.993  33.109  1.00  0.00     0.364 C 
ATOM     43  O   UNL     1      -0.045  22.498  33.323  1.00  0.00    -0.246 OA
BRANCH  42  44
ATOM     44  O   UNL     1       1.153  24.311  32.702  1.00  0.00    -0.477 OA
ATOM     45  H   UNL     1       1.512  25.056  33.314  1.00  0.00     0.296 HD
ENDBRANCH  42  44
ENDBRANCH   3  42
BRANCH   6  46
ATOM     46  O   UNL     1       4.119  20.414  33.492  1.00  0.00    -0.391 OA
ATOM     47  H   UNL     1       4.217  21.182  34.079  1.00  0.00     0.211 HD
ENDBRANCH   6  46
BRANCH   7  48
ATOM     48  N   UNL     1       1.403  18.483  32.251  1.00  0.00    -0.348 N 
ATOM     49  C   UNL     1       1.602  17.071  32.325  1.00  0.00     0.217 C 
ATOM     50  H   UNL     1       0.415  18.823  32.259  1.00  0.00     0.163 HD
ATOM     51  C   UNL     1       0.381  16.201  32.408  1.00  0.00     0.114 C 
ATOM     52  O   UNL     1       2.753  16.560  32.322  1.00  0.00    -0.275 OA
ENDBRANCH   7  48
ENDBRANCH   1   2
BRANCH   1  53
ATOM     53  O   UNL     1       4.125  20.851  29.984  1.00  0.00    -0.388 OA
ATOM     54  H   UNL     1       4.707  20.086  30.256  1.00  0.00     0.211 HD
ENDBRANCH   1  53
BRANCH   1  55
ATOM     55  C   UNL     1       2.012  21.213  28.984  1.00  0.00     0.165 C 
BRANCH  55  56
ATOM     56  O   UNL     1       2.436  20.993  27.692  1.00  0.00    -0.388 OA
ATOM     57  H   UNL     1       1.842  20.399  27.161  1.00  0.00     0.211 HD
ENDBRANCH  55  56
BRANCH  55  58
ATOM     58  C   UNL     1       1.780  22.648  29.316  1.00  0.00     0.154 C 
BRANCH  58  59
ATOM     59  N   UNL     1       2.925  23.502  29.277  1.00  0.00    -0.319 N 
ATOM     60  C   UNL     1       2.799  24.855  29.670  1.00  0.00     0.407 C 
ATOM     61  H   UNL     1       3.844  23.155  28.971  1.00  0.00     0.167 HD
ATOM     62  O   UNL     1       1.650  25.259  30.065  1.00  0.00    -0.225 OA
BRANCH  60  63
ATOM     63  O   UNL     1       3.808  25.803  29.667  1.00  0.00    -0.443 OA
BRANCH  63  64
ATOM     64  C   UNL     1       3.622  27.033  28.948  1.00  0.00     0.294 C 
BRANCH  64  65
ATOM     65  C   UNL     1       4.444  26.989  27.716  1.00  0.00     0.120 A 
ATOM     66  C   UNL     1       5.462  27.817  27.299  1.00  0.00     0.139 A 
ATOM     67  N   UNL     1       4.311  26.068  26.704  1.00  0.00    -0.132 NA
ATOM     68  N   UNL     1       5.907  27.391  26.081  1.00  0.00    -0.237 N 
ATOM     69  N   UNL     1       5.187  26.350  25.779  1.00  0.00    -0.066 NA
BRANCH  68  70
ATOM     70  C   UNL     1       6.955  27.996  25.291  1.00  0.00     0.229 C 
BRANCH  70  71
ATOM     71  C   UNL     1       7.804  26.884  24.702  1.00  0.00     0.161 C 
BRANCH  71  72
ATOM     72  C   UNL     1       9.085  26.741  25.419  1.00  0.00     0.306 C 
ATOM     73  O   UNL     1       9.156  26.110  26.504  1.00  0.00    -0.252 OA
BRANCH  72  74
ATOM     74  O   UNL     1      10.236  27.301  24.910  1.00  0.00    -0.481 OA
ATOM     75  H   UNL     1      10.814  26.743  24.270  1.00  0.00     0.296 HD
ENDBRANCH  72  74
ENDBRANCH  71  72
ENDBRANCH  70  71
BRANCH  70  76
ATOM     76  C   UNL     1       6.346  28.780  24.202  1.00  0.00     0.329 C 
ATOM     77  O   UNL     1       5.759  29.851  24.480  1.00  0.00    -0.250 OA
BRANCH  76  78
ATOM     78  O   UNL     1       6.389  28.388  22.871  1.00  0.00    -0.480 OA
ATOM     79  H   UNL     1       5.574  27.923  22.480  1.00  0.00     0.296 HD
ENDBRANCH  76  78
ENDBRANCH  70  76
ENDBRANCH  68  70
ENDBRANCH  64  65
ENDBRANCH  63  64
ENDBRANCH  60  63
ENDBRANCH  58  59
ENDBRANCH  55  58
ENDBRANCH   1  55
TORSDOF 35
