REMARK VINA RESULT:    -5.702     15.964     21.322
REMARK INTER + INTRA:         -21.087
REMARK INTER:                 -13.667
REMARK INTRA:                  -7.420
REMARK UNBOUND:                -6.052
REMARK SMILES CC(=O)N[C@@H]1[C@@H](O)C[C@](OC[C@H]2O[C@@H](O[C@H]3[C@H](O)[C@@H](O)[C@H](OCCN=[N+]=[N-])O[C@@H]3CO)[C@H](O)[C@@H](O)[C@H]2O)(C(=O)O)O[C@H]1C(O)[C@H](O)CNC(=O)OCc1cn(CC(O)CO)nn1
REMARK SMILES IDX 43 1 42 2 9 3 8 4 41 5 6 6 5 7 10 8 11 9 12 10 14 11 13 12
REMARK SMILES IDX 32 13 34 14 36 15 15 16 16 17 29 18 28 19 21 20 17 21 19 22
REMARK SMILES IDX 30 23 31 24 22 26 23 27 24 28 25 29 26 30 27 31 18 32 20 34
REMARK SMILES IDX 33 36 35 38 37 40 38 42 39 43 40 44 7 46 4 48 2 49 1 51 3 52
REMARK SMILES IDX 44 53 45 55 46 56 47 58 48 59 49 60 50 62 51 63 52 64 53 65
REMARK SMILES IDX 54 66 62 67 55 68 61 69 56 70 57 71 58 72 59 74 60 75
REMARK H PARENT 31 25 18 33 20 35 33 37 35 39 37 41 40 45 7 47 4 50 44 54
REMARK H PARENT 46 57 48 61 58 73 60 76
REMARK Flexibility Score: inf
ROOT
ATOM      1  C   UNL     1      23.414  27.692  23.625  1.00  0.00     0.176 C 
ENDROOT
BRANCH   1   2
ATOM      2  C   UNL     1      23.464  26.247  23.093  1.00  0.00     0.178 C 
ATOM      3  C   UNL     1      23.611  24.984  21.103  1.00  0.00     0.272 C 
ATOM      4  C   UNL     1      22.434  24.149  21.523  1.00  0.00     0.113 C 
ATOM      5  O   UNL     1      23.555  26.219  21.767  1.00  0.00    -0.332 OA
ATOM      6  C   UNL     1      21.617  24.649  22.655  1.00  0.00     0.145 C 
ATOM      7  C   UNL     1      22.312  25.499  23.651  1.00  0.00     0.142 C 
BRANCH   3   8
ATOM      8  O   UNL     1      23.580  25.225  19.808  1.00  0.00    -0.338 OA
BRANCH   8   9
ATOM      9  C   UNL     1      22.837  25.478  18.816  1.00  0.00     0.199 C 
BRANCH   9  10
ATOM     10  C   UNL     1      22.297  26.827  18.466  1.00  0.00     0.179 C 
ATOM     11  C   UNL     1      20.547  28.221  18.940  1.00  0.00     0.282 C 
ATOM     12  O   UNL     1      21.349  27.224  19.484  1.00  0.00    -0.341 OA
ATOM     13  C   UNL     1      21.169  29.008  17.838  1.00  0.00     0.202 C 
ATOM     14  C   UNL     1      22.659  29.156  17.912  1.00  0.00     0.179 C 
ATOM     15  C   UNL     1      23.317  27.961  18.581  1.00  0.00     0.177 C 
BRANCH  11  16
ATOM     16  O   UNL     1      20.000  29.086  19.865  1.00  0.00    -0.341 OA
BRANCH  16  17
ATOM     17  C   UNL     1      18.888  29.786  19.400  1.00  0.00     0.184 C 
ATOM     18  C   UNL     1      18.475  30.801  20.422  1.00  0.00     0.178 C 
ATOM     19  O   UNL     1      17.216  30.568  20.953  1.00  0.00    -0.341 OA
ATOM     20  C   UNL     1      17.035  29.204  21.238  1.00  0.00     0.281 C 
ATOM     21  C   UNL     1      17.842  28.848  18.963  1.00  0.00     0.180 C 
ATOM     22  C   UNL     1      16.729  28.557  19.909  1.00  0.00     0.202 C 
BRANCH  18  23
ATOM     23  C   UNL     1      18.481  32.209  19.861  1.00  0.00     0.191 C 
BRANCH  23  24
ATOM     24  O   UNL     1      17.887  32.268  18.608  1.00  0.00    -0.394 OA
ATOM     25  H   UNL     1      17.942  33.231  18.308  1.00  0.00     0.210 HD
ENDBRANCH  23  24
ENDBRANCH  18  23
BRANCH  20  26
ATOM     26  O   UNL     1      15.949  29.130  22.094  1.00  0.00    -0.350 OA
BRANCH  26  27
ATOM     27  C   UNL     1      15.054  30.181  21.975  1.00  0.00     0.169 C 
BRANCH  27  28
ATOM     28  C   UNL     1      13.711  29.754  21.426  1.00  0.00     0.119 C 
BRANCH  28  29
ATOM     29  N   UNL     1      13.302  30.541  20.295  1.00  0.00    -0.092 NA
ATOM     30  N   UNL     1      13.727  30.420  19.152  1.00  0.00     0.001 N 
ATOM     31  N   UNL     1      14.307  30.256  18.079  1.00  0.00    -0.003 NA
ENDBRANCH  28  29
ENDBRANCH  27  28
ENDBRANCH  26  27
ENDBRANCH  20  26
BRANCH  21  32
ATOM     32  O   UNL     1      17.265  29.241  17.730  1.00  0.00    -0.387 OA
ATOM     33  H   UNL     1      17.263  28.390  17.184  1.00  0.00     0.211 HD
ENDBRANCH  21  32
BRANCH  22  34
ATOM     34  O   UNL     1      16.446  27.200  20.043  1.00  0.00    -0.385 OA
ATOM     35  H   UNL     1      16.930  26.775  20.770  1.00  0.00     0.211 HD
ENDBRANCH  22  34
ENDBRANCH  16  17
ENDBRANCH  11  16
BRANCH  13  36
ATOM     36  O   UNL     1      20.724  28.582  16.564  1.00  0.00    -0.385 OA
ATOM     37  H   UNL     1      20.979  27.663  16.359  1.00  0.00     0.211 HD
ENDBRANCH  13  36
BRANCH  14  38
ATOM     38  O   UNL     1      23.070  30.347  18.505  1.00  0.00    -0.387 OA
ATOM     39  H   UNL     1      24.040  30.462  18.359  1.00  0.00     0.211 HD
ENDBRANCH  14  38
BRANCH  15  40
ATOM     40  O   UNL     1      23.394  28.273  19.965  1.00  0.00    -0.387 OA
ATOM     41  H   UNL     1      23.098  27.505  20.511  1.00  0.00     0.211 HD
ENDBRANCH  15  40
ENDBRANCH   9  10
ENDBRANCH   8   9
ENDBRANCH   3   8
BRANCH   3  42
ATOM     42  C   UNL     1      24.903  24.332  21.497  1.00  0.00     0.364 C 
ATOM     43  O   UNL     1      24.832  23.450  22.409  1.00  0.00    -0.246 OA
BRANCH  42  44
ATOM     44  O   UNL     1      26.115  24.640  20.936  1.00  0.00    -0.477 OA
ATOM     45  H   UNL     1      27.001  24.370  21.377  1.00  0.00     0.296 HD
ENDBRANCH  42  44
ENDBRANCH   3  42
BRANCH   6  46
ATOM     46  O   UNL     1      20.556  25.401  22.098  1.00  0.00    -0.391 OA
ATOM     47  H   UNL     1      19.710  25.112  22.494  1.00  0.00     0.211 HD
ENDBRANCH   6  46
BRANCH   7  48
ATOM     48  N   UNL     1      22.653  24.689  24.818  1.00  0.00    -0.348 N 
ATOM     49  C   UNL     1      22.346  25.104  26.138  1.00  0.00     0.217 C 
ATOM     50  H   UNL     1      23.137  23.774  24.722  1.00  0.00     0.163 HD
ATOM     51  C   UNL     1      22.690  24.284  27.328  1.00  0.00     0.114 C 
ATOM     52  O   UNL     1      21.761  26.207  26.279  1.00  0.00    -0.275 OA
ENDBRANCH   7  48
ENDBRANCH   1   2
BRANCH   1  53
ATOM     53  O   UNL     1      24.273  28.479  22.882  1.00  0.00    -0.388 OA
ATOM     54  H   UNL     1      24.789  27.926  22.244  1.00  0.00     0.211 HD
ENDBRANCH   1  53
BRANCH   1  55
ATOM     55  C   UNL     1      21.998  28.234  23.516  1.00  0.00     0.165 C 
BRANCH  55  56
ATOM     56  O   UNL     1      21.877  28.652  22.168  1.00  0.00    -0.388 OA
ATOM     57  H   UNL     1      21.241  29.406  22.114  1.00  0.00     0.211 HD
ENDBRANCH  55  56
BRANCH  55  58
ATOM     58  C   UNL     1      21.728  29.405  24.397  1.00  0.00     0.154 C 
BRANCH  58  59
ATOM     59  N   UNL     1      21.823  29.068  25.802  1.00  0.00    -0.319 N 
ATOM     60  C   UNL     1      20.848  29.518  26.721  1.00  0.00     0.407 C 
ATOM     61  H   UNL     1      22.614  28.479  26.185  1.00  0.00     0.167 HD
ATOM     62  O   UNL     1      19.880  30.230  26.368  1.00  0.00    -0.225 OA
BRANCH  60  63
ATOM     63  O   UNL     1      20.921  29.184  28.058  1.00  0.00    -0.443 OA
BRANCH  63  64
ATOM     64  C   UNL     1      21.982  29.380  28.926  1.00  0.00     0.294 C 
BRANCH  64  65
ATOM     65  C   UNL     1      23.029  28.334  28.905  1.00  0.00     0.120 A 
ATOM     66  C   UNL     1      23.227  27.406  29.888  1.00  0.00     0.138 A 
ATOM     67  N   UNL     1      23.958  28.139  27.922  1.00  0.00    -0.132 NA
ATOM     68  N   UNL     1      24.274  26.662  29.486  1.00  0.00    -0.249 N 
ATOM     69  N   UNL     1      24.691  27.109  28.326  1.00  0.00    -0.067 NA
BRANCH  68  70
ATOM     70  C   UNL     1      24.871  25.553  30.198  1.00  0.00     0.180 C 
BRANCH  70  71
ATOM     71  C   UNL     1      26.039  26.125  31.014  1.00  0.00     0.161 C 
BRANCH  71  72
ATOM     72  O   UNL     1      25.677  26.064  32.338  1.00  0.00    -0.389 OA
ATOM     73  H   UNL     1      24.787  26.460  32.505  1.00  0.00     0.211 HD
ENDBRANCH  71  72
BRANCH  71  74
ATOM     74  C   UNL     1      27.290  25.327  30.736  1.00  0.00     0.189 C 
BRANCH  74  75
ATOM     75  O   UNL     1      27.845  24.888  31.917  1.00  0.00    -0.394 OA
ATOM     76  H   UNL     1      27.162  24.395  32.441  1.00  0.00     0.210 HD
ENDBRANCH  74  75
ENDBRANCH  71  74
ENDBRANCH  70  71
ENDBRANCH  68  70
ENDBRANCH  64  65
ENDBRANCH  63  64
ENDBRANCH  60  63
ENDBRANCH  58  59
ENDBRANCH  55  58
ENDBRANCH   1  55
TORSDOF 34
