REMARK VINA RESULT:    -7.151     17.656     23.441
REMARK INTER + INTRA:         -23.142
REMARK INTER:                 -17.095
REMARK INTRA:                  -6.047
REMARK UNBOUND:                -5.539
REMARK SMILES CC(=O)N[C@@H]1[C@@H](O)C[C@](OC[C@H]2O[C@@H](O[C@H]3[C@H](O)[C@@H](O)[C@H](OCCN=[N+]=[N-])O[C@@H]3CO)[C@H](O)[C@@H](O)[C@H]2O)(C(=O)O)O[C@H]1C(O)[C@H](O)CNC(=O)OCc1cn(-c2c3ccccc3nc3ccccc23)nn1
REMARK SMILES IDX 9 1 8 2 6 3 5 4 42 5 41 6 10 7 11 8 12 9 14 10 13 11 32 12
REMARK SMILES IDX 34 13 36 14 15 15 16 16 29 17 28 18 21 19 17 20 19 21 30 22
REMARK SMILES IDX 31 23 22 25 23 26 24 27 25 28 26 29 27 30 18 31 20 33 33 35
REMARK SMILES IDX 35 37 37 39 38 41 39 42 40 43 7 45 43 47 44 48 45 50 46 51
REMARK SMILES IDX 47 53 48 54 49 55 50 57 51 58 52 59 53 60 54 61 71 62 55 63
REMARK SMILES IDX 70 64 56 65 57 66 69 67 58 68 62 69 64 70 68 71 59 72 61 73
REMARK SMILES IDX 63 74 65 75 67 76 60 77 66 78 4 79 2 80 1 82 3 83
REMARK H PARENT 31 24 18 32 20 34 33 36 35 38 37 40 40 44 7 46 44 49 46 52
REMARK H PARENT 48 56 4 81
REMARK Flexibility Score: inf
ROOT
ATOM      1  C   UNL     1      21.712  28.153  19.254  1.00  0.00     0.272 C 
ATOM      2  C   UNL     1      23.030  28.667  20.018  1.00  0.00     0.113 C 
ATOM      3  C   UNL     1      22.902  28.069  21.371  1.00  0.00     0.145 C 
ATOM      4  C   UNL     1      22.721  26.566  21.387  1.00  0.00     0.142 C 
ATOM      5  C   UNL     1      22.086  26.015  20.179  1.00  0.00     0.178 C 
ATOM      6  O   UNL     1      21.926  26.846  19.121  1.00  0.00    -0.332 OA
ENDROOT
BRANCH   1   7
ATOM      7  O   UNL     1      21.919  28.786  18.027  1.00  0.00    -0.338 OA
BRANCH   7   8
ATOM      8  C   UNL     1      21.526  28.118  16.917  1.00  0.00     0.199 C 
BRANCH   8   9
ATOM      9  C   UNL     1      20.445  28.756  16.132  1.00  0.00     0.179 C 
ATOM     10  C   UNL     1      18.141  29.025  15.877  1.00  0.00     0.282 C 
ATOM     11  O   UNL     1      19.200  28.388  16.560  1.00  0.00    -0.341 OA
ATOM     12  C   UNL     1      18.557  29.794  14.695  1.00  0.00     0.202 C 
ATOM     13  C   UNL     1      19.670  30.767  15.010  1.00  0.00     0.179 C 
ATOM     14  C   UNL     1      20.575  30.281  16.093  1.00  0.00     0.177 C 
BRANCH  10  15
ATOM     15  O   UNL     1      17.381  29.759  16.777  1.00  0.00    -0.341 OA
BRANCH  15  16
ATOM     16  C   UNL     1      16.254  29.043  17.245  1.00  0.00     0.184 C 
ATOM     17  C   UNL     1      15.082  29.939  17.307  1.00  0.00     0.178 C 
ATOM     18  O   UNL     1      14.060  29.477  18.176  1.00  0.00    -0.341 OA
ATOM     19  C   UNL     1      14.597  29.484  19.457  1.00  0.00     0.281 C 
ATOM     20  C   UNL     1      16.680  28.570  18.644  1.00  0.00     0.180 C 
ATOM     21  C   UNL     1      15.497  28.239  19.510  1.00  0.00     0.202 C 
BRANCH  17  22
ATOM     22  C   UNL     1      14.432  30.106  15.942  1.00  0.00     0.191 C 
BRANCH  22  23
ATOM     23  O   UNL     1      15.174  30.862  15.072  1.00  0.00    -0.394 OA
ATOM     24  H   UNL     1      14.571  31.487  14.592  1.00  0.00     0.210 HD
ENDBRANCH  22  23
ENDBRANCH  17  22
BRANCH  19  25
ATOM     25  O   UNL     1      13.560  29.426  20.353  1.00  0.00    -0.350 OA
BRANCH  25  26
ATOM     26  C   UNL     1      13.518  30.485  21.256  1.00  0.00     0.169 C 
BRANCH  26  27
ATOM     27  C   UNL     1      14.791  31.304  21.233  1.00  0.00     0.119 C 
BRANCH  27  28
ATOM     28  N   UNL     1      15.548  30.948  22.429  1.00  0.00    -0.092 NA
ATOM     29  N   UNL     1      16.647  30.391  22.334  1.00  0.00     0.001 N 
ATOM     30  N   UNL     1      17.776  29.897  22.297  1.00  0.00    -0.003 NA
ENDBRANCH  27  28
ENDBRANCH  26  27
ENDBRANCH  25  26
ENDBRANCH  19  25
BRANCH  20  31
ATOM     31  O   UNL     1      17.576  27.519  18.531  1.00  0.00    -0.387 OA
ATOM     32  H   UNL     1      18.394  27.646  19.073  1.00  0.00     0.211 HD
ENDBRANCH  20  31
BRANCH  21  33
ATOM     33  O   UNL     1      15.923  27.987  20.794  1.00  0.00    -0.385 OA
ATOM     34  H   UNL     1      16.038  28.877  21.247  1.00  0.00     0.211 HD
ENDBRANCH  21  33
ENDBRANCH  15  16
ENDBRANCH  10  15
BRANCH  12  35
ATOM     35  O   UNL     1      18.883  28.942  13.629  1.00  0.00    -0.385 OA
ATOM     36  H   UNL     1      19.873  28.792  13.704  1.00  0.00     0.211 HD
ENDBRANCH  12  35
BRANCH  13  37
ATOM     37  O   UNL     1      19.074  31.997  15.348  1.00  0.00    -0.387 OA
ATOM     38  H   UNL     1      18.340  32.127  14.667  1.00  0.00     0.211 HD
ENDBRANCH  13  37
BRANCH  14  39
ATOM     39  O   UNL     1      20.329  30.862  17.320  1.00  0.00    -0.387 OA
ATOM     40  H   UNL     1      20.494  30.250  18.081  1.00  0.00     0.211 HD
ENDBRANCH  14  39
ENDBRANCH   8   9
ENDBRANCH   7   8
ENDBRANCH   1   7
BRANCH   1  41
ATOM     41  C   UNL     1      20.658  28.713  20.032  1.00  0.00     0.364 C 
ATOM     42  O   UNL     1      20.568  29.972  20.203  1.00  0.00    -0.246 OA
BRANCH  41  43
ATOM     43  O   UNL     1      19.636  28.001  20.671  1.00  0.00    -0.477 OA
ATOM     44  H   UNL     1      19.863  27.464  21.498  1.00  0.00     0.296 HD
ENDBRANCH  41  43
ENDBRANCH   1  41
BRANCH   3  45
ATOM     45  O   UNL     1      24.075  28.425  22.080  1.00  0.00    -0.391 OA
ATOM     46  H   UNL     1      23.948  29.324  22.480  1.00  0.00     0.211 HD
ENDBRANCH   3  45
BRANCH   5  47
ATOM     47  C   UNL     1      22.882  24.807  19.614  1.00  0.00     0.176 C 
BRANCH  47  48
ATOM     48  O   UNL     1      22.315  23.631  20.009  1.00  0.00    -0.388 OA
ATOM     49  H   UNL     1      21.919  23.089  19.257  1.00  0.00     0.211 HD
ENDBRANCH  47  48
BRANCH  47  50
ATOM     50  C   UNL     1      23.302  24.976  18.226  1.00  0.00     0.165 C 
BRANCH  50  51
ATOM     51  O   UNL     1      22.585  24.274  17.255  1.00  0.00    -0.388 OA
ATOM     52  H   UNL     1      23.048  24.280  16.380  1.00  0.00     0.211 HD
ENDBRANCH  50  51
BRANCH  50  53
ATOM     53  C   UNL     1      24.744  25.112  17.921  1.00  0.00     0.154 C 
BRANCH  53  54
ATOM     54  N   UNL     1      25.666  25.419  18.950  1.00  0.00    -0.319 N 
ATOM     55  C   UNL     1      26.183  26.701  19.232  1.00  0.00     0.407 C 
ATOM     56  H   UNL     1      26.008  24.603  19.583  1.00  0.00     0.167 HD
ATOM     57  O   UNL     1      25.914  27.730  18.593  1.00  0.00    -0.225 OA
BRANCH  55  58
ATOM     58  O   UNL     1      27.073  26.894  20.307  1.00  0.00    -0.443 OA
BRANCH  58  59
ATOM     59  C   UNL     1      28.351  26.283  20.366  1.00  0.00     0.294 C 
BRANCH  59  60
ATOM     60  C   UNL     1      28.205  24.875  20.837  1.00  0.00     0.121 A 
ATOM     61  C   UNL     1      29.080  23.823  20.669  1.00  0.00     0.144 A 
ATOM     62  N   UNL     1      27.168  24.361  21.513  1.00  0.00    -0.131 NA
ATOM     63  N   UNL     1      28.573  22.703  21.234  1.00  0.00    -0.219 N 
ATOM     64  N   UNL     1      27.406  23.065  21.739  1.00  0.00    -0.062 NA
BRANCH  63  65
ATOM     65  C   UNL     1      29.189  21.402  21.263  1.00  0.00     0.085 A 
ATOM     66  C   UNL     1      29.069  20.553  20.174  1.00  0.00     0.027 A 
ATOM     67  C   UNL     1      29.903  20.956  22.351  1.00  0.00     0.027 A 
ATOM     68  C   UNL     1      28.367  20.943  19.054  1.00  0.00     0.012 A 
ATOM     69  C   UNL     1      29.642  19.284  20.155  1.00  0.00     0.073 A 
ATOM     70  C   UNL     1      30.454  19.695  22.292  1.00  0.00     0.073 A 
ATOM     71  C   UNL     1      30.063  21.739  23.456  1.00  0.00     0.012 A 
ATOM     72  C   UNL     1      28.248  20.100  17.970  1.00  0.00     0.001 A 
ATOM     73  C   UNL     1      29.520  18.444  19.070  1.00  0.00     0.029 A 
ATOM     74  N   UNL     1      30.330  18.879  21.230  1.00  0.00    -0.248 NA
ATOM     75  C   UNL     1      31.177  19.212  23.363  1.00  0.00     0.029 A 
ATOM     76  C   UNL     1      30.796  21.228  24.519  1.00  0.00     0.001 A 
ATOM     77  C   UNL     1      28.821  18.831  17.953  1.00  0.00     0.002 A 
ATOM     78  C   UNL     1      31.364  19.973  24.503  1.00  0.00     0.002 A 
ENDBRANCH  63  65
ENDBRANCH  59  60
ENDBRANCH  58  59
ENDBRANCH  55  58
ENDBRANCH  53  54
ENDBRANCH  50  53
ENDBRANCH  47  50
ENDBRANCH   5  47
BRANCH   4  79
ATOM     79  N   UNL     1      22.070  26.185  22.620  1.00  0.00    -0.348 N 
ATOM     80  C   UNL     1      22.418  25.038  23.394  1.00  0.00     0.217 C 
ATOM     81  H   UNL     1      21.282  26.754  23.008  1.00  0.00     0.163 HD
ATOM     82  C   UNL     1      21.661  24.746  24.658  1.00  0.00     0.114 C 
ATOM     83  O   UNL     1      23.345  24.321  22.984  1.00  0.00    -0.275 OA
ENDBRANCH   4  79
TORSDOF 30
