REMARK VINA RESULT:    -6.039      3.320     10.116
REMARK INTER + INTRA:         -21.642
REMARK INTER:                 -13.008
REMARK INTRA:                  -8.634
REMARK UNBOUND:                -6.778
REMARK SMILES CC(=O)N[C@@H]1[C@@H](O)C[C@](OC[C@H]2O[C@@H](O[C@H]3[C@H](O)[C@@H](O)[C@H](OCCN=[N+]=[N-])O[C@@H]3CO)[C@H](O)[C@@H](O)[C@H]2O)(C(=O)O)O[C@H]1C(O)[C@H](O)CNC(=O)OCc1cn(-c2ccc3c(c2)OCO3)nn1
REMARK SMILES IDX 9 1 8 2 6 3 5 4 42 5 41 6 10 7 11 8 12 9 14 10 13 11 32 12
REMARK SMILES IDX 34 13 36 14 15 15 16 16 29 17 28 18 21 19 17 20 19 21 30 22
REMARK SMILES IDX 31 23 22 25 23 26 24 27 25 28 26 29 27 30 18 31 20 33 33 35
REMARK SMILES IDX 35 37 37 39 38 41 39 42 40 43 7 45 43 47 44 48 45 50 46 51
REMARK SMILES IDX 47 53 48 54 49 55 50 57 51 58 52 59 53 60 54 61 66 62 55 63
REMARK SMILES IDX 65 64 56 65 57 66 61 67 58 68 60 69 59 70 62 71 64 72 63 73
REMARK SMILES IDX 4 74 2 75 1 77 3 78
REMARK H PARENT 31 24 18 32 20 34 33 36 35 38 37 40 40 44 7 46 44 49 46 52
REMARK H PARENT 48 56 4 76
REMARK Flexibility Score: inf
ROOT
ATOM      1  C   UNL     1      18.440  31.761  22.720  1.00  0.00     0.272 C 
ATOM      2  C   UNL     1      19.413  32.905  22.788  1.00  0.00     0.113 C 
ATOM      3  C   UNL     1      20.109  33.150  21.436  1.00  0.00     0.145 C 
ATOM      4  C   UNL     1      20.985  31.934  21.217  1.00  0.00     0.142 C 
ATOM      5  C   UNL     1      20.066  30.738  21.353  1.00  0.00     0.178 C 
ATOM      6  O   UNL     1      18.758  31.029  21.541  1.00  0.00    -0.332 OA
ENDROOT
BRANCH   1   7
ATOM      7  O   UNL     1      17.176  32.123  22.573  1.00  0.00    -0.338 OA
BRANCH   7   8
ATOM      8  C   UNL     1      16.137  32.106  23.350  1.00  0.00     0.199 C 
BRANCH   8   9
ATOM      9  C   UNL     1      14.821  31.514  22.921  1.00  0.00     0.179 C 
ATOM     10  C   UNL     1      13.549  31.318  20.981  1.00  0.00     0.282 C 
ATOM     11  O   UNL     1      14.522  31.991  21.671  1.00  0.00    -0.341 OA
ATOM     12  C   UNL     1      12.785  30.335  21.803  1.00  0.00     0.202 C 
ATOM     13  C   UNL     1      13.703  29.336  22.487  1.00  0.00     0.179 C 
ATOM     14  C   UNL     1      15.003  29.975  22.855  1.00  0.00     0.177 C 
BRANCH  10  15
ATOM     15  O   UNL     1      14.200  30.579  19.972  1.00  0.00    -0.341 OA
BRANCH  15  16
ATOM     16  C   UNL     1      13.928  31.035  18.708  1.00  0.00     0.184 C 
ATOM     17  C   UNL     1      14.113  29.913  17.719  1.00  0.00     0.178 C 
ATOM     18  O   UNL     1      15.407  29.766  17.279  1.00  0.00    -0.341 OA
ATOM     19  C   UNL     1      16.352  30.182  18.218  1.00  0.00     0.281 C 
ATOM     20  C   UNL     1      14.859  32.193  18.439  1.00  0.00     0.180 C 
ATOM     21  C   UNL     1      16.277  31.667  18.468  1.00  0.00     0.202 C 
BRANCH  17  22
ATOM     22  C   UNL     1      13.235  30.102  16.491  1.00  0.00     0.191 C 
BRANCH  22  23
ATOM     23  O   UNL     1      13.967  30.595  15.418  1.00  0.00    -0.394 OA
ATOM     24  H   UNL     1      14.894  30.881  15.686  1.00  0.00     0.210 HD
ENDBRANCH  22  23
ENDBRANCH  17  22
BRANCH  19  25
ATOM     25  O   UNL     1      17.590  29.904  17.654  1.00  0.00    -0.350 OA
BRANCH  25  26
ATOM     26  C   UNL     1      17.509  28.696  16.969  1.00  0.00     0.169 C 
BRANCH  26  27
ATOM     27  C   UNL     1      18.470  28.670  15.786  1.00  0.00     0.119 C 
BRANCH  27  28
ATOM     28  N   UNL     1      19.778  29.103  16.301  1.00  0.00    -0.092 NA
ATOM     29  N   UNL     1      20.617  28.233  16.621  1.00  0.00     0.001 N 
ATOM     30  N   UNL     1      21.281  27.227  16.926  1.00  0.00    -0.003 NA
ENDBRANCH  27  28
ENDBRANCH  26  27
ENDBRANCH  25  26
ENDBRANCH  19  25
BRANCH  20  31
ATOM     31  O   UNL     1      14.569  32.871  17.272  1.00  0.00    -0.387 OA
ATOM     32  H   UNL     1      14.775  33.851  17.311  1.00  0.00     0.211 HD
ENDBRANCH  20  31
BRANCH  21  33
ATOM     33  O   UNL     1      16.786  31.905  19.746  1.00  0.00    -0.385 OA
ATOM     34  H   UNL     1      17.755  32.114  19.743  1.00  0.00     0.211 HD
ENDBRANCH  21  33
ENDBRANCH  15  16
ENDBRANCH  10  15
BRANCH  12  35
ATOM     35  O   UNL     1      11.956  30.907  22.764  1.00  0.00    -0.385 OA
ATOM     36  H   UNL     1      12.038  30.360  23.606  1.00  0.00     0.211 HD
ENDBRANCH  12  35
BRANCH  13  37
ATOM     37  O   UNL     1      13.906  28.269  21.609  1.00  0.00    -0.387 OA
ATOM     38  H   UNL     1      14.569  28.447  20.916  1.00  0.00     0.211 HD
ENDBRANCH  13  37
BRANCH  14  39
ATOM     39  O   UNL     1      15.944  29.657  21.880  1.00  0.00    -0.387 OA
ATOM     40  H   UNL     1      16.750  29.241  22.228  1.00  0.00     0.211 HD
ENDBRANCH  14  39
ENDBRANCH   8   9
ENDBRANCH   7   8
ENDBRANCH   1   7
BRANCH   1  41
ATOM     41  C   UNL     1      18.663  30.803  23.851  1.00  0.00     0.364 C 
ATOM     42  O   UNL     1      19.255  31.286  24.878  1.00  0.00    -0.246 OA
BRANCH  41  43
ATOM     43  O   UNL     1      18.302  29.494  23.878  1.00  0.00    -0.477 OA
ATOM     44  H   UNL     1      18.932  28.737  24.092  1.00  0.00     0.296 HD
ENDBRANCH  41  43
ENDBRANCH   1  41
BRANCH   3  45
ATOM     45  O   UNL     1      19.075  33.204  20.493  1.00  0.00    -0.391 OA
ATOM     46  H   UNL     1      18.219  32.956  20.907  1.00  0.00     0.211 HD
ENDBRANCH   3  45
BRANCH   5  47
ATOM     47  C   UNL     1      20.135  30.040  19.979  1.00  0.00     0.176 C 
BRANCH  47  48
ATOM     48  O   UNL     1      21.344  30.188  19.363  1.00  0.00    -0.388 OA
ATOM     49  H   UNL     1      21.864  29.352  19.270  1.00  0.00     0.211 HD
ENDBRANCH  47  48
BRANCH  47  50
ATOM     50  C   UNL     1      19.791  28.561  20.099  1.00  0.00     0.165 C 
BRANCH  50  51
ATOM     51  O   UNL     1      18.473  28.342  20.321  1.00  0.00    -0.388 OA
ATOM     52  H   UNL     1      17.838  28.913  19.842  1.00  0.00     0.211 HD
ENDBRANCH  50  51
BRANCH  50  53
ATOM     53  C   UNL     1      20.646  28.022  21.202  1.00  0.00     0.154 C 
BRANCH  53  54
ATOM     54  N   UNL     1      21.333  26.825  20.828  1.00  0.00    -0.319 N 
ATOM     55  C   UNL     1      22.635  26.756  20.267  1.00  0.00     0.407 C 
ATOM     56  H   UNL     1      20.869  25.858  20.964  1.00  0.00     0.167 HD
ATOM     57  O   UNL     1      23.302  27.791  20.067  1.00  0.00    -0.225 OA
BRANCH  55  58
ATOM     58  O   UNL     1      23.213  25.531  19.920  1.00  0.00    -0.443 OA
BRANCH  58  59
ATOM     59  C   UNL     1      23.767  24.643  20.851  1.00  0.00     0.294 C 
BRANCH  59  60
ATOM     60  C   UNL     1      22.921  24.663  22.092  1.00  0.00     0.121 A 
ATOM     61  C   UNL     1      23.344  25.072  23.359  1.00  0.00     0.144 A 
ATOM     62  N   UNL     1      21.636  24.319  22.239  1.00  0.00    -0.131 NA
ATOM     63  N   UNL     1      22.306  24.957  24.216  1.00  0.00    -0.220 N 
ATOM     64  N   UNL     1      21.298  24.499  23.492  1.00  0.00    -0.062 NA
BRANCH  63  65
ATOM     65  C   UNL     1      22.274  25.261  25.589  1.00  0.00     0.070 A 
ATOM     66  C   UNL     1      22.838  24.415  26.503  1.00  0.00     0.032 A 
ATOM     67  C   UNL     1      21.678  26.416  26.032  1.00  0.00     0.079 A 
ATOM     68  C   UNL     1      22.802  24.734  27.868  1.00  0.00     0.053 A 
ATOM     69  C   UNL     1      21.632  26.745  27.370  1.00  0.00     0.167 A 
ATOM     70  C   UNL     1      22.199  25.895  28.283  1.00  0.00     0.165 A 
ATOM     71  O   UNL     1      21.097  27.830  28.028  1.00  0.00    -0.454 OA
ATOM     72  O   UNL     1      22.023  26.446  29.546  1.00  0.00    -0.454 OA
ATOM     73  C   UNL     1      21.093  27.487  29.419  1.00  0.00     0.468 C 
ENDBRANCH  63  65
ENDBRANCH  59  60
ENDBRANCH  58  59
ENDBRANCH  55  58
ENDBRANCH  53  54
ENDBRANCH  50  53
ENDBRANCH  47  50
ENDBRANCH   5  47
BRANCH   4  74
ATOM     74  N   UNL     1      22.068  31.955  22.154  1.00  0.00    -0.348 N 
ATOM     75  C   UNL     1      23.409  31.589  21.767  1.00  0.00     0.217 C 
ATOM     76  H   UNL     1      21.983  32.222  23.157  1.00  0.00     0.163 HD
ATOM     77  C   UNL     1      24.526  31.615  22.749  1.00  0.00     0.114 C 
ATOM     78  O   UNL     1      23.628  31.251  20.599  1.00  0.00    -0.275 OA
ENDBRANCH   4  74
TORSDOF 30
