REMARK VINA RESULT:    -5.411      3.269      6.939
REMARK INTER + INTRA:         -23.258
REMARK INTER:                 -14.507
REMARK INTRA:                  -8.750
REMARK UNBOUND:                -8.356
REMARK SMILES CC(=O)N[C@@H]1[C@@H](O)C[C@](OC[C@H]2O[C@@H](O[C@H]3[C@H](O)[C@@H](O)[C@H](OCCN=[N+]=[N-])O[C@@H]3CO)[C@H](O)[C@@H](O)[C@H]2O)(C(=O)O)O[C@H]1C(O)[C@H](O)CNC(=O)OCc1cn([C@@H](CCC(=O)O)C(=O)O)nn1
REMARK SMILES IDX 43 1 42 2 9 3 8 4 41 5 6 6 5 7 10 8 11 9 12 10 14 11 13 12
REMARK SMILES IDX 32 13 34 14 36 15 15 16 16 17 29 18 28 19 21 20 17 21 19 22
REMARK SMILES IDX 30 23 31 24 22 26 23 27 24 28 25 29 26 30 27 31 18 32 20 34
REMARK SMILES IDX 33 36 35 38 37 40 38 42 39 43 40 44 7 46 4 48 2 49 1 51 3 52
REMARK SMILES IDX 44 53 45 55 46 56 47 58 48 59 49 60 50 62 51 63 52 64 53 65
REMARK SMILES IDX 54 66 66 67 55 68 65 69 56 70 57 71 58 72 59 73 60 74 61 75
REMARK SMILES IDX 62 77 63 78 64 79
REMARK H PARENT 31 25 18 33 20 35 33 37 35 39 37 41 40 45 7 47 4 50 44 54
REMARK H PARENT 46 57 48 61 61 76 64 80
REMARK Flexibility Score: inf
ROOT
ATOM      1  C   UNL     1      15.958  30.480  24.375  1.00  0.00     0.176 C 
ENDROOT
BRANCH   1   2
ATOM      2  C   UNL     1      15.082  30.157  23.164  1.00  0.00     0.178 C 
ATOM      3  C   UNL     1      15.400  30.225  20.832  1.00  0.00     0.272 C 
ATOM      4  C   UNL     1      14.312  31.192  20.586  1.00  0.00     0.113 C 
ATOM      5  O   UNL     1      15.901  30.559  22.109  1.00  0.00    -0.332 OA
ATOM      6  C   UNL     1      13.828  31.843  21.854  1.00  0.00     0.145 C 
ATOM      7  C   UNL     1      13.852  31.016  23.089  1.00  0.00     0.142 C 
BRANCH   3   8
ATOM      8  O   UNL     1      16.452  30.406  19.957  1.00  0.00    -0.338 OA
BRANCH   8   9
ATOM      9  C   UNL     1      16.495  31.282  18.987  1.00  0.00     0.199 C 
BRANCH   9  10
ATOM     10  C   UNL     1      17.614  31.377  17.988  1.00  0.00     0.179 C 
ATOM     11  C   UNL     1      19.539  30.096  17.674  1.00  0.00     0.282 C 
ATOM     12  O   UNL     1      18.804  30.925  18.482  1.00  0.00    -0.341 OA
ATOM     13  C   UNL     1      18.707  28.873  17.358  1.00  0.00     0.202 C 
ATOM     14  C   UNL     1      17.522  29.296  16.550  1.00  0.00     0.179 C 
ATOM     15  C   UNL     1      17.209  30.745  16.663  1.00  0.00     0.177 C 
BRANCH  11  16
ATOM     16  O   UNL     1      20.675  29.688  18.376  1.00  0.00    -0.341 OA
BRANCH  16  17
ATOM     17  C   UNL     1      20.492  29.491  19.721  1.00  0.00     0.184 C 
ATOM     18  C   UNL     1      21.664  30.032  20.535  1.00  0.00     0.178 C 
ATOM     19  O   UNL     1      22.254  28.982  21.234  1.00  0.00    -0.341 OA
ATOM     20  C   UNL     1      22.915  28.110  20.324  1.00  0.00     0.281 C 
ATOM     21  C   UNL     1      20.443  27.995  19.954  1.00  0.00     0.180 C 
ATOM     22  C   UNL     1      21.825  27.442  19.543  1.00  0.00     0.202 C 
BRANCH  18  23
ATOM     23  C   UNL     1      21.149  31.025  21.562  1.00  0.00     0.191 C 
BRANCH  23  24
ATOM     24  O   UNL     1      20.589  30.395  22.657  1.00  0.00    -0.394 OA
ATOM     25  H   UNL     1      19.597  30.384  22.614  1.00  0.00     0.210 HD
ENDBRANCH  23  24
ENDBRANCH  18  23
BRANCH  20  26
ATOM     26  O   UNL     1      23.716  27.291  21.066  1.00  0.00    -0.350 OA
BRANCH  26  27
ATOM     27  C   UNL     1      25.059  27.407  20.838  1.00  0.00     0.169 C 
BRANCH  27  28
ATOM     28  C   UNL     1      25.614  26.384  19.868  1.00  0.00     0.119 C 
BRANCH  28  29
ATOM     29  N   UNL     1      25.895  26.958  18.567  1.00  0.00    -0.092 NA
ATOM     30  N   UNL     1      25.182  26.801  17.582  1.00  0.00     0.001 N 
ATOM     31  N   UNL     1      24.328  26.741  16.724  1.00  0.00    -0.003 NA
ENDBRANCH  28  29
ENDBRANCH  27  28
ENDBRANCH  26  27
ENDBRANCH  20  26
BRANCH  21  32
ATOM     32  O   UNL     1      20.162  27.664  21.274  1.00  0.00    -0.387 OA
ATOM     33  H   UNL     1      19.175  27.549  21.440  1.00  0.00     0.211 HD
ENDBRANCH  21  32
BRANCH  22  34
ATOM     34  O   UNL     1      21.968  27.865  18.198  1.00  0.00    -0.385 OA
ATOM     35  H   UNL     1      21.369  27.299  17.647  1.00  0.00     0.211 HD
ENDBRANCH  22  34
ENDBRANCH  16  17
ENDBRANCH  11  16
BRANCH  13  36
ATOM     36  O   UNL     1      19.466  27.930  16.663  1.00  0.00    -0.385 OA
ATOM     37  H   UNL     1      19.065  27.885  15.738  1.00  0.00     0.211 HD
ENDBRANCH  13  36
BRANCH  14  38
ATOM     38  O   UNL     1      16.387  28.529  16.832  1.00  0.00    -0.387 OA
ATOM     39  H   UNL     1      16.645  27.787  17.454  1.00  0.00     0.211 HD
ENDBRANCH  14  38
BRANCH  15  40
ATOM     40  O   UNL     1      15.824  30.869  16.524  1.00  0.00    -0.387 OA
ATOM     41  H   UNL     1      15.597  31.415  15.738  1.00  0.00     0.211 HD
ENDBRANCH  15  40
ENDBRANCH   9  10
ENDBRANCH   8   9
ENDBRANCH   3   8
BRANCH   3  42
ATOM     42  C   UNL     1      15.077  28.804  20.833  1.00  0.00     0.364 C 
ATOM     43  O   UNL     1      16.033  27.971  20.625  1.00  0.00    -0.246 OA
BRANCH  42  44
ATOM     44  O   UNL     1      13.851  28.198  21.029  1.00  0.00    -0.477 OA
ATOM     45  H   UNL     1      13.707  27.228  20.874  1.00  0.00     0.296 HD
ENDBRANCH  42  44
ENDBRANCH   3  42
BRANCH   6  46
ATOM     46  O   UNL     1      14.701  32.939  22.103  1.00  0.00    -0.391 OA
ATOM     47  H   UNL     1      15.299  33.097  21.329  1.00  0.00     0.211 HD
ENDBRANCH   6  46
BRANCH   7  48
ATOM     48  N   UNL     1      12.587  30.379  23.205  1.00  0.00    -0.348 N 
ATOM     49  C   UNL     1      12.059  29.874  24.419  1.00  0.00     0.217 C 
ATOM     50  H   UNL     1      11.959  30.269  22.385  1.00  0.00     0.163 HD
ATOM     51  C   UNL     1      10.710  29.206  24.468  1.00  0.00     0.114 C 
ATOM     52  O   UNL     1      12.695  29.971  25.465  1.00  0.00    -0.275 OA
ENDBRANCH   7  48
ENDBRANCH   1   2
BRANCH   1  53
ATOM     53  O   UNL     1      15.271  31.339  25.224  1.00  0.00    -0.388 OA
ATOM     54  H   UNL     1      15.881  31.675  25.933  1.00  0.00     0.211 HD
ENDBRANCH   1  53
BRANCH   1  55
ATOM     55  C   UNL     1      17.307  30.962  24.110  1.00  0.00     0.165 C 
BRANCH  55  56
ATOM     56  O   UNL     1      18.150  29.829  23.900  1.00  0.00    -0.388 OA
ATOM     57  H   UNL     1      18.825  29.825  24.620  1.00  0.00     0.211 HD
ENDBRANCH  55  56
BRANCH  55  58
ATOM     58  C   UNL     1      17.998  31.760  25.174  1.00  0.00     0.154 C 
BRANCH  58  59
ATOM     59  N   UNL     1      19.279  31.216  25.558  1.00  0.00    -0.319 N 
ATOM     60  C   UNL     1      19.599  30.806  26.886  1.00  0.00     0.407 C 
ATOM     61  H   UNL     1      20.019  31.122  24.844  1.00  0.00     0.167 HD
ATOM     62  O   UNL     1      18.772  30.901  27.792  1.00  0.00    -0.225 OA
BRANCH  60  63
ATOM     63  O   UNL     1      20.855  30.306  27.123  1.00  0.00    -0.443 OA
BRANCH  63  64
ATOM     64  C   UNL     1      21.122  28.958  27.377  1.00  0.00     0.294 C 
BRANCH  64  65
ATOM     65  C   UNL     1      21.167  28.208  26.097  1.00  0.00     0.120 A 
ATOM     66  C   UNL     1      22.002  27.179  25.718  1.00  0.00     0.139 A 
ATOM     67  N   UNL     1      20.367  28.437  25.022  1.00  0.00    -0.132 NA
ATOM     68  N   UNL     1      21.694  26.811  24.441  1.00  0.00    -0.238 N 
ATOM     69  N   UNL     1      20.693  27.604  24.056  1.00  0.00    -0.066 NA
BRANCH  68  70
ATOM     70  C   UNL     1      22.303  25.774  23.690  1.00  0.00     0.219 C 
BRANCH  70  71
ATOM     71  C   UNL     1      23.223  24.825  24.364  1.00  0.00     0.051 C 
BRANCH  71  72
ATOM     72  C   UNL     1      24.575  24.603  23.826  1.00  0.00     0.125 C 
BRANCH  72  73
ATOM     73  C   UNL     1      24.746  23.862  22.594  1.00  0.00     0.303 C 
ATOM     74  O   UNL     1      23.965  23.760  21.632  1.00  0.00    -0.252 OA
BRANCH  73  75
ATOM     75  O   UNL     1      25.961  23.130  22.401  1.00  0.00    -0.481 OA
ATOM     76  H   UNL     1      26.838  23.625  22.432  1.00  0.00     0.296 HD
ENDBRANCH  73  75
ENDBRANCH  72  73
ENDBRANCH  71  72
ENDBRANCH  70  71
BRANCH  70  77
ATOM     77  C   UNL     1      21.227  24.981  23.016  1.00  0.00     0.328 C 
ATOM     78  O   UNL     1      20.380  24.365  23.691  1.00  0.00    -0.250 OA
BRANCH  77  79
ATOM     79  O   UNL     1      21.132  24.903  21.639  1.00  0.00    -0.480 OA
ATOM     80  H   UNL     1      21.646  24.200  21.104  1.00  0.00     0.296 HD
ENDBRANCH  77  79
ENDBRANCH  70  77
ENDBRANCH  68  70
ENDBRANCH  64  65
ENDBRANCH  63  64
ENDBRANCH  60  63
ENDBRANCH  58  59
ENDBRANCH  55  58
ENDBRANCH   1  55
TORSDOF 36
