REMARK VINA RESULT:    -6.366      2.923      5.405
REMARK INTER + INTRA:         -20.687
REMARK INTER:                 -13.961
REMARK INTRA:                  -6.725
REMARK UNBOUND:                -5.017
REMARK SMILES CC(=O)N[C@@H]1[C@@H](O)C[C@](OC[C@H]2O[C@@H](O[C@H]3[C@H](O)[C@@H](O)[C@H](OCCN=[N+]=[N-])O[C@@H]3CO)[C@H](O)[C@@H](O)[C@H]2O)(C(=O)O)O[C@H]1C(O)[C@H](O)CNC(=O)OCc1cn(C2CCCCC2)nn1
REMARK SMILES IDX 9 1 8 2 6 3 5 4 42 5 41 6 10 7 11 8 12 9 14 10 13 11 32 12
REMARK SMILES IDX 34 13 36 14 15 15 16 16 29 17 28 18 21 19 17 20 19 21 30 22
REMARK SMILES IDX 31 23 22 25 23 26 24 27 25 28 26 29 27 30 18 31 20 33 33 35
REMARK SMILES IDX 35 37 37 39 38 41 39 42 40 43 7 45 43 47 44 48 45 50 46 51
REMARK SMILES IDX 47 53 48 54 49 55 50 57 51 58 52 59 53 60 54 61 63 62 55 63
REMARK SMILES IDX 62 64 56 65 57 66 61 67 58 68 60 69 59 70 4 71 2 72 1 74
REMARK SMILES IDX 3 75
REMARK H PARENT 31 24 18 32 20 34 33 36 35 38 37 40 40 44 7 46 44 49 46 52
REMARK H PARENT 48 56 4 73
REMARK Flexibility Score: inf
ROOT
ATOM      1  C   UNL     1      12.012  30.602  23.971  1.00  0.00     0.272 C 
ATOM      2  C   UNL     1      11.184  31.935  24.099  1.00  0.00     0.113 C 
ATOM      3  C   UNL     1      12.117  33.105  24.029  1.00  0.00     0.145 C 
ATOM      4  C   UNL     1      13.194  33.002  25.076  1.00  0.00     0.142 C 
ATOM      5  C   UNL     1      13.684  31.613  25.293  1.00  0.00     0.178 C 
ATOM      6  O   UNL     1      13.004  30.565  24.877  1.00  0.00    -0.332 OA
ENDROOT
BRANCH   1   7
ATOM      7  O   UNL     1      12.432  30.631  22.715  1.00  0.00    -0.338 OA
BRANCH   7   8
ATOM      8  C   UNL     1      12.630  29.749  21.795  1.00  0.00     0.199 C 
BRANCH   8   9
ATOM      9  C   UNL     1      13.962  29.040  21.609  1.00  0.00     0.179 C 
ATOM     10  C   UNL     1      15.114  28.997  19.567  1.00  0.00     0.282 C 
ATOM     11  O   UNL     1      14.101  28.492  20.375  1.00  0.00    -0.341 OA
ATOM     12  C   UNL     1      16.404  28.943  20.294  1.00  0.00     0.202 C 
ATOM     13  C   UNL     1      16.352  29.547  21.677  1.00  0.00     0.179 C 
ATOM     14  C   UNL     1      15.005  30.106  21.931  1.00  0.00     0.177 C 
BRANCH  10  15
ATOM     15  O   UNL     1      14.685  30.167  19.057  1.00  0.00    -0.341 OA
BRANCH  15  16
ATOM     16  C   UNL     1      14.820  30.431  17.734  1.00  0.00     0.184 C 
ATOM     17  C   UNL     1      15.583  31.731  17.593  1.00  0.00     0.178 C 
ATOM     18  O   UNL     1      16.024  31.949  16.302  1.00  0.00    -0.341 OA
ATOM     19  C   UNL     1      15.272  31.337  15.333  1.00  0.00     0.281 C 
ATOM     20  C   UNL     1      13.508  30.669  17.016  1.00  0.00     0.180 C 
ATOM     21  C   UNL     1      13.829  31.294  15.678  1.00  0.00     0.202 C 
BRANCH  17  22
ATOM     22  C   UNL     1      16.664  31.910  18.620  1.00  0.00     0.191 C 
BRANCH  22  23
ATOM     23  O   UNL     1      16.169  32.760  19.609  1.00  0.00    -0.394 OA
ATOM     24  H   UNL     1      16.010  33.673  19.271  1.00  0.00     0.210 HD
ENDBRANCH  22  23
ENDBRANCH  17  22
BRANCH  19  25
ATOM     25  O   UNL     1      15.855  30.148  14.984  1.00  0.00    -0.350 OA
BRANCH  25  26
ATOM     26  C   UNL     1      17.151  30.261  14.506  1.00  0.00     0.169 C 
BRANCH  26  27
ATOM     27  C   UNL     1      18.108  29.263  15.097  1.00  0.00     0.119 C 
BRANCH  27  28
ATOM     28  N   UNL     1      17.502  28.705  16.289  1.00  0.00    -0.092 NA
ATOM     29  N   UNL     1      18.236  28.609  17.281  1.00  0.00     0.001 N 
ATOM     30  N   UNL     1      18.930  27.989  18.107  1.00  0.00    -0.003 NA
ENDBRANCH  27  28
ENDBRANCH  26  27
ENDBRANCH  25  26
ENDBRANCH  19  25
BRANCH  20  31
ATOM     31  O   UNL     1      12.782  29.524  16.797  1.00  0.00    -0.387 OA
ATOM     32  H   UNL     1      11.862  29.699  16.478  1.00  0.00     0.211 HD
ENDBRANCH  20  31
BRANCH  21  33
ATOM     33  O   UNL     1      13.389  32.638  15.764  1.00  0.00    -0.385 OA
ATOM     34  H   UNL     1      13.858  33.199  15.098  1.00  0.00     0.211 HD
ENDBRANCH  21  33
ENDBRANCH  15  16
ENDBRANCH  10  15
BRANCH  12  35
ATOM     35  O   UNL     1      16.688  27.565  20.484  1.00  0.00    -0.385 OA
ATOM     36  H   UNL     1      16.424  27.032  19.703  1.00  0.00     0.211 HD
ENDBRANCH  12  35
BRANCH  13  37
ATOM     37  O   UNL     1      17.327  30.554  21.825  1.00  0.00    -0.387 OA
ATOM     38  H   UNL     1      16.938  31.402  21.559  1.00  0.00     0.211 HD
ENDBRANCH  13  37
BRANCH  14  39
ATOM     39  O   UNL     1      14.727  31.330  21.389  1.00  0.00    -0.387 OA
ATOM     40  H   UNL     1      14.011  31.216  20.720  1.00  0.00     0.211 HD
ENDBRANCH  14  39
ENDBRANCH   8   9
ENDBRANCH   7   8
ENDBRANCH   1   7
BRANCH   1  41
ATOM     41  C   UNL     1      11.005  29.557  24.367  1.00  0.00     0.364 C 
ATOM     42  O   UNL     1       9.794  29.661  24.213  1.00  0.00    -0.246 OA
BRANCH  41  43
ATOM     43  O   UNL     1      11.448  28.357  24.958  1.00  0.00    -0.477 OA
ATOM     44  H   UNL     1      12.082  28.381  25.741  1.00  0.00     0.296 HD
ENDBRANCH  41  43
ENDBRANCH   1  41
BRANCH   3  45
ATOM     45  O   UNL     1      12.639  33.268  22.752  1.00  0.00    -0.391 OA
ATOM     46  H   UNL     1      12.659  34.249  22.558  1.00  0.00     0.211 HD
ENDBRANCH   3  45
BRANCH   5  47
ATOM     47  C   UNL     1      15.129  31.469  24.724  1.00  0.00     0.176 C 
BRANCH  47  48
ATOM     48  O   UNL     1      15.504  32.698  24.145  1.00  0.00    -0.388 OA
ATOM     49  H   UNL     1      14.996  33.444  24.520  1.00  0.00     0.211 HD
ENDBRANCH  47  48
BRANCH  47  50
ATOM     50  C   UNL     1      16.093  31.025  25.769  1.00  0.00     0.165 C 
BRANCH  50  51
ATOM     51  O   UNL     1      15.467  31.258  27.016  1.00  0.00    -0.388 OA
ATOM     52  H   UNL     1      15.711  30.580  27.675  1.00  0.00     0.211 HD
ENDBRANCH  50  51
BRANCH  50  53
ATOM     53  C   UNL     1      17.403  31.719  25.817  1.00  0.00     0.154 C 
BRANCH  53  54
ATOM     54  N   UNL     1      18.356  31.331  24.811  1.00  0.00    -0.319 N 
ATOM     55  C   UNL     1      19.670  31.867  24.734  1.00  0.00     0.407 C 
ATOM     56  H   UNL     1      18.082  30.625  24.106  1.00  0.00     0.167 HD
ATOM     57  O   UNL     1      20.049  32.723  25.572  1.00  0.00    -0.225 OA
BRANCH  55  58
ATOM     58  O   UNL     1      20.555  31.482  23.766  1.00  0.00    -0.443 OA
BRANCH  58  59
ATOM     59  C   UNL     1      20.496  30.311  22.987  1.00  0.00     0.294 C 
BRANCH  59  60
ATOM     60  C   UNL     1      20.716  29.141  23.864  1.00  0.00     0.120 A 
ATOM     61  C   UNL     1      21.954  28.620  24.110  1.00  0.00     0.138 A 
ATOM     62  N   UNL     1      19.833  28.399  24.541  1.00  0.00    -0.132 NA
ATOM     63  N   UNL     1      21.812  27.561  24.940  1.00  0.00    -0.249 N 
ATOM     64  N   UNL     1      20.508  27.451  25.185  1.00  0.00    -0.067 NA
BRANCH  63  65
ATOM     65  C   UNL     1      22.880  26.723  25.446  1.00  0.00     0.109 C 
ATOM     66  C   UNL     1      22.942  25.521  24.508  1.00  0.00     0.027 C 
ATOM     67  C   UNL     1      22.547  26.225  26.835  1.00  0.00     0.027 C 
ATOM     68  C   UNL     1      24.112  24.628  24.923  1.00  0.00     0.002 C 
ATOM     69  C   UNL     1      22.665  24.720  26.957  1.00  0.00     0.002 C 
ATOM     70  C   UNL     1      23.954  24.244  26.359  1.00  0.00     0.000 C 
ENDBRANCH  63  65
ENDBRANCH  59  60
ENDBRANCH  58  59
ENDBRANCH  55  58
ENDBRANCH  53  54
ENDBRANCH  50  53
ENDBRANCH  47  50
ENDBRANCH   5  47
BRANCH   4  71
ATOM     71  N   UNL     1      12.834  33.694  26.286  1.00  0.00    -0.348 N 
ATOM     72  C   UNL     1      13.749  34.302  27.161  1.00  0.00     0.217 C 
ATOM     73  H   UNL     1      11.810  33.780  26.588  1.00  0.00     0.163 HD
ATOM     74  C   UNL     1      13.301  35.022  28.402  1.00  0.00     0.114 C 
ATOM     75  O   UNL     1      14.961  34.273  26.949  1.00  0.00    -0.275 OA
ENDBRANCH   4  71
TORSDOF 30
