REMARK VINA RESULT:    -6.346      4.185      8.681
REMARK INTER + INTRA:         -24.229
REMARK INTER:                 -17.361
REMARK INTRA:                  -6.868
REMARK UNBOUND:                -7.494
REMARK SMILES CC(=O)N[C@@H]1[C@@H](O)C[C@](OC[C@H]2O[C@@H](O[C@H]3[C@H](O)[C@@H](O)[C@H](OCCN=[N+]=[N-])O[C@@H]3CO)[C@H](O)[C@@H](O)[C@H]2O)(C(=O)O)O[C@H]1C(O)[C@H](O)CNC(=O)OCc1cn(C(C)CC(=O)c2ccccc2)nn1
REMARK SMILES IDX 43 1 42 2 9 3 8 4 41 5 6 6 5 7 10 8 11 9 12 10 14 11 13 12
REMARK SMILES IDX 32 13 34 14 36 15 15 16 16 17 29 18 28 19 21 20 17 21 19 22
REMARK SMILES IDX 30 23 31 24 22 26 23 27 24 28 25 29 26 30 27 31 18 32 20 34
REMARK SMILES IDX 33 36 35 38 37 40 38 42 39 43 40 44 7 46 4 48 2 49 1 51 3 52
REMARK SMILES IDX 44 53 45 55 46 56 47 58 48 59 49 60 50 62 51 63 52 64 53 65
REMARK SMILES IDX 54 66 68 67 55 68 67 69 56 70 57 71 58 72 59 73 60 74 61 75
REMARK SMILES IDX 62 76 66 77 63 78 65 79 64 80
REMARK H PARENT 31 25 18 33 20 35 33 37 35 39 37 41 40 45 7 47 4 50 44 54
REMARK H PARENT 46 57 48 61
REMARK Flexibility Score: inf
ROOT
ATOM      1  C   UNL     1      12.296  30.028  24.841  1.00  0.00     0.176 C 
ENDROOT
BRANCH   1   2
ATOM      2  C   UNL     1      12.652  31.422  24.565  1.00  0.00     0.178 C 
ATOM      3  C   UNL     1      13.102  32.036  22.332  1.00  0.00     0.272 C 
ATOM      4  C   UNL     1      14.101  33.074  22.716  1.00  0.00     0.113 C 
ATOM      5  O   UNL     1      12.187  31.994  23.447  1.00  0.00    -0.332 OA
ATOM      6  C   UNL     1      14.422  33.017  24.197  1.00  0.00     0.145 C 
ATOM      7  C   UNL     1      14.166  31.668  24.757  1.00  0.00     0.142 C 
BRANCH   3   8
ATOM      8  O   UNL     1      13.434  30.808  22.063  1.00  0.00    -0.338 OA
BRANCH   8   9
ATOM      9  C   UNL     1      13.214  29.906  21.173  1.00  0.00     0.199 C 
BRANCH   9  10
ATOM     10  C   UNL     1      14.215  29.100  20.410  1.00  0.00     0.179 C 
ATOM     11  C   UNL     1      15.362  29.340  18.354  1.00  0.00     0.282 C 
ATOM     12  O   UNL     1      14.336  29.609  19.179  1.00  0.00    -0.341 OA
ATOM     13  C   UNL     1      16.677  29.567  19.022  1.00  0.00     0.202 C 
ATOM     14  C   UNL     1      16.728  29.069  20.395  1.00  0.00     0.179 C 
ATOM     15  C   UNL     1      15.463  28.719  21.102  1.00  0.00     0.177 C 
BRANCH  11  16
ATOM     16  O   UNL     1      15.197  30.233  17.260  1.00  0.00    -0.341 OA
BRANCH  16  17
ATOM     17  C   UNL     1      14.584  29.572  16.223  1.00  0.00     0.184 C 
ATOM     18  C   UNL     1      14.943  30.177  14.898  1.00  0.00     0.178 C 
ATOM     19  O   UNL     1      14.459  31.470  14.773  1.00  0.00    -0.341 OA
ATOM     20  C   UNL     1      13.128  31.659  14.979  1.00  0.00     0.281 C 
ATOM     21  C   UNL     1      13.057  29.664  16.422  1.00  0.00     0.180 C 
ATOM     22  C   UNL     1      12.569  31.052  16.219  1.00  0.00     0.202 C 
BRANCH  18  23
ATOM     23  C   UNL     1      14.501  29.298  13.745  1.00  0.00     0.191 C 
BRANCH  23  24
ATOM     24  O   UNL     1      14.635  27.944  14.024  1.00  0.00    -0.394 OA
ATOM     25  H   UNL     1      14.996  27.482  13.221  1.00  0.00     0.210 HD
ENDBRANCH  23  24
ENDBRANCH  18  23
BRANCH  20  26
ATOM     26  O   UNL     1      12.329  31.390  13.896  1.00  0.00    -0.350 OA
BRANCH  26  27
ATOM     27  C   UNL     1      10.983  31.490  14.120  1.00  0.00     0.169 C 
BRANCH  27  28
ATOM     28  C   UNL     1      10.175  30.573  13.241  1.00  0.00     0.119 C 
BRANCH  28  29
ATOM     29  N   UNL     1      10.629  29.211  13.457  1.00  0.00    -0.092 NA
ATOM     30  N   UNL     1      11.097  28.574  12.517  1.00  0.00     0.001 N 
ATOM     31  N   UNL     1      11.745  28.025  11.624  1.00  0.00    -0.003 NA
ENDBRANCH  28  29
ENDBRANCH  27  28
ENDBRANCH  26  27
ENDBRANCH  20  26
BRANCH  21  32
ATOM     32  O   UNL     1      12.402  28.724  15.637  1.00  0.00    -0.387 OA
ATOM     33  H   UNL     1      12.597  28.829  14.675  1.00  0.00     0.211 HD
ENDBRANCH  21  32
BRANCH  22  34
ATOM     34  O   UNL     1      12.750  31.848  17.352  1.00  0.00    -0.385 OA
ATOM     35  H   UNL     1      13.589  31.527  17.770  1.00  0.00     0.211 HD
ENDBRANCH  22  34
ENDBRANCH  16  17
ENDBRANCH  11  16
BRANCH  13  36
ATOM     36  O   UNL     1      17.711  28.930  18.276  1.00  0.00    -0.385 OA
ATOM     37  H   UNL     1      17.614  27.963  18.489  1.00  0.00     0.211 HD
ENDBRANCH  13  36
BRANCH  14  38
ATOM     38  O   UNL     1      17.460  30.014  21.171  1.00  0.00    -0.387 OA
ATOM     39  H   UNL     1      17.483  30.898  20.734  1.00  0.00     0.211 HD
ENDBRANCH  14  38
BRANCH  15  40
ATOM     40  O   UNL     1      15.577  29.133  22.414  1.00  0.00    -0.387 OA
ATOM     41  H   UNL     1      15.233  29.997  22.653  1.00  0.00     0.211 HD
ENDBRANCH  15  40
ENDBRANCH   9  10
ENDBRANCH   8   9
ENDBRANCH   3   8
BRANCH   3  42
ATOM     42  C   UNL     1      12.224  32.646  21.240  1.00  0.00     0.364 C 
ATOM     43  O   UNL     1      12.751  33.161  20.247  1.00  0.00    -0.246 OA
BRANCH  42  44
ATOM     44  O   UNL     1      10.851  32.626  21.348  1.00  0.00    -0.477 OA
ATOM     45  H   UNL     1      10.327  32.283  20.551  1.00  0.00     0.296 HD
ENDBRANCH  42  44
ENDBRANCH   3  42
BRANCH   6  46
ATOM     46  O   UNL     1      15.704  33.487  24.457  1.00  0.00    -0.391 OA
ATOM     47  H   UNL     1      15.704  34.487  24.289  1.00  0.00     0.211 HD
ENDBRANCH   6  46
BRANCH   7  48
ATOM     48  N   UNL     1      14.399  31.662  26.198  1.00  0.00    -0.348 N 
ATOM     49  C   UNL     1      15.607  31.200  26.787  1.00  0.00     0.217 C 
ATOM     50  H   UNL     1      13.652  32.011  26.825  1.00  0.00     0.163 HD
ATOM     51  C   UNL     1      15.835  31.194  28.233  1.00  0.00     0.114 C 
ATOM     52  O   UNL     1      16.534  30.767  26.020  1.00  0.00    -0.275 OA
ENDBRANCH   7  48
ENDBRANCH   1   2
BRANCH   1  53
ATOM     53  O   UNL     1      13.317  29.095  24.544  1.00  0.00    -0.388 OA
ATOM     54  H   UNL     1      13.961  29.575  23.937  1.00  0.00     0.211 HD
ENDBRANCH   1  53
BRANCH   1  55
ATOM     55  C   UNL     1      11.039  29.485  24.197  1.00  0.00     0.165 C 
BRANCH  55  56
ATOM     56  O   UNL     1       9.988  30.343  24.178  1.00  0.00    -0.388 OA
ATOM     57  H   UNL     1       9.314  30.036  23.527  1.00  0.00     0.211 HD
ENDBRANCH  55  56
BRANCH  55  58
ATOM     58  C   UNL     1      10.667  28.219  24.983  1.00  0.00     0.154 C 
BRANCH  58  59
ATOM     59  N   UNL     1       9.290  27.854  24.732  1.00  0.00    -0.319 N 
ATOM     60  C   UNL     1       8.571  26.831  25.387  1.00  0.00     0.407 C 
ATOM     61  H   UNL     1       8.726  28.386  23.998  1.00  0.00     0.167 HD
ATOM     62  O   UNL     1       9.090  26.169  26.307  1.00  0.00    -0.225 OA
BRANCH  60  63
ATOM     63  O   UNL     1       7.245  26.519  25.023  1.00  0.00    -0.443 OA
BRANCH  63  64
ATOM     64  C   UNL     1       6.181  27.340  25.551  1.00  0.00     0.294 C 
BRANCH  64  65
ATOM     65  C   UNL     1       6.460  28.699  24.956  1.00  0.00     0.120 A 
ATOM     66  C   UNL     1       6.029  29.070  23.667  1.00  0.00     0.138 A 
ATOM     67  N   UNL     1       7.136  29.735  25.412  1.00  0.00    -0.132 NA
ATOM     68  N   UNL     1       6.469  30.310  23.405  1.00  0.00    -0.249 N 
ATOM     69  N   UNL     1       7.133  30.698  24.466  1.00  0.00    -0.067 NA
BRANCH  68  70
ATOM     70  C   UNL     1       6.229  31.005  22.139  1.00  0.00     0.114 C 
ATOM     71  C   UNL     1       7.337  31.983  21.906  1.00  0.00     0.034 C 
BRANCH  70  72
ATOM     72  C   UNL     1       5.985  30.027  21.037  1.00  0.00     0.108 C 
BRANCH  72  73
ATOM     73  C   UNL     1       5.158  30.702  20.002  1.00  0.00     0.164 C 
ATOM     74  O   UNL     1       4.156  31.354  20.303  1.00  0.00    -0.294 OA
BRANCH  73  75
ATOM     75  C   UNL     1       5.585  30.563  18.601  1.00  0.00     0.018 A 
ATOM     76  C   UNL     1       4.827  29.963  17.664  1.00  0.00     0.012 A 
ATOM     77  C   UNL     1       6.840  31.097  18.267  1.00  0.00     0.012 A 
ATOM     78  C   UNL     1       5.283  29.867  16.338  1.00  0.00     0.001 A 
ATOM     79  C   UNL     1       7.265  30.993  16.974  1.00  0.00     0.001 A 
ATOM     80  C   UNL     1       6.511  30.389  16.004  1.00  0.00     0.000 A 
ENDBRANCH  73  75
ENDBRANCH  72  73
ENDBRANCH  70  72
ENDBRANCH  68  70
ENDBRANCH  64  65
ENDBRANCH  63  64
ENDBRANCH  60  63
ENDBRANCH  58  59
ENDBRANCH  55  58
ENDBRANCH   1  55
TORSDOF 33
