REMARK VINA RESULT:    -5.246      0.000      0.000
REMARK INTER + INTRA:         -22.167
REMARK INTER:                 -15.708
REMARK INTRA:                  -6.459
REMARK UNBOUND:                -8.028
REMARK SMILES CCN(CC)CCn1cc(COC(=O)NC[C@@H](O)C(O)[C@@H]2O[C@@](OC[C@H]3O[C@@H](O[C@H]4[C@H](O)[C@@H](O)[C@H](OCCN=[N+]=[N-])O[C@@H]4CO)[C@H](O)[C@@H](O)[C@H]3O)(C(=O)O)C[C@H](O)[C@H]2NC(C)=O)nn1
REMARK SMILES IDX 19 1 21 2 23 3 55 4 22 5 56 6 58 7 24 8 25 9 26 10 28 11
REMARK SMILES IDX 27 12 46 13 48 14 50 15 29 16 30 17 43 18 42 19 35 20 31 21
REMARK SMILES IDX 33 22 44 23 45 24 36 26 37 27 38 28 39 29 40 30 41 31 32 32
REMARK SMILES IDX 34 34 47 36 49 38 51 40 52 42 53 43 54 44 57 46 59 48 60 49
REMARK SMILES IDX 61 51 62 52 20 53 17 55 18 56 16 58 15 59 13 60 14 62 12 63
REMARK SMILES IDX 11 64 10 65 9 66 63 67 8 68 64 69 7 70 6 71 3 72 2 73 1 74
REMARK SMILES IDX 4 75 5 76
REMARK H PARENT 45 25 32 33 34 35 47 37 49 39 51 41 54 45 57 47 59 50 20 54
REMARK H PARENT 18 57 15 61
REMARK Flexibility Score: inf
ROOT
ATOM      1  C   UNL     1      24.117  27.585  23.844  1.00  0.00     0.176 C 
ENDROOT
BRANCH   1   2
ATOM      2  C   UNL     1      23.277  26.546  23.150  1.00  0.00     0.178 C 
ATOM      3  C   UNL     1      22.113  26.083  21.219  1.00  0.00     0.272 C 
ATOM      4  C   UNL     1      22.060  24.730  21.945  1.00  0.00     0.113 C 
ATOM      5  O   UNL     1      22.925  26.969  21.890  1.00  0.00    -0.332 OA
ATOM      6  C   UNL     1      21.593  24.830  23.361  1.00  0.00     0.145 C 
ATOM      7  C   UNL     1      21.991  26.221  23.879  1.00  0.00     0.142 C 
BRANCH   3   8
ATOM      8  O   UNL     1      20.811  26.497  21.068  1.00  0.00    -0.338 OA
BRANCH   8   9
ATOM      9  C   UNL     1      20.624  27.836  20.829  1.00  0.00     0.199 C 
BRANCH   9  10
ATOM     10  C   UNL     1      20.262  28.092  19.355  1.00  0.00     0.179 C 
ATOM     11  C   UNL     1      18.301  28.944  18.375  1.00  0.00     0.282 C 
ATOM     12  O   UNL     1      18.915  28.105  19.293  1.00  0.00    -0.341 OA
ATOM     13  C   UNL     1      19.158  29.232  17.209  1.00  0.00     0.202 C 
ATOM     14  C   UNL     1      20.508  29.791  17.562  1.00  0.00     0.179 C 
ATOM     15  C   UNL     1      20.853  29.420  18.988  1.00  0.00     0.177 C 
BRANCH  11  16
ATOM     16  O   UNL     1      17.840  30.016  19.127  1.00  0.00    -0.341 OA
BRANCH  16  17
ATOM     17  C   UNL     1      16.568  30.385  18.869  1.00  0.00     0.184 C 
ATOM     18  C   UNL     1      15.562  29.316  19.209  1.00  0.00     0.178 C 
ATOM     19  O   UNL     1      14.262  29.860  19.001  1.00  0.00    -0.341 OA
ATOM     20  C   UNL     1      13.987  29.801  17.652  1.00  0.00     0.281 C 
ATOM     21  C   UNL     1      16.327  30.758  17.410  1.00  0.00     0.180 C 
ATOM     22  C   UNL     1      15.160  30.044  16.806  1.00  0.00     0.202 C 
BRANCH  18  23
ATOM     23  C   UNL     1      15.687  28.713  20.561  1.00  0.00     0.191 C 
BRANCH  23  24
ATOM     24  O   UNL     1      16.368  27.508  20.433  1.00  0.00    -0.394 OA
ATOM     25  H   UNL     1      16.666  27.315  19.509  1.00  0.00     0.210 HD
ENDBRANCH  23  24
ENDBRANCH  18  23
BRANCH  20  26
ATOM     26  O   UNL     1      12.861  30.548  17.318  1.00  0.00    -0.350 OA
BRANCH  26  27
ATOM     27  C   UNL     1      12.685  30.757  15.983  1.00  0.00     0.169 C 
BRANCH  27  28
ATOM     28  C   UNL     1      11.380  30.187  15.461  1.00  0.00     0.119 C 
BRANCH  28  29
ATOM     29  N   UNL     1      11.540  28.810  15.037  1.00  0.00    -0.092 NA
ATOM     30  N   UNL     1      12.610  28.361  14.608  1.00  0.00     0.001 N 
ATOM     31  N   UNL     1      13.479  28.065  13.785  1.00  0.00    -0.003 NA
ENDBRANCH  28  29
ENDBRANCH  27  28
ENDBRANCH  26  27
ENDBRANCH  20  26
BRANCH  21  32
ATOM     32  O   UNL     1      16.120  32.122  17.337  1.00  0.00    -0.387 OA
ATOM     33  H   UNL     1      16.045  32.471  16.426  1.00  0.00     0.211 HD
ENDBRANCH  21  32
BRANCH  22  34
ATOM     34  O   UNL     1      15.562  28.829  16.199  1.00  0.00    -0.385 OA
ATOM     35  H   UNL     1      15.044  28.116  16.655  1.00  0.00     0.211 HD
ENDBRANCH  22  34
ENDBRANCH  16  17
ENDBRANCH  11  16
BRANCH  13  36
ATOM     36  O   UNL     1      19.398  28.006  16.521  1.00  0.00    -0.385 OA
ATOM     37  H   UNL     1      19.976  27.420  17.041  1.00  0.00     0.211 HD
ENDBRANCH  13  36
BRANCH  14  38
ATOM     38  O   UNL     1      20.632  31.153  17.341  1.00  0.00    -0.387 OA
ATOM     39  H   UNL     1      20.421  31.693  18.120  1.00  0.00     0.211 HD
ENDBRANCH  14  38
BRANCH  15  40
ATOM     40  O   UNL     1      20.319  30.392  19.822  1.00  0.00    -0.387 OA
ATOM     41  H   UNL     1      19.834  31.081  19.282  1.00  0.00     0.211 HD
ENDBRANCH  15  40
ENDBRANCH   9  10
ENDBRANCH   8   9
ENDBRANCH   3   8
BRANCH   3  42
ATOM     42  C   UNL     1      22.727  25.768  19.904  1.00  0.00     0.364 C 
ATOM     43  O   UNL     1      22.446  24.678  19.300  1.00  0.00    -0.246 OA
BRANCH  42  44
ATOM     44  O   UNL     1      23.621  26.585  19.241  1.00  0.00    -0.477 OA
ATOM     45  H   UNL     1      24.304  27.119  19.767  1.00  0.00     0.296 HD
ENDBRANCH  42  44
ENDBRANCH   3  42
BRANCH   6  46
ATOM     46  O   UNL     1      20.265  24.543  23.563  1.00  0.00    -0.391 OA
ATOM     47  H   UNL     1      20.184  23.558  23.636  1.00  0.00     0.211 HD
ENDBRANCH   6  46
BRANCH   7  48
ATOM     48  N   UNL     1      22.086  26.246  25.299  1.00  0.00    -0.348 N 
ATOM     49  C   UNL     1      21.180  27.099  26.027  1.00  0.00     0.217 C 
ATOM     50  H   UNL     1      22.750  25.697  25.873  1.00  0.00     0.163 HD
ATOM     51  C   UNL     1      21.221  27.177  27.509  1.00  0.00     0.114 C 
ATOM     52  O   UNL     1      20.324  27.808  25.433  1.00  0.00    -0.275 OA
ENDBRANCH   7  48
ENDBRANCH   1   2
BRANCH   1  53
ATOM     53  O   UNL     1      25.455  27.266  23.648  1.00  0.00    -0.388 OA
ATOM     54  H   UNL     1      25.841  26.920  24.513  1.00  0.00     0.211 HD
ENDBRANCH   1  53
BRANCH   1  55
ATOM     55  C   UNL     1      23.823  28.902  23.172  1.00  0.00     0.165 C 
BRANCH  55  56
ATOM     56  O   UNL     1      25.022  29.462  22.716  1.00  0.00    -0.388 OA
ATOM     57  H   UNL     1      25.269  30.196  23.329  1.00  0.00     0.211 HD
ENDBRANCH  55  56
BRANCH  55  58
ATOM     58  C   UNL     1      23.094  29.895  24.000  1.00  0.00     0.154 C 
BRANCH  58  59
ATOM     59  N   UNL     1      21.683  29.885  23.824  1.00  0.00    -0.319 N 
ATOM     60  C   UNL     1      21.084  30.801  22.894  1.00  0.00     0.407 C 
ATOM     61  H   UNL     1      21.078  29.249  24.345  1.00  0.00     0.167 HD
ATOM     62  O   UNL     1      21.782  31.607  22.247  1.00  0.00    -0.225 OA
BRANCH  60  63
ATOM     63  O   UNL     1      19.708  30.769  22.735  1.00  0.00    -0.443 OA
BRANCH  63  64
ATOM     64  C   UNL     1      18.904  31.603  23.586  1.00  0.00     0.294 C 
BRANCH  64  65
ATOM     65  C   UNL     1      17.672  30.865  23.893  1.00  0.00     0.120 A 
ATOM     66  C   UNL     1      16.578  31.425  24.561  1.00  0.00     0.138 A 
ATOM     67  N   UNL     1      17.320  29.607  23.641  1.00  0.00    -0.132 NA
ATOM     68  N   UNL     1      15.620  30.488  24.680  1.00  0.00    -0.251 N 
ATOM     69  N   UNL     1      16.091  29.406  24.120  1.00  0.00    -0.067 NA
BRANCH  68  70
ATOM     70  C   UNL     1      14.319  30.632  25.303  1.00  0.00     0.161 C 
BRANCH  70  71
ATOM     71  C   UNL     1      13.331  31.016  24.223  1.00  0.00     0.108 C 
BRANCH  71  72
ATOM     72  N   UNL     1      12.706  29.890  23.593  1.00  0.00    -0.302 NA
BRANCH  72  73
ATOM     73  C   UNL     1      12.688  30.006  22.160  1.00  0.00     0.081 C 
ATOM     74  C   UNL     1      13.196  31.392  21.782  1.00  0.00     0.021 C 
ENDBRANCH  72  73
BRANCH  72  75
ATOM     75  C   UNL     1      11.431  29.566  24.154  1.00  0.00     0.081 C 
ATOM     76  C   UNL     1      10.517  30.775  24.161  1.00  0.00     0.021 C 
ENDBRANCH  72  75
ENDBRANCH  71  72
ENDBRANCH  70  71
ENDBRANCH  68  70
ENDBRANCH  64  65
ENDBRANCH  63  64
ENDBRANCH  60  63
ENDBRANCH  58  59
ENDBRANCH  55  58
ENDBRANCH   1  55
TORSDOF 34
