REMARK VINA RESULT:    -6.128     22.898     28.113
REMARK INTER + INTRA:         -23.988
REMARK INTER:                 -16.403
REMARK INTRA:                  -7.584
REMARK UNBOUND:                -6.934
REMARK SMILES CCOCCc1c(-c2ccccc2)nc(N)nc1-n1cc(COC(=O)NC[C@@H](O)C(O)[C@@H]2O[C@@](OC[C@H]3O[C@@H](O[C@H]4[C@H](O)[C@@H](O)[C@H](OCCN=[N+]=[N-])O[C@@H]4CO)[C@H](O)[C@@H](O)[C@H]3O)(C(=O)O)C[C@H](O)[C@H]2NC(C)=O)nn1
REMARK SMILES IDX 30 1 32 2 34 3 66 4 33 5 67 6 69 7 35 8 36 9 37 10 39 11
REMARK SMILES IDX 38 12 57 13 59 14 61 15 40 16 41 17 54 18 53 19 46 20 42 21
REMARK SMILES IDX 44 22 55 23 56 24 47 26 48 27 49 28 50 29 51 30 52 31 43 32
REMARK SMILES IDX 45 34 58 36 60 38 62 40 63 42 64 43 65 44 68 46 70 48 71 49
REMARK SMILES IDX 72 51 73 52 31 53 28 55 29 56 27 58 26 59 24 60 25 62 23 63
REMARK SMILES IDX 22 64 21 65 20 66 74 67 19 68 75 69 18 70 17 71 6 72 15 73
REMARK SMILES IDX 7 74 14 75 5 76 4 77 3 78 2 79 1 80 16 81 8 84 9 85 13 86
REMARK SMILES IDX 10 87 12 88 11 89
REMARK H PARENT 56 25 43 33 45 35 58 37 60 39 62 41 65 45 68 47 70 50 31 54
REMARK H PARENT 29 57 26 61 16 82 16 83
REMARK Flexibility Score: inf
ROOT
ATOM      1  C   UNL     1      29.262  19.304  17.699  1.00  0.00     0.176 C 
ENDROOT
BRANCH   1   2
ATOM      2  C   UNL     1      28.953  19.427  19.161  1.00  0.00     0.178 C 
ATOM      3  C   UNL     1      28.716  21.182  20.691  1.00  0.00     0.272 C 
ATOM      4  C   UNL     1      28.404  20.013  21.629  1.00  0.00     0.113 C 
ATOM      5  O   UNL     1      28.752  20.821  19.393  1.00  0.00    -0.332 OA
ATOM      6  C   UNL     1      29.389  18.893  21.494  1.00  0.00     0.145 C 
ATOM      7  C   UNL     1      30.013  18.994  20.114  1.00  0.00     0.142 C 
BRANCH   3   8
ATOM      8  O   UNL     1      29.860  21.784  21.165  1.00  0.00    -0.338 OA
BRANCH   8   9
ATOM      9  C   UNL     1      29.686  22.705  22.164  1.00  0.00     0.199 C 
BRANCH   9  10
ATOM     10  C   UNL     1      30.898  22.804  23.077  1.00  0.00     0.179 C 
ATOM     11  C   UNL     1      32.302  21.231  24.076  1.00  0.00     0.282 C 
ATOM     12  O   UNL     1      31.038  21.612  23.727  1.00  0.00    -0.341 OA
ATOM     13  C   UNL     1      33.109  21.171  22.773  1.00  0.00     0.202 C 
ATOM     14  C   UNL     1      33.341  22.638  22.414  1.00  0.00     0.179 C 
ATOM     15  C   UNL     1      32.088  23.439  22.482  1.00  0.00     0.177 C 
BRANCH  11  16
ATOM     16  O   UNL     1      32.270  20.021  24.730  1.00  0.00    -0.341 OA
BRANCH  16  17
ATOM     17  C   UNL     1      32.707  20.118  26.042  1.00  0.00     0.184 C 
ATOM     18  C   UNL     1      33.999  19.401  26.240  1.00  0.00     0.178 C 
ATOM     19  O   UNL     1      33.964  18.271  26.994  1.00  0.00    -0.341 OA
ATOM     20  C   UNL     1      33.244  18.270  28.146  1.00  0.00     0.281 C 
ATOM     21  C   UNL     1      31.635  19.717  27.011  1.00  0.00     0.180 C 
ATOM     22  C   UNL     1      32.263  19.378  28.337  1.00  0.00     0.202 C 
BRANCH  18  23
ATOM     23  C   UNL     1      35.114  20.355  26.670  1.00  0.00     0.191 C 
BRANCH  23  24
ATOM     24  O   UNL     1      35.417  21.262  25.670  1.00  0.00    -0.394 OA
ATOM     25  H   UNL     1      34.593  21.400  25.138  1.00  0.00     0.210 HD
ENDBRANCH  23  24
ENDBRANCH  18  23
BRANCH  20  26
ATOM     26  O   UNL     1      34.143  18.271  29.208  1.00  0.00    -0.350 OA
BRANCH  26  27
ATOM     27  C   UNL     1      34.889  17.124  29.318  1.00  0.00     0.169 C 
BRANCH  27  28
ATOM     28  C   UNL     1      35.136  16.682  30.740  1.00  0.00     0.119 C 
BRANCH  28  29
ATOM     29  N   UNL     1      33.851  16.390  31.372  1.00  0.00    -0.092 NA
ATOM     30  N   UNL     1      33.734  16.332  32.603  1.00  0.00     0.001 N 
ATOM     31  N   UNL     1      33.805  16.183  33.821  1.00  0.00    -0.003 NA
ENDBRANCH  28  29
ENDBRANCH  27  28
ENDBRANCH  26  27
ENDBRANCH  20  26
BRANCH  21  32
ATOM     32  O   UNL     1      30.700  20.733  27.223  1.00  0.00    -0.387 OA
ATOM     33  H   UNL     1      29.956  20.692  26.563  1.00  0.00     0.211 HD
ENDBRANCH  21  32
BRANCH  22  34
ATOM     34  O   UNL     1      31.247  18.928  29.180  1.00  0.00    -0.385 OA
ATOM     35  H   UNL     1      31.596  18.593  30.044  1.00  0.00     0.211 HD
ENDBRANCH  22  34
ENDBRANCH  16  17
ENDBRANCH  11  16
BRANCH  13  36
ATOM     36  O   UNL     1      34.315  20.531  22.924  1.00  0.00    -0.385 OA
ATOM     37  H   UNL     1      34.201  19.601  23.263  1.00  0.00     0.211 HD
ENDBRANCH  13  36
BRANCH  14  38
ATOM     38  O   UNL     1      34.081  22.804  21.266  1.00  0.00    -0.387 OA
ATOM     39  H   UNL     1      34.537  21.952  20.989  1.00  0.00     0.211 HD
ENDBRANCH  14  38
BRANCH  15  40
ATOM     40  O   UNL     1      31.776  23.845  21.167  1.00  0.00    -0.387 OA
ATOM     41  H   UNL     1      30.841  23.586  20.961  1.00  0.00     0.211 HD
ENDBRANCH  15  40
ENDBRANCH   9  10
ENDBRANCH   8   9
ENDBRANCH   3   8
BRANCH   3  42
ATOM     42  C   UNL     1      27.555  22.106  20.898  1.00  0.00     0.364 C 
ATOM     43  O   UNL     1      27.289  22.863  19.899  1.00  0.00    -0.246 OA
BRANCH  42  44
ATOM     44  O   UNL     1      26.795  22.188  22.029  1.00  0.00    -0.477 OA
ATOM     45  H   UNL     1      27.155  22.688  22.837  1.00  0.00     0.296 HD
ENDBRANCH  42  44
ENDBRANCH   3  42
BRANCH   6  46
ATOM     46  O   UNL     1      30.344  19.062  22.508  1.00  0.00    -0.391 OA
ATOM     47  H   UNL     1      30.045  19.698  23.187  1.00  0.00     0.211 HD
ENDBRANCH   6  46
BRANCH   7  48
ATOM     48  N   UNL     1      30.743  17.811  19.779  1.00  0.00    -0.348 N 
ATOM     49  C   UNL     1      32.144  17.669  19.958  1.00  0.00     0.217 C 
ATOM     50  H   UNL     1      30.192  17.011  19.397  1.00  0.00     0.163 HD
ATOM     51  C   UNL     1      32.795  16.399  19.579  1.00  0.00     0.114 C 
ATOM     52  O   UNL     1      32.811  18.612  20.434  1.00  0.00    -0.275 OA
ENDBRANCH   7  48
ENDBRANCH   1   2
BRANCH   1  53
ATOM     53  O   UNL     1      30.432  20.114  17.496  1.00  0.00    -0.388 OA
ATOM     54  H   UNL     1      31.111  19.505  17.136  1.00  0.00     0.211 HD
ENDBRANCH   1  53
BRANCH   1  55
ATOM     55  C   UNL     1      28.258  19.758  16.718  1.00  0.00     0.165 C 
BRANCH  55  56
ATOM     56  O   UNL     1      27.956  18.604  15.938  1.00  0.00    -0.388 OA
ATOM     57  H   UNL     1      28.255  18.772  15.022  1.00  0.00     0.211 HD
ENDBRANCH  55  56
BRANCH  55  58
ATOM     58  C   UNL     1      28.626  20.851  15.806  1.00  0.00     0.154 C 
BRANCH  58  59
ATOM     59  N   UNL     1      28.157  22.138  16.148  1.00  0.00    -0.319 N 
ATOM     60  C   UNL     1      28.898  23.149  16.786  1.00  0.00     0.407 C 
ATOM     61  H   UNL     1      27.136  22.440  15.927  1.00  0.00     0.167 HD
ATOM     62  O   UNL     1      30.092  22.992  17.126  1.00  0.00    -0.225 OA
BRANCH  60  63
ATOM     63  O   UNL     1      28.353  24.402  17.083  1.00  0.00    -0.443 OA
BRANCH  63  64
ATOM     64  C   UNL     1      27.422  25.035  16.231  1.00  0.00     0.294 C 
BRANCH  64  65
ATOM     65  C   UNL     1      26.031  24.857  16.712  1.00  0.00     0.121 A 
ATOM     66  C   UNL     1      25.317  25.709  17.512  1.00  0.00     0.146 A 
ATOM     67  N   UNL     1      25.203  23.813  16.480  1.00  0.00    -0.131 NA
ATOM     68  N   UNL     1      24.064  25.167  17.755  1.00  0.00    -0.202 N 
ATOM     69  N   UNL     1      24.065  24.040  17.110  1.00  0.00    -0.060 NA
BRANCH  68  70
ATOM     70  C   UNL     1      23.167  25.870  18.578  1.00  0.00     0.164 A 
ATOM     71  N   UNL     1      22.401  26.841  18.020  1.00  0.00    -0.193 NA
ATOM     72  C   UNL     1      22.945  25.584  19.933  1.00  0.00     0.026 A 
ATOM     73  C   UNL     1      21.466  27.518  18.688  1.00  0.00     0.222 A 
ATOM     74  C   UNL     1      21.992  26.260  20.634  1.00  0.00     0.081 A 
ATOM     75  N   UNL     1      21.269  27.226  19.976  1.00  0.00    -0.213 NA
BRANCH  72  76
ATOM     76  C   UNL     1      23.869  24.619  20.539  1.00  0.00     0.070 C 
BRANCH  76  77
ATOM     77  C   UNL     1      24.932  25.242  21.418  1.00  0.00     0.165 C 
BRANCH  77  78
ATOM     78  O   UNL     1      25.376  24.504  22.473  1.00  0.00    -0.381 OA
BRANCH  78  79
ATOM     79  C   UNL     1      24.973  24.863  23.724  1.00  0.00     0.156 C 
ATOM     80  C   UNL     1      25.374  26.313  24.045  1.00  0.00     0.035 C 
ENDBRANCH  78  79
ENDBRANCH  77  78
ENDBRANCH  76  77
ENDBRANCH  72  76
BRANCH  73  81
ATOM     81  N   UNL     1      20.686  28.537  18.055  1.00  0.00    -0.368 N 
ATOM     82  H   UNL     1      19.893  28.278  17.432  1.00  0.00     0.159 HD
ATOM     83  H   UNL     1      20.869  29.545  18.186  1.00  0.00     0.159 HD
ENDBRANCH  73  81
BRANCH  74  84
ATOM     84  C   UNL     1      21.685  26.008  22.024  1.00  0.00     0.001 A 
ATOM     85  C   UNL     1      21.186  24.753  22.366  1.00  0.00     0.010 A 
ATOM     86  C   UNL     1      21.893  26.950  23.015  1.00  0.00     0.010 A 
ATOM     87  C   UNL     1      20.893  24.426  23.683  1.00  0.00     0.001 A 
ATOM     88  C   UNL     1      21.596  26.607  24.312  1.00  0.00     0.001 A 
ATOM     89  C   UNL     1      21.106  25.372  24.658  1.00  0.00     0.000 A 
ENDBRANCH  74  84
ENDBRANCH  68  70
ENDBRANCH  64  65
ENDBRANCH  63  64
ENDBRANCH  60  63
ENDBRANCH  58  59
ENDBRANCH  55  58
ENDBRANCH   1  55
TORSDOF 36
