REMARK VINA RESULT:    -5.901      2.845      8.041
REMARK INTER + INTRA:         -20.568
REMARK INTER:                 -14.345
REMARK INTRA:                  -6.223
REMARK UNBOUND:                -6.043
REMARK SMILES CC(=O)N[C@@H]1[C@@H](O)C[C@](OC[C@H]2O[C@@H](O[C@H]3[C@H](O)[C@@H](O)[C@H](OCCN=[N+]=[N-])O[C@@H]3CO)[C@H](O)[C@@H](O)[C@H]2O)(C(=O)O)O[C@H]1C(O)[C@H](O)CNC(=O)OCc1cn(-c2ccccc2I)nn1
REMARK SMILES IDX 9 1 8 2 6 3 5 4 42 5 41 6 10 7 11 8 12 9 14 10 13 11 32 12
REMARK SMILES IDX 34 13 36 14 15 15 16 16 29 17 28 18 21 19 17 20 19 21 30 22
REMARK SMILES IDX 31 23 22 25 23 26 24 27 25 28 26 29 27 30 18 31 20 33 33 35
REMARK SMILES IDX 35 37 37 39 38 41 39 42 40 43 7 45 43 47 44 48 45 50 46 51
REMARK SMILES IDX 47 53 48 54 49 55 50 57 51 58 52 59 53 60 54 61 64 62 55 63
REMARK SMILES IDX 63 64 56 65 57 66 61 67 58 68 60 69 62 70 59 71 4 72 2 73
REMARK SMILES IDX 1 75 3 76
REMARK H PARENT 31 24 18 32 20 34 33 36 35 38 37 40 40 44 7 46 44 49 46 52
REMARK H PARENT 48 56 4 74
REMARK Flexibility Score: inf
ROOT
ATOM      1  C   UNL     1      15.082  29.390  21.966  1.00  0.00     0.272 C 
ATOM      2  C   UNL     1      13.622  29.100  21.754  1.00  0.00     0.113 C 
ATOM      3  C   UNL     1      12.948  30.209  20.929  1.00  0.00     0.145 C 
ATOM      4  C   UNL     1      13.042  31.479  21.823  1.00  0.00     0.142 C 
ATOM      5  C   UNL     1      14.470  31.647  22.262  1.00  0.00     0.178 C 
ATOM      6  O   UNL     1      15.254  30.747  21.529  1.00  0.00    -0.332 OA
ENDROOT
BRANCH   1   7
ATOM      7  O   UNL     1      15.985  28.712  21.211  1.00  0.00    -0.338 OA
BRANCH   7   8
ATOM      8  C   UNL     1      15.871  28.292  19.986  1.00  0.00     0.199 C 
BRANCH   8   9
ATOM      9  C   UNL     1      17.001  28.340  19.036  1.00  0.00     0.179 C 
ATOM     10  C   UNL     1      16.332  29.151  17.008  1.00  0.00     0.282 C 
ATOM     11  O   UNL     1      16.760  28.070  17.731  1.00  0.00    -0.341 OA
ATOM     12  C   UNL     1      17.493  30.087  16.699  1.00  0.00     0.202 C 
ATOM     13  C   UNL     1      18.505  29.982  17.863  1.00  0.00     0.179 C 
ATOM     14  C   UNL     1      17.716  29.722  19.131  1.00  0.00     0.177 C 
BRANCH  10  15
ATOM     15  O   UNL     1      15.165  29.747  17.363  1.00  0.00    -0.341 OA
BRANCH  15  16
ATOM     16  C   UNL     1      14.383  30.212  16.331  1.00  0.00     0.184 C 
ATOM     17  C   UNL     1      14.918  29.972  14.944  1.00  0.00     0.178 C 
ATOM     18  O   UNL     1      14.384  30.899  14.052  1.00  0.00    -0.341 OA
ATOM     19  C   UNL     1      13.113  31.361  14.414  1.00  0.00     0.281 C 
ATOM     20  C   UNL     1      14.390  31.752  16.449  1.00  0.00     0.180 C 
ATOM     21  C   UNL     1      13.161  32.197  15.667  1.00  0.00     0.202 C 
BRANCH  17  22
ATOM     22  C   UNL     1      14.799  28.566  14.452  1.00  0.00     0.191 C 
BRANCH  22  23
ATOM     23  O   UNL     1      15.959  28.291  13.719  1.00  0.00    -0.394 OA
ATOM     24  H   UNL     1      15.994  27.308  13.564  1.00  0.00     0.210 HD
ENDBRANCH  22  23
ENDBRANCH  17  22
BRANCH  19  25
ATOM     25  O   UNL     1      12.175  30.376  14.434  1.00  0.00    -0.350 OA
BRANCH  25  26
ATOM     26  C   UNL     1      10.976  30.792  14.925  1.00  0.00     0.169 C 
BRANCH  26  27
ATOM     27  C   UNL     1       9.747  30.147  14.367  1.00  0.00     0.119 C 
BRANCH  27  28
ATOM     28  N   UNL     1       8.495  30.767  14.696  1.00  0.00    -0.092 NA
ATOM     29  N   UNL     1       8.232  30.880  15.907  1.00  0.00     0.001 N 
ATOM     30  N   UNL     1       7.741  31.025  17.028  1.00  0.00    -0.003 NA
ENDBRANCH  27  28
ENDBRANCH  26  27
ENDBRANCH  25  26
ENDBRANCH  19  25
BRANCH  20  31
ATOM     31  O   UNL     1      14.318  32.142  17.772  1.00  0.00    -0.387 OA
ATOM     32  H   UNL     1      14.849  32.978  17.855  1.00  0.00     0.211 HD
ENDBRANCH  20  31
BRANCH  21  33
ATOM     33  O   UNL     1      13.198  33.567  15.415  1.00  0.00    -0.385 OA
ATOM     34  H   UNL     1      13.360  34.040  16.295  1.00  0.00     0.211 HD
ENDBRANCH  21  33
ENDBRANCH  15  16
ENDBRANCH  10  15
BRANCH  12  35
ATOM     35  O   UNL     1      18.199  29.715  15.563  1.00  0.00    -0.385 OA
ATOM     36  H   UNL     1      18.887  29.062  15.856  1.00  0.00     0.211 HD
ENDBRANCH  12  35
BRANCH  13  37
ATOM     37  O   UNL     1      19.321  31.062  17.978  1.00  0.00    -0.387 OA
ATOM     38  H   UNL     1      19.297  31.711  17.210  1.00  0.00     0.211 HD
ENDBRANCH  13  37
BRANCH  14  39
ATOM     39  O   UNL     1      16.705  30.663  19.233  1.00  0.00    -0.387 OA
ATOM     40  H   UNL     1      17.101  31.556  19.487  1.00  0.00     0.211 HD
ENDBRANCH  14  39
ENDBRANCH   8   9
ENDBRANCH   7   8
ENDBRANCH   1   7
BRANCH   1  41
ATOM     41  C   UNL     1      15.403  29.342  23.404  1.00  0.00     0.364 C 
ATOM     42  O   UNL     1      16.540  29.483  23.887  1.00  0.00    -0.246 OA
BRANCH  41  43
ATOM     43  O   UNL     1      14.386  29.119  24.358  1.00  0.00    -0.477 OA
ATOM     44  H   UNL     1      13.474  28.762  24.040  1.00  0.00     0.296 HD
ENDBRANCH  41  43
ENDBRANCH   1  41
BRANCH   3  45
ATOM     45  O   UNL     1      13.573  30.417  19.719  1.00  0.00    -0.391 OA
ATOM     46  H   UNL     1      12.976  30.163  18.975  1.00  0.00     0.211 HD
ENDBRANCH   3  45
BRANCH   5  47
ATOM     47  C   UNL     1      14.994  33.025  21.778  1.00  0.00     0.176 C 
BRANCH  47  48
ATOM     48  O   UNL     1      15.461  32.793  20.427  1.00  0.00    -0.388 OA
ATOM     49  H   UNL     1      14.866  32.062  20.077  1.00  0.00     0.211 HD
ENDBRANCH  47  48
BRANCH  47  50
ATOM     50  C   UNL     1      16.259  33.419  22.481  1.00  0.00     0.165 C 
BRANCH  50  51
ATOM     51  O   UNL     1      16.299  34.833  22.599  1.00  0.00    -0.388 OA
ATOM     52  H   UNL     1      15.389  35.218  22.529  1.00  0.00     0.211 HD
ENDBRANCH  50  51
BRANCH  50  53
ATOM     53  C   UNL     1      17.544  32.964  21.935  1.00  0.00     0.154 C 
BRANCH  53  54
ATOM     54  N   UNL     1      17.864  31.566  22.155  1.00  0.00    -0.319 N 
ATOM     55  C   UNL     1      19.224  31.145  22.052  1.00  0.00     0.407 C 
ATOM     56  H   UNL     1      17.161  30.837  22.387  1.00  0.00     0.167 HD
ATOM     57  O   UNL     1      20.118  32.005  21.759  1.00  0.00    -0.225 OA
BRANCH  55  58
ATOM     58  O   UNL     1      19.668  29.853  22.246  1.00  0.00    -0.443 OA
BRANCH  58  59
ATOM     59  C   UNL     1      20.585  29.249  21.345  1.00  0.00     0.294 C 
BRANCH  59  60
ATOM     60  C   UNL     1      21.007  27.927  21.934  1.00  0.00     0.121 A 
ATOM     61  C   UNL     1      21.781  27.701  23.049  1.00  0.00     0.144 A 
ATOM     62  N   UNL     1      20.688  26.717  21.445  1.00  0.00    -0.131 NA
ATOM     63  N   UNL     1      21.881  26.362  23.161  1.00  0.00    -0.219 N 
ATOM     64  N   UNL     1      21.216  25.772  22.187  1.00  0.00    -0.062 NA
BRANCH  63  65
ATOM     65  C   UNL     1      22.596  25.645  24.161  1.00  0.00     0.080 A 
ATOM     66  C   UNL     1      22.000  25.338  25.378  1.00  0.00     0.029 A 
ATOM     67  C   UNL     1      23.895  25.245  23.955  1.00  0.00     0.039 A 
ATOM     68  C   UNL     1      22.743  24.638  26.335  1.00  0.00     0.002 A 
ATOM     69  C   UNL     1      24.624  24.544  24.924  1.00  0.00     0.017 A 
ATOM     70  I   UNL     1      24.829  25.700  22.113  1.00  0.00    -0.042 I 
ATOM     71  C   UNL     1      24.041  24.237  26.127  1.00  0.00     0.001 A 
ENDBRANCH  63  65
ENDBRANCH  59  60
ENDBRANCH  58  59
ENDBRANCH  55  58
ENDBRANCH  53  54
ENDBRANCH  50  53
ENDBRANCH  47  50
ENDBRANCH   5  47
BRANCH   4  72
ATOM     72  N   UNL     1      12.085  31.291  22.852  1.00  0.00    -0.348 N 
ATOM     73  C   UNL     1      10.766  31.867  22.806  1.00  0.00     0.217 C 
ATOM     74  H   UNL     1      12.271  30.728  23.701  1.00  0.00     0.163 HD
ATOM     75  C   UNL     1       9.763  31.678  23.871  1.00  0.00     0.114 C 
ATOM     76  O   UNL     1      10.499  32.559  21.788  1.00  0.00    -0.275 OA
ENDBRANCH   4  72
TORSDOF 30
