REMARK VINA RESULT:    -5.821     14.616     19.167
REMARK INTER + INTRA:         -19.748
REMARK INTER:                 -12.703
REMARK INTRA:                  -7.045
REMARK UNBOUND:                -4.909
REMARK SMILES CC(=O)N[C@@H]1[C@@H](O)C[C@](OC[C@H]2O[C@@H](O[C@H]3[C@H](O)[C@@H](O)[C@H](OCCN=[N+]=[N-])O[C@@H]3CO)[C@H](O)[C@@H](O)[C@H]2O)(C(=O)O)O[C@H]1C(O)[C@H](O)CNC(=O)OCc1cn(CCO)nn1
REMARK SMILES IDX 9 1 8 2 6 3 5 4 42 5 41 6 10 7 11 8 12 9 14 10 13 11 32 12
REMARK SMILES IDX 34 13 36 14 15 15 16 16 29 17 28 18 21 19 17 20 19 21 30 22
REMARK SMILES IDX 31 23 22 25 23 26 24 27 25 28 26 29 27 30 18 31 20 33 33 35
REMARK SMILES IDX 35 37 37 39 38 41 39 42 40 43 7 45 43 47 44 48 45 50 46 51
REMARK SMILES IDX 47 53 48 54 49 55 50 57 51 58 52 59 53 60 54 61 60 62 55 63
REMARK SMILES IDX 59 64 56 65 57 66 58 67 4 69 2 70 1 72 3 73
REMARK H PARENT 31 24 18 32 20 34 33 36 35 38 37 40 40 44 7 46 44 49 46 52
REMARK H PARENT 48 56 58 68 4 71
REMARK Flexibility Score: inf
ROOT
ATOM      1  C   UNL     1      19.339  28.727  19.230  1.00  0.00     0.272 C 
ATOM      2  C   UNL     1      20.210  29.793  18.649  1.00  0.00     0.113 C 
ATOM      3  C   UNL     1      21.148  30.323  19.699  1.00  0.00     0.145 C 
ATOM      4  C   UNL     1      21.921  29.112  20.221  1.00  0.00     0.142 C 
ATOM      5  C   UNL     1      20.894  28.234  20.926  1.00  0.00     0.178 C 
ATOM      6  O   UNL     1      20.077  27.773  19.866  1.00  0.00    -0.332 OA
ENDROOT
BRANCH   1   7
ATOM      7  O   UNL     1      18.585  28.082  18.223  1.00  0.00    -0.338 OA
BRANCH   7   8
ATOM      8  C   UNL     1      18.278  28.837  17.141  1.00  0.00     0.199 C 
BRANCH   8   9
ATOM      9  C   UNL     1      16.770  28.797  16.847  1.00  0.00     0.179 C 
ATOM     10  C   UNL     1      14.778  29.913  17.261  1.00  0.00     0.282 C 
ATOM     11  O   UNL     1      16.123  29.757  17.596  1.00  0.00    -0.341 OA
ATOM     12  C   UNL     1      14.594  30.385  15.843  1.00  0.00     0.202 C 
ATOM     13  C   UNL     1      15.778  30.108  14.953  1.00  0.00     0.179 C 
ATOM     14  C   UNL     1      16.456  28.840  15.391  1.00  0.00     0.177 C 
BRANCH  10  15
ATOM     15  O   UNL     1      14.281  30.833  18.103  1.00  0.00    -0.341 OA
BRANCH  15  16
ATOM     16  C   UNL     1      14.544  30.796  19.419  1.00  0.00     0.184 C 
ATOM     17  C   UNL     1      13.620  30.207  20.388  1.00  0.00     0.178 C 
ATOM     18  O   UNL     1      13.650  30.907  21.581  1.00  0.00    -0.341 OA
ATOM     19  C   UNL     1      14.856  31.315  22.052  1.00  0.00     0.281 C 
ATOM     20  C   UNL     1      14.722  32.281  19.828  1.00  0.00     0.180 C 
ATOM     21  C   UNL     1      15.595  32.230  21.063  1.00  0.00     0.202 C 
BRANCH  17  22
ATOM     22  C   UNL     1      13.924  28.747  20.712  1.00  0.00     0.191 C 
BRANCH  22  23
ATOM     23  O   UNL     1      13.349  28.353  21.921  1.00  0.00    -0.394 OA
ATOM     24  H   UNL     1      14.061  28.270  22.584  1.00  0.00     0.210 HD
ENDBRANCH  22  23
ENDBRANCH  17  22
BRANCH  19  25
ATOM     25  O   UNL     1      15.683  30.356  22.563  1.00  0.00    -0.350 OA
BRANCH  25  26
ATOM     26  C   UNL     1      15.925  30.390  23.903  1.00  0.00     0.169 C 
BRANCH  26  27
ATOM     27  C   UNL     1      14.697  30.752  24.668  1.00  0.00     0.119 C 
BRANCH  27  28
ATOM     28  N   UNL     1      13.827  29.568  24.771  1.00  0.00    -0.092 NA
ATOM     29  N   UNL     1      12.610  29.809  24.682  1.00  0.00     0.001 N 
ATOM     30  N   UNL     1      11.524  29.819  24.075  1.00  0.00    -0.003 NA
ENDBRANCH  27  28
ENDBRANCH  26  27
ENDBRANCH  25  26
ENDBRANCH  19  25
BRANCH  20  31
ATOM     31  O   UNL     1      15.268  33.010  18.805  1.00  0.00    -0.387 OA
ATOM     32  H   UNL     1      15.641  33.877  19.106  1.00  0.00     0.211 HD
ENDBRANCH  20  31
BRANCH  21  33
ATOM     33  O   UNL     1      15.833  33.485  21.555  1.00  0.00    -0.385 OA
ATOM     34  H   UNL     1      15.768  33.532  22.541  1.00  0.00     0.211 HD
ENDBRANCH  21  33
ENDBRANCH  15  16
ENDBRANCH  10  15
BRANCH  12  35
ATOM     35  O   UNL     1      13.526  29.661  15.289  1.00  0.00    -0.385 OA
ATOM     36  H   UNL     1      13.023  30.165  14.619  1.00  0.00     0.211 HD
ENDBRANCH  12  35
BRANCH  13  37
ATOM     37  O   UNL     1      16.606  31.200  14.935  1.00  0.00    -0.387 OA
ATOM     38  H   UNL     1      16.752  31.578  15.859  1.00  0.00     0.211 HD
ENDBRANCH  13  37
BRANCH  14  39
ATOM     39  O   UNL     1      17.683  28.767  14.695  1.00  0.00    -0.387 OA
ATOM     40  H   UNL     1      17.616  28.145  13.928  1.00  0.00     0.211 HD
ENDBRANCH  14  39
ENDBRANCH   8   9
ENDBRANCH   7   8
ENDBRANCH   1   7
BRANCH   1  41
ATOM     41  C   UNL     1      18.319  29.364  20.091  1.00  0.00     0.364 C 
ATOM     42  O   UNL     1      18.232  30.597  20.241  1.00  0.00    -0.246 OA
BRANCH  41  43
ATOM     43  O   UNL     1      17.396  28.595  20.779  1.00  0.00    -0.477 OA
ATOM     44  H   UNL     1      17.029  28.860  21.709  1.00  0.00     0.296 HD
ENDBRANCH  41  43
ENDBRANCH   1  41
BRANCH   3  45
ATOM     45  O   UNL     1      22.110  31.179  19.117  1.00  0.00    -0.391 OA
ATOM     46  H   UNL     1      21.982  31.180  18.131  1.00  0.00     0.211 HD
ENDBRANCH   3  45
BRANCH   5  47
ATOM     47  C   UNL     1      21.574  27.003  21.433  1.00  0.00     0.176 C 
BRANCH  47  48
ATOM     48  O   UNL     1      20.692  26.170  22.123  1.00  0.00    -0.388 OA
ATOM     49  H   UNL     1      20.624  26.414  23.084  1.00  0.00     0.211 HD
ENDBRANCH  47  48
BRANCH  47  50
ATOM     50  C   UNL     1      22.405  26.211  20.501  1.00  0.00     0.165 C 
BRANCH  50  51
ATOM     51  O   UNL     1      21.664  24.953  20.419  1.00  0.00    -0.388 OA
ATOM     52  H   UNL     1      21.172  24.946  19.566  1.00  0.00     0.211 HD
ENDBRANCH  50  51
BRANCH  50  53
ATOM     53  C   UNL     1      23.720  25.729  21.089  1.00  0.00     0.154 C 
BRANCH  53  54
ATOM     54  N   UNL     1      23.968  26.200  22.413  1.00  0.00    -0.319 N 
ATOM     55  C   UNL     1      23.572  25.439  23.542  1.00  0.00     0.407 C 
ATOM     56  H   UNL     1      24.441  27.131  22.593  1.00  0.00     0.167 HD
ATOM     57  O   UNL     1      22.984  24.332  23.296  1.00  0.00    -0.225 OA
BRANCH  55  58
ATOM     58  O   UNL     1      23.764  25.778  24.854  1.00  0.00    -0.443 OA
BRANCH  58  59
ATOM     59  C   UNL     1      22.637  25.959  25.691  1.00  0.00     0.294 C 
BRANCH  59  60
ATOM     60  C   UNL     1      21.733  27.009  25.216  1.00  0.00     0.120 A 
ATOM     61  C   UNL     1      22.103  28.290  24.886  1.00  0.00     0.138 A 
ATOM     62  N   UNL     1      20.408  26.953  25.008  1.00  0.00    -0.132 NA
ATOM     63  N   UNL     1      21.014  28.978  24.491  1.00  0.00    -0.250 N 
ATOM     64  N   UNL     1      19.997  28.151  24.571  1.00  0.00    -0.067 NA
BRANCH  63  65
ATOM     65  C   UNL     1      21.000  30.382  24.057  1.00  0.00     0.174 C 
BRANCH  65  66
ATOM     66  C   UNL     1      19.624  30.697  23.525  1.00  0.00     0.179 C 
BRANCH  66  67
ATOM     67  O   UNL     1      19.763  31.739  22.593  1.00  0.00    -0.394 OA
ATOM     68  H   UNL     1      19.522  31.481  21.686  1.00  0.00     0.210 HD
ENDBRANCH  66  67
ENDBRANCH  65  66
ENDBRANCH  63  65
ENDBRANCH  59  60
ENDBRANCH  58  59
ENDBRANCH  55  58
ENDBRANCH  53  54
ENDBRANCH  50  53
ENDBRANCH  47  50
ENDBRANCH   5  47
BRANCH   4  69
ATOM     69  N   UNL     1      23.075  29.452  20.954  1.00  0.00    -0.348 N 
ATOM     70  C   UNL     1      24.409  29.283  20.515  1.00  0.00     0.217 C 
ATOM     71  H   UNL     1      22.971  29.888  21.906  1.00  0.00     0.163 HD
ATOM     72  C   UNL     1      25.526  29.683  21.395  1.00  0.00     0.114 C 
ATOM     73  O   UNL     1      24.657  28.801  19.399  1.00  0.00    -0.275 OA
ENDBRANCH   4  69
TORSDOF 32
