REMARK VINA RESULT:    -5.934      3.017      8.727
REMARK INTER + INTRA:         -22.798
REMARK INTER:                 -13.322
REMARK INTRA:                  -9.476
REMARK UNBOUND:                -6.283
REMARK SMILES CC(=O)N[C@@H]1[C@@H](O)C[C@](OC[C@H]2O[C@@H](O[C@H]3[C@H](O)[C@@H](O)[C@H](OCCN=[N+]=[N-])O[C@@H]3CO)[C@H](O)[C@@H](O)[C@H]2O)(C(=O)O)O[C@H]1C(O)[C@H](O)CNC(=O)OCc1cn(C[C@H](CC(=O)O)CC(C)C)nn1
REMARK SMILES IDX 43 1 42 2 9 3 8 4 41 5 6 6 5 7 10 8 11 9 12 10 14 11 13 12
REMARK SMILES IDX 32 13 34 14 36 15 15 16 16 17 29 18 28 19 21 20 17 21 19 22
REMARK SMILES IDX 30 23 31 24 22 26 23 27 24 28 25 29 26 30 27 31 18 32 20 34
REMARK SMILES IDX 33 36 35 38 37 40 38 42 39 43 40 44 7 46 4 48 2 49 1 51 3 52
REMARK SMILES IDX 44 53 45 55 46 56 47 58 48 59 49 60 50 62 51 63 52 64 53 65
REMARK SMILES IDX 54 66 67 67 55 68 66 69 56 70 57 71 58 72 59 73 60 74 61 75
REMARK SMILES IDX 62 77 63 78 64 79 65 80
REMARK H PARENT 31 25 18 33 20 35 33 37 35 39 37 41 40 45 7 47 4 50 44 54
REMARK H PARENT 46 57 48 61 61 76
REMARK Flexibility Score: inf
ROOT
ATOM      1  C   UNL     1       3.351  26.649  30.874  1.00  0.00     0.176 C 
ENDROOT
BRANCH   1   2
ATOM      2  C   UNL     1       3.979  26.047  32.100  1.00  0.00     0.178 C 
ATOM      3  C   UNL     1       3.166  23.934  32.927  1.00  0.00     0.272 C 
ATOM      4  C   UNL     1       2.341  24.626  33.951  1.00  0.00     0.113 C 
ATOM      5  O   UNL     1       3.728  24.714  32.027  1.00  0.00    -0.332 OA
ATOM      6  C   UNL     1       2.187  26.088  33.833  1.00  0.00     0.145 C 
ATOM      7  C   UNL     1       3.444  26.770  33.287  1.00  0.00     0.142 C 
BRANCH   3   8
ATOM      8  O   UNL     1       2.367  22.968  32.256  1.00  0.00    -0.338 OA
BRANCH   8   9
ATOM      9  C   UNL     1       2.900  22.493  31.098  1.00  0.00     0.199 C 
BRANCH   9  10
ATOM     10  C   UNL     1       1.820  22.451  29.995  1.00  0.00     0.179 C 
ATOM     11  C   UNL     1       1.010  23.668  28.192  1.00  0.00     0.282 C 
ATOM     12  O   UNL     1       2.093  23.376  29.006  1.00  0.00    -0.341 OA
ATOM     13  C   UNL     1       0.206  22.366  28.047  1.00  0.00     0.202 C 
ATOM     14  C   UNL     1       1.142  21.176  28.028  1.00  0.00     0.179 C 
ATOM     15  C   UNL     1       1.855  21.066  29.333  1.00  0.00     0.177 C 
BRANCH  11  16
ATOM     16  O   UNL     1       1.469  23.945  26.928  1.00  0.00    -0.341 OA
BRANCH  16  17
ATOM     17  C   UNL     1       2.308  25.021  26.804  1.00  0.00     0.184 C 
ATOM     18  C   UNL     1       1.751  26.161  26.003  1.00  0.00     0.178 C 
ATOM     19  O   UNL     1       2.409  26.435  24.840  1.00  0.00    -0.341 OA
ATOM     20  C   UNL     1       3.761  26.684  24.966  1.00  0.00     0.281 C 
ATOM     21  C   UNL     1       3.560  24.538  26.102  1.00  0.00     0.180 C 
ATOM     22  C   UNL     1       4.472  25.753  25.885  1.00  0.00     0.202 C 
BRANCH  18  23
ATOM     23  C   UNL     1       1.638  27.362  26.924  1.00  0.00     0.191 C 
BRANCH  23  24
ATOM     24  O   UNL     1       1.010  27.026  28.120  1.00  0.00    -0.394 OA
ATOM     25  H   UNL     1       0.278  27.661  28.352  1.00  0.00     0.210 HD
ENDBRANCH  23  24
ENDBRANCH  18  23
BRANCH  20  26
ATOM     26  O   UNL     1       3.917  28.028  25.274  1.00  0.00    -0.350 OA
BRANCH  26  27
ATOM     27  C   UNL     1       4.999  28.612  24.638  1.00  0.00     0.169 C 
BRANCH  27  28
ATOM     28  C   UNL     1       5.901  29.174  25.728  1.00  0.00     0.119 C 
BRANCH  28  29
ATOM     29  N   UNL     1       6.943  28.177  25.933  1.00  0.00    -0.092 NA
ATOM     30  N   UNL     1       7.477  27.689  24.964  1.00  0.00     0.001 N 
ATOM     31  N   UNL     1       8.067  26.935  24.180  1.00  0.00    -0.003 NA
ENDBRANCH  28  29
ENDBRANCH  27  28
ENDBRANCH  26  27
ENDBRANCH  20  26
BRANCH  21  32
ATOM     32  O   UNL     1       4.183  23.559  26.853  1.00  0.00    -0.387 OA
ATOM     33  H   UNL     1       5.102  23.430  26.458  1.00  0.00     0.211 HD
ENDBRANCH  21  32
BRANCH  22  34
ATOM     34  O   UNL     1       5.650  25.221  25.321  1.00  0.00    -0.385 OA
ATOM     35  H   UNL     1       6.388  25.448  25.926  1.00  0.00     0.211 HD
ENDBRANCH  22  34
ENDBRANCH  16  17
ENDBRANCH  11  16
BRANCH  13  36
ATOM     36  O   UNL     1      -0.812  22.263  28.961  1.00  0.00    -0.385 OA
ATOM     37  H   UNL     1      -1.600  22.797  28.759  1.00  0.00     0.211 HD
ENDBRANCH  13  36
BRANCH  14  38
ATOM     38  O   UNL     1       2.084  21.454  27.016  1.00  0.00    -0.387 OA
ATOM     39  H   UNL     1       2.201  20.710  26.406  1.00  0.00     0.211 HD
ENDBRANCH  14  38
BRANCH  15  40
ATOM     40  O   UNL     1       3.192  20.712  29.055  1.00  0.00    -0.387 OA
ATOM     41  H   UNL     1       3.311  20.511  28.113  1.00  0.00     0.211 HD
ENDBRANCH  15  40
ENDBRANCH   9  10
ENDBRANCH   8   9
ENDBRANCH   3   8
BRANCH   3  42
ATOM     42  C   UNL     1       4.203  23.068  33.618  1.00  0.00     0.364 C 
ATOM     43  O   UNL     1       5.297  22.851  33.081  1.00  0.00    -0.246 OA
BRANCH  42  44
ATOM     44  O   UNL     1       3.942  22.516  34.839  1.00  0.00    -0.477 OA
ATOM     45  H   UNL     1       3.044  22.607  35.312  1.00  0.00     0.296 HD
ENDBRANCH  42  44
ENDBRANCH   3  42
BRANCH   6  46
ATOM     46  O   UNL     1       1.084  26.547  33.146  1.00  0.00    -0.391 OA
ATOM     47  H   UNL     1       0.309  26.453  33.754  1.00  0.00     0.211 HD
ENDBRANCH   6  46
BRANCH   7  48
ATOM     48  N   UNL     1       4.333  26.888  34.411  1.00  0.00    -0.348 N 
ATOM     49  C   UNL     1       4.055  27.910  35.395  1.00  0.00     0.217 C 
ATOM     50  H   UNL     1       5.178  26.302  34.590  1.00  0.00     0.163 HD
ATOM     51  C   UNL     1       4.983  28.027  36.573  1.00  0.00     0.114 C 
ATOM     52  O   UNL     1       3.076  28.689  35.295  1.00  0.00    -0.275 OA
ENDBRANCH   7  48
ENDBRANCH   1   2
BRANCH   1  53
ATOM     53  O   UNL     1       2.180  25.898  30.557  1.00  0.00    -0.388 OA
ATOM     54  H   UNL     1       1.663  26.383  29.862  1.00  0.00     0.211 HD
ENDBRANCH   1  53
BRANCH   1  55
ATOM     55  C   UNL     1       4.156  26.603  29.595  1.00  0.00     0.165 C 
BRANCH  55  56
ATOM     56  O   UNL     1       5.442  26.126  30.101  1.00  0.00    -0.388 OA
ATOM     57  H   UNL     1       5.860  26.990  30.417  1.00  0.00     0.211 HD
ENDBRANCH  55  56
BRANCH  55  58
ATOM     58  C   UNL     1       4.498  27.956  29.075  1.00  0.00     0.154 C 
BRANCH  58  59
ATOM     59  N   UNL     1       5.383  28.663  29.930  1.00  0.00    -0.319 N 
ATOM     60  C   UNL     1       4.996  30.011  30.277  1.00  0.00     0.407 C 
ATOM     61  H   UNL     1       6.279  28.341  30.339  1.00  0.00     0.167 HD
ATOM     62  O   UNL     1       3.918  30.488  29.822  1.00  0.00    -0.225 OA
BRANCH  60  63
ATOM     63  O   UNL     1       5.749  30.832  31.086  1.00  0.00    -0.443 OA
BRANCH  63  64
ATOM     64  C   UNL     1       5.695  30.872  32.497  1.00  0.00     0.294 C 
BRANCH  64  65
ATOM     65  C   UNL     1       6.459  29.766  33.142  1.00  0.00     0.120 A 
ATOM     66  C   UNL     1       7.175  29.785  34.316  1.00  0.00     0.138 A 
ATOM     67  N   UNL     1       6.563  28.528  32.647  1.00  0.00    -0.132 NA
ATOM     68  N   UNL     1       7.707  28.540  34.513  1.00  0.00    -0.252 N 
ATOM     69  N   UNL     1       7.308  27.829  33.484  1.00  0.00    -0.067 NA
BRANCH  68  70
ATOM     70  C   UNL     1       8.534  28.119  35.583  1.00  0.00     0.150 C 
BRANCH  70  71
ATOM     71  C   UNL     1       8.846  26.683  35.625  1.00  0.00     0.022 C 
BRANCH  71  72
ATOM     72  C   UNL     1       7.874  25.796  36.310  1.00  0.00     0.128 C 
BRANCH  72  73
ATOM     73  C   UNL     1       7.100  24.875  35.467  1.00  0.00     0.303 C 
ATOM     74  O   UNL     1       6.542  23.878  35.996  1.00  0.00    -0.252 OA
BRANCH  73  75
ATOM     75  O   UNL     1       6.940  25.037  34.098  1.00  0.00    -0.481 OA
ATOM     76  H   UNL     1       6.327  25.753  33.737  1.00  0.00     0.296 HD
ENDBRANCH  73  75
ENDBRANCH  72  73
ENDBRANCH  71  72
BRANCH  71  77
ATOM     77  C   UNL     1      10.274  26.358  35.960  1.00  0.00     0.009 C 
BRANCH  77  78
ATOM     78  C   UNL     1      11.111  25.679  34.973  1.00  0.00    -0.017 C 
ATOM     79  C   UNL     1      11.067  26.128  33.557  1.00  0.00     0.007 C 
ATOM     80  C   UNL     1      12.567  25.536  35.375  1.00  0.00     0.007 C 
ENDBRANCH  77  78
ENDBRANCH  71  77
ENDBRANCH  70  71
ENDBRANCH  68  70
ENDBRANCH  64  65
ENDBRANCH  63  64
ENDBRANCH  60  63
ENDBRANCH  58  59
ENDBRANCH  55  58
ENDBRANCH   1  55
TORSDOF 36
