REMARK VINA RESULT:    -5.042      3.870     10.469
REMARK INTER + INTRA:         -20.764
REMARK INTER:                 -12.410
REMARK INTRA:                  -8.354
REMARK UNBOUND:                -8.354
REMARK SMILES CC(=O)N[C@@H]1[C@@H](O)C[C@](OC[C@H]2O[C@@H](O[C@H]3[C@H](O)[C@@H](O)[C@H](OCCN=[N+]=[N-])O[C@@H]3CO)[C@H](O)[C@@H](O)[C@H]2O)(C(=O)O)O[C@H]1C(O)[C@H](O)CNC(=O)OCc1cn(-c2cccc(Cl)c2)nn1
REMARK SMILES IDX 9 1 8 2 6 3 5 4 42 5 41 6 10 7 11 8 12 9 14 10 13 11 32 12
REMARK SMILES IDX 34 13 36 14 15 15 16 16 29 17 28 18 21 19 17 20 19 21 30 22
REMARK SMILES IDX 31 23 22 25 23 26 24 27 25 28 26 29 27 30 18 31 20 33 33 35
REMARK SMILES IDX 35 37 37 39 38 41 39 42 40 43 7 45 43 47 44 48 45 50 46 51
REMARK SMILES IDX 47 53 48 54 49 55 50 57 51 58 52 59 53 60 54 61 64 62 55 63
REMARK SMILES IDX 63 64 56 65 57 66 62 67 58 68 60 69 59 70 61 71 4 72 2 73
REMARK SMILES IDX 1 75 3 76
REMARK H PARENT 31 24 18 32 20 34 33 36 35 38 37 40 40 44 7 46 44 49 46 52
REMARK H PARENT 48 56 4 74
REMARK Flexibility Score: inf
ROOT
ATOM      1  C   UNL     1      14.066  30.549  20.860  1.00  0.00     0.272 C 
ATOM      2  C   UNL     1      12.983  30.907  21.777  1.00  0.00     0.113 C 
ATOM      3  C   UNL     1      13.286  31.793  22.938  1.00  0.00     0.145 C 
ATOM      4  C   UNL     1      14.743  32.167  23.043  1.00  0.00     0.142 C 
ATOM      5  C   UNL     1      15.505  30.919  22.569  1.00  0.00     0.178 C 
ATOM      6  O   UNL     1      15.363  30.926  21.214  1.00  0.00    -0.332 OA
ENDROOT
BRANCH   1   7
ATOM      7  O   UNL     1      13.955  30.816  19.530  1.00  0.00    -0.338 OA
BRANCH   7   8
ATOM      8  C   UNL     1      14.798  31.584  18.842  1.00  0.00     0.199 C 
BRANCH   8   9
ATOM      9  C   UNL     1      15.482  31.054  17.626  1.00  0.00     0.179 C 
ATOM     10  C   UNL     1      17.198  29.663  16.953  1.00  0.00     0.282 C 
ATOM     11  O   UNL     1      16.414  30.081  18.043  1.00  0.00    -0.341 OA
ATOM     12  C   UNL     1      16.311  29.037  15.921  1.00  0.00     0.202 C 
ATOM     13  C   UNL     1      15.086  29.800  15.528  1.00  0.00     0.179 C 
ATOM     14  C   UNL     1      14.417  30.309  16.786  1.00  0.00     0.177 C 
BRANCH  10  15
ATOM     15  O   UNL     1      17.995  28.671  17.460  1.00  0.00    -0.341 OA
BRANCH  15  16
ATOM     16  C   UNL     1      19.355  28.939  17.602  1.00  0.00     0.184 C 
ATOM     17  C   UNL     1      19.784  29.258  18.957  1.00  0.00     0.178 C 
ATOM     18  O   UNL     1      20.603  30.358  19.052  1.00  0.00    -0.341 OA
ATOM     19  C   UNL     1      20.324  31.380  18.149  1.00  0.00     0.281 C 
ATOM     20  C   UNL     1      19.716  29.816  16.453  1.00  0.00     0.180 C 
ATOM     21  C   UNL     1      20.777  30.810  16.809  1.00  0.00     0.202 C 
BRANCH  17  22
ATOM     22  C   UNL     1      20.610  28.106  19.554  1.00  0.00     0.191 C 
BRANCH  22  23
ATOM     23  O   UNL     1      19.889  27.625  20.676  1.00  0.00    -0.394 OA
ATOM     24  H   UNL     1      19.245  28.302  20.952  1.00  0.00     0.210 HD
ENDBRANCH  22  23
ENDBRANCH  17  22
BRANCH  19  25
ATOM     25  O   UNL     1      21.081  32.468  18.478  1.00  0.00    -0.350 OA
BRANCH  25  26
ATOM     26  C   UNL     1      20.487  33.409  19.278  1.00  0.00     0.169 C 
BRANCH  26  27
ATOM     27  C   UNL     1      20.199  34.729  18.611  1.00  0.00     0.119 C 
BRANCH  27  28
ATOM     28  N   UNL     1      19.030  35.306  19.291  1.00  0.00    -0.092 NA
ATOM     29  N   UNL     1      17.937  35.192  18.696  1.00  0.00     0.001 N 
ATOM     30  N   UNL     1      16.804  34.774  18.398  1.00  0.00    -0.003 NA
ENDBRANCH  27  28
ENDBRANCH  26  27
ENDBRANCH  25  26
ENDBRANCH  19  25
BRANCH  20  31
ATOM     31  O   UNL     1      20.100  29.037  15.344  1.00  0.00    -0.387 OA
ATOM     32  H   UNL     1      20.471  29.676  14.686  1.00  0.00     0.211 HD
ENDBRANCH  20  31
BRANCH  21  33
ATOM     33  O   UNL     1      20.762  31.823  15.844  1.00  0.00    -0.385 OA
ATOM     34  H   UNL     1      20.415  32.660  16.194  1.00  0.00     0.211 HD
ENDBRANCH  21  33
ENDBRANCH  15  16
ENDBRANCH  10  15
BRANCH  12  35
ATOM     35  O   UNL     1      17.005  28.803  14.724  1.00  0.00    -0.385 OA
ATOM     36  H   UNL     1      17.850  29.305  14.686  1.00  0.00     0.211 HD
ENDBRANCH  12  35
BRANCH  13  37
ATOM     37  O   UNL     1      14.196  28.917  14.914  1.00  0.00    -0.387 OA
ATOM     38  H   UNL     1      14.595  28.077  14.631  1.00  0.00     0.211 HD
ENDBRANCH  13  37
BRANCH  14  39
ATOM     39  O   UNL     1      14.141  29.158  17.561  1.00  0.00    -0.387 OA
ATOM     40  H   UNL     1      13.398  29.281  18.170  1.00  0.00     0.211 HD
ENDBRANCH  14  39
ENDBRANCH   8   9
ENDBRANCH   7   8
ENDBRANCH   1   7
BRANCH   1  41
ATOM     41  C   UNL     1      14.156  29.015  20.898  1.00  0.00     0.364 C 
ATOM     42  O   UNL     1      13.356  28.308  21.536  1.00  0.00    -0.246 OA
BRANCH  41  43
ATOM     43  O   UNL     1      15.181  28.382  20.186  1.00  0.00    -0.477 OA
ATOM     44  H   UNL     1      16.149  28.551  20.485  1.00  0.00     0.296 HD
ENDBRANCH  41  43
ENDBRANCH   1  41
BRANCH   3  45
ATOM     45  O   UNL     1      12.530  32.952  22.971  1.00  0.00    -0.391 OA
ATOM     46  H   UNL     1      12.868  33.639  22.351  1.00  0.00     0.211 HD
ENDBRANCH   3  45
BRANCH   5  47
ATOM     47  C   UNL     1      16.939  30.922  23.071  1.00  0.00     0.176 C 
BRANCH  47  48
ATOM     48  O   UNL     1      16.991  29.793  23.930  1.00  0.00    -0.388 OA
ATOM     49  H   UNL     1      16.069  29.670  24.305  1.00  0.00     0.211 HD
ENDBRANCH  47  48
BRANCH  47  50
ATOM     50  C   UNL     1      17.860  30.598  21.914  1.00  0.00     0.165 C 
BRANCH  50  51
ATOM     51  O   UNL     1      17.683  29.279  21.530  1.00  0.00    -0.388 OA
ATOM     52  H   UNL     1      17.581  28.660  22.287  1.00  0.00     0.211 HD
ENDBRANCH  50  51
BRANCH  50  53
ATOM     53  C   UNL     1      19.312  30.742  22.383  1.00  0.00     0.154 C 
BRANCH  53  54
ATOM     54  N   UNL     1      19.860  29.491  22.828  1.00  0.00    -0.319 N 
ATOM     55  C   UNL     1      20.128  29.133  24.158  1.00  0.00     0.407 C 
ATOM     56  H   UNL     1      20.088  28.761  22.080  1.00  0.00     0.167 HD
ATOM     57  O   UNL     1      19.864  29.932  25.088  1.00  0.00    -0.225 OA
BRANCH  55  58
ATOM     58  O   UNL     1      20.698  27.872  24.494  1.00  0.00    -0.443 OA
BRANCH  58  59
ATOM     59  C   UNL     1      21.988  27.552  24.045  1.00  0.00     0.294 C 
BRANCH  59  60
ATOM     60  C   UNL     1      22.013  26.594  22.908  1.00  0.00     0.121 A 
ATOM     61  C   UNL     1      23.034  26.419  21.969  1.00  0.00     0.144 A 
ATOM     62  N   UNL     1      21.077  25.711  22.524  1.00  0.00    -0.131 NA
ATOM     63  N   UNL     1      22.681  25.468  21.086  1.00  0.00    -0.220 N 
ATOM     64  N   UNL     1      21.493  25.046  21.433  1.00  0.00    -0.062 NA
BRANCH  63  65
ATOM     65  C   UNL     1      23.509  25.071  20.002  1.00  0.00     0.068 A 
ATOM     66  C   UNL     1      24.848  24.781  20.129  1.00  0.00     0.028 A 
ATOM     67  C   UNL     1      22.973  24.955  18.708  1.00  0.00     0.049 A 
ATOM     68  C   UNL     1      25.617  24.395  19.035  1.00  0.00     0.004 A 
ATOM     69  C   UNL     1      23.734  24.574  17.630  1.00  0.00     0.043 A 
ATOM     70  C   UNL     1      25.072  24.287  17.773  1.00  0.00     0.020 A 
ATOM     71  Cl  UNL     1      23.047  24.433  16.018  1.00  0.00    -0.084 Cl
ENDBRANCH  63  65
ENDBRANCH  59  60
ENDBRANCH  58  59
ENDBRANCH  55  58
ENDBRANCH  53  54
ENDBRANCH  50  53
ENDBRANCH  47  50
ENDBRANCH   5  47
BRANCH   4  72
ATOM     72  N   UNL     1      15.121  32.602  24.347  1.00  0.00    -0.348 N 
ATOM     73  C   UNL     1      15.188  34.000  24.683  1.00  0.00     0.217 C 
ATOM     74  H   UNL     1      15.368  31.967  25.144  1.00  0.00     0.163 HD
ATOM     75  C   UNL     1      15.574  34.474  26.020  1.00  0.00     0.114 C 
ATOM     76  O   UNL     1      14.906  34.832  23.794  1.00  0.00    -0.275 OA
ENDBRANCH   4  72
TORSDOF 30
