REMARK VINA RESULT:    -5.514      3.428     10.509
REMARK INTER + INTRA:         -24.124
REMARK INTER:                 -15.007
REMARK INTRA:                  -9.116
REMARK UNBOUND:                -7.166
REMARK SMILES CC(=O)N[C@@H]1[C@@H](O)C[C@](OC[C@H]2O[C@@H](O[C@H]3[C@H](O)[C@@H](O)[C@H](OCCN=[N+]=[N-])O[C@@H]3CO)[C@H](O)[C@@H](O)[C@H]2O)(C(=O)O)O[C@H]1C(O)[C@H](O)CNC(=O)OCc1cn(CCCCCCCCCCC(=O)O)nn1
REMARK SMILES IDX 51 1 49 2 48 3 50 5 47 6 45 7 43 8 42 9 9 10 8 11 41 12 6 13
REMARK SMILES IDX 5 14 10 15 11 16 12 17 14 18 13 19 32 20 34 21 36 22 15 23
REMARK SMILES IDX 16 24 29 25 28 26 21 27 17 28 19 29 30 30 31 31 22 33 23 34
REMARK SMILES IDX 24 35 25 36 26 37 27 38 18 39 20 41 33 43 35 45 37 47 38 49
REMARK SMILES IDX 39 50 40 51 7 53 4 55 2 56 1 58 3 59 44 60 46 62 52 64 53 65
REMARK SMILES IDX 54 66 70 67 55 68 69 69 56 70 57 71 58 72 59 73 60 74 61 75
REMARK SMILES IDX 62 76 63 77 64 78 65 79 66 80 67 81 68 82
REMARK H PARENT 48 4 31 32 18 40 20 42 33 44 35 46 37 48 40 52 7 54 4 57 44 61
REMARK H PARENT 46 63 68 83
REMARK Flexibility Score: inf
ROOT
ATOM      1  O   UNL     1      20.503  27.695  17.006  1.00  0.00    -0.443 OA
ENDROOT
BRANCH   1   2
ATOM      2  C   UNL     1      21.891  27.793  17.249  1.00  0.00     0.407 C 
ATOM      3  N   UNL     1      22.435  27.432  18.506  1.00  0.00    -0.319 N 
ATOM      4  H   UNL     1      21.778  27.096  19.259  1.00  0.00     0.167 HD
ATOM      5  O   UNL     1      22.674  28.198  16.360  1.00  0.00    -0.225 OA
BRANCH   3   6
ATOM      6  C   UNL     1      23.836  27.507  18.792  1.00  0.00     0.154 C 
BRANCH   6   7
ATOM      7  C   UNL     1      24.200  28.484  19.905  1.00  0.00     0.165 C 
BRANCH   7   8
ATOM      8  C   UNL     1      25.108  27.742  20.822  1.00  0.00     0.176 C 
BRANCH   8   9
ATOM      9  C   UNL     1      24.624  26.389  21.287  1.00  0.00     0.178 C 
ATOM     10  C   UNL     1      22.941  25.461  22.597  1.00  0.00     0.272 C 
ATOM     11  C   UNL     1      23.965  24.431  23.026  1.00  0.00     0.113 C 
ATOM     12  O   UNL     1      23.632  26.592  22.206  1.00  0.00    -0.332 OA
ATOM     13  C   UNL     1      25.363  24.959  23.087  1.00  0.00     0.145 C 
ATOM     14  C   UNL     1      25.740  25.490  21.720  1.00  0.00     0.142 C 
BRANCH  10  15
ATOM     15  O   UNL     1      22.070  25.763  23.657  1.00  0.00    -0.338 OA
BRANCH  15  16
ATOM     16  C   UNL     1      22.273  25.103  24.821  1.00  0.00     0.199 C 
BRANCH  16  17
ATOM     17  C   UNL     1      23.066  26.065  25.732  1.00  0.00     0.179 C 
ATOM     18  C   UNL     1      21.589  27.778  26.426  1.00  0.00     0.282 C 
ATOM     19  O   UNL     1      22.629  27.329  25.683  1.00  0.00    -0.341 OA
ATOM     20  C   UNL     1      21.206  26.880  27.540  1.00  0.00     0.202 C 
ATOM     21  C   UNL     1      22.469  26.278  28.144  1.00  0.00     0.179 C 
ATOM     22  C   UNL     1      23.217  25.461  27.110  1.00  0.00     0.177 C 
BRANCH  18  23
ATOM     23  O   UNL     1      20.532  28.046  25.519  1.00  0.00    -0.341 OA
BRANCH  23  24
ATOM     24  C   UNL     1      20.811  29.261  24.907  1.00  0.00     0.184 C 
ATOM     25  C   UNL     1      20.097  30.441  25.480  1.00  0.00     0.178 C 
ATOM     26  O   UNL     1      20.298  31.549  24.710  1.00  0.00    -0.341 OA
ATOM     27  C   UNL     1      21.192  31.544  23.706  1.00  0.00     0.281 C 
ATOM     28  C   UNL     1      20.407  29.195  23.425  1.00  0.00     0.180 C 
ATOM     29  C   UNL     1      21.083  30.372  22.759  1.00  0.00     0.202 C 
BRANCH  25  30
ATOM     30  C   UNL     1      20.472  30.739  26.920  1.00  0.00     0.191 C 
BRANCH  30  31
ATOM     31  O   UNL     1      19.608  30.207  27.839  1.00  0.00    -0.394 OA
ATOM     32  H   UNL     1      18.939  30.899  28.080  1.00  0.00     0.210 HD
ENDBRANCH  30  31
ENDBRANCH  25  30
BRANCH  27  33
ATOM     33  O   UNL     1      22.484  31.570  24.211  1.00  0.00    -0.350 OA
BRANCH  33  34
ATOM     34  C   UNL     1      23.406  31.009  23.329  1.00  0.00     0.169 C 
BRANCH  34  35
ATOM     35  C   UNL     1      24.450  31.999  22.895  1.00  0.00     0.119 C 
BRANCH  35  36
ATOM     36  N   UNL     1      23.843  32.929  21.941  1.00  0.00    -0.092 NA
ATOM     37  N   UNL     1      23.276  32.505  20.910  1.00  0.00     0.001 N 
ATOM     38  N   UNL     1      22.805  31.816  19.979  1.00  0.00    -0.003 NA
ENDBRANCH  35  36
ENDBRANCH  34  35
ENDBRANCH  33  34
ENDBRANCH  27  33
BRANCH  28  39
ATOM     39  O   UNL     1      20.804  28.023  22.819  1.00  0.00    -0.387 OA
ATOM     40  H   UNL     1      21.226  28.157  21.933  1.00  0.00     0.211 HD
ENDBRANCH  28  39
BRANCH  29  41
ATOM     41  O   UNL     1      20.278  30.765  21.694  1.00  0.00    -0.385 OA
ATOM     42  H   UNL     1      19.888  29.929  21.291  1.00  0.00     0.211 HD
ENDBRANCH  29  41
ENDBRANCH  23  24
ENDBRANCH  18  23
BRANCH  20  43
ATOM     43  O   UNL     1      20.595  27.564  28.600  1.00  0.00    -0.385 OA
ATOM     44  H   UNL     1      19.858  28.100  28.183  1.00  0.00     0.211 HD
ENDBRANCH  20  43
BRANCH  21  45
ATOM     45  O   UNL     1      22.155  25.471  29.236  1.00  0.00    -0.387 OA
ATOM     46  H   UNL     1      21.194  25.623  29.428  1.00  0.00     0.211 HD
ENDBRANCH  21  45
BRANCH  22  47
ATOM     47  O   UNL     1      22.708  24.185  27.132  1.00  0.00    -0.387 OA
ATOM     48  H   UNL     1      22.074  24.086  26.377  1.00  0.00     0.211 HD
ENDBRANCH  22  47
ENDBRANCH  16  17
ENDBRANCH  15  16
ENDBRANCH  10  15
BRANCH  10  49
ATOM     49  C   UNL     1      22.073  24.963  21.527  1.00  0.00     0.364 C 
ATOM     50  O   UNL     1      22.062  23.776  21.163  1.00  0.00    -0.246 OA
BRANCH  49  51
ATOM     51  O   UNL     1      21.209  25.822  20.867  1.00  0.00    -0.477 OA
ATOM     52  H   UNL     1      21.439  26.804  20.697  1.00  0.00     0.296 HD
ENDBRANCH  49  51
ENDBRANCH  10  49
BRANCH  13  53
ATOM     53  O   UNL     1      25.616  25.863  24.095  1.00  0.00    -0.391 OA
ATOM     54  H   UNL     1      25.962  25.445  24.935  1.00  0.00     0.211 HD
ENDBRANCH  13  53
BRANCH  14  55
ATOM     55  N   UNL     1      25.977  24.366  20.876  1.00  0.00    -0.348 N 
ATOM     56  C   UNL     1      26.881  24.363  19.776  1.00  0.00     0.217 C 
ATOM     57  H   UNL     1      25.473  23.461  21.041  1.00  0.00     0.163 HD
ATOM     58  C   UNL     1      27.073  23.159  18.947  1.00  0.00     0.114 C 
ATOM     59  O   UNL     1      27.504  25.414  19.537  1.00  0.00    -0.275 OA
ENDBRANCH  14  55
ENDBRANCH   8   9
BRANCH   8  60
ATOM     60  O   UNL     1      25.508  28.579  21.829  1.00  0.00    -0.388 OA
ATOM     61  H   UNL     1      24.803  29.102  22.242  1.00  0.00     0.211 HD
ENDBRANCH   8  60
ENDBRANCH   7   8
BRANCH   7  62
ATOM     62  O   UNL     1      23.006  28.903  20.481  1.00  0.00    -0.388 OA
ATOM     63  H   UNL     1      23.142  29.635  21.131  1.00  0.00     0.211 HD
ENDBRANCH   7  62
ENDBRANCH   6   7
ENDBRANCH   3   6
ENDBRANCH   1   2
BRANCH   1  64
ATOM     64  C   UNL     1      19.736  28.892  17.198  1.00  0.00     0.294 C 
BRANCH  64  65
ATOM     65  C   UNL     1      19.039  28.758  18.495  1.00  0.00     0.120 A 
ATOM     66  C   UNL     1      17.707  29.059  18.713  1.00  0.00     0.138 A 
ATOM     67  N   UNL     1      19.537  28.328  19.661  1.00  0.00    -0.132 NA
ATOM     68  N   UNL     1      17.465  28.793  20.010  1.00  0.00    -0.252 N 
ATOM     69  N   UNL     1      18.604  28.346  20.572  1.00  0.00    -0.067 NA
BRANCH  68  70
ATOM     70  C   UNL     1      16.244  28.929  20.742  1.00  0.00     0.146 C 
BRANCH  70  71
ATOM     71  C   UNL     1      14.996  28.935  19.932  1.00  0.00     0.024 C 
BRANCH  71  72
ATOM     72  C   UNL     1      13.722  28.767  20.682  1.00  0.00     0.002 C 
BRANCH  72  73
ATOM     73  C   UNL     1      13.677  29.390  22.034  1.00  0.00     0.000 C 
BRANCH  73  74
ATOM     74  C   UNL     1      12.562  30.350  22.267  1.00  0.00     0.000 C 
BRANCH  74  75
ATOM     75  C   UNL     1      11.895  30.061  23.583  1.00  0.00     0.000 C 
BRANCH  75  76
ATOM     76  C   UNL     1      12.229  31.075  24.655  1.00  0.00     0.000 C 
BRANCH  76  77
ATOM     77  C   UNL     1      13.387  30.677  25.510  1.00  0.00     0.001 C 
BRANCH  77  78
ATOM     78  C   UNL     1      14.030  31.802  26.261  1.00  0.00     0.012 C 
BRANCH  78  79
ATOM     79  C   UNL     1      14.564  31.255  27.573  1.00  0.00     0.122 C 
BRANCH  79  80
ATOM     80  C   UNL     1      16.005  30.989  27.429  1.00  0.00     0.303 C 
ATOM     81  O   UNL     1      16.700  30.686  28.421  1.00  0.00    -0.252 OA
BRANCH  80  82
ATOM     82  O   UNL     1      16.635  31.068  26.195  1.00  0.00    -0.481 OA
ATOM     83  H   UNL     1      16.736  31.934  25.699  1.00  0.00     0.296 HD
ENDBRANCH  80  82
ENDBRANCH  79  80
ENDBRANCH  78  79
ENDBRANCH  77  78
ENDBRANCH  76  77
ENDBRANCH  75  76
ENDBRANCH  74  75
ENDBRANCH  73  74
ENDBRANCH  72  73
ENDBRANCH  71  72
ENDBRANCH  70  71
ENDBRANCH  68  70
ENDBRANCH  64  65
ENDBRANCH   1  64
TORSDOF 41
