REMARK VINA RESULT:    -6.253      7.911     11.549
REMARK INTER + INTRA:         -21.690
REMARK INTER:                 -13.117
REMARK INTRA:                  -8.573
REMARK UNBOUND:                -6.298
REMARK SMILES CC(=O)N[C@@H]1[C@@H](O)C[C@](OC[C@H]2O[C@@H](O[C@H]3[C@H](O)[C@@H](O)[C@H](OCCN=[N+]=[N-])O[C@@H]3CO)[C@H](O)[C@@H](O)[C@H]2O)(C(=O)O)O[C@H]1C(O)[C@H](O)CNC(=O)OCc1cn(-c2c(C)cc(C)cc2C)nn1
REMARK SMILES IDX 9 1 8 2 6 3 5 4 42 5 41 6 10 7 11 8 12 9 14 10 13 11 32 12
REMARK SMILES IDX 34 13 36 14 15 15 16 16 29 17 28 18 21 19 17 20 19 21 30 22
REMARK SMILES IDX 31 23 22 25 23 26 24 27 25 28 26 29 27 30 18 31 20 33 33 35
REMARK SMILES IDX 35 37 37 39 38 41 39 42 40 43 7 45 43 47 44 48 45 50 46 51
REMARK SMILES IDX 47 53 48 54 49 55 50 57 51 58 52 59 53 60 54 61 66 62 55 63
REMARK SMILES IDX 65 64 56 65 57 66 63 67 58 68 59 69 62 70 64 71 60 72 61 73
REMARK SMILES IDX 4 74 2 75 1 77 3 78
REMARK H PARENT 31 24 18 32 20 34 33 36 35 38 37 40 40 44 7 46 44 49 46 52
REMARK H PARENT 48 56 4 76
REMARK Flexibility Score: inf
ROOT
ATOM      1  C   UNL     1      23.494  28.586  27.559  1.00  0.00     0.272 C 
ATOM      2  C   UNL     1      22.444  29.398  28.211  1.00  0.00     0.113 C 
ATOM      3  C   UNL     1      21.516  30.159  27.297  1.00  0.00     0.145 C 
ATOM      4  C   UNL     1      22.257  30.611  26.079  1.00  0.00     0.142 C 
ATOM      5  C   UNL     1      23.732  30.667  26.496  1.00  0.00     0.178 C 
ATOM      6  O   UNL     1      24.166  29.315  26.568  1.00  0.00    -0.332 OA
ENDROOT
BRANCH   1   7
ATOM      7  O   UNL     1      23.141  27.363  27.073  1.00  0.00    -0.338 OA
BRANCH   7   8
ATOM      8  C   UNL     1      22.224  26.611  27.709  1.00  0.00     0.199 C 
BRANCH   8   9
ATOM      9  C   UNL     1      22.028  25.327  26.889  1.00  0.00     0.179 C 
ATOM     10  C   UNL     1      22.416  24.634  24.729  1.00  0.00     0.282 C 
ATOM     11  O   UNL     1      21.891  25.623  25.547  1.00  0.00    -0.341 OA
ATOM     12  C   UNL     1      23.911  24.702  24.901  1.00  0.00     0.202 C 
ATOM     13  C   UNL     1      24.190  24.261  26.330  1.00  0.00     0.179 C 
ATOM     14  C   UNL     1      22.996  24.253  27.219  1.00  0.00     0.177 C 
BRANCH  10  15
ATOM     15  O   UNL     1      21.962  24.664  23.465  1.00  0.00    -0.341 OA
BRANCH  15  16
ATOM     16  C   UNL     1      22.488  25.543  22.590  1.00  0.00     0.184 C 
ATOM     17  C   UNL     1      21.618  26.786  22.537  1.00  0.00     0.178 C 
ATOM     18  O   UNL     1      20.825  26.840  21.430  1.00  0.00    -0.341 OA
ATOM     19  C   UNL     1      21.511  26.903  20.227  1.00  0.00     0.281 C 
ATOM     20  C   UNL     1      22.523  24.896  21.202  1.00  0.00     0.180 C 
ATOM     21  C   UNL     1      22.657  25.964  20.133  1.00  0.00     0.202 C 
BRANCH  17  22
ATOM     22  C   UNL     1      22.451  28.041  22.740  1.00  0.00     0.191 C 
BRANCH  22  23
ATOM     23  O   UNL     1      23.031  28.046  24.006  1.00  0.00    -0.394 OA
ATOM     24  H   UNL     1      22.608  28.677  24.632  1.00  0.00     0.210 HD
ENDBRANCH  22  23
ENDBRANCH  17  22
BRANCH  19  25
ATOM     25  O   UNL     1      21.956  28.208  19.968  1.00  0.00    -0.350 OA
BRANCH  25  26
ATOM     26  C   UNL     1      21.071  28.958  19.237  1.00  0.00     0.169 C 
BRANCH  26  27
ATOM     27  C   UNL     1      20.587  30.207  19.906  1.00  0.00     0.119 C 
BRANCH  27  28
ATOM     28  N   UNL     1      19.544  29.940  20.880  1.00  0.00    -0.092 NA
ATOM     29  N   UNL     1      18.586  29.192  20.601  1.00  0.00     0.001 N 
ATOM     30  N   UNL     1      17.764  28.382  20.156  1.00  0.00    -0.003 NA
ENDBRANCH  27  28
ENDBRANCH  26  27
ENDBRANCH  25  26
ENDBRANCH  19  25
BRANCH  20  31
ATOM     31  O   UNL     1      23.557  24.007  21.046  1.00  0.00    -0.387 OA
ATOM     32  H   UNL     1      23.915  23.941  20.124  1.00  0.00     0.211 HD
ENDBRANCH  20  31
BRANCH  21  33
ATOM     33  O   UNL     1      22.612  25.313  18.902  1.00  0.00    -0.385 OA
ATOM     34  H   UNL     1      22.941  24.374  18.981  1.00  0.00     0.211 HD
ENDBRANCH  21  33
ENDBRANCH  15  16
ENDBRANCH  10  15
BRANCH  12  35
ATOM     35  O   UNL     1      24.588  23.823  24.061  1.00  0.00    -0.385 OA
ATOM     36  H   UNL     1      24.951  23.088  24.642  1.00  0.00     0.211 HD
ENDBRANCH  12  35
BRANCH  13  37
ATOM     37  O   UNL     1      25.184  25.044  26.916  1.00  0.00    -0.387 OA
ATOM     38  H   UNL     1      25.345  24.823  27.869  1.00  0.00     0.211 HD
ENDBRANCH  13  37
BRANCH  14  39
ATOM     39  O   UNL     1      23.460  24.420  28.547  1.00  0.00    -0.387 OA
ATOM     40  H   UNL     1      23.628  25.372  28.739  1.00  0.00     0.211 HD
ENDBRANCH  14  39
ENDBRANCH   8   9
ENDBRANCH   7   8
ENDBRANCH   1   7
BRANCH   1  41
ATOM     41  C   UNL     1      24.574  28.386  28.599  1.00  0.00     0.364 C 
ATOM     42  O   UNL     1      25.429  27.515  28.412  1.00  0.00    -0.246 OA
BRANCH  41  43
ATOM     43  O   UNL     1      24.622  29.155  29.746  1.00  0.00    -0.477 OA
ATOM     44  H   UNL     1      24.728  30.154  29.765  1.00  0.00     0.296 HD
ENDBRANCH  41  43
ENDBRANCH   1  41
BRANCH   3  45
ATOM     45  O   UNL     1      20.435  29.323  27.023  1.00  0.00    -0.391 OA
ATOM     46  H   UNL     1      20.738  28.365  27.129  1.00  0.00     0.211 HD
ENDBRANCH   3  45
BRANCH   5  47
ATOM     47  C   UNL     1      24.637  31.289  25.508  1.00  0.00     0.176 C 
BRANCH  47  48
ATOM     48  O   UNL     1      24.170  30.864  24.210  1.00  0.00    -0.388 OA
ATOM     49  H   UNL     1      23.882  31.667  23.704  1.00  0.00     0.211 HD
ENDBRANCH  47  48
BRANCH  47  50
ATOM     50  C   UNL     1      26.078  30.820  25.482  1.00  0.00     0.165 C 
BRANCH  50  51
ATOM     51  O   UNL     1      26.782  32.018  25.889  1.00  0.00    -0.388 OA
ATOM     52  H   UNL     1      27.301  31.822  26.693  1.00  0.00     0.211 HD
ENDBRANCH  50  51
BRANCH  50  53
ATOM     53  C   UNL     1      26.574  30.612  24.072  1.00  0.00     0.154 C 
BRANCH  53  54
ATOM     54  N   UNL     1      26.542  29.267  23.583  1.00  0.00    -0.319 N 
ATOM     55  C   UNL     1      26.019  29.003  22.281  1.00  0.00     0.407 C 
ATOM     56  H   UNL     1      26.899  28.465  24.175  1.00  0.00     0.167 HD
ATOM     57  O   UNL     1      25.595  29.998  21.631  1.00  0.00    -0.225 OA
BRANCH  55  58
ATOM     58  O   UNL     1      25.970  27.724  21.740  1.00  0.00    -0.443 OA
BRANCH  58  59
ATOM     59  C   UNL     1      27.100  27.106  21.171  1.00  0.00     0.294 C 
BRANCH  59  60
ATOM     60  C   UNL     1      26.988  25.625  21.071  1.00  0.00     0.121 A 
ATOM     61  C   UNL     1      27.699  24.766  20.265  1.00  0.00     0.144 A 
ATOM     62  N   UNL     1      26.136  24.827  21.778  1.00  0.00    -0.131 NA
ATOM     63  N   UNL     1      27.282  23.509  20.488  1.00  0.00    -0.220 N 
ATOM     64  N   UNL     1      26.330  23.598  21.416  1.00  0.00    -0.062 NA
BRANCH  63  65
ATOM     65  C   UNL     1      27.731  22.288  19.871  1.00  0.00     0.072 A 
ATOM     66  C   UNL     1      28.370  21.382  20.681  1.00  0.00    -0.025 A 
ATOM     67  C   UNL     1      27.521  22.076  18.553  1.00  0.00    -0.025 A 
ATOM     68  C   UNL     1      28.585  21.657  22.143  1.00  0.00     0.047 C 
ATOM     69  C   UNL     1      28.812  20.207  20.107  1.00  0.00     0.009 A 
ATOM     70  C   UNL     1      27.988  20.871  18.016  1.00  0.00     0.009 A 
ATOM     71  C   UNL     1      26.833  23.031  17.646  1.00  0.00     0.047 C 
ATOM     72  C   UNL     1      28.633  19.927  18.776  1.00  0.00    -0.050 A 
ATOM     73  C   UNL     1      29.130  18.644  18.221  1.00  0.00     0.044 C 
ENDBRANCH  63  65
ENDBRANCH  59  60
ENDBRANCH  58  59
ENDBRANCH  55  58
ENDBRANCH  53  54
ENDBRANCH  50  53
ENDBRANCH  47  50
ENDBRANCH   5  47
BRANCH   4  74
ATOM     74  N   UNL     1      21.799  31.777  25.459  1.00  0.00    -0.348 N 
ATOM     75  C   UNL     1      20.770  31.792  24.473  1.00  0.00     0.217 C 
ATOM     76  H   UNL     1      22.194  32.697  25.725  1.00  0.00     0.163 HD
ATOM     77  C   UNL     1      20.301  33.058  23.832  1.00  0.00     0.114 C 
ATOM     78  O   UNL     1      20.263  30.702  24.158  1.00  0.00    -0.275 OA
ENDBRANCH   4  74
TORSDOF 30
