REMARK VINA RESULT:    -4.657      2.452      8.911
REMARK INTER + INTRA:         -21.158
REMARK INTER:                 -12.824
REMARK INTRA:                  -8.334
REMARK UNBOUND:                -8.334
REMARK SMILES CC[N+](C)(CC)CCCn1cc(COC(=O)NC[C@@H](O)C(O)[C@@H]2O[C@@](OC[C@H]3O[C@@H](O[C@H]4[C@H](O)[C@@H](O)[C@H](OCCN=[N+]=[N-])O[C@@H]4CO)[C@H](O)[C@@H](O)[C@H]3O)(C(=O)O)C[C@H](O)[C@H]2NC(C)=O)nn1
REMARK SMILES IDX 21 1 23 2 25 3 57 4 24 5 58 6 60 7 26 8 27 9 28 10 30 11
REMARK SMILES IDX 29 12 48 13 50 14 52 15 31 16 32 17 45 18 44 19 37 20 33 21
REMARK SMILES IDX 35 22 46 23 47 24 38 26 39 27 40 28 41 29 42 30 43 31 34 32
REMARK SMILES IDX 36 34 49 36 51 38 53 40 54 42 55 43 56 44 59 46 61 48 62 49
REMARK SMILES IDX 63 51 64 52 22 53 19 55 20 56 18 58 17 59 15 60 16 62 14 63
REMARK SMILES IDX 13 64 12 65 11 66 65 67 10 68 66 69 9 70 8 71 7 72 3 73 4 74
REMARK SMILES IDX 2 75 1 76 5 77 6 78
REMARK H PARENT 47 25 34 33 36 35 49 37 51 39 53 41 56 45 59 47 61 50 22 54
REMARK H PARENT 20 57 17 61
REMARK Flexibility Score: inf
ROOT
ATOM      1  C   UNL     1      25.743  27.625  25.861  1.00  0.00     0.176 C 
ENDROOT
BRANCH   1   2
ATOM      2  C   UNL     1      24.627  27.132  26.777  1.00  0.00     0.178 C 
ATOM      3  C   UNL     1      22.617  25.902  26.660  1.00  0.00     0.272 C 
ATOM      4  C   UNL     1      22.198  26.795  27.779  1.00  0.00     0.113 C 
ATOM      5  O   UNL     1      23.641  26.610  25.970  1.00  0.00    -0.332 OA
ATOM      6  C   UNL     1      22.625  28.224  27.572  1.00  0.00     0.145 C 
ATOM      7  C   UNL     1      24.150  28.269  27.622  1.00  0.00     0.142 C 
BRANCH   3   8
ATOM      8  O   UNL     1      21.656  25.729  25.687  1.00  0.00    -0.338 OA
BRANCH   8   9
ATOM      9  C   UNL     1      21.821  26.260  24.464  1.00  0.00     0.199 C 
BRANCH   9  10
ATOM     10  C   UNL     1      21.317  25.290  23.363  1.00  0.00     0.179 C 
ATOM     11  C   UNL     1      21.707  26.539  21.400  1.00  0.00     0.282 C 
ATOM     12  O   UNL     1      20.832  25.918  22.283  1.00  0.00    -0.341 OA
ATOM     13  C   UNL     1      23.025  25.872  21.286  1.00  0.00     0.202 C 
ATOM     14  C   UNL     1      22.739  24.377  21.551  1.00  0.00     0.179 C 
ATOM     15  C   UNL     1      22.444  24.311  23.033  1.00  0.00     0.177 C 
BRANCH  11  16
ATOM     16  O   UNL     1      21.730  27.922  21.628  1.00  0.00    -0.341 OA
BRANCH  16  17
ATOM     17  C   UNL     1      20.632  28.559  21.128  1.00  0.00     0.184 C 
ATOM     18  C   UNL     1      20.729  29.335  19.888  1.00  0.00     0.178 C 
ATOM     19  O   UNL     1      19.459  29.642  19.434  1.00  0.00    -0.341 OA
ATOM     20  C   UNL     1      18.419  29.607  20.291  1.00  0.00     0.281 C 
ATOM     21  C   UNL     1      20.053  29.535  22.178  1.00  0.00     0.180 C 
ATOM     22  C   UNL     1      18.687  29.980  21.727  1.00  0.00     0.202 C 
BRANCH  18  23
ATOM     23  C   UNL     1      21.479  28.685  18.741  1.00  0.00     0.191 C 
BRANCH  23  24
ATOM     24  O   UNL     1      20.760  27.677  18.113  1.00  0.00    -0.394 OA
ATOM     25  H   UNL     1      20.452  27.055  18.848  1.00  0.00     0.210 HD
ENDBRANCH  23  24
ENDBRANCH  18  23
BRANCH  20  26
ATOM     26  O   UNL     1      17.710  28.424  20.174  1.00  0.00    -0.350 OA
BRANCH  26  27
ATOM     27  C   UNL     1      16.415  28.540  19.791  1.00  0.00     0.169 C 
BRANCH  27  28
ATOM     28  C   UNL     1      16.215  29.398  18.558  1.00  0.00     0.119 C 
BRANCH  28  29
ATOM     29  N   UNL     1      16.523  28.616  17.372  1.00  0.00    -0.092 NA
ATOM     30  N   UNL     1      17.593  28.702  16.773  1.00  0.00     0.001 N 
ATOM     31  N   UNL     1      18.667  28.754  16.171  1.00  0.00    -0.003 NA
ENDBRANCH  28  29
ENDBRANCH  27  28
ENDBRANCH  26  27
ENDBRANCH  20  26
BRANCH  21  32
ATOM     32  O   UNL     1      20.091  28.882  23.388  1.00  0.00    -0.387 OA
ATOM     33  H   UNL     1      20.860  29.075  23.948  1.00  0.00     0.211 HD
ENDBRANCH  21  32
BRANCH  22  34
ATOM     34  O   UNL     1      18.558  31.338  21.967  1.00  0.00    -0.385 OA
ATOM     35  H   UNL     1      17.942  31.558  22.715  1.00  0.00     0.211 HD
ENDBRANCH  22  34
ENDBRANCH  16  17
ENDBRANCH  11  16
BRANCH  13  36
ATOM     36  O   UNL     1      23.578  25.929  19.998  1.00  0.00    -0.385 OA
ATOM     37  H   UNL     1      24.373  25.353  20.001  1.00  0.00     0.211 HD
ENDBRANCH  13  36
BRANCH  14  38
ATOM     38  O   UNL     1      23.874  23.627  21.243  1.00  0.00    -0.387 OA
ATOM     39  H   UNL     1      24.247  23.317  22.093  1.00  0.00     0.211 HD
ENDBRANCH  14  38
BRANCH  15  40
ATOM     40  O   UNL     1      23.589  24.783  23.672  1.00  0.00    -0.387 OA
ATOM     41  H   UNL     1      24.415  24.337  23.432  1.00  0.00     0.211 HD
ENDBRANCH  15  40
ENDBRANCH   9  10
ENDBRANCH   8   9
ENDBRANCH   3   8
BRANCH   3  42
ATOM     42  C   UNL     1      23.139  24.590  27.079  1.00  0.00     0.364 C 
ATOM     43  O   UNL     1      22.659  23.970  28.054  1.00  0.00    -0.246 OA
BRANCH  42  44
ATOM     44  O   UNL     1      24.182  23.998  26.410  1.00  0.00    -0.477 OA
ATOM     45  H   UNL     1      24.697  24.454  25.659  1.00  0.00     0.296 HD
ENDBRANCH  42  44
ENDBRANCH   3  42
BRANCH   6  46
ATOM     46  O   UNL     1      22.190  28.761  26.384  1.00  0.00    -0.391 OA
ATOM     47  H   UNL     1      21.186  28.776  26.323  1.00  0.00     0.211 HD
ENDBRANCH   6  46
BRANCH   7  48
ATOM     48  N   UNL     1      24.483  27.983  29.028  1.00  0.00    -0.348 N 
ATOM     49  C   UNL     1      25.492  28.714  29.714  1.00  0.00     0.217 C 
ATOM     50  H   UNL     1      24.012  27.243  29.587  1.00  0.00     0.163 HD
ATOM     51  C   UNL     1      25.858  28.463  31.130  1.00  0.00     0.114 C 
ATOM     52  O   UNL     1      26.094  29.609  29.095  1.00  0.00    -0.275 OA
ENDBRANCH   7  48
ENDBRANCH   1   2
BRANCH   1  53
ATOM     53  O   UNL     1      26.095  28.959  26.261  1.00  0.00    -0.388 OA
ATOM     54  H   UNL     1      26.479  28.881  27.173  1.00  0.00     0.211 HD
ENDBRANCH   1  53
BRANCH   1  55
ATOM     55  C   UNL     1      25.273  27.723  24.446  1.00  0.00     0.165 C 
BRANCH  55  56
ATOM     56  O   UNL     1      25.698  26.452  23.876  1.00  0.00    -0.388 OA
ATOM     57  H   UNL     1      26.637  26.292  24.200  1.00  0.00     0.211 HD
ENDBRANCH  55  56
BRANCH  55  58
ATOM     58  C   UNL     1      25.845  28.798  23.599  1.00  0.00     0.154 C 
BRANCH  58  59
ATOM     59  N   UNL     1      26.593  28.540  22.453  1.00  0.00    -0.319 N 
ATOM     60  C   UNL     1      26.148  28.437  21.114  1.00  0.00     0.407 C 
ATOM     61  H   UNL     1      27.676  28.391  22.588  1.00  0.00     0.167 HD
ATOM     62  O   UNL     1      24.964  28.573  20.769  1.00  0.00    -0.225 OA
BRANCH  60  63
ATOM     63  O   UNL     1      27.077  28.153  20.084  1.00  0.00    -0.443 OA
BRANCH  63  64
ATOM     64  C   UNL     1      28.099  27.184  20.385  1.00  0.00     0.294 C 
BRANCH  64  65
ATOM     65  C   UNL     1      27.497  25.893  19.883  1.00  0.00     0.120 A 
ATOM     66  C   UNL     1      27.953  25.122  18.840  1.00  0.00     0.138 A 
ATOM     67  N   UNL     1      26.448  25.221  20.369  1.00  0.00    -0.132 NA
ATOM     68  N   UNL     1      27.163  24.006  18.736  1.00  0.00    -0.252 N 
ATOM     69  N   UNL     1      26.255  24.109  19.689  1.00  0.00    -0.067 NA
BRANCH  68  70
ATOM     70  C   UNL     1      27.348  22.923  17.787  1.00  0.00     0.152 C 
BRANCH  70  71
ATOM     71  C   UNL     1      27.637  21.638  18.435  1.00  0.00     0.085 C 
BRANCH  71  72
ATOM     72  C   UNL     1      29.026  21.219  18.686  1.00  0.00     0.265 C 
BRANCH  72  73
ATOM     73  N   UNL     1      29.484  21.113  20.031  1.00  0.00    -0.326 N 
ATOM     74  C   UNL     1      30.370  22.201  20.344  1.00  0.00     0.334 C 
BRANCH  73  75
ATOM     75  C   UNL     1      30.066  19.852  20.392  1.00  0.00     0.260 C 
ATOM     76  C   UNL     1      29.036  18.790  20.700  1.00  0.00     0.071 C 
ENDBRANCH  73  75
BRANCH  73  77
ATOM     77  C   UNL     1      28.299  21.324  20.879  1.00  0.00     0.260 C 
ATOM     78  C   UNL     1      28.487  22.352  21.937  1.00  0.00     0.071 C 
ENDBRANCH  73  77
ENDBRANCH  72  73
ENDBRANCH  71  72
ENDBRANCH  70  71
ENDBRANCH  68  70
ENDBRANCH  64  65
ENDBRANCH  63  64
ENDBRANCH  60  63
ENDBRANCH  58  59
ENDBRANCH  55  58
ENDBRANCH   1  55
TORSDOF 35
