REMARK VINA RESULT:    -6.130      4.094     10.768
REMARK INTER + INTRA:         -21.895
REMARK INTER:                 -14.208
REMARK INTRA:                  -7.687
REMARK UNBOUND:                -6.268
REMARK SMILES CC(=O)N[C@@H]1[C@@H](O)C[C@](OC[C@H]2O[C@@H](O[C@H]3[C@H](O)[C@@H](O)[C@H](OCCN=[N+]=[N-])O[C@@H]3CO)[C@H](O)[C@@H](O)[C@H]2O)(C(=O)O)O[C@H]1C(O)[C@H](O)CNC(=O)OCc1cn(C(C)(C)CO)nn1
REMARK SMILES IDX 9 1 8 2 6 3 5 4 42 5 41 6 10 7 11 8 12 9 14 10 13 11 32 12
REMARK SMILES IDX 34 13 36 14 15 15 16 16 29 17 28 18 21 19 17 20 19 21 30 22
REMARK SMILES IDX 31 23 22 25 23 26 24 27 25 28 26 29 27 30 18 31 20 33 33 35
REMARK SMILES IDX 35 37 37 39 38 41 39 42 40 43 7 45 43 47 44 48 45 50 46 51
REMARK SMILES IDX 47 53 48 54 49 55 50 57 51 58 52 59 53 60 54 61 62 62 55 63
REMARK SMILES IDX 61 64 56 65 57 66 58 67 59 68 60 69 4 71 2 72 1 74 3 75
REMARK H PARENT 31 24 18 32 20 34 33 36 35 38 37 40 40 44 7 46 44 49 46 52
REMARK H PARENT 48 56 60 70 4 73
REMARK Flexibility Score: inf
ROOT
ATOM      1  C   UNL     1      22.026  28.742  24.356  1.00  0.00     0.272 C 
ATOM      2  C   UNL     1      23.067  28.759  25.444  1.00  0.00     0.113 C 
ATOM      3  C   UNL     1      23.923  27.526  25.280  1.00  0.00     0.145 C 
ATOM      4  C   UNL     1      23.012  26.347  25.696  1.00  0.00     0.142 C 
ATOM      5  C   UNL     1      21.769  26.452  24.864  1.00  0.00     0.178 C 
ATOM      6  O   UNL     1      21.874  27.393  23.858  1.00  0.00    -0.332 OA
ENDROOT
BRANCH   1   7
ATOM      7  O   UNL     1      22.380  29.423  23.237  1.00  0.00    -0.338 OA
BRANCH   7   8
ATOM      8  C   UNL     1      22.629  30.721  23.203  1.00  0.00     0.199 C 
BRANCH   8   9
ATOM      9  C   UNL     1      21.945  31.703  22.343  1.00  0.00     0.179 C 
ATOM     10  C   UNL     1      20.571  31.784  20.492  1.00  0.00     0.282 C 
ATOM     11  O   UNL     1      21.005  30.992  21.522  1.00  0.00    -0.341 OA
ATOM     12  C   UNL     1      20.731  33.251  20.669  1.00  0.00     0.202 C 
ATOM     13  C   UNL     1      20.617  33.719  22.103  1.00  0.00     0.179 C 
ATOM     14  C   UNL     1      21.033  32.672  23.086  1.00  0.00     0.177 C 
BRANCH  10  15
ATOM     15  O   UNL     1      19.264  31.398  20.182  1.00  0.00    -0.341 OA
BRANCH  15  16
ATOM     16  C   UNL     1      18.878  30.217  20.769  1.00  0.00     0.184 C 
ATOM     17  C   UNL     1      18.725  29.074  19.790  1.00  0.00     0.178 C 
ATOM     18  O   UNL     1      17.567  28.347  19.968  1.00  0.00    -0.341 OA
ATOM     19  C   UNL     1      16.395  29.034  19.805  1.00  0.00     0.281 C 
ATOM     20  C   UNL     1      17.495  30.488  21.391  1.00  0.00     0.180 C 
ATOM     21  C   UNL     1      16.551  30.485  20.203  1.00  0.00     0.202 C 
BRANCH  17  22
ATOM     22  C   UNL     1      19.882  28.125  20.076  1.00  0.00     0.191 C 
BRANCH  22  23
ATOM     23  O   UNL     1      20.217  28.192  21.429  1.00  0.00    -0.394 OA
ATOM     24  H   UNL     1      21.117  27.872  21.626  1.00  0.00     0.210 HD
ENDBRANCH  22  23
ENDBRANCH  17  22
BRANCH  19  25
ATOM     25  O   UNL     1      15.423  28.383  20.542  1.00  0.00    -0.350 OA
BRANCH  25  26
ATOM     26  C   UNL     1      14.158  28.865  20.413  1.00  0.00     0.169 C 
BRANCH  26  27
ATOM     27  C   UNL     1      13.416  29.027  21.730  1.00  0.00     0.119 C 
BRANCH  27  28
ATOM     28  N   UNL     1      13.982  30.103  22.520  1.00  0.00    -0.092 NA
ATOM     29  N   UNL     1      14.512  29.801  23.598  1.00  0.00     0.001 N 
ATOM     30  N   UNL     1      15.364  29.579  24.486  1.00  0.00    -0.003 NA
ENDBRANCH  27  28
ENDBRANCH  26  27
ENDBRANCH  25  26
ENDBRANCH  19  25
BRANCH  20  31
ATOM     31  O   UNL     1      17.262  29.411  22.251  1.00  0.00    -0.387 OA
ATOM     32  H   UNL     1      17.243  29.802  23.165  1.00  0.00     0.211 HD
ENDBRANCH  20  31
BRANCH  21  33
ATOM     33  O   UNL     1      17.214  31.132  19.147  1.00  0.00    -0.385 OA
ATOM     34  H   UNL     1      18.051  30.631  18.910  1.00  0.00     0.211 HD
ENDBRANCH  21  33
ENDBRANCH  15  16
ENDBRANCH  10  15
BRANCH  12  35
ATOM     35  O   UNL     1      21.861  33.789  20.050  1.00  0.00    -0.385 OA
ATOM     36  H   UNL     1      22.608  33.196  20.263  1.00  0.00     0.211 HD
ENDBRANCH  12  35
BRANCH  13  37
ATOM     37  O   UNL     1      19.319  34.184  22.378  1.00  0.00    -0.387 OA
ATOM     38  H   UNL     1      18.875  33.613  23.060  1.00  0.00     0.211 HD
ENDBRANCH  13  37
BRANCH  14  39
ATOM     39  O   UNL     1      19.866  31.947  23.422  1.00  0.00    -0.387 OA
ATOM     40  H   UNL     1      19.335  32.456  24.069  1.00  0.00     0.211 HD
ENDBRANCH  14  39
ENDBRANCH   8   9
ENDBRANCH   7   8
ENDBRANCH   1   7
BRANCH   1  41
ATOM     41  C   UNL     1      20.684  29.051  24.848  1.00  0.00     0.364 C 
ATOM     42  O   UNL     1      19.695  29.070  24.112  1.00  0.00    -0.246 OA
BRANCH  41  43
ATOM     43  O   UNL     1      20.430  29.352  26.198  1.00  0.00    -0.477 OA
ATOM     44  H   UNL     1      19.569  28.991  26.594  1.00  0.00     0.296 HD
ENDBRANCH  41  43
ENDBRANCH   1  41
BRANCH   3  45
ATOM     45  O   UNL     1      24.133  27.342  23.911  1.00  0.00    -0.391 OA
ATOM     46  H   UNL     1      24.242  26.395  23.690  1.00  0.00     0.211 HD
ENDBRANCH   3  45
BRANCH   5  47
ATOM     47  C   UNL     1      21.661  25.117  24.105  1.00  0.00     0.176 C 
BRANCH  47  48
ATOM     48  O   UNL     1      22.825  24.359  24.379  1.00  0.00    -0.388 OA
ATOM     49  H   UNL     1      23.193  24.558  25.256  1.00  0.00     0.211 HD
ENDBRANCH  47  48
BRANCH  47  50
ATOM     50  C   UNL     1      21.698  25.318  22.599  1.00  0.00     0.165 C 
BRANCH  50  51
ATOM     51  O   UNL     1      20.467  25.414  22.037  1.00  0.00    -0.388 OA
ATOM     52  H   UNL     1      20.178  24.651  21.484  1.00  0.00     0.211 HD
ENDBRANCH  50  51
BRANCH  50  53
ATOM     53  C   UNL     1      22.509  24.214  21.951  1.00  0.00     0.154 C 
BRANCH  53  54
ATOM     54  N   UNL     1      23.739  24.605  21.368  1.00  0.00    -0.319 N 
ATOM     55  C   UNL     1      24.997  24.182  21.810  1.00  0.00     0.407 C 
ATOM     56  H   UNL     1      23.730  25.276  20.524  1.00  0.00     0.167 HD
ATOM     57  O   UNL     1      25.138  23.402  22.765  1.00  0.00    -0.225 OA
BRANCH  55  58
ATOM     58  O   UNL     1      26.186  24.628  21.184  1.00  0.00    -0.443 OA
BRANCH  58  59
ATOM     59  C   UNL     1      26.550  24.178  19.899  1.00  0.00     0.294 C 
BRANCH  59  60
ATOM     60  C   UNL     1      27.298  22.904  19.907  1.00  0.00     0.120 A 
ATOM     61  C   UNL     1      27.966  22.331  20.970  1.00  0.00     0.139 A 
ATOM     62  N   UNL     1      27.468  22.058  18.879  1.00  0.00    -0.132 NA
ATOM     63  N   UNL     1      28.520  21.161  20.564  1.00  0.00    -0.244 N 
ATOM     64  N   UNL     1      28.201  21.020  19.288  1.00  0.00    -0.066 NA
BRANCH  63  65
ATOM     65  C   UNL     1      29.295  20.269  21.389  1.00  0.00     0.082 C 
ATOM     66  C   UNL     1      29.324  20.780  22.799  1.00  0.00     0.039 C 
ATOM     67  C   UNL     1      30.750  20.230  20.900  1.00  0.00     0.039 C 
BRANCH  65  68
ATOM     68  C   UNL     1      28.795  18.853  21.388  1.00  0.00     0.186 C 
BRANCH  68  69
ATOM     69  O   UNL     1      29.227  18.117  20.309  1.00  0.00    -0.394 OA
ATOM     70  H   UNL     1      28.751  17.287  20.154  1.00  0.00     0.210 HD
ENDBRANCH  68  69
ENDBRANCH  65  68
ENDBRANCH  63  65
ENDBRANCH  59  60
ENDBRANCH  58  59
ENDBRANCH  55  58
ENDBRANCH  53  54
ENDBRANCH  50  53
ENDBRANCH  47  50
ENDBRANCH   5  47
BRANCH   4  71
ATOM     71  N   UNL     1      22.825  26.487  27.105  1.00  0.00    -0.348 N 
ATOM     72  C   UNL     1      22.598  25.438  28.027  1.00  0.00     0.217 C 
ATOM     73  H   UNL     1      22.847  27.455  27.543  1.00  0.00     0.163 HD
ATOM     74  C   UNL     1      22.411  25.685  29.483  1.00  0.00     0.114 C 
ATOM     75  O   UNL     1      22.551  24.267  27.617  1.00  0.00    -0.275 OA
ENDBRANCH   4  71
TORSDOF 32
