REMARK VINA RESULT:    -5.363      2.128      6.454
REMARK INTER + INTRA:         -20.531
REMARK INTER:                 -14.094
REMARK INTRA:                  -6.436
REMARK UNBOUND:                -6.390
REMARK SMILES CCOC(=O)Cn1cc(COC(=O)NC[C@@H](O)C(O)[C@@H]2O[C@@](OC[C@H]3O[C@@H](O[C@H]4[C@H](O)[C@@H](O)[C@H](OCCN=[N+]=[N-])O[C@@H]4CO)[C@H](O)[C@@H](O)[C@H]3O)(C(=O)O)C[C@H](O)[C@H]2NC(C)=O)nn1
REMARK SMILES IDX 18 1 20 2 22 3 54 4 21 5 55 6 57 7 23 8 24 9 25 10 27 11
REMARK SMILES IDX 26 12 45 13 47 14 49 15 28 16 29 17 42 18 41 19 34 20 30 21
REMARK SMILES IDX 32 22 43 23 44 24 35 26 36 27 37 28 38 29 39 30 40 31 31 32
REMARK SMILES IDX 33 34 46 36 48 38 50 40 51 42 52 43 53 44 56 46 58 48 59 49
REMARK SMILES IDX 60 51 61 52 19 53 16 55 17 56 15 58 14 59 12 60 13 62 11 63
REMARK SMILES IDX 10 64 9 65 8 66 62 67 7 68 63 69 6 70 4 71 5 72 3 73 2 74
REMARK SMILES IDX 1 75
REMARK H PARENT 44 25 31 33 33 35 46 37 48 39 50 41 53 45 56 47 58 50 19 54
REMARK H PARENT 17 57 14 61
REMARK Flexibility Score: inf
ROOT
ATOM      1  C   UNL     1      19.871  30.544  21.460  1.00  0.00     0.176 C 
ENDROOT
BRANCH   1   2
ATOM      2  C   UNL     1      20.488  30.743  22.816  1.00  0.00     0.178 C 
ATOM      3  C   UNL     1      21.738  29.610  24.436  1.00  0.00     0.272 C 
ATOM      4  C   UNL     1      21.332  30.773  25.274  1.00  0.00     0.113 C 
ATOM      5  O   UNL     1      21.478  29.829  23.065  1.00  0.00    -0.332 OA
ATOM      6  C   UNL     1      19.892  31.151  25.140  1.00  0.00     0.145 C 
ATOM      7  C   UNL     1      19.372  30.577  23.832  1.00  0.00     0.142 C 
BRANCH   3   8
ATOM      8  O   UNL     1      21.195  28.396  24.799  1.00  0.00    -0.338 OA
BRANCH   8   9
ATOM      9  C   UNL     1      21.039  28.128  26.115  1.00  0.00     0.199 C 
BRANCH   9  10
ATOM     10  C   UNL     1      21.429  26.656  26.356  1.00  0.00     0.179 C 
ATOM     11  C   UNL     1      22.718  24.922  25.511  1.00  0.00     0.282 C 
ATOM     12  O   UNL     1      22.106  26.138  25.298  1.00  0.00    -0.341 OA
ATOM     13  C   UNL     1      23.580  24.883  26.736  1.00  0.00     0.202 C 
ATOM     14  C   UNL     1      22.681  25.150  27.915  1.00  0.00     0.179 C 
ATOM     15  C   UNL     1      22.065  26.492  27.704  1.00  0.00     0.177 C 
BRANCH  11  16
ATOM     16  O   UNL     1      23.475  24.500  24.432  1.00  0.00    -0.341 OA
BRANCH  16  17
ATOM     17  C   UNL     1      23.238  25.157  23.252  1.00  0.00     0.184 C 
ATOM     18  C   UNL     1      22.270  24.431  22.343  1.00  0.00     0.178 C 
ATOM     19  O   UNL     1      22.906  23.922  21.220  1.00  0.00    -0.341 OA
ATOM     20  C   UNL     1      23.400  24.948  20.381  1.00  0.00     0.281 C 
ATOM     21  C   UNL     1      24.556  25.343  22.501  1.00  0.00     0.180 C 
ATOM     22  C   UNL     1      24.195  25.952  21.154  1.00  0.00     0.202 C 
BRANCH  18  23
ATOM     23  C   UNL     1      21.094  25.318  22.025  1.00  0.00     0.191 C 
BRANCH  23  24
ATOM     24  O   UNL     1      21.146  26.507  22.775  1.00  0.00    -0.394 OA
ATOM     25  H   UNL     1      21.435  26.337  23.693  1.00  0.00     0.210 HD
ENDBRANCH  23  24
ENDBRANCH  18  23
BRANCH  20  26
ATOM     26  O   UNL     1      22.382  25.519  19.663  1.00  0.00    -0.350 OA
BRANCH  26  27
ATOM     27  C   UNL     1      22.654  26.233  18.546  1.00  0.00     0.169 C 
BRANCH  27  28
ATOM     28  C   UNL     1      23.009  25.525  17.292  1.00  0.00     0.119 C 
BRANCH  28  29
ATOM     29  N   UNL     1      21.988  25.368  16.313  1.00  0.00    -0.092 NA
ATOM     30  N   UNL     1      22.222  24.822  15.215  1.00  0.00     0.001 N 
ATOM     31  N   UNL     1      22.613  24.085  14.292  1.00  0.00    -0.003 NA
ENDBRANCH  28  29
ENDBRANCH  27  28
ENDBRANCH  26  27
ENDBRANCH  20  26
BRANCH  21  32
ATOM     32  O   UNL     1      25.371  26.224  23.215  1.00  0.00    -0.387 OA
ATOM     33  H   UNL     1      25.848  26.790  22.532  1.00  0.00     0.211 HD
ENDBRANCH  21  32
BRANCH  22  34
ATOM     34  O   UNL     1      25.365  26.346  20.499  1.00  0.00    -0.385 OA
ATOM     35  H   UNL     1      25.229  27.094  19.867  1.00  0.00     0.211 HD
ENDBRANCH  22  34
ENDBRANCH  16  17
ENDBRANCH  11  16
BRANCH  13  36
ATOM     36  O   UNL     1      24.149  23.619  26.840  1.00  0.00    -0.385 OA
ATOM     37  H   UNL     1      25.070  23.598  27.139  1.00  0.00     0.211 HD
ENDBRANCH  13  36
BRANCH  14  38
ATOM     38  O   UNL     1      23.491  25.190  29.072  1.00  0.00    -0.387 OA
ATOM     39  H   UNL     1      23.395  24.350  29.587  1.00  0.00     0.211 HD
ENDBRANCH  14  38
BRANCH  15  40
ATOM     40  O   UNL     1      23.077  27.457  27.916  1.00  0.00    -0.387 OA
ATOM     41  H   UNL     1      22.875  28.174  27.253  1.00  0.00     0.211 HD
ENDBRANCH  15  40
ENDBRANCH   9  10
ENDBRANCH   8   9
ENDBRANCH   3   8
BRANCH   3  42
ATOM     42  C   UNL     1      23.217  29.514  24.493  1.00  0.00     0.364 C 
ATOM     43  O   UNL     1      23.900  30.558  24.591  1.00  0.00    -0.246 OA
BRANCH  42  44
ATOM     44  O   UNL     1      23.843  28.301  24.437  1.00  0.00    -0.477 OA
ATOM     45  H   UNL     1      24.836  28.191  24.627  1.00  0.00     0.296 HD
ENDBRANCH  42  44
ENDBRANCH   3  42
BRANCH   6  46
ATOM     46  O   UNL     1      19.098  30.812  26.209  1.00  0.00    -0.391 OA
ATOM     47  H   UNL     1      19.574  31.062  27.050  1.00  0.00     0.211 HD
ENDBRANCH   6  46
BRANCH   7  48
ATOM     48  N   UNL     1      18.164  31.272  23.409  1.00  0.00    -0.348 N 
ATOM     49  C   UNL     1      16.907  30.625  23.341  1.00  0.00     0.217 C 
ATOM     50  H   UNL     1      18.229  32.272  23.155  1.00  0.00     0.163 HD
ATOM     51  C   UNL     1      15.662  31.326  22.909  1.00  0.00     0.114 C 
ATOM     52  O   UNL     1      16.850  29.406  23.661  1.00  0.00    -0.275 OA
ENDBRANCH   7  48
ENDBRANCH   1   2
BRANCH   1  53
ATOM     53  O   UNL     1      20.631  31.155  20.483  1.00  0.00    -0.388 OA
ATOM     54  H   UNL     1      20.198  31.969  20.095  1.00  0.00     0.211 HD
ENDBRANCH   1  53
BRANCH   1  55
ATOM     55  C   UNL     1      19.695  29.080  21.096  1.00  0.00     0.165 C 
BRANCH  55  56
ATOM     56  O   UNL     1      20.872  28.470  20.735  1.00  0.00    -0.388 OA
ATOM     57  H   UNL     1      21.335  28.902  19.981  1.00  0.00     0.211 HD
ENDBRANCH  55  56
BRANCH  55  58
ATOM     58  C   UNL     1      18.670  28.981  20.016  1.00  0.00     0.154 C 
BRANCH  58  59
ATOM     59  N   UNL     1      17.324  29.045  20.463  1.00  0.00    -0.319 N 
ATOM     60  C   UNL     1      16.295  28.131  20.112  1.00  0.00     0.407 C 
ATOM     61  H   UNL     1      17.013  29.839  21.126  1.00  0.00     0.167 HD
ATOM     62  O   UNL     1      16.501  27.162  19.362  1.00  0.00    -0.225 OA
BRANCH  60  63
ATOM     63  O   UNL     1      15.002  28.322  20.632  1.00  0.00    -0.443 OA
BRANCH  63  64
ATOM     64  C   UNL     1      14.256  29.443  20.292  1.00  0.00     0.294 C 
BRANCH  64  65
ATOM     65  C   UNL     1      14.585  30.011  18.971  1.00  0.00     0.120 A 
ATOM     66  C   UNL     1      14.026  29.650  17.760  1.00  0.00     0.139 A 
ATOM     67  N   UNL     1      15.481  30.963  18.679  1.00  0.00    -0.132 NA
ATOM     68  N   UNL     1      14.591  30.382  16.770  1.00  0.00    -0.241 N 
ATOM     69  N   UNL     1      15.465  31.166  17.364  1.00  0.00    -0.066 NA
BRANCH  68  70
ATOM     70  C   UNL     1      14.252  30.266  15.357  1.00  0.00     0.268 C 
BRANCH  70  71
ATOM     71  C   UNL     1      14.911  29.013  14.842  1.00  0.00     0.327 C 
ATOM     72  O   UNL     1      14.294  28.171  14.162  1.00  0.00    -0.250 OA
BRANCH  71  73
ATOM     73  O   UNL     1      16.243  28.745  15.108  1.00  0.00    -0.465 OA
BRANCH  73  74
ATOM     74  C   UNL     1      17.323  29.392  14.499  1.00  0.00     0.229 C 
ATOM     75  C   UNL     1      18.634  29.134  15.200  1.00  0.00     0.049 C 
ENDBRANCH  73  74
ENDBRANCH  71  73
ENDBRANCH  70  71
ENDBRANCH  68  70
ENDBRANCH  64  65
ENDBRANCH  63  64
ENDBRANCH  60  63
ENDBRANCH  58  59
ENDBRANCH  55  58
ENDBRANCH   1  55
TORSDOF 33
