REMARK VINA RESULT:    -5.846      5.863     11.682
REMARK INTER + INTRA:         -21.840
REMARK INTER:                 -14.217
REMARK INTRA:                  -7.623
REMARK UNBOUND:                -6.938
REMARK SMILES CC(=O)N[C@@H]1[C@@H](O)C[C@](OC[C@H]2O[C@@H](O[C@H]3[C@H](O)[C@@H](O)[C@H](OCCN=[N+]=[N-])O[C@@H]3CO)[C@H](O)[C@@H](O)[C@H]2O)(C(=O)O)O[C@H]1C(O)[C@H](O)CNC(=O)OCc1cn(Cc2cc(Br)cc(Br)c2O)nn1
REMARK SMILES IDX 9 1 8 2 6 3 5 4 42 5 41 6 10 7 11 8 12 9 14 10 13 11 32 12
REMARK SMILES IDX 34 13 36 14 15 15 16 16 29 17 28 18 21 19 17 20 19 21 30 22
REMARK SMILES IDX 31 23 22 25 23 26 24 27 25 28 26 29 27 30 18 31 20 33 33 35
REMARK SMILES IDX 35 37 37 39 38 41 39 42 40 43 7 45 43 47 44 48 45 50 46 51
REMARK SMILES IDX 47 53 48 54 49 55 50 57 51 58 52 59 53 60 54 61 67 62 55 63
REMARK SMILES IDX 66 64 56 65 57 66 58 67 64 68 59 69 62 70 60 71 61 72 63 73
REMARK SMILES IDX 65 74 4 76 2 77 1 79 3 80
REMARK H PARENT 31 24 18 32 20 34 33 36 35 38 37 40 40 44 7 46 44 49 46 52
REMARK H PARENT 48 56 65 75 4 78
REMARK Flexibility Score: inf
ROOT
ATOM      1  C   UNL     1      13.383  32.599  20.306  1.00  0.00     0.272 C 
ATOM      2  C   UNL     1      11.897  32.487  19.715  1.00  0.00     0.113 C 
ATOM      3  C   UNL     1      11.658  33.568  18.742  1.00  0.00     0.145 C 
ATOM      4  C   UNL     1      12.707  33.541  17.661  1.00  0.00     0.142 C 
ATOM      5  C   UNL     1      13.973  32.818  18.012  1.00  0.00     0.178 C 
ATOM      6  O   UNL     1      14.234  32.472  19.267  1.00  0.00    -0.332 OA
ENDROOT
BRANCH   1   7
ATOM      7  O   UNL     1      13.397  31.493  21.087  1.00  0.00    -0.338 OA
BRANCH   7   8
ATOM      8  C   UNL     1      13.172  30.254  20.696  1.00  0.00     0.199 C 
BRANCH   8   9
ATOM      9  C   UNL     1      13.333  29.097  21.619  1.00  0.00     0.179 C 
ATOM     10  C   UNL     1      15.639  29.238  21.920  1.00  0.00     0.282 C 
ATOM     11  O   UNL     1      14.552  28.514  21.554  1.00  0.00    -0.341 OA
ATOM     12  C   UNL     1      15.411  30.036  23.162  1.00  0.00     0.202 C 
ATOM     13  C   UNL     1      14.207  29.529  23.908  1.00  0.00     0.179 C 
ATOM     14  C   UNL     1      12.971  29.466  23.060  1.00  0.00     0.177 C 
BRANCH  10  15
ATOM     15  O   UNL     1      16.125  30.000  20.846  1.00  0.00    -0.341 OA
BRANCH  15  16
ATOM     16  C   UNL     1      17.179  29.424  20.175  1.00  0.00     0.184 C 
ATOM     17  C   UNL     1      18.327  30.393  20.006  1.00  0.00     0.178 C 
ATOM     18  O   UNL     1      19.295  29.977  19.137  1.00  0.00    -0.341 OA
ATOM     19  C   UNL     1      19.262  28.642  18.775  1.00  0.00     0.281 C 
ATOM     20  C   UNL     1      16.790  29.051  18.740  1.00  0.00     0.180 C 
ATOM     21  C   UNL     1      17.932  28.216  18.214  1.00  0.00     0.202 C 
BRANCH  17  22
ATOM     22  C   UNL     1      18.947  30.799  21.326  1.00  0.00     0.191 C 
BRANCH  22  23
ATOM     23  O   UNL     1      18.971  29.749  22.218  1.00  0.00    -0.394 OA
ATOM     24  H   UNL     1      18.281  29.098  21.951  1.00  0.00     0.210 HD
ENDBRANCH  22  23
ENDBRANCH  17  22
BRANCH  19  25
ATOM     25  O   UNL     1      19.658  27.874  19.858  1.00  0.00    -0.350 OA
BRANCH  25  26
ATOM     26  C   UNL     1      21.018  27.901  20.015  1.00  0.00     0.169 C 
BRANCH  26  27
ATOM     27  C   UNL     1      21.615  26.750  20.750  1.00  0.00     0.119 C 
BRANCH  27  28
ATOM     28  N   UNL     1      20.744  26.226  21.782  1.00  0.00    -0.092 NA
ATOM     29  N   UNL     1      21.058  25.298  22.500  1.00  0.00     0.001 N 
ATOM     30  N   UNL     1      21.324  24.565  23.450  1.00  0.00    -0.003 NA
ENDBRANCH  27  28
ENDBRANCH  26  27
ENDBRANCH  25  26
ENDBRANCH  19  25
BRANCH  20  31
ATOM     31  O   UNL     1      15.574  28.431  18.645  1.00  0.00    -0.387 OA
ATOM     32  H   UNL     1      15.012  29.010  18.037  1.00  0.00     0.211 HD
ENDBRANCH  20  31
BRANCH  21  33
ATOM     33  O   UNL     1      17.988  28.241  16.825  1.00  0.00    -0.385 OA
ATOM     34  H   UNL     1      18.703  28.826  16.520  1.00  0.00     0.211 HD
ENDBRANCH  21  33
ENDBRANCH  15  16
ENDBRANCH  10  15
BRANCH  12  35
ATOM     35  O   UNL     1      16.568  29.906  23.969  1.00  0.00    -0.385 OA
ATOM     36  H   UNL     1      16.763  28.939  23.975  1.00  0.00     0.211 HD
ENDBRANCH  12  35
BRANCH  13  37
ATOM     37  O   UNL     1      13.975  30.250  25.079  1.00  0.00    -0.387 OA
ATOM     38  H   UNL     1      13.529  29.621  25.700  1.00  0.00     0.211 HD
ENDBRANCH  13  37
BRANCH  14  39
ATOM     39  O   UNL     1      12.334  30.694  23.071  1.00  0.00    -0.387 OA
ATOM     40  H   UNL     1      11.665  30.738  23.806  1.00  0.00     0.211 HD
ENDBRANCH  14  39
ENDBRANCH   8   9
ENDBRANCH   7   8
ENDBRANCH   1   7
BRANCH   1  41
ATOM     41  C   UNL     1      13.431  33.900  20.965  1.00  0.00     0.364 C 
ATOM     42  O   UNL     1      12.656  34.171  21.958  1.00  0.00    -0.246 OA
BRANCH  41  43
ATOM     43  O   UNL     1      14.273  34.923  20.615  1.00  0.00    -0.477 OA
ATOM     44  H   UNL     1      14.459  35.685  21.251  1.00  0.00     0.296 HD
ENDBRANCH  41  43
ENDBRANCH   1  41
BRANCH   3  45
ATOM     45  O   UNL     1      10.366  33.417  18.207  1.00  0.00    -0.391 OA
ATOM     46  H   UNL     1       9.765  33.041  18.891  1.00  0.00     0.211 HD
ENDBRANCH   3  45
BRANCH   5  47
ATOM     47  C   UNL     1      14.157  31.702  17.002  1.00  0.00     0.176 C 
BRANCH  47  48
ATOM     48  O   UNL     1      12.956  31.536  16.266  1.00  0.00    -0.388 OA
ATOM     49  H   UNL     1      12.770  30.589  16.113  1.00  0.00     0.211 HD
ENDBRANCH  47  48
BRANCH  47  50
ATOM     50  C   UNL     1      15.330  31.817  16.119  1.00  0.00     0.165 C 
BRANCH  50  51
ATOM     51  O   UNL     1      15.087  32.596  15.009  1.00  0.00    -0.388 OA
ATOM     52  H   UNL     1      15.092  32.088  14.160  1.00  0.00     0.211 HD
ENDBRANCH  50  51
BRANCH  50  53
ATOM     53  C   UNL     1      16.046  30.567  15.737  1.00  0.00     0.154 C 
BRANCH  53  54
ATOM     54  N   UNL     1      15.252  29.400  15.565  1.00  0.00    -0.319 N 
ATOM     55  C   UNL     1      14.749  29.128  14.248  1.00  0.00     0.407 C 
ATOM     56  H   UNL     1      14.994  28.748  16.323  1.00  0.00     0.167 HD
ATOM     57  O   UNL     1      15.035  29.937  13.299  1.00  0.00    -0.225 OA
BRANCH  55  58
ATOM     58  O   UNL     1      13.982  28.020  14.024  1.00  0.00    -0.443 OA
BRANCH  58  59
ATOM     59  C   UNL     1      12.741  28.072  13.369  1.00  0.00     0.294 C 
BRANCH  59  60
ATOM     60  C   UNL     1      11.804  28.958  14.096  1.00  0.00     0.120 A 
ATOM     61  C   UNL     1      11.008  29.990  13.615  1.00  0.00     0.138 A 
ATOM     62  N   UNL     1      11.533  28.921  15.411  1.00  0.00    -0.132 NA
ATOM     63  N   UNL     1      10.301  30.535  14.615  1.00  0.00    -0.248 N 
ATOM     64  N   UNL     1      10.649  29.852  15.709  1.00  0.00    -0.067 NA
BRANCH  63  65
ATOM     65  C   UNL     1       9.339  31.642  14.593  1.00  0.00     0.185 C 
BRANCH  65  66
ATOM     66  C   UNL     1       8.013  31.085  14.946  1.00  0.00     0.018 A 
ATOM     67  C   UNL     1       7.619  31.091  16.270  1.00  0.00     0.025 A 
ATOM     68  C   UNL     1       7.150  30.557  13.993  1.00  0.00     0.134 A 
ATOM     69  C   UNL     1       6.391  30.587  16.671  1.00  0.00     0.019 A 
ATOM     70  C   UNL     1       5.916  30.045  14.363  1.00  0.00     0.061 A 
ATOM     71  Br  UNL     1       5.891  30.616  18.508  1.00  0.00    -0.051 Br
ATOM     72  C   UNL     1       5.557  30.071  15.710  1.00  0.00     0.035 A 
ATOM     73  Br  UNL     1       4.761  29.335  13.049  1.00  0.00    -0.047 Br
BRANCH  68  74
ATOM     74  O   UNL     1       7.603  30.579  12.688  1.00  0.00    -0.506 OA
ATOM     75  H   UNL     1       7.632  29.723  12.159  1.00  0.00     0.293 HD
ENDBRANCH  68  74
ENDBRANCH  65  66
ENDBRANCH  63  65
ENDBRANCH  59  60
ENDBRANCH  58  59
ENDBRANCH  55  58
ENDBRANCH  53  54
ENDBRANCH  50  53
ENDBRANCH  47  50
ENDBRANCH   5  47
BRANCH   4  76
ATOM     76  N   UNL     1      12.910  34.877  17.143  1.00  0.00    -0.348 N 
ATOM     77  C   UNL     1      12.768  35.104  15.750  1.00  0.00     0.217 C 
ATOM     78  H   UNL     1      13.161  35.693  17.749  1.00  0.00     0.163 HD
ATOM     79  C   UNL     1      12.977  36.486  15.215  1.00  0.00     0.114 C 
ATOM     80  O   UNL     1      12.465  34.137  14.974  1.00  0.00    -0.275 OA
ENDBRANCH   4  76
TORSDOF 32
