REMARK VINA RESULT:    -4.864     13.824     19.119
REMARK INTER + INTRA:         -22.307
REMARK INTER:                 -14.363
REMARK INTRA:                  -7.943
REMARK UNBOUND:                -9.623
REMARK SMILES CC(=O)N[C@@H]1[C@@H](O)C[C@](OC[C@H]2O[C@@H](O[C@H]3[C@H](O)[C@@H](O)[C@H](OCCN=[N+]=[N-])O[C@@H]3CO)[C@H](O)[C@@H](O)[C@H]2O)(C(=O)O)O[C@H]1C(O)[C@H](O)CNC(=O)OCc1cn(Cc2ccc(C(=O)O)cc2)nn1
REMARK SMILES IDX 43 1 42 2 9 3 8 4 41 5 6 6 5 7 10 8 11 9 12 10 14 11 13 12
REMARK SMILES IDX 32 13 34 14 36 15 15 16 16 17 29 18 28 19 21 20 17 21 19 22
REMARK SMILES IDX 30 23 31 24 22 26 23 27 24 28 25 29 26 30 27 31 18 32 20 34
REMARK SMILES IDX 33 36 35 38 37 40 38 42 39 43 40 44 7 46 4 48 2 49 1 51 3 52
REMARK SMILES IDX 44 53 45 55 46 56 47 58 48 59 49 60 50 62 51 63 52 64 53 65
REMARK SMILES IDX 54 66 67 67 55 68 66 69 56 70 57 71 58 72 65 73 59 74 64 75
REMARK SMILES IDX 60 76 61 77 62 78 63 79
REMARK H PARENT 31 25 18 33 20 35 33 37 35 39 37 41 40 45 7 47 4 50 44 54
REMARK H PARENT 46 57 48 61 63 80
REMARK Flexibility Score: inf
ROOT
ATOM      1  C   UNL     1       6.575  24.338  34.813  1.00  0.00     0.176 C 
ENDROOT
BRANCH   1   2
ATOM      2  C   UNL     1       6.373  25.869  34.784  1.00  0.00     0.178 C 
ATOM      3  C   UNL     1       7.894  27.631  34.360  1.00  0.00     0.272 C 
ATOM      4  C   UNL     1       7.559  28.187  35.687  1.00  0.00     0.113 C 
ATOM      5  O   UNL     1       7.440  26.358  34.134  1.00  0.00    -0.332 OA
ATOM      6  C   UNL     1       7.245  27.125  36.720  1.00  0.00     0.145 C 
ATOM      7  C   UNL     1       6.116  26.306  36.168  1.00  0.00     0.142 C 
BRANCH   3   8
ATOM      8  O   UNL     1       9.249  27.577  34.164  1.00  0.00    -0.338 OA
BRANCH   8   9
ATOM      9  C   UNL     1       9.983  28.709  34.179  1.00  0.00     0.199 C 
BRANCH   9  10
ATOM     10  C   UNL     1      11.235  28.518  35.069  1.00  0.00     0.179 C 
ATOM     11  C   UNL     1      12.076  27.111  36.725  1.00  0.00     0.282 C 
ATOM     12  O   UNL     1      10.977  27.536  35.980  1.00  0.00    -0.341 OA
ATOM     13  C   UNL     1      13.289  27.955  36.559  1.00  0.00     0.202 C 
ATOM     14  C   UNL     1      13.628  28.014  35.085  1.00  0.00     0.179 C 
ATOM     15  C   UNL     1      12.434  28.220  34.206  1.00  0.00     0.177 C 
BRANCH  11  16
ATOM     16  O   UNL     1      12.337  25.785  36.381  1.00  0.00    -0.341 OA
BRANCH  16  17
ATOM     17  C   UNL     1      11.442  24.924  36.945  1.00  0.00     0.184 C 
ATOM     18  C   UNL     1      12.058  24.028  37.955  1.00  0.00     0.178 C 
ATOM     19  O   UNL     1      11.076  23.354  38.697  1.00  0.00    -0.341 OA
ATOM     20  C   UNL     1      10.044  22.906  37.869  1.00  0.00     0.281 C 
ATOM     21  C   UNL     1      10.873  24.074  35.792  1.00  0.00     0.180 C 
ATOM     22  C   UNL     1      10.434  22.771  36.427  1.00  0.00     0.202 C 
BRANCH  18  23
ATOM     23  C   UNL     1      12.904  24.811  38.918  1.00  0.00     0.191 C 
BRANCH  23  24
ATOM     24  O   UNL     1      12.003  25.362  39.859  1.00  0.00    -0.394 OA
ATOM     25  H   UNL     1      12.016  24.842  40.685  1.00  0.00     0.210 HD
ENDBRANCH  23  24
ENDBRANCH  18  23
BRANCH  20  26
ATOM     26  O   UNL     1       8.947  23.716  38.042  1.00  0.00    -0.350 OA
BRANCH  26  27
ATOM     27  C   UNL     1       8.559  23.908  39.348  1.00  0.00     0.169 C 
BRANCH  27  28
ATOM     28  C   UNL     1       7.360  23.135  39.784  1.00  0.00     0.119 C 
BRANCH  28  29
ATOM     29  N   UNL     1       6.223  23.651  39.004  1.00  0.00    -0.092 NA
ATOM     30  N   UNL     1       5.694  24.730  39.244  1.00  0.00     0.001 N 
ATOM     31  N   UNL     1       5.260  25.759  39.750  1.00  0.00    -0.003 NA
ENDBRANCH  28  29
ENDBRANCH  27  28
ENDBRANCH  26  27
ENDBRANCH  20  26
BRANCH  21  32
ATOM     32  O   UNL     1       9.822  24.729  35.187  1.00  0.00    -0.387 OA
ATOM     33  H   UNL     1      10.059  25.688  34.970  1.00  0.00     0.211 HD
ENDBRANCH  21  32
BRANCH  22  34
ATOM     34  O   UNL     1      11.403  21.814  36.238  1.00  0.00    -0.385 OA
ATOM     35  H   UNL     1      11.805  21.511  37.072  1.00  0.00     0.211 HD
ENDBRANCH  22  34
ENDBRANCH  16  17
ENDBRANCH  11  16
BRANCH  13  36
ATOM     36  O   UNL     1      13.098  29.250  37.063  1.00  0.00    -0.385 OA
ATOM     37  H   UNL     1      13.126  29.165  38.055  1.00  0.00     0.211 HD
ENDBRANCH  13  36
BRANCH  14  38
ATOM     38  O   UNL     1      14.313  26.870  34.675  1.00  0.00    -0.387 OA
ATOM     39  H   UNL     1      14.441  26.286  35.474  1.00  0.00     0.211 HD
ENDBRANCH  14  38
BRANCH  15  40
ATOM     40  O   UNL     1      12.202  27.124  33.363  1.00  0.00    -0.387 OA
ATOM     41  H   UNL     1      12.905  26.453  33.562  1.00  0.00     0.211 HD
ENDBRANCH  15  40
ENDBRANCH   9  10
ENDBRANCH   8   9
ENDBRANCH   3   8
BRANCH   3  42
ATOM     42  C   UNL     1       7.234  28.489  33.308  1.00  0.00     0.364 C 
ATOM     43  O   UNL     1       6.965  29.694  33.539  1.00  0.00    -0.246 OA
BRANCH  42  44
ATOM     44  O   UNL     1       6.905  27.985  32.060  1.00  0.00    -0.477 OA
ATOM     45  H   UNL     1       6.668  28.671  31.326  1.00  0.00     0.296 HD
ENDBRANCH  42  44
ENDBRANCH   3  42
BRANCH   6  46
ATOM     46  O   UNL     1       8.402  26.413  36.950  1.00  0.00    -0.391 OA
ATOM     47  H   UNL     1       9.191  26.998  36.809  1.00  0.00     0.211 HD
ENDBRANCH   6  46
BRANCH   7  48
ATOM     48  N   UNL     1       4.905  27.115  36.205  1.00  0.00    -0.348 N 
ATOM     49  C   UNL     1       3.623  26.528  36.492  1.00  0.00     0.217 C 
ATOM     50  H   UNL     1       4.880  28.143  36.031  1.00  0.00     0.163 HD
ATOM     51  C   UNL     1       2.402  27.393  36.521  1.00  0.00     0.114 C 
ATOM     52  O   UNL     1       3.564  25.307  36.709  1.00  0.00    -0.275 OA
ENDBRANCH   7  48
ENDBRANCH   1   2
BRANCH   1  53
ATOM     53  O   UNL     1       6.933  23.852  36.029  1.00  0.00    -0.388 OA
ATOM     54  H   UNL     1       6.211  23.720  36.682  1.00  0.00     0.211 HD
ENDBRANCH   1  53
BRANCH   1  55
ATOM     55  C   UNL     1       5.400  23.620  34.194  1.00  0.00     0.165 C 
BRANCH  55  56
ATOM     56  O   UNL     1       4.620  23.099  35.177  1.00  0.00    -0.388 OA
ATOM     57  H   UNL     1       4.730  23.481  36.069  1.00  0.00     0.211 HD
ENDBRANCH  55  56
BRANCH  55  58
ATOM     58  C   UNL     1       5.862  22.727  33.108  1.00  0.00     0.154 C 
BRANCH  58  59
ATOM     59  N   UNL     1       4.784  22.281  32.270  1.00  0.00    -0.319 N 
ATOM     60  C   UNL     1       3.927  21.202  32.582  1.00  0.00     0.407 C 
ATOM     61  H   UNL     1       4.597  22.774  31.353  1.00  0.00     0.167 HD
ATOM     62  O   UNL     1       4.046  20.547  33.628  1.00  0.00    -0.225 OA
BRANCH  60  63
ATOM     63  O   UNL     1       2.878  20.794  31.734  1.00  0.00    -0.443 OA
BRANCH  63  64
ATOM     64  C   UNL     1       3.155  20.441  30.391  1.00  0.00     0.294 C 
BRANCH  64  65
ATOM     65  C   UNL     1       2.616  21.412  29.423  1.00  0.00     0.120 A 
ATOM     66  C   UNL     1       2.488  22.769  29.525  1.00  0.00     0.138 A 
ATOM     67  N   UNL     1       2.118  21.071  28.220  1.00  0.00    -0.132 NA
ATOM     68  N   UNL     1       1.916  23.214  28.384  1.00  0.00    -0.248 N 
ATOM     69  N   UNL     1       1.702  22.166  27.610  1.00  0.00    -0.067 NA
BRANCH  68  70
ATOM     70  C   UNL     1       1.606  24.592  28.101  1.00  0.00     0.181 C 
BRANCH  70  71
ATOM     71  C   UNL     1       2.779  25.285  27.533  1.00  0.00    -0.026 A 
ATOM     72  C   UNL     1       3.646  25.964  28.363  1.00  0.00     0.006 A 
ATOM     73  C   UNL     1       3.006  25.273  26.160  1.00  0.00     0.006 A 
ATOM     74  C   UNL     1       4.714  26.607  27.764  1.00  0.00     0.016 A 
ATOM     75  C   UNL     1       4.071  25.916  25.570  1.00  0.00     0.016 A 
ATOM     76  C   UNL     1       4.934  26.592  26.401  1.00  0.00     0.059 A 
BRANCH  76  77
ATOM     77  C   UNL     1       6.074  27.294  25.833  1.00  0.00     0.335 C 
ATOM     78  O   UNL     1       6.477  28.348  26.345  1.00  0.00    -0.246 OA
BRANCH  77  79
ATOM     79  O   UNL     1       6.706  26.783  24.722  1.00  0.00    -0.478 OA
ATOM     80  H   UNL     1       6.805  25.782  24.565  1.00  0.00     0.297 HD
ENDBRANCH  77  79
ENDBRANCH  76  77
ENDBRANCH  70  71
ENDBRANCH  68  70
ENDBRANCH  64  65
ENDBRANCH  63  64
ENDBRANCH  60  63
ENDBRANCH  58  59
ENDBRANCH  55  58
ENDBRANCH   1  55
TORSDOF 33
