REMARK VINA RESULT:    -7.046      2.860      6.762
REMARK INTER + INTRA:         -23.517
REMARK INTER:                 -14.904
REMARK INTRA:                  -8.614
REMARK UNBOUND:                -5.144
REMARK SMILES CC(=O)N[C@@H]1[C@@H](O)C[C@](OC[C@H]2O[C@@H](O[C@H]3[C@H](O)[C@@H](O)[C@H](OCCN=[N+]=[N-])O[C@@H]3CO)[C@H](O)[C@@H](O)[C@H]2O)(C(=O)O)O[C@H]1C(O)[C@H](O)CNC(=O)OCc1cn(-c2cccc(C=CC(=O)O)c2)nn1
REMARK SMILES IDX 43 1 42 2 9 3 8 4 41 5 6 6 5 7 10 8 11 9 12 10 14 11 13 12
REMARK SMILES IDX 32 13 34 14 36 15 15 16 16 17 29 18 28 19 21 20 17 21 19 22
REMARK SMILES IDX 30 23 31 24 22 26 23 27 24 28 25 29 26 30 27 31 18 32 20 34
REMARK SMILES IDX 33 36 35 38 37 40 38 42 39 43 40 44 7 46 4 48 2 49 1 51 3 52
REMARK SMILES IDX 44 53 45 55 46 56 47 58 48 59 49 60 50 62 51 63 52 64 53 65
REMARK SMILES IDX 54 66 68 67 55 68 67 69 56 70 66 71 57 72 60 73 58 74 59 75
REMARK SMILES IDX 61 76 62 77 63 78 64 79 65 80
REMARK H PARENT 31 25 18 33 20 35 33 37 35 39 37 41 40 45 7 47 4 50 44 54
REMARK H PARENT 46 57 48 61 65 81
REMARK Flexibility Score: inf
ROOT
ATOM      1  C   UNL     1      21.019  29.319  21.605  1.00  0.00     0.176 C 
ENDROOT
BRANCH   1   2
ATOM      2  C   UNL     1      20.675  30.668  22.203  1.00  0.00     0.178 C 
ATOM      3  C   UNL     1      19.020  31.573  23.617  1.00  0.00     0.272 C 
ATOM      4  C   UNL     1      19.951  32.821  23.231  1.00  0.00     0.113 C 
ATOM      5  O   UNL     1      19.500  30.509  22.884  1.00  0.00    -0.332 OA
ATOM      6  C   UNL     1      19.870  32.923  21.750  1.00  0.00     0.145 C 
ATOM      7  C   UNL     1      20.507  31.699  21.121  1.00  0.00     0.142 C 
BRANCH   3   8
ATOM      8  O   UNL     1      17.830  31.949  23.134  1.00  0.00    -0.338 OA
BRANCH   8   9
ATOM      9  C   UNL     1      16.674  31.927  23.773  1.00  0.00     0.199 C 
BRANCH   9  10
ATOM     10  C   UNL     1      15.402  31.654  22.998  1.00  0.00     0.179 C 
ATOM     11  C   UNL     1      15.113  31.339  20.671  1.00  0.00     0.282 C 
ATOM     12  O   UNL     1      15.582  32.083  21.736  1.00  0.00    -0.341 OA
ATOM     13  C   UNL     1      13.885  30.618  21.063  1.00  0.00     0.202 C 
ATOM     14  C   UNL     1      14.012  29.731  22.264  1.00  0.00     0.179 C 
ATOM     15  C   UNL     1      15.234  30.142  23.043  1.00  0.00     0.177 C 
BRANCH  11  16
ATOM     16  O   UNL     1      16.182  30.601  20.214  1.00  0.00    -0.341 OA
BRANCH  16  17
ATOM     17  C   UNL     1      16.272  30.445  18.874  1.00  0.00     0.184 C 
ATOM     18  C   UNL     1      16.505  29.014  18.500  1.00  0.00     0.178 C 
ATOM     19  O   UNL     1      16.195  28.941  17.121  1.00  0.00    -0.341 OA
ATOM     20  C   UNL     1      17.205  29.561  16.382  1.00  0.00     0.281 C 
ATOM     21  C   UNL     1      17.455  31.206  18.268  1.00  0.00     0.180 C 
ATOM     22  C   UNL     1      17.427  30.986  16.771  1.00  0.00     0.202 C 
BRANCH  18  23
ATOM     23  C   UNL     1      15.678  28.024  19.240  1.00  0.00     0.191 C 
BRANCH  23  24
ATOM     24  O   UNL     1      16.353  27.637  20.395  1.00  0.00    -0.394 OA
ATOM     25  H   UNL     1      17.184  27.120  20.155  1.00  0.00     0.210 HD
ENDBRANCH  23  24
ENDBRANCH  18  23
BRANCH  20  26
ATOM     26  O   UNL     1      16.828  29.515  15.043  1.00  0.00    -0.350 OA
BRANCH  26  27
ATOM     27  C   UNL     1      16.155  30.670  14.652  1.00  0.00     0.169 C 
BRANCH  27  28
ATOM     28  C   UNL     1      14.716  30.299  14.373  1.00  0.00     0.119 C 
BRANCH  28  29
ATOM     29  N   UNL     1      14.637  28.894  14.049  1.00  0.00    -0.092 NA
ATOM     30  N   UNL     1      13.534  28.354  13.848  1.00  0.00     0.001 N 
ATOM     31  N   UNL     1      12.480  27.730  14.044  1.00  0.00    -0.003 NA
ENDBRANCH  28  29
ENDBRANCH  27  28
ENDBRANCH  26  27
ENDBRANCH  20  26
BRANCH  21  32
ATOM     32  O   UNL     1      17.363  32.577  18.476  1.00  0.00    -0.387 OA
ATOM     33  H   UNL     1      17.589  32.992  17.606  1.00  0.00     0.211 HD
ENDBRANCH  21  32
BRANCH  22  34
ATOM     34  O   UNL     1      18.714  31.344  16.307  1.00  0.00    -0.385 OA
ATOM     35  H   UNL     1      18.673  31.930  15.518  1.00  0.00     0.211 HD
ENDBRANCH  22  34
ENDBRANCH  16  17
ENDBRANCH  11  16
BRANCH  13  36
ATOM     36  O   UNL     1      12.863  31.566  21.360  1.00  0.00    -0.385 OA
ATOM     37  H   UNL     1      12.660  31.532  22.336  1.00  0.00     0.211 HD
ENDBRANCH  13  36
BRANCH  14  38
ATOM     38  O   UNL     1      14.028  28.367  21.960  1.00  0.00    -0.387 OA
ATOM     39  H   UNL     1      13.325  27.871  22.451  1.00  0.00     0.211 HD
ENDBRANCH  14  38
BRANCH  15  40
ATOM     40  O   UNL     1      16.342  29.507  22.518  1.00  0.00    -0.387 OA
ATOM     41  H   UNL     1      16.471  28.587  22.906  1.00  0.00     0.211 HD
ENDBRANCH  15  40
ENDBRANCH   9  10
ENDBRANCH   8   9
ENDBRANCH   3   8
BRANCH   3  42
ATOM     42  C   UNL     1      19.235  31.370  25.040  1.00  0.00     0.364 C 
ATOM     43  O   UNL     1      19.320  30.303  25.673  1.00  0.00    -0.246 OA
BRANCH  42  44
ATOM     44  O   UNL     1      19.369  32.528  25.846  1.00  0.00    -0.477 OA
ATOM     45  H   UNL     1      18.502  32.976  26.178  1.00  0.00     0.296 HD
ENDBRANCH  42  44
ENDBRANCH   3  42
BRANCH   6  46
ATOM     46  O   UNL     1      18.471  32.912  21.432  1.00  0.00    -0.391 OA
ATOM     47  H   UNL     1      18.199  33.817  21.116  1.00  0.00     0.211 HD
ENDBRANCH   6  46
BRANCH   7  48
ATOM     48  N   UNL     1      21.649  31.950  20.318  1.00  0.00    -0.348 N 
ATOM     49  C   UNL     1      21.773  31.850  18.929  1.00  0.00     0.217 C 
ATOM     50  H   UNL     1      22.567  32.233  20.822  1.00  0.00     0.163 HD
ATOM     51  C   UNL     1      23.114  32.156  18.289  1.00  0.00     0.114 C 
ATOM     52  O   UNL     1      20.837  31.520  18.153  1.00  0.00    -0.275 OA
ENDBRANCH   7  48
ENDBRANCH   1   2
BRANCH   1  53
ATOM     53  O   UNL     1      20.816  28.331  22.551  1.00  0.00    -0.388 OA
ATOM     54  H   UNL     1      20.680  28.651  23.460  1.00  0.00     0.211 HD
ENDBRANCH   1  53
BRANCH   1  55
ATOM     55  C   UNL     1      20.108  28.971  20.427  1.00  0.00     0.165 C 
BRANCH  55  56
ATOM     56  O   UNL     1      18.887  28.482  20.799  1.00  0.00    -0.388 OA
ATOM     57  H   UNL     1      18.687  27.576  20.470  1.00  0.00     0.211 HD
ENDBRANCH  55  56
BRANCH  55  58
ATOM     58  C   UNL     1      20.801  28.067  19.457  1.00  0.00     0.154 C 
BRANCH  58  59
ATOM     59  N   UNL     1      21.660  27.143  20.105  1.00  0.00    -0.319 N 
ATOM     60  C   UNL     1      22.406  26.169  19.402  1.00  0.00     0.407 C 
ATOM     61  H   UNL     1      21.771  27.152  21.154  1.00  0.00     0.167 HD
ATOM     62  O   UNL     1      22.336  26.078  18.146  1.00  0.00    -0.225 OA
BRANCH  60  63
ATOM     63  O   UNL     1      23.251  25.269  20.045  1.00  0.00    -0.443 OA
BRANCH  63  64
ATOM     64  C   UNL     1      22.625  24.149  20.682  1.00  0.00     0.294 C 
BRANCH  64  65
ATOM     65  C   UNL     1      22.118  24.620  21.984  1.00  0.00     0.121 A 
ATOM     66  C   UNL     1      22.785  24.632  23.206  1.00  0.00     0.144 A 
ATOM     67  N   UNL     1      20.902  25.139  22.220  1.00  0.00    -0.131 NA
ATOM     68  N   UNL     1      21.949  25.158  24.131  1.00  0.00    -0.220 N 
ATOM     69  N   UNL     1      20.826  25.452  23.507  1.00  0.00    -0.062 NA
BRANCH  68  70
ATOM     70  C   UNL     1      22.297  25.337  25.493  1.00  0.00     0.067 A 
ATOM     71  C   UNL     1      21.606  26.269  26.268  1.00  0.00     0.036 A 
ATOM     72  C   UNL     1      23.292  24.620  26.070  1.00  0.00     0.028 A 
ATOM     73  C   UNL     1      21.901  26.475  27.579  1.00  0.00    -0.023 A 
ATOM     74  C   UNL     1      23.630  24.796  27.409  1.00  0.00     0.003 A 
ATOM     75  C   UNL     1      22.921  25.726  28.135  1.00  0.00     0.008 A 
BRANCH  73  76
ATOM     76  C   UNL     1      21.188  27.443  28.384  1.00  0.00     0.015 C 
ATOM     77  C   UNL     1      21.218  28.720  28.095  1.00  0.00     0.094 C 
BRANCH  77  78
ATOM     78  C   UNL     1      20.481  29.664  28.937  1.00  0.00     0.328 C 
ATOM     79  O   UNL     1      20.268  29.433  30.133  1.00  0.00    -0.247 OA
BRANCH  78  80
ATOM     80  O   UNL     1      20.000  30.856  28.400  1.00  0.00    -0.478 OA
ATOM     81  H   UNL     1      19.212  30.792  27.752  1.00  0.00     0.297 HD
ENDBRANCH  78  80
ENDBRANCH  77  78
ENDBRANCH  73  76
ENDBRANCH  68  70
ENDBRANCH  64  65
ENDBRANCH  63  64
ENDBRANCH  60  63
ENDBRANCH  58  59
ENDBRANCH  55  58
ENDBRANCH   1  55
TORSDOF 33
