REMARK VINA RESULT:    -6.378      1.925      2.686
REMARK INTER + INTRA:         -23.832
REMARK INTER:                 -16.369
REMARK INTRA:                  -7.463
REMARK UNBOUND:                -7.759
REMARK SMILES CC(=O)N[C@@H]1[C@@H](O)C[C@](OC[C@H]2O[C@@H](O[C@H]3[C@H](O)[C@@H](O)[C@H](OCCN=[N+]=[N-])O[C@@H]3CO)[C@H](O)[C@@H](O)[C@H]2O)(C(=O)O)O[C@H]1C(O)[C@H](O)CNC(=O)OCc1cn(-c2cc(Cl)ccc2C(=O)N(C)C)nn1
REMARK SMILES IDX 9 1 8 2 6 3 5 4 42 5 41 6 10 7 11 8 12 9 14 10 13 11 32 12
REMARK SMILES IDX 34 13 36 14 15 15 16 16 29 17 28 18 21 19 17 20 19 21 30 22
REMARK SMILES IDX 31 23 22 25 23 26 24 27 25 28 26 29 27 30 18 31 20 33 33 35
REMARK SMILES IDX 35 37 37 39 38 41 39 42 40 43 7 45 43 47 44 48 45 50 46 51
REMARK SMILES IDX 47 53 48 54 49 55 50 57 51 58 52 59 53 60 54 61 69 62 55 63
REMARK SMILES IDX 68 64 56 65 57 66 62 67 58 68 61 69 59 70 60 71 63 72 64 73
REMARK SMILES IDX 65 74 66 75 67 76 4 77 2 78 1 80 3 81
REMARK H PARENT 31 24 18 32 20 34 33 36 35 38 37 40 40 44 7 46 44 49 46 52
REMARK H PARENT 48 56 4 79
REMARK Flexibility Score: inf
ROOT
ATOM      1  C   UNL     1      15.261  30.126  19.933  1.00  0.00     0.272 C 
ATOM      2  C   UNL     1      15.044  29.037  18.951  1.00  0.00     0.113 C 
ATOM      3  C   UNL     1      16.201  28.071  18.980  1.00  0.00     0.145 C 
ATOM      4  C   UNL     1      17.438  28.867  18.636  1.00  0.00     0.142 C 
ATOM      5  C   UNL     1      17.612  30.016  19.537  1.00  0.00     0.178 C 
ATOM      6  O   UNL     1      16.532  30.547  20.168  1.00  0.00    -0.332 OA
ENDROOT
BRANCH   1   7
ATOM      7  O   UNL     1      14.706  29.824  21.166  1.00  0.00    -0.338 OA
BRANCH   7   8
ATOM      8  C   UNL     1      13.532  29.158  21.204  1.00  0.00     0.199 C 
BRANCH   8   9
ATOM      9  C   UNL     1      12.874  29.355  22.579  1.00  0.00     0.179 C 
ATOM     10  C   UNL     1      13.577  29.938  24.697  1.00  0.00     0.282 C 
ATOM     11  O   UNL     1      13.806  29.100  23.543  1.00  0.00    -0.341 OA
ATOM     12  C   UNL     1      12.090  29.910  24.965  1.00  0.00     0.202 C 
ATOM     13  C   UNL     1      11.323  30.656  23.893  1.00  0.00     0.179 C 
ATOM     14  C   UNL     1      12.136  30.626  22.611  1.00  0.00     0.177 C 
BRANCH  10  15
ATOM     15  O   UNL     1      14.097  31.122  24.392  1.00  0.00    -0.341 OA
BRANCH  15  16
ATOM     16  C   UNL     1      14.696  31.935  25.338  1.00  0.00     0.184 C 
ATOM     17  C   UNL     1      15.982  31.271  25.708  1.00  0.00     0.178 C 
ATOM     18  O   UNL     1      16.651  32.026  26.688  1.00  0.00    -0.341 OA
ATOM     19  C   UNL     1      15.889  31.700  27.863  1.00  0.00     0.281 C 
ATOM     20  C   UNL     1      13.808  32.079  26.548  1.00  0.00     0.180 C 
ATOM     21  C   UNL     1      14.592  32.417  27.779  1.00  0.00     0.202 C 
BRANCH  17  22
ATOM     22  C   UNL     1      16.879  31.094  24.501  1.00  0.00     0.191 C 
BRANCH  22  23
ATOM     23  O   UNL     1      16.847  29.769  24.121  1.00  0.00    -0.394 OA
ATOM     24  H   UNL     1      17.451  29.237  24.697  1.00  0.00     0.210 HD
ENDBRANCH  22  23
ENDBRANCH  17  22
BRANCH  19  25
ATOM     25  O   UNL     1      16.631  32.012  28.935  1.00  0.00    -0.350 OA
BRANCH  25  26
ATOM     26  C   UNL     1      17.558  31.059  29.320  1.00  0.00     0.169 C 
BRANCH  26  27
ATOM     27  C   UNL     1      17.335  30.524  30.720  1.00  0.00     0.119 C 
BRANCH  27  28
ATOM     28  N   UNL     1      16.472  29.363  30.696  1.00  0.00    -0.092 NA
ATOM     29  N   UNL     1      15.254  29.489  30.765  1.00  0.00     0.001 N 
ATOM     30  N   UNL     1      14.049  29.817  30.754  1.00  0.00    -0.003 NA
ENDBRANCH  27  28
ENDBRANCH  26  27
ENDBRANCH  25  26
ENDBRANCH  19  25
BRANCH  20  31
ATOM     31  O   UNL     1      12.865  33.098  26.375  1.00  0.00    -0.387 OA
ATOM     32  H   UNL     1      12.953  33.784  27.099  1.00  0.00     0.211 HD
ENDBRANCH  20  31
BRANCH  21  33
ATOM     33  O   UNL     1      13.817  32.123  28.898  1.00  0.00    -0.385 OA
ATOM     34  H   UNL     1      12.971  32.616  28.931  1.00  0.00     0.211 HD
ENDBRANCH  21  33
ENDBRANCH  15  16
ENDBRANCH  10  15
BRANCH  12  35
ATOM     35  O   UNL     1      11.697  28.559  24.878  1.00  0.00    -0.385 OA
ATOM     36  H   UNL     1      11.565  28.279  23.917  1.00  0.00     0.211 HD
ENDBRANCH  12  35
BRANCH  13  37
ATOM     37  O   UNL     1      11.034  31.959  24.199  1.00  0.00    -0.387 OA
ATOM     38  H   UNL     1      11.763  32.427  24.675  1.00  0.00     0.211 HD
ENDBRANCH  13  37
BRANCH  14  39
ATOM     39  O   UNL     1      12.815  31.779  22.339  1.00  0.00    -0.387 OA
ATOM     40  H   UNL     1      12.421  32.596  22.718  1.00  0.00     0.211 HD
ENDBRANCH  14  39
ENDBRANCH   8   9
ENDBRANCH   7   8
ENDBRANCH   1   7
BRANCH   1  41
ATOM     41  C   UNL     1      14.450  31.349  19.466  1.00  0.00     0.364 C 
ATOM     42  O   UNL     1      14.601  32.393  20.140  1.00  0.00    -0.246 OA
BRANCH  41  43
ATOM     43  O   UNL     1      13.611  31.331  18.397  1.00  0.00    -0.477 OA
ATOM     44  H   UNL     1      13.303  32.127  17.885  1.00  0.00     0.296 HD
ENDBRANCH  41  43
ENDBRANCH   1  41
BRANCH   3  45
ATOM     45  O   UNL     1      16.243  27.428  20.183  1.00  0.00    -0.391 OA
ATOM     46  H   UNL     1      16.600  27.903  20.940  1.00  0.00     0.211 HD
ENDBRANCH   3  45
BRANCH   5  47
ATOM     47  C   UNL     1      18.686  29.852  20.605  1.00  0.00     0.176 C 
BRANCH  47  48
ATOM     48  O   UNL     1      18.225  29.445  21.825  1.00  0.00    -0.388 OA
ATOM     49  H   UNL     1      18.007  28.478  21.890  1.00  0.00     0.211 HD
ENDBRANCH  47  48
BRANCH  47  50
ATOM     50  C   UNL     1      19.880  29.066  20.206  1.00  0.00     0.165 C 
BRANCH  50  51
ATOM     51  O   UNL     1      20.087  27.939  21.036  1.00  0.00    -0.388 OA
ATOM     52  H   UNL     1      20.913  27.461  20.787  1.00  0.00     0.211 HD
ENDBRANCH  50  51
BRANCH  50  53
ATOM     53  C   UNL     1      21.103  29.953  20.535  1.00  0.00     0.154 C 
BRANCH  53  54
ATOM     54  N   UNL     1      20.827  30.774  21.680  1.00  0.00    -0.319 N 
ATOM     55  C   UNL     1      21.851  31.179  22.560  1.00  0.00     0.407 C 
ATOM     56  H   UNL     1      19.841  31.105  21.903  1.00  0.00     0.167 HD
ATOM     57  O   UNL     1      23.043  30.852  22.356  1.00  0.00    -0.225 OA
BRANCH  55  58
ATOM     58  O   UNL     1      21.570  31.956  23.689  1.00  0.00    -0.443 OA
BRANCH  58  59
ATOM     59  C   UNL     1      20.657  31.539  24.666  1.00  0.00     0.294 C 
BRANCH  59  60
ATOM     60  C   UNL     1      20.647  30.049  24.790  1.00  0.00     0.121 A 
ATOM     61  C   UNL     1      21.567  29.315  25.567  1.00  0.00     0.144 A 
ATOM     62  N   UNL     1      19.842  29.146  24.253  1.00  0.00    -0.131 NA
ATOM     63  N   UNL     1      21.279  28.026  25.463  1.00  0.00    -0.219 N 
ATOM     64  N   UNL     1      20.216  27.957  24.650  1.00  0.00    -0.062 NA
BRANCH  63  65
ATOM     65  C   UNL     1      21.864  26.867  26.027  1.00  0.00     0.081 A 
ATOM     66  C   UNL     1      21.755  26.648  27.406  1.00  0.00     0.049 A 
ATOM     67  C   UNL     1      22.574  25.932  25.330  1.00  0.00     0.065 A 
ATOM     68  C   UNL     1      22.326  25.571  28.001  1.00  0.00     0.043 A 
ATOM     69  C   UNL     1      23.168  24.815  25.947  1.00  0.00     0.017 A 
ATOM     70  Cl  UNL     1      22.151  25.356  29.737  1.00  0.00    -0.084 Cl
ATOM     71  C   UNL     1      23.039  24.636  27.302  1.00  0.00     0.021 A 
BRANCH  67  72
ATOM     72  C   UNL     1      22.724  26.008  23.874  1.00  0.00     0.255 C 
ATOM     73  O   UNL     1      23.646  26.707  23.404  1.00  0.00    -0.269 OA
ATOM     74  N   UNL     1      21.851  25.310  23.036  1.00  0.00    -0.345 N 
ATOM     75  C   UNL     1      20.776  24.498  23.600  1.00  0.00     0.146 C 
ATOM     76  C   UNL     1      21.985  25.361  21.582  1.00  0.00     0.146 C 
ENDBRANCH  67  72
ENDBRANCH  63  65
ENDBRANCH  59  60
ENDBRANCH  58  59
ENDBRANCH  55  58
ENDBRANCH  53  54
ENDBRANCH  50  53
ENDBRANCH  47  50
ENDBRANCH   5  47
BRANCH   4  77
ATOM     77  N   UNL     1      17.299  29.252  17.228  1.00  0.00    -0.348 N 
ATOM     78  C   UNL     1      18.223  28.856  16.239  1.00  0.00     0.217 C 
ATOM     79  H   UNL     1      16.497  29.843  16.934  1.00  0.00     0.163 HD
ATOM     80  C   UNL     1      18.091  29.243  14.814  1.00  0.00     0.114 C 
ATOM     81  O   UNL     1      19.203  28.141  16.578  1.00  0.00    -0.275 OA
ENDBRANCH   4  77
TORSDOF 31
