REMARK VINA RESULT:    -5.309      9.261     13.509
REMARK INTER + INTRA:         -21.421
REMARK INTER:                 -15.417
REMARK INTRA:                  -6.004
REMARK UNBOUND:                -8.354
REMARK SMILES CC(=O)N[C@@H]1[C@@H](O)C[C@](OC[C@H]2O[C@@H](O[C@H]3[C@H](O)[C@@H](O)[C@H](OCCN=[N+]=[N-])O[C@@H]3CO)[C@H](O)[C@@H](O)[C@H]2O)(C(=O)O)O[C@H]1C(O)[C@H](O)CNC(=O)OCc1cn(-c2cccc(Cl)c2)nn1
REMARK SMILES IDX 9 1 8 2 6 3 5 4 42 5 41 6 10 7 11 8 12 9 14 10 13 11 32 12
REMARK SMILES IDX 34 13 36 14 15 15 16 16 29 17 28 18 21 19 17 20 19 21 30 22
REMARK SMILES IDX 31 23 22 25 23 26 24 27 25 28 26 29 27 30 18 31 20 33 33 35
REMARK SMILES IDX 35 37 37 39 38 41 39 42 40 43 7 45 43 47 44 48 45 50 46 51
REMARK SMILES IDX 47 53 48 54 49 55 50 57 51 58 52 59 53 60 54 61 64 62 55 63
REMARK SMILES IDX 63 64 56 65 57 66 62 67 58 68 60 69 59 70 61 71 4 72 2 73
REMARK SMILES IDX 1 75 3 76
REMARK H PARENT 31 24 18 32 20 34 33 36 35 38 37 40 40 44 7 46 44 49 46 52
REMARK H PARENT 48 56 4 74
REMARK Flexibility Score: inf
ROOT
ATOM      1  C   UNL     1      20.391  18.922  10.473  1.00  0.00     0.272 C 
ATOM      2  C   UNL     1      19.590  18.991   9.250  1.00  0.00     0.113 C 
ATOM      3  C   UNL     1      19.853  20.092   8.278  1.00  0.00     0.145 C 
ATOM      4  C   UNL     1      20.916  21.058   8.739  1.00  0.00     0.142 C 
ATOM      5  C   UNL     1      20.730  21.151  10.262  1.00  0.00     0.178 C 
ATOM      6  O   UNL     1      21.252  19.988  10.742  1.00  0.00    -0.332 OA
ENDROOT
BRANCH   1   7
ATOM      7  O   UNL     1      21.096  17.796  10.768  1.00  0.00    -0.338 OA
BRANCH   7   8
ATOM      8  C   UNL     1      21.926  17.184   9.926  1.00  0.00     0.199 C 
BRANCH   8   9
ATOM      9  C   UNL     1      23.404  17.286  10.113  1.00  0.00     0.179 C 
ATOM     10  C   UNL     1      25.015  18.300  11.420  1.00  0.00     0.282 C 
ATOM     11  O   UNL     1      23.640  18.037  11.283  1.00  0.00    -0.341 OA
ATOM     12  C   UNL     1      25.752  17.003  11.549  1.00  0.00     0.202 C 
ATOM     13  C   UNL     1      25.436  15.940  10.544  1.00  0.00     0.179 C 
ATOM     14  C   UNL     1      23.933  15.860  10.393  1.00  0.00     0.177 C 
BRANCH  10  15
ATOM     15  O   UNL     1      25.126  18.952  12.620  1.00  0.00    -0.341 OA
BRANCH  15  16
ATOM     16  C   UNL     1      24.878  20.323  12.639  1.00  0.00     0.184 C 
ATOM     17  C   UNL     1      25.645  21.103  11.677  1.00  0.00     0.178 C 
ATOM     18  O   UNL     1      26.223  22.238  12.195  1.00  0.00    -0.341 OA
ATOM     19  C   UNL     1      26.660  22.128  13.512  1.00  0.00     0.281 C 
ATOM     20  C   UNL     1      24.830  20.705  14.078  1.00  0.00     0.180 C 
ATOM     21  C   UNL     1      25.367  22.082  14.318  1.00  0.00     0.202 C 
BRANCH  17  22
ATOM     22  C   UNL     1      24.742  21.612  10.541  1.00  0.00     0.191 C 
BRANCH  22  23
ATOM     23  O   UNL     1      24.216  20.466   9.893  1.00  0.00    -0.394 OA
ATOM     24  H   UNL     1      23.449  20.731   9.354  1.00  0.00     0.210 HD
ENDBRANCH  22  23
ENDBRANCH  17  22
BRANCH  19  25
ATOM     25  O   UNL     1      27.371  23.250  13.828  1.00  0.00    -0.350 OA
BRANCH  25  26
ATOM     26  C   UNL     1      26.959  24.421  13.246  1.00  0.00     0.169 C 
BRANCH  26  27
ATOM     27  C   UNL     1      27.017  25.635  14.136  1.00  0.00     0.119 C 
BRANCH  27  28
ATOM     28  N   UNL     1      26.399  25.258  15.416  1.00  0.00    -0.092 NA
ATOM     29  N   UNL     1      26.626  26.019  16.381  1.00  0.00     0.001 N 
ATOM     30  N   UNL     1      26.453  26.897  17.245  1.00  0.00    -0.003 NA
ENDBRANCH  27  28
ENDBRANCH  26  27
ENDBRANCH  25  26
ENDBRANCH  19  25
BRANCH  20  31
ATOM     31  O   UNL     1      23.519  20.575  14.576  1.00  0.00    -0.387 OA
ATOM     32  H   UNL     1      22.997  20.159  13.845  1.00  0.00     0.211 HD
ENDBRANCH  20  31
BRANCH  21  33
ATOM     33  O   UNL     1      25.662  22.200  15.680  1.00  0.00    -0.385 OA
ATOM     34  H   UNL     1      26.474  21.726  15.923  1.00  0.00     0.211 HD
ENDBRANCH  21  33
ENDBRANCH  15  16
ENDBRANCH  10  15
BRANCH  12  35
ATOM     35  O   UNL     1      27.140  17.193  11.468  1.00  0.00    -0.385 OA
ATOM     36  H   UNL     1      27.595  16.934  12.300  1.00  0.00     0.211 HD
ENDBRANCH  12  35
BRANCH  13  37
ATOM     37  O   UNL     1      25.867  14.713  11.052  1.00  0.00    -0.387 OA
ATOM     38  H   UNL     1      26.775  14.472  10.801  1.00  0.00     0.211 HD
ENDBRANCH  13  37
BRANCH  14  39
ATOM     39  O   UNL     1      23.436  15.579  11.688  1.00  0.00    -0.387 OA
ATOM     40  H   UNL     1      22.636  15.031  11.675  1.00  0.00     0.211 HD
ENDBRANCH  14  39
ENDBRANCH   8   9
ENDBRANCH   7   8
ENDBRANCH   1   7
BRANCH   1  41
ATOM     41  C   UNL     1      19.390  19.017  11.635  1.00  0.00     0.364 C 
ATOM     42  O   UNL     1      18.158  18.971  11.469  1.00  0.00    -0.246 OA
BRANCH  41  43
ATOM     43  O   UNL     1      19.880  19.162  12.938  1.00  0.00    -0.477 OA
ATOM     44  H   UNL     1      19.197  19.260  13.699  1.00  0.00     0.296 HD
ENDBRANCH  41  43
ENDBRANCH   1  41
BRANCH   3  45
ATOM     45  O   UNL     1      20.178  19.652   7.007  1.00  0.00    -0.391 OA
ATOM     46  H   UNL     1      20.534  20.374   6.440  1.00  0.00     0.211 HD
ENDBRANCH   3  45
BRANCH   5  47
ATOM     47  C   UNL     1      21.352  22.420  10.819  1.00  0.00     0.176 C 
BRANCH  47  48
ATOM     48  O   UNL     1      20.304  23.373  10.723  1.00  0.00    -0.388 OA
ATOM     49  H   UNL     1      20.147  23.725  11.650  1.00  0.00     0.211 HD
ENDBRANCH  47  48
BRANCH  47  50
ATOM     50  C   UNL     1      21.599  22.232  12.301  1.00  0.00     0.165 C 
BRANCH  50  51
ATOM     51  O   UNL     1      20.392  22.066  12.958  1.00  0.00    -0.388 OA
ATOM     52  H   UNL     1      20.471  21.577  13.807  1.00  0.00     0.211 HD
ENDBRANCH  50  51
BRANCH  50  53
ATOM     53  C   UNL     1      22.247  23.504  12.859  1.00  0.00     0.154 C 
BRANCH  53  54
ATOM     54  N   UNL     1      22.204  23.543  14.295  1.00  0.00    -0.319 N 
ATOM     55  C   UNL     1      22.402  24.679  15.095  1.00  0.00     0.407 C 
ATOM     56  H   UNL     1      22.004  22.625  14.805  1.00  0.00     0.167 HD
ATOM     57  O   UNL     1      22.618  25.792  14.561  1.00  0.00    -0.225 OA
BRANCH  55  58
ATOM     58  O   UNL     1      22.364  24.608  16.517  1.00  0.00    -0.443 OA
BRANCH  58  59
ATOM     59  C   UNL     1      23.011  25.593  17.278  1.00  0.00     0.294 C 
BRANCH  59  60
ATOM     60  C   UNL     1      23.393  25.149  18.644  1.00  0.00     0.121 A 
ATOM     61  C   UNL     1      22.615  25.214  19.805  1.00  0.00     0.144 A 
ATOM     62  N   UNL     1      24.548  24.611  19.068  1.00  0.00    -0.131 NA
ATOM     63  N   UNL     1      23.314  24.728  20.847  1.00  0.00    -0.220 N 
ATOM     64  N   UNL     1      24.483  24.365  20.388  1.00  0.00    -0.062 NA
BRANCH  63  65
ATOM     65  C   UNL     1      22.795  24.671  22.169  1.00  0.00     0.068 A 
ATOM     66  C   UNL     1      21.451  24.669  22.463  1.00  0.00     0.028 A 
ATOM     67  C   UNL     1      23.667  24.612  23.269  1.00  0.00     0.049 A 
ATOM     68  C   UNL     1      20.993  24.611  23.776  1.00  0.00     0.004 A 
ATOM     69  C   UNL     1      23.212  24.556  24.564  1.00  0.00     0.043 A 
ATOM     70  C   UNL     1      21.865  24.554  24.842  1.00  0.00     0.020 A 
ATOM     71  Cl  UNL     1      24.318  24.482  25.928  1.00  0.00    -0.084 Cl
ENDBRANCH  63  65
ENDBRANCH  59  60
ENDBRANCH  58  59
ENDBRANCH  55  58
ENDBRANCH  53  54
ENDBRANCH  50  53
ENDBRANCH  47  50
ENDBRANCH   5  47
BRANCH   4  72
ATOM     72  N   UNL     1      20.854  22.320   8.080  1.00  0.00    -0.348 N 
ATOM     73  C   UNL     1      21.712  22.629   6.966  1.00  0.00     0.217 C 
ATOM     74  H   UNL     1      20.202  23.100   8.337  1.00  0.00     0.163 HD
ATOM     75  C   UNL     1      21.667  23.923   6.270  1.00  0.00     0.114 C 
ATOM     76  O   UNL     1      22.521  21.756   6.587  1.00  0.00    -0.275 OA
ENDBRANCH   4  72
TORSDOF 30
