REMARK VINA RESULT:    -5.171     17.704     23.109
REMARK INTER + INTRA:         -21.456
REMARK INTER:                 -14.358
REMARK INTRA:                  -7.097
REMARK UNBOUND:                -8.275
REMARK SMILES CC(=O)N[C@@H]1[C@@H](O)C[C@](OC[C@H]2O[C@@H](O[C@H]3[C@H](O)[C@@H](O)[C@H](OCCN=[N+]=[N-])O[C@@H]3CO)[C@H](O)[C@@H](O)[C@H]2O)(C(=O)O)O[C@H]1C(O)[C@H](O)CNC(=O)OCc1cn(C(C)(C)C(=O)O)nn1
REMARK SMILES IDX 9 1 8 2 6 3 5 4 42 5 41 6 10 7 11 8 12 9 14 10 13 11 32 12
REMARK SMILES IDX 34 13 36 14 15 15 16 16 29 17 28 18 21 19 17 20 19 21 30 22
REMARK SMILES IDX 31 23 22 25 23 26 24 27 25 28 26 29 27 30 18 31 20 33 33 35
REMARK SMILES IDX 35 37 37 39 38 41 39 42 40 43 7 45 43 47 44 48 45 50 46 51
REMARK SMILES IDX 47 53 48 54 49 55 50 57 51 58 52 59 53 60 54 61 63 62 55 63
REMARK SMILES IDX 62 64 56 65 57 66 58 67 59 68 60 69 61 70 4 72 2 73 1 75
REMARK SMILES IDX 3 76
REMARK H PARENT 31 24 18 32 20 34 33 36 35 38 37 40 40 44 7 46 44 49 46 52
REMARK H PARENT 48 56 61 71 4 74
REMARK Flexibility Score: inf
ROOT
ATOM      1  C   UNL     1       2.990  21.710  31.192  1.00  0.00     0.272 C 
ATOM      2  C   UNL     1       1.887  21.231  32.041  1.00  0.00     0.113 C 
ATOM      3  C   UNL     1       1.403  22.212  33.072  1.00  0.00     0.145 C 
ATOM      4  C   UNL     1       2.504  23.162  33.433  1.00  0.00     0.142 C 
ATOM      5  C   UNL     1       3.811  22.372  33.235  1.00  0.00     0.178 C 
ATOM      6  O   UNL     1       4.045  22.317  31.880  1.00  0.00    -0.332 OA
ENDROOT
BRANCH   1   7
ATOM      7  O   UNL     1       2.618  22.548  30.186  1.00  0.00    -0.338 OA
BRANCH   7   8
ATOM      8  C   UNL     1       1.577  22.188  29.389  1.00  0.00     0.199 C 
BRANCH   8   9
ATOM      9  C   UNL     1       1.397  23.158  28.243  1.00  0.00     0.179 C 
ATOM     10  C   UNL     1       1.832  25.350  27.667  1.00  0.00     0.282 C 
ATOM     11  O   UNL     1       2.167  24.273  28.565  1.00  0.00    -0.341 OA
ATOM     12  C   UNL     1       2.376  24.966  26.343  1.00  0.00     0.202 C 
ATOM     13  C   UNL     1       2.867  23.520  26.323  1.00  0.00     0.179 C 
ATOM     14  C   UNL     1       1.843  22.586  26.950  1.00  0.00     0.177 C 
BRANCH  10  15
ATOM     15  O   UNL     1       2.340  26.450  28.289  1.00  0.00    -0.341 OA
BRANCH  15  16
ATOM     16  C   UNL     1       3.192  26.188  29.348  1.00  0.00     0.184 C 
ATOM     17  C   UNL     1       2.685  26.865  30.583  1.00  0.00     0.178 C 
ATOM     18  O   UNL     1       3.709  27.050  31.524  1.00  0.00    -0.341 OA
ATOM     19  C   UNL     1       4.596  28.052  31.159  1.00  0.00     0.281 C 
ATOM     20  C   UNL     1       4.585  26.749  29.062  1.00  0.00     0.180 C 
ATOM     21  C   UNL     1       4.710  28.130  29.652  1.00  0.00     0.202 C 
BRANCH  17  22
ATOM     22  C   UNL     1       1.647  25.997  31.315  1.00  0.00     0.191 C 
BRANCH  22  23
ATOM     23  O   UNL     1       0.495  26.004  30.555  1.00  0.00    -0.394 OA
ATOM     24  H   UNL     1       0.668  25.484  29.714  1.00  0.00     0.210 HD
ENDBRANCH  22  23
ENDBRANCH  17  22
BRANCH  19  25
ATOM     25  O   UNL     1       5.818  27.720  31.743  1.00  0.00    -0.350 OA
BRANCH  25  26
ATOM     26  C   UNL     1       6.431  28.742  32.420  1.00  0.00     0.169 C 
BRANCH  26  27
ATOM     27  C   UNL     1       5.607  28.963  33.696  1.00  0.00     0.119 C 
BRANCH  27  28
ATOM     28  N   UNL     1       6.439  29.058  34.872  1.00  0.00    -0.092 NA
ATOM     29  N   UNL     1       7.574  28.558  34.829  1.00  0.00     0.001 N 
ATOM     30  N   UNL     1       8.576  27.857  34.848  1.00  0.00    -0.003 NA
ENDBRANCH  27  28
ENDBRANCH  26  27
ENDBRANCH  25  26
ENDBRANCH  19  25
BRANCH  20  31
ATOM     31  O   UNL     1       5.540  25.938  29.667  1.00  0.00    -0.387 OA
ATOM     32  H   UNL     1       6.310  25.741  29.079  1.00  0.00     0.211 HD
ENDBRANCH  20  31
BRANCH  21  33
ATOM     33  O   UNL     1       3.716  28.928  29.099  1.00  0.00    -0.385 OA
ATOM     34  H   UNL     1       3.840  29.891  29.276  1.00  0.00     0.211 HD
ENDBRANCH  21  33
ENDBRANCH  15  16
ENDBRANCH  10  15
BRANCH  12  35
ATOM     35  O   UNL     1       1.318  24.991  25.408  1.00  0.00    -0.385 OA
ATOM     36  H   UNL     1       1.364  24.290  24.741  1.00  0.00     0.211 HD
ENDBRANCH  12  35
BRANCH  13  37
ATOM     37  O   UNL     1       4.097  23.419  26.945  1.00  0.00    -0.387 OA
ATOM     38  H   UNL     1       4.173  22.558  27.431  1.00  0.00     0.211 HD
ENDBRANCH  13  37
BRANCH  14  39
ATOM     39  O   UNL     1       2.470  21.363  27.128  1.00  0.00    -0.387 OA
ATOM     40  H   UNL     1       1.781  20.649  27.009  1.00  0.00     0.211 HD
ENDBRANCH  14  39
ENDBRANCH   8   9
ENDBRANCH   7   8
ENDBRANCH   1   7
BRANCH   1  41
ATOM     41  C   UNL     1       3.655  20.461  30.600  1.00  0.00     0.364 C 
ATOM     42  O   UNL     1       3.018  19.389  30.515  1.00  0.00    -0.246 OA
BRANCH  41  43
ATOM     43  O   UNL     1       4.961  20.493  30.150  1.00  0.00    -0.477 OA
ATOM     44  H   UNL     1       5.553  19.681  30.080  1.00  0.00     0.296 HD
ENDBRANCH  41  43
ENDBRANCH   1  41
BRANCH   3  45
ATOM     45  O   UNL     1       0.340  22.924  32.556  1.00  0.00    -0.391 OA
ATOM     46  H   UNL     1      -0.408  22.338  32.269  1.00  0.00     0.211 HD
ENDBRANCH   3  45
BRANCH   5  47
ATOM     47  C   UNL     1       4.960  23.019  33.953  1.00  0.00     0.176 C 
BRANCH  47  48
ATOM     48  O   UNL     1       6.143  22.363  33.625  1.00  0.00    -0.388 OA
ATOM     49  H   UNL     1       6.514  22.712  32.760  1.00  0.00     0.211 HD
ENDBRANCH  47  48
BRANCH  47  50
ATOM     50  C   UNL     1       5.089  24.462  33.522  1.00  0.00     0.165 C 
BRANCH  50  51
ATOM     51  O   UNL     1       5.514  24.550  32.190  1.00  0.00    -0.388 OA
ATOM     52  H   UNL     1       4.757  24.866  31.648  1.00  0.00     0.211 HD
ENDBRANCH  50  51
BRANCH  50  53
ATOM     53  C   UNL     1       6.049  25.245  34.378  1.00  0.00     0.154 C 
BRANCH  53  54
ATOM     54  N   UNL     1       7.410  25.089  33.928  1.00  0.00    -0.319 N 
ATOM     55  C   UNL     1       8.341  24.295  34.639  1.00  0.00     0.407 C 
ATOM     56  H   UNL     1       7.730  25.565  33.061  1.00  0.00     0.167 HD
ATOM     57  O   UNL     1       8.032  23.686  35.695  1.00  0.00    -0.225 OA
BRANCH  55  58
ATOM     58  O   UNL     1       9.664  24.155  34.193  1.00  0.00    -0.443 OA
BRANCH  58  59
ATOM     59  C   UNL     1      10.713  24.083  35.164  1.00  0.00     0.294 C 
BRANCH  59  60
ATOM     60  C   UNL     1      11.638  25.208  35.030  1.00  0.00     0.120 A 
ATOM     61  C   UNL     1      12.745  25.450  35.802  1.00  0.00     0.139 A 
ATOM     62  N   UNL     1      11.561  26.195  34.134  1.00  0.00    -0.132 NA
ATOM     63  N   UNL     1      13.325  26.584  35.360  1.00  0.00    -0.235 N 
ATOM     64  N   UNL     1      12.567  27.002  34.341  1.00  0.00    -0.066 NA
BRANCH  63  65
ATOM     65  C   UNL     1      14.513  27.258  35.841  1.00  0.00     0.155 C 
ATOM     66  C   UNL     1      15.139  26.479  36.959  1.00  0.00     0.049 C 
ATOM     67  C   UNL     1      14.170  28.647  36.369  1.00  0.00     0.049 C 
BRANCH  65  68
ATOM     68  C   UNL     1      15.434  27.428  34.694  1.00  0.00     0.331 C 
ATOM     69  O   UNL     1      16.489  26.777  34.661  1.00  0.00    -0.250 OA
BRANCH  68  70
ATOM     70  O   UNL     1      15.094  28.313  33.686  1.00  0.00    -0.479 OA
ATOM     71  H   UNL     1      15.264  29.310  33.751  1.00  0.00     0.296 HD
ENDBRANCH  68  70
ENDBRANCH  65  68
ENDBRANCH  63  65
ENDBRANCH  59  60
ENDBRANCH  58  59
ENDBRANCH  55  58
ENDBRANCH  53  54
ENDBRANCH  50  53
ENDBRANCH  47  50
ENDBRANCH   5  47
BRANCH   4  72
ATOM     72  N   UNL     1       2.478  23.544  34.821  1.00  0.00    -0.348 N 
ATOM     73  C   UNL     1       1.627  24.552  35.355  1.00  0.00     0.217 C 
ATOM     74  H   UNL     1       3.117  23.054  35.477  1.00  0.00     0.163 HD
ATOM     75  C   UNL     1       1.664  24.889  36.811  1.00  0.00     0.114 C 
ATOM     76  O   UNL     1       0.838  25.162  34.586  1.00  0.00    -0.275 OA
ENDBRANCH   4  72
TORSDOF 32
