REMARK VINA RESULT:    -4.753     13.874     18.584
REMARK INTER + INTRA:         -20.840
REMARK INTER:                 -14.137
REMARK INTRA:                  -6.703
REMARK UNBOUND:                -8.028
REMARK SMILES CCN(CC)CCn1cc(COC(=O)NC[C@@H](O)C(O)[C@@H]2O[C@@](OC[C@H]3O[C@@H](O[C@H]4[C@H](O)[C@@H](O)[C@H](OCCN=[N+]=[N-])O[C@@H]4CO)[C@H](O)[C@@H](O)[C@H]3O)(C(=O)O)C[C@H](O)[C@H]2NC(C)=O)nn1
REMARK SMILES IDX 19 1 21 2 23 3 55 4 22 5 56 6 58 7 24 8 25 9 26 10 28 11
REMARK SMILES IDX 27 12 46 13 48 14 50 15 29 16 30 17 43 18 42 19 35 20 31 21
REMARK SMILES IDX 33 22 44 23 45 24 36 26 37 27 38 28 39 29 40 30 41 31 32 32
REMARK SMILES IDX 34 34 47 36 49 38 51 40 52 42 53 43 54 44 57 46 59 48 60 49
REMARK SMILES IDX 61 51 62 52 20 53 17 55 18 56 16 58 15 59 13 60 14 62 12 63
REMARK SMILES IDX 11 64 10 65 9 66 63 67 8 68 64 69 7 70 6 71 3 72 2 73 1 74
REMARK SMILES IDX 4 75 5 76
REMARK H PARENT 45 25 32 33 34 35 47 37 49 39 51 41 54 45 57 47 59 50 20 54
REMARK H PARENT 18 57 15 61
REMARK Flexibility Score: inf
ROOT
ATOM      1  C   UNL     1       5.719  23.614  33.532  1.00  0.00     0.176 C 
ENDROOT
BRANCH   1   2
ATOM      2  C   UNL     1       4.712  22.504  33.381  1.00  0.00     0.178 C 
ATOM      3  C   UNL     1       3.388  21.389  31.865  1.00  0.00     0.272 C 
ATOM      4  C   UNL     1       3.203  20.532  33.126  1.00  0.00     0.113 C 
ATOM      5  O   UNL     1       4.345  22.359  32.065  1.00  0.00    -0.332 OA
ATOM      6  C   UNL     1       2.836  21.325  34.339  1.00  0.00     0.145 C 
ATOM      7  C   UNL     1       3.440  22.728  34.170  1.00  0.00     0.142 C 
BRANCH   3   8
ATOM      8  O   UNL     1       2.144  21.870  31.534  1.00  0.00    -0.338 OA
BRANCH   8   9
ATOM      9  C   UNL     1       2.047  22.529  30.333  1.00  0.00     0.199 C 
BRANCH   9  10
ATOM     10  C   UNL     1       1.961  24.052  30.539  1.00  0.00     0.179 C 
ATOM     11  C   UNL     1       2.994  25.824  29.388  1.00  0.00     0.282 C 
ATOM     12  O   UNL     1       3.073  24.573  29.981  1.00  0.00    -0.341 OA
ATOM     13  C   UNL     1       1.922  26.658  29.966  1.00  0.00     0.202 C 
ATOM     14  C   UNL     1       0.563  26.015  29.944  1.00  0.00     0.179 C 
ATOM     15  C   UNL     1       0.715  24.512  29.844  1.00  0.00     0.177 C 
BRANCH  11  16
ATOM     16  O   UNL     1       2.958  25.569  28.025  1.00  0.00    -0.341 OA
BRANCH  16  17
ATOM     17  C   UNL     1       3.260  26.625  27.240  1.00  0.00     0.184 C 
ATOM     18  C   UNL     1       3.013  26.364  25.777  1.00  0.00     0.178 C 
ATOM     19  O   UNL     1       3.259  27.577  25.072  1.00  0.00    -0.341 OA
ATOM     20  C   UNL     1       4.621  27.701  24.901  1.00  0.00     0.281 C 
ATOM     21  C   UNL     1       4.712  27.075  27.361  1.00  0.00     0.180 C 
ATOM     22  C   UNL     1       5.399  27.202  26.039  1.00  0.00     0.202 C 
BRANCH  18  23
ATOM     23  C   UNL     1       1.683  25.798  25.434  1.00  0.00     0.191 C 
BRANCH  23  24
ATOM     24  O   UNL     1       0.762  26.272  26.360  1.00  0.00    -0.394 OA
ATOM     25  H   UNL     1       0.260  27.067  26.051  1.00  0.00     0.210 HD
ENDBRANCH  23  24
ENDBRANCH  18  23
BRANCH  20  26
ATOM     26  O   UNL     1       4.976  28.973  24.463  1.00  0.00    -0.350 OA
BRANCH  26  27
ATOM     27  C   UNL     1       5.963  29.004  23.524  1.00  0.00     0.169 C 
BRANCH  27  28
ATOM     28  C   UNL     1       7.102  29.936  23.892  1.00  0.00     0.119 C 
BRANCH  28  29
ATOM     29  N   UNL     1       8.000  29.317  24.848  1.00  0.00    -0.092 NA
ATOM     30  N   UNL     1       8.567  28.238  24.634  1.00  0.00     0.001 N 
ATOM     31  N   UNL     1       8.736  27.017  24.621  1.00  0.00    -0.003 NA
ENDBRANCH  28  29
ENDBRANCH  27  28
ENDBRANCH  26  27
ENDBRANCH  20  26
BRANCH  21  32
ATOM     32  O   UNL     1       4.737  28.295  28.010  1.00  0.00    -0.387 OA
ATOM     33  H   UNL     1       5.363  28.339  28.761  1.00  0.00     0.211 HD
ENDBRANCH  21  32
BRANCH  22  34
ATOM     34  O   UNL     1       6.037  25.989  25.676  1.00  0.00    -0.385 OA
ATOM     35  H   UNL     1       6.235  26.068  24.707  1.00  0.00     0.211 HD
ENDBRANCH  22  34
ENDBRANCH  16  17
ENDBRANCH  11  16
BRANCH  13  36
ATOM     36  O   UNL     1       2.234  26.893  31.338  1.00  0.00    -0.385 OA
ATOM     37  H   UNL     1       3.097  27.333  31.430  1.00  0.00     0.211 HD
ENDBRANCH  13  36
BRANCH  14  38
ATOM     38  O   UNL     1      -0.283  26.513  28.966  1.00  0.00    -0.387 OA
ATOM     39  H   UNL     1      -0.209  27.473  28.843  1.00  0.00     0.211 HD
ENDBRANCH  14  38
BRANCH  15  40
ATOM     40  O   UNL     1       0.807  24.183  28.498  1.00  0.00    -0.387 OA
ATOM     41  H   UNL     1       1.583  23.570  28.345  1.00  0.00     0.211 HD
ENDBRANCH  15  40
ENDBRANCH   9  10
ENDBRANCH   8   9
ENDBRANCH   3   8
BRANCH   3  42
ATOM     42  C   UNL     1       3.878  20.432  30.842  1.00  0.00     0.364 C 
ATOM     43  O   UNL     1       3.168  19.426  30.499  1.00  0.00    -0.246 OA
BRANCH  42  44
ATOM     44  O   UNL     1       5.093  20.532  30.194  1.00  0.00    -0.477 OA
ATOM     45  H   UNL     1       5.535  21.438  30.083  1.00  0.00     0.296 HD
ENDBRANCH  42  44
ENDBRANCH   3  42
BRANCH   6  46
ATOM     46  O   UNL     1       1.497  21.351  34.641  1.00  0.00    -0.391 OA
ATOM     47  H   UNL     1       1.324  20.613  35.280  1.00  0.00     0.211 HD
ENDBRANCH   6  46
BRANCH   7  48
ATOM     48  N   UNL     1       3.620  23.377  35.424  1.00  0.00    -0.348 N 
ATOM     49  C   UNL     1       2.791  24.518  35.726  1.00  0.00     0.217 C 
ATOM     50  H   UNL     1       4.297  23.104  36.158  1.00  0.00     0.163 HD
ATOM     51  C   UNL     1       2.924  25.245  37.013  1.00  0.00     0.114 C 
ATOM     52  O   UNL     1       1.929  24.937  34.909  1.00  0.00    -0.275 OA
ENDBRANCH   7  48
ENDBRANCH   1   2
BRANCH   1  53
ATOM     53  O   UNL     1       6.868  23.258  32.838  1.00  0.00    -0.388 OA
ATOM     54  H   UNL     1       7.637  23.823  33.164  1.00  0.00     0.211 HD
ENDBRANCH   1  53
BRANCH   1  55
ATOM     55  C   UNL     1       5.117  24.838  32.891  1.00  0.00     0.165 C 
BRANCH  55  56
ATOM     56  O   UNL     1       5.481  24.873  31.540  1.00  0.00    -0.388 OA
ATOM     57  H   UNL     1       6.457  24.735  31.483  1.00  0.00     0.211 HD
ENDBRANCH  55  56
BRANCH  55  58
ATOM     58  C   UNL     1       5.458  26.132  33.531  1.00  0.00     0.154 C 
BRANCH  58  59
ATOM     59  N   UNL     1       6.773  26.192  34.071  1.00  0.00    -0.319 N 
ATOM     60  C   UNL     1       7.460  27.452  34.109  1.00  0.00     0.407 C 
ATOM     61  H   UNL     1       7.249  25.362  34.426  1.00  0.00     0.167 HD
ATOM     62  O   UNL     1       6.924  28.490  33.671  1.00  0.00    -0.225 OA
BRANCH  60  63
ATOM     63  O   UNL     1       8.738  27.487  34.644  1.00  0.00    -0.443 OA
BRANCH  63  64
ATOM     64  C   UNL     1       9.772  26.733  33.989  1.00  0.00     0.294 C 
BRANCH  64  65
ATOM     65  C   UNL     1       9.703  25.356  34.495  1.00  0.00     0.120 A 
ATOM     66  C   UNL     1      10.071  24.988  35.794  1.00  0.00     0.138 A 
ATOM     67  N   UNL     1       9.314  24.226  33.909  1.00  0.00    -0.132 NA
ATOM     68  N   UNL     1       9.887  23.663  35.934  1.00  0.00    -0.251 N 
ATOM     69  N   UNL     1       9.433  23.229  34.788  1.00  0.00    -0.067 NA
BRANCH  68  70
ATOM     70  C   UNL     1      10.139  22.857  37.113  1.00  0.00     0.161 C 
BRANCH  70  71
ATOM     71  C   UNL     1      10.646  23.779  38.201  1.00  0.00     0.108 C 
BRANCH  71  72
ATOM     72  N   UNL     1       9.789  23.831  39.349  1.00  0.00    -0.302 NA
BRANCH  72  73
ATOM     73  C   UNL     1      10.496  23.555  40.570  1.00  0.00     0.081 C 
ATOM     74  C   UNL     1      11.959  23.939  40.378  1.00  0.00     0.021 C 
ENDBRANCH  72  73
BRANCH  72  75
ATOM     75  C   UNL     1       8.594  23.062  39.198  1.00  0.00     0.081 C 
ATOM     76  C   UNL     1       8.332  22.217  40.428  1.00  0.00     0.021 C 
ENDBRANCH  72  75
ENDBRANCH  71  72
ENDBRANCH  70  71
ENDBRANCH  68  70
ENDBRANCH  64  65
ENDBRANCH  63  64
ENDBRANCH  60  63
ENDBRANCH  58  59
ENDBRANCH  55  58
ENDBRANCH   1  55
TORSDOF 34
