REMARK VINA RESULT:    -5.978     16.032     21.104
REMARK INTER + INTRA:         -23.571
REMARK INTER:                 -13.123
REMARK INTRA:                 -10.448
REMARK UNBOUND:                -6.934
REMARK SMILES CCOCCc1c(-c2ccccc2)nc(N)nc1-n1cc(COC(=O)NC[C@@H](O)C(O)[C@@H]2O[C@@](OC[C@H]3O[C@@H](O[C@H]4[C@H](O)[C@@H](O)[C@H](OCCN=[N+]=[N-])O[C@@H]4CO)[C@H](O)[C@@H](O)[C@H]3O)(C(=O)O)C[C@H](O)[C@H]2NC(C)=O)nn1
REMARK SMILES IDX 30 1 32 2 34 3 66 4 33 5 67 6 69 7 35 8 36 9 37 10 39 11
REMARK SMILES IDX 38 12 57 13 59 14 61 15 40 16 41 17 54 18 53 19 46 20 42 21
REMARK SMILES IDX 44 22 55 23 56 24 47 26 48 27 49 28 50 29 51 30 52 31 43 32
REMARK SMILES IDX 45 34 58 36 60 38 62 40 63 42 64 43 65 44 68 46 70 48 71 49
REMARK SMILES IDX 72 51 73 52 31 53 28 55 29 56 27 58 26 59 24 60 25 62 23 63
REMARK SMILES IDX 22 64 21 65 20 66 74 67 19 68 75 69 18 70 17 71 6 72 15 73
REMARK SMILES IDX 7 74 14 75 5 76 4 77 3 78 2 79 1 80 16 81 8 84 9 85 13 86
REMARK SMILES IDX 10 87 12 88 11 89
REMARK H PARENT 56 25 43 33 45 35 58 37 60 39 62 41 65 45 68 47 70 50 31 54
REMARK H PARENT 29 57 26 61 16 82 16 83
REMARK Flexibility Score: inf
ROOT
ATOM      1  C   UNL     1      26.920  30.775  29.619  1.00  0.00     0.176 C 
ENDROOT
BRANCH   1   2
ATOM      2  C   UNL     1      27.194  29.579  28.757  1.00  0.00     0.178 C 
ATOM      3  C   UNL     1      26.164  28.553  26.923  1.00  0.00     0.272 C 
ATOM      4  C   UNL     1      27.378  27.631  27.053  1.00  0.00     0.113 C 
ATOM      5  O   UNL     1      26.264  29.665  27.678  1.00  0.00    -0.332 OA
ATOM      6  C   UNL     1      27.623  27.202  28.468  1.00  0.00     0.145 C 
ATOM      7  C   UNL     1      26.991  28.240  29.378  1.00  0.00     0.142 C 
BRANCH   3   8
ATOM      8  O   UNL     1      25.047  27.782  27.158  1.00  0.00    -0.338 OA
BRANCH   8   9
ATOM      9  C   UNL     1      23.897  28.465  27.453  1.00  0.00     0.199 C 
BRANCH   9  10
ATOM     10  C   UNL     1      22.718  27.534  27.694  1.00  0.00     0.179 C 
ATOM     11  C   UNL     1      22.211  25.359  27.019  1.00  0.00     0.282 C 
ATOM     12  O   UNL     1      22.714  26.590  26.709  1.00  0.00    -0.341 OA
ATOM     13  C   UNL     1      23.050  24.834  28.192  1.00  0.00     0.202 C 
ATOM     14  C   UNL     1      22.565  25.653  29.388  1.00  0.00     0.179 C 
ATOM     15  C   UNL     1      22.522  27.111  29.093  1.00  0.00     0.177 C 
BRANCH  11  16
ATOM     16  O   UNL     1      22.267  24.532  25.922  1.00  0.00    -0.341 OA
BRANCH  16  17
ATOM     17  C   UNL     1      22.899  25.129  24.843  1.00  0.00     0.184 C 
ATOM     18  C   UNL     1      22.045  25.086  23.621  1.00  0.00     0.178 C 
ATOM     19  O   UNL     1      22.458  24.274  22.612  1.00  0.00    -0.341 OA
ATOM     20  C   UNL     1      23.773  24.267  22.268  1.00  0.00     0.281 C 
ATOM     21  C   UNL     1      24.279  24.580  24.638  1.00  0.00     0.180 C 
ATOM     22  C   UNL     1      24.733  24.878  23.234  1.00  0.00     0.202 C 
BRANCH  18  23
ATOM     23  C   UNL     1      21.691  26.491  23.130  1.00  0.00     0.191 C 
BRANCH  23  24
ATOM     24  O   UNL     1      22.361  27.462  23.853  1.00  0.00    -0.394 OA
ATOM     25  H   UNL     1      21.685  27.947  24.392  1.00  0.00     0.210 HD
ENDBRANCH  23  24
ENDBRANCH  18  23
BRANCH  20  26
ATOM     26  O   UNL     1      23.894  24.908  21.041  1.00  0.00    -0.350 OA
BRANCH  26  27
ATOM     27  C   UNL     1      24.649  26.055  21.073  1.00  0.00     0.169 C 
BRANCH  27  28
ATOM     28  C   UNL     1      24.190  27.124  20.112  1.00  0.00     0.119 C 
BRANCH  28  29
ATOM     29  N   UNL     1      22.741  27.022  19.951  1.00  0.00    -0.092 NA
ATOM     30  N   UNL     1      22.218  26.955  18.832  1.00  0.00     0.001 N 
ATOM     31  N   UNL     1      21.844  27.027  17.662  1.00  0.00    -0.003 NA
ENDBRANCH  28  29
ENDBRANCH  27  28
ENDBRANCH  26  27
ENDBRANCH  20  26
BRANCH  21  32
ATOM     32  O   UNL     1      25.210  25.135  25.521  1.00  0.00    -0.387 OA
ATOM     33  H   UNL     1      25.485  24.485  26.222  1.00  0.00     0.211 HD
ENDBRANCH  21  32
BRANCH  22  34
ATOM     34  O   UNL     1      25.979  24.278  23.058  1.00  0.00    -0.385 OA
ATOM     35  H   UNL     1      26.556  24.368  23.858  1.00  0.00     0.211 HD
ENDBRANCH  22  34
ENDBRANCH  16  17
ENDBRANCH  11  16
BRANCH  13  36
ATOM     36  O   UNL     1      22.852  23.496  28.430  1.00  0.00    -0.385 OA
ATOM     37  H   UNL     1      23.057  22.943  27.628  1.00  0.00     0.211 HD
ENDBRANCH  13  36
BRANCH  14  38
ATOM     38  O   UNL     1      23.189  25.312  30.566  1.00  0.00    -0.387 OA
ATOM     39  H   UNL     1      22.540  25.271  31.333  1.00  0.00     0.211 HD
ENDBRANCH  14  38
BRANCH  15  40
ATOM     40  O   UNL     1      23.501  27.733  29.897  1.00  0.00    -0.387 OA
ATOM     41  H   UNL     1      23.220  27.683  30.846  1.00  0.00     0.211 HD
ENDBRANCH  15  40
ENDBRANCH   9  10
ENDBRANCH   8   9
ENDBRANCH   3   8
BRANCH   3  42
ATOM     42  C   UNL     1      26.189  28.951  25.480  1.00  0.00     0.364 C 
ATOM     43  O   UNL     1      26.033  27.982  24.655  1.00  0.00    -0.246 OA
BRANCH  42  44
ATOM     44  O   UNL     1      26.357  30.221  25.007  1.00  0.00    -0.477 OA
ATOM     45  H   UNL     1      26.741  30.935  25.620  1.00  0.00     0.296 HD
ENDBRANCH  42  44
ENDBRANCH   3  42
BRANCH   6  46
ATOM     46  O   UNL     1      27.025  25.943  28.624  1.00  0.00    -0.391 OA
ATOM     47  H   UNL     1      26.166  25.888  28.161  1.00  0.00     0.211 HD
ENDBRANCH   6  46
BRANCH   7  48
ATOM     48  N   UNL     1      27.417  28.080  30.733  1.00  0.00    -0.348 N 
ATOM     49  C   UNL     1      26.736  27.281  31.688  1.00  0.00     0.217 C 
ATOM     50  H   UNL     1      28.292  28.576  31.011  1.00  0.00     0.163 HD
ATOM     51  C   UNL     1      27.269  27.187  33.061  1.00  0.00     0.114 C 
ATOM     52  O   UNL     1      25.699  26.665  31.360  1.00  0.00    -0.275 OA
ENDBRANCH   7  48
ENDBRANCH   1   2
BRANCH   1  53
ATOM     53  O   UNL     1      25.677  30.483  30.279  1.00  0.00    -0.388 OA
ATOM     54  H   UNL     1      25.716  30.962  31.133  1.00  0.00     0.211 HD
ENDBRANCH   1  53
BRANCH   1  55
ATOM     55  C   UNL     1      26.758  32.093  28.977  1.00  0.00     0.165 C 
BRANCH  55  56
ATOM     56  O   UNL     1      27.734  32.927  29.595  1.00  0.00    -0.388 OA
ATOM     57  H   UNL     1      28.392  33.177  28.916  1.00  0.00     0.211 HD
ENDBRANCH  55  56
BRANCH  55  58
ATOM     58  C   UNL     1      25.449  32.757  29.079  1.00  0.00     0.154 C 
BRANCH  58  59
ATOM     59  N   UNL     1      24.377  32.136  28.403  1.00  0.00    -0.319 N 
ATOM     60  C   UNL     1      24.154  32.148  27.014  1.00  0.00     0.407 C 
ATOM     61  H   UNL     1      23.615  31.582  28.947  1.00  0.00     0.167 HD
ATOM     62  O   UNL     1      24.916  32.738  26.217  1.00  0.00    -0.225 OA
BRANCH  60  63
ATOM     63  O   UNL     1      23.063  31.498  26.426  1.00  0.00    -0.443 OA
BRANCH  63  64
ATOM     64  C   UNL     1      22.812  31.561  25.038  1.00  0.00     0.294 C 
BRANCH  64  65
ATOM     65  C   UNL     1      21.647  30.730  24.655  1.00  0.00     0.121 A 
ATOM     66  C   UNL     1      20.929  30.799  23.489  1.00  0.00     0.146 A 
ATOM     67  N   UNL     1      21.046  29.761  25.382  1.00  0.00    -0.131 NA
ATOM     68  N   UNL     1      19.901  29.870  23.529  1.00  0.00    -0.202 N 
ATOM     69  N   UNL     1      20.031  29.288  24.683  1.00  0.00    -0.060 NA
BRANCH  68  70
ATOM     70  C   UNL     1      19.020  29.782  22.438  1.00  0.00     0.164 A 
ATOM     71  N   UNL     1      19.501  29.336  21.251  1.00  0.00    -0.193 NA
ATOM     72  C   UNL     1      17.645  30.052  22.506  1.00  0.00     0.026 A 
ATOM     73  C   UNL     1      18.741  29.143  20.172  1.00  0.00     0.222 A 
ATOM     74  C   UNL     1      16.849  29.858  21.418  1.00  0.00     0.081 A 
ATOM     75  N   UNL     1      17.435  29.401  20.261  1.00  0.00    -0.213 NA
BRANCH  72  76
ATOM     76  C   UNL     1      17.176  30.649  23.762  1.00  0.00     0.070 C 
BRANCH  76  77
ATOM     77  C   UNL     1      17.051  32.157  23.725  1.00  0.00     0.165 C 
BRANCH  77  78
ATOM     78  O   UNL     1      15.837  32.687  24.039  1.00  0.00    -0.381 OA
BRANCH  78  79
ATOM     79  C   UNL     1      14.913  31.876  24.626  1.00  0.00     0.156 C 
ATOM     80  C   UNL     1      13.501  32.478  24.530  1.00  0.00     0.035 C 
ENDBRANCH  78  79
ENDBRANCH  77  78
ENDBRANCH  76  77
ENDBRANCH  72  76
BRANCH  73  81
ATOM     81  N   UNL     1      19.297  28.672  18.940  1.00  0.00    -0.368 N 
ATOM     82  H   UNL     1      19.528  29.344  18.180  1.00  0.00     0.159 HD
ATOM     83  H   UNL     1      19.491  27.674  18.758  1.00  0.00     0.159 HD
ENDBRANCH  73  81
BRANCH  74  84
ATOM     84  C   UNL     1      15.421  30.087  21.414  1.00  0.00     0.001 A 
ATOM     85  C   UNL     1      14.602  29.116  21.987  1.00  0.00     0.010 A 
ATOM     86  C   UNL     1      14.853  31.235  20.892  1.00  0.00     0.010 A 
ATOM     87  C   UNL     1      13.224  29.276  22.045  1.00  0.00     0.001 A 
ATOM     88  C   UNL     1      13.487  31.373  20.960  1.00  0.00     0.001 A 
ATOM     89  C   UNL     1      12.673  30.423  21.523  1.00  0.00     0.000 A 
ENDBRANCH  74  84
ENDBRANCH  68  70
ENDBRANCH  64  65
ENDBRANCH  63  64
ENDBRANCH  60  63
ENDBRANCH  58  59
ENDBRANCH  55  58
ENDBRANCH   1  55
TORSDOF 36
