REMARK VINA RESULT:    -6.318     16.846     21.165
REMARK INTER + INTRA:         -21.750
REMARK INTER:                 -15.460
REMARK INTRA:                  -6.290
REMARK UNBOUND:                -5.460
REMARK SMILES CC(=O)N[C@@H]1[C@@H](O)C[C@](OC[C@H]2O[C@@H](O[C@H]3[C@H](O)[C@@H](O)[C@H](OCCN=[N+]=[N-])O[C@@H]3CO)[C@H](O)[C@@H](O)[C@H]2O)(C(=O)O)O[C@H]1C(O)[C@H](O)CNC(=O)OCc1cn(C(c2ccccc2)c2ccccc2)nn1
REMARK SMILES IDX 9 1 8 2 6 3 5 4 42 5 41 6 10 7 11 8 12 9 14 10 13 11 32 12
REMARK SMILES IDX 34 13 36 14 15 15 16 16 29 17 28 18 21 19 17 20 19 21 30 22
REMARK SMILES IDX 31 23 22 25 23 26 24 27 25 28 26 29 27 30 18 31 20 33 33 35
REMARK SMILES IDX 35 37 37 39 38 41 39 42 40 43 7 45 43 47 44 48 45 50 46 51
REMARK SMILES IDX 47 53 48 54 49 55 50 57 51 58 52 59 53 60 54 61 70 62 55 63
REMARK SMILES IDX 69 64 56 65 57 66 58 67 62 68 59 69 61 70 60 71 63 72 64 73
REMARK SMILES IDX 68 74 65 75 67 76 66 77 4 78 2 79 1 81 3 82
REMARK H PARENT 31 24 18 32 20 34 33 36 35 38 37 40 40 44 7 46 44 49 46 52
REMARK H PARENT 48 56 4 80
REMARK Flexibility Score: inf
ROOT
ATOM      1  C   UNL     1       3.267  23.006  32.122  1.00  0.00     0.272 C 
ATOM      2  C   UNL     1       4.288  22.095  31.408  1.00  0.00     0.113 C 
ATOM      3  C   UNL     1       3.630  20.851  30.971  1.00  0.00     0.145 C 
ATOM      4  C   UNL     1       2.481  21.175  30.049  1.00  0.00     0.142 C 
ATOM      5  C   UNL     1       1.969  22.559  30.208  1.00  0.00     0.178 C 
ATOM      6  O   UNL     1       2.121  23.119  31.435  1.00  0.00    -0.332 OA
ENDROOT
BRANCH   1   7
ATOM      7  O   UNL     1       3.860  24.273  32.256  1.00  0.00    -0.338 OA
BRANCH   7   8
ATOM      8  C   UNL     1       2.924  25.247  32.483  1.00  0.00     0.199 C 
BRANCH   8   9
ATOM      9  C   UNL     1       2.933  25.739  33.929  1.00  0.00     0.179 C 
ATOM     10  C   UNL     1       4.993  26.724  34.621  1.00  0.00     0.282 C 
ATOM     11  O   UNL     1       4.129  25.703  34.453  1.00  0.00    -0.341 OA
ATOM     12  C   UNL     1       4.567  28.003  34.080  1.00  0.00     0.202 C 
ATOM     13  C   UNL     1       3.097  28.242  34.101  1.00  0.00     0.179 C 
ATOM     14  C   UNL     1       2.210  27.059  34.067  1.00  0.00     0.177 C 
BRANCH  10  15
ATOM     15  O   UNL     1       6.211  26.212  34.075  1.00  0.00    -0.341 OA
BRANCH  15  16
ATOM     16  C   UNL     1       7.067  25.795  35.049  1.00  0.00     0.184 C 
ATOM     17  C   UNL     1       8.453  26.288  34.827  1.00  0.00     0.178 C 
ATOM     18  O   UNL     1       9.248  26.025  35.950  1.00  0.00    -0.341 OA
ATOM     19  C   UNL     1       9.506  24.684  36.034  1.00  0.00     0.281 C 
ATOM     20  C   UNL     1       7.159  24.275  35.098  1.00  0.00     0.180 C 
ATOM     21  C   UNL     1       8.553  23.829  35.302  1.00  0.00     0.202 C 
BRANCH  17  22
ATOM     22  C   UNL     1       8.555  27.745  34.422  1.00  0.00     0.191 C 
BRANCH  22  23
ATOM     23  O   UNL     1       8.331  27.854  33.054  1.00  0.00    -0.394 OA
ATOM     24  H   UNL     1       7.673  28.538  32.811  1.00  0.00     0.210 HD
ENDBRANCH  22  23
ENDBRANCH  17  22
BRANCH  19  25
ATOM     25  O   UNL     1       9.683  24.271  37.365  1.00  0.00    -0.350 OA
BRANCH  25  26
ATOM     26  C   UNL     1       9.503  22.936  37.584  1.00  0.00     0.169 C 
BRANCH  26  27
ATOM     27  C   UNL     1      10.161  22.545  38.887  1.00  0.00     0.119 C 
BRANCH  27  28
ATOM     28  N   UNL     1       9.749  21.213  39.322  1.00  0.00    -0.092 NA
ATOM     29  N   UNL     1       9.043  21.035  40.307  1.00  0.00     0.001 N 
ATOM     30  N   UNL     1       8.629  20.944  41.469  1.00  0.00    -0.003 NA
ENDBRANCH  27  28
ENDBRANCH  26  27
ENDBRANCH  25  26
ENDBRANCH  19  25
BRANCH  20  31
ATOM     31  O   UNL     1       6.259  23.844  36.073  1.00  0.00    -0.387 OA
ATOM     32  H   UNL     1       5.325  24.108  35.852  1.00  0.00     0.211 HD
ENDBRANCH  20  31
BRANCH  21  33
ATOM     33  O   UNL     1       9.092  23.501  34.023  1.00  0.00    -0.385 OA
ATOM     34  H   UNL     1       9.881  22.921  34.216  1.00  0.00     0.211 HD
ENDBRANCH  21  33
ENDBRANCH  15  16
ENDBRANCH  10  15
BRANCH  12  35
ATOM     35  O   UNL     1       5.136  29.116  34.752  1.00  0.00    -0.385 OA
ATOM     36  H   UNL     1       4.420  29.795  34.786  1.00  0.00     0.211 HD
ENDBRANCH  12  35
BRANCH  13  37
ATOM     37  O   UNL     1       2.708  29.120  33.057  1.00  0.00    -0.387 OA
ATOM     38  H   UNL     1       3.520  29.495  32.626  1.00  0.00     0.211 HD
ENDBRANCH  13  37
BRANCH  14  39
ATOM     39  O   UNL     1       1.366  27.146  32.948  1.00  0.00    -0.387 OA
ATOM     40  H   UNL     1       0.414  27.088  33.198  1.00  0.00     0.211 HD
ENDBRANCH  14  39
ENDBRANCH   8   9
ENDBRANCH   7   8
ENDBRANCH   1   7
BRANCH   1  41
ATOM     41  C   UNL     1       3.087  22.419  33.450  1.00  0.00     0.364 C 
ATOM     42  O   UNL     1       1.969  22.023  33.832  1.00  0.00    -0.246 OA
BRANCH  41  43
ATOM     43  O   UNL     1       4.143  22.272  34.353  1.00  0.00    -0.477 OA
ATOM     44  H   UNL     1       4.942  22.888  34.323  1.00  0.00     0.296 HD
ENDBRANCH  41  43
ENDBRANCH   1  41
BRANCH   3  45
ATOM     45  O   UNL     1       4.595  20.093  30.273  1.00  0.00    -0.391 OA
ATOM     46  H   UNL     1       4.168  19.540  29.572  1.00  0.00     0.211 HD
ENDBRANCH   3  45
BRANCH   5  47
ATOM     47  C   UNL     1       2.353  23.548  29.144  1.00  0.00     0.176 C 
BRANCH  47  48
ATOM     48  O   UNL     1       1.301  24.486  29.084  1.00  0.00    -0.388 OA
ATOM     49  H   UNL     1       1.255  24.957  28.235  1.00  0.00     0.211 HD
ENDBRANCH  47  48
BRANCH  47  50
ATOM     50  C   UNL     1       2.556  23.000  27.778  1.00  0.00     0.165 C 
BRANCH  50  51
ATOM     51  O   UNL     1       3.570  23.744  27.185  1.00  0.00    -0.388 OA
ATOM     52  H   UNL     1       3.650  24.659  27.560  1.00  0.00     0.211 HD
ENDBRANCH  50  51
BRANCH  50  53
ATOM     53  C   UNL     1       1.361  22.986  26.890  1.00  0.00     0.154 C 
BRANCH  53  54
ATOM     54  N   UNL     1       1.198  24.112  26.028  1.00  0.00    -0.319 N 
ATOM     55  C   UNL     1       0.218  25.107  26.091  1.00  0.00     0.407 C 
ATOM     56  H   UNL     1       1.907  24.215  25.232  1.00  0.00     0.167 HD
ATOM     57  O   UNL     1      -0.656  25.069  26.966  1.00  0.00    -0.225 OA
BRANCH  55  58
ATOM     58  O   UNL     1       0.198  26.161  25.181  1.00  0.00    -0.443 OA
BRANCH  58  59
ATOM     59  C   UNL     1       0.946  27.356  25.457  1.00  0.00     0.294 C 
BRANCH  59  60
ATOM     60  C   UNL     1       2.387  27.003  25.515  1.00  0.00     0.120 A 
ATOM     61  C   UNL     1       3.220  27.400  26.521  1.00  0.00     0.139 A 
ATOM     62  N   UNL     1       3.053  26.270  24.628  1.00  0.00    -0.132 NA
ATOM     63  N   UNL     1       4.423  26.883  26.218  1.00  0.00    -0.240 N 
ATOM     64  N   UNL     1       4.308  26.202  25.072  1.00  0.00    -0.066 NA
BRANCH  63  65
ATOM     65  C   UNL     1       5.673  26.976  26.944  1.00  0.00     0.169 C 
BRANCH  65  66
ATOM     66  C   UNL     1       5.424  27.729  28.180  1.00  0.00    -0.019 A 
ATOM     67  C   UNL     1       5.141  27.069  29.359  1.00  0.00     0.006 A 
ATOM     68  C   UNL     1       5.441  29.106  28.235  1.00  0.00     0.006 A 
ATOM     69  C   UNL     1       4.887  27.761  30.535  1.00  0.00     0.000 A 
ATOM     70  C   UNL     1       5.188  29.810  29.408  1.00  0.00     0.000 A 
ATOM     71  C   UNL     1       4.907  29.133  30.578  1.00  0.00     0.000 A 
ENDBRANCH  65  66
BRANCH  65  72
ATOM     72  C   UNL     1       6.734  27.530  26.079  1.00  0.00    -0.019 A 
ATOM     73  C   UNL     1       7.921  26.812  25.996  1.00  0.00     0.006 A 
ATOM     74  C   UNL     1       6.643  28.700  25.382  1.00  0.00     0.006 A 
ATOM     75  C   UNL     1       8.963  27.272  25.236  1.00  0.00     0.000 A 
ATOM     76  C   UNL     1       7.691  29.171  24.611  1.00  0.00     0.000 A 
ATOM     77  C   UNL     1       8.859  28.457  24.536  1.00  0.00     0.000 A 
ENDBRANCH  65  72
ENDBRANCH  63  65
ENDBRANCH  59  60
ENDBRANCH  58  59
ENDBRANCH  55  58
ENDBRANCH  53  54
ENDBRANCH  50  53
ENDBRANCH  47  50
ENDBRANCH   5  47
BRANCH   4  78
ATOM     78  N   UNL     1       1.428  20.206  30.409  1.00  0.00    -0.348 N 
ATOM     79  C   UNL     1       0.469  19.741  29.467  1.00  0.00     0.217 C 
ATOM     80  H   UNL     1       1.350  19.822  31.384  1.00  0.00     0.163 HD
ATOM     81  C   UNL     1      -0.590  18.752  29.863  1.00  0.00     0.114 C 
ATOM     82  O   UNL     1       0.479  20.139  28.283  1.00  0.00    -0.275 OA
ENDBRANCH   4  78
TORSDOF 32
