REMARK VINA RESULT:    -4.938      2.901      5.355
REMARK INTER + INTRA:         -20.782
REMARK INTER:                 -14.468
REMARK INTRA:                  -6.313
REMARK UNBOUND:                -8.339
REMARK SMILES CC(=O)N[C@@H]1[C@@H](O)C[C@](OC[C@H]2O[C@@H](O[C@H]3[C@H](O)[C@@H](O)[C@H](OCCN=[N+]=[N-])O[C@@H]3CO)[C@H](O)[C@@H](O)[C@H]2O)(C(=O)O)O[C@H]1C(O)[C@H](O)CNC(=O)OCc1cn(Cc2ccccc2)nn1
REMARK SMILES IDX 9 1 8 2 6 3 5 4 42 5 41 6 10 7 11 8 12 9 14 10 13 11 32 12
REMARK SMILES IDX 34 13 36 14 15 15 16 16 29 17 28 18 21 19 17 20 19 21 30 22
REMARK SMILES IDX 31 23 22 25 23 26 24 27 25 28 26 29 27 30 18 31 20 33 33 35
REMARK SMILES IDX 35 37 37 39 38 41 39 42 40 43 7 45 43 47 44 48 45 50 46 51
REMARK SMILES IDX 47 53 48 54 49 55 50 57 51 58 52 59 53 60 54 61 64 62 55 63
REMARK SMILES IDX 63 64 56 65 57 66 58 67 62 68 59 69 61 70 60 71 4 72 2 73
REMARK SMILES IDX 1 75 3 76
REMARK H PARENT 31 24 18 32 20 34 33 36 35 38 37 40 40 44 7 46 44 49 46 52
REMARK H PARENT 48 56 4 74
REMARK Flexibility Score: inf
ROOT
ATOM      1  C   UNL     1      14.678  30.329  21.080  1.00  0.00     0.272 C 
ATOM      2  C   UNL     1      15.040  31.674  21.594  1.00  0.00     0.113 C 
ATOM      3  C   UNL     1      16.300  32.123  20.960  1.00  0.00     0.145 C 
ATOM      4  C   UNL     1      16.957  31.070  20.054  1.00  0.00     0.142 C 
ATOM      5  C   UNL     1      16.902  29.734  20.662  1.00  0.00     0.178 C 
ATOM      6  O   UNL     1      15.741  29.468  21.411  1.00  0.00    -0.332 OA
ENDROOT
BRANCH   1   7
ATOM      7  O   UNL     1      14.366  30.253  19.739  1.00  0.00    -0.338 OA
BRANCH   7   8
ATOM      8  C   UNL     1      13.328  31.120  19.440  1.00  0.00     0.199 C 
BRANCH   8   9
ATOM      9  C   UNL     1      13.439  31.691  18.045  1.00  0.00     0.179 C 
ATOM     10  C   UNL     1      15.055  32.058  16.401  1.00  0.00     0.282 C 
ATOM     11  O   UNL     1      14.709  32.135  17.753  1.00  0.00    -0.341 OA
ATOM     12  C   UNL     1      13.937  32.411  15.493  1.00  0.00     0.202 C 
ATOM     13  C   UNL     1      12.801  31.453  15.662  1.00  0.00     0.179 C 
ATOM     14  C   UNL     1      12.889  30.758  17.000  1.00  0.00     0.177 C 
BRANCH  10  15
ATOM     15  O   UNL     1      15.572  30.812  16.087  1.00  0.00    -0.341 OA
BRANCH  15  16
ATOM     16  C   UNL     1      16.569  30.847  15.120  1.00  0.00     0.184 C 
ATOM     17  C   UNL     1      16.795  29.494  14.555  1.00  0.00     0.178 C 
ATOM     18  O   UNL     1      17.848  29.600  13.621  1.00  0.00    -0.341 OA
ATOM     19  C   UNL     1      19.022  29.658  14.399  1.00  0.00     0.281 C 
ATOM     20  C   UNL     1      17.838  31.261  15.882  1.00  0.00     0.180 C 
ATOM     21  C   UNL     1      19.087  31.005  15.105  1.00  0.00     0.202 C 
BRANCH  17  22
ATOM     22  C   UNL     1      15.557  28.940  13.857  1.00  0.00     0.191 C 
BRANCH  22  23
ATOM     23  O   UNL     1      14.787  28.296  14.850  1.00  0.00    -0.394 OA
ATOM     24  H   UNL     1      14.403  28.984  15.443  1.00  0.00     0.210 HD
ENDBRANCH  22  23
ENDBRANCH  17  22
BRANCH  19  25
ATOM     25  O   UNL     1      20.112  29.501  13.581  1.00  0.00    -0.350 OA
BRANCH  25  26
ATOM     26  C   UNL     1      20.207  30.568  12.709  1.00  0.00     0.169 C 
BRANCH  26  27
ATOM     27  C   UNL     1      20.759  30.234  11.356  1.00  0.00     0.119 C 
BRANCH  27  28
ATOM     28  N   UNL     1      19.600  29.971  10.490  1.00  0.00    -0.092 NA
ATOM     29  N   UNL     1      19.095  28.851  10.566  1.00  0.00     0.001 N 
ATOM     30  N   UNL     1      18.281  27.919  10.521  1.00  0.00    -0.003 NA
ENDBRANCH  27  28
ENDBRANCH  26  27
ENDBRANCH  25  26
ENDBRANCH  19  25
BRANCH  20  31
ATOM     31  O   UNL     1      17.702  32.652  16.067  1.00  0.00    -0.387 OA
ATOM     32  H   UNL     1      17.110  32.869  16.836  1.00  0.00     0.211 HD
ENDBRANCH  20  31
BRANCH  21  33
ATOM     33  O   UNL     1      20.174  30.966  15.977  1.00  0.00    -0.385 OA
ATOM     34  H   UNL     1      20.753  30.170  15.832  1.00  0.00     0.211 HD
ENDBRANCH  21  33
ENDBRANCH  15  16
ENDBRANCH  10  15
BRANCH  12  35
ATOM     35  O   UNL     1      13.520  33.744  15.652  1.00  0.00    -0.385 OA
ATOM     36  H   UNL     1      12.824  33.729  16.356  1.00  0.00     0.211 HD
ENDBRANCH  12  35
BRANCH  13  37
ATOM     37  O   UNL     1      12.838  30.525  14.628  1.00  0.00    -0.387 OA
ATOM     38  H   UNL     1      12.621  29.604  14.937  1.00  0.00     0.211 HD
ENDBRANCH  13  37
BRANCH  14  39
ATOM     39  O   UNL     1      13.477  29.524  16.951  1.00  0.00    -0.387 OA
ATOM     40  H   UNL     1      12.907  28.748  17.123  1.00  0.00     0.211 HD
ENDBRANCH  14  39
ENDBRANCH   8   9
ENDBRANCH   7   8
ENDBRANCH   1   7
BRANCH   1  41
ATOM     41  C   UNL     1      13.530  29.722  21.837  1.00  0.00     0.364 C 
ATOM     42  O   UNL     1      12.781  30.450  22.491  1.00  0.00    -0.246 OA
BRANCH  41  43
ATOM     43  O   UNL     1      13.321  28.362  21.793  1.00  0.00    -0.477 OA
ATOM     44  H   UNL     1      14.086  27.692  21.705  1.00  0.00     0.296 HD
ENDBRANCH  41  43
ENDBRANCH   1  41
BRANCH   3  45
ATOM     45  O   UNL     1      16.163  33.273  20.159  1.00  0.00    -0.391 OA
ATOM     46  H   UNL     1      15.324  33.308  19.676  1.00  0.00     0.211 HD
ENDBRANCH   3  45
BRANCH   5  47
ATOM     47  C   UNL     1      17.116  28.538  19.832  1.00  0.00     0.176 C 
BRANCH  47  48
ATOM     48  O   UNL     1      16.371  27.432  20.177  1.00  0.00    -0.388 OA
ATOM     49  H   UNL     1      15.725  27.573  20.903  1.00  0.00     0.211 HD
ENDBRANCH  47  48
BRANCH  47  50
ATOM     50  C   UNL     1      17.106  28.697  18.339  1.00  0.00     0.165 C 
BRANCH  50  51
ATOM     51  O   UNL     1      15.878  28.555  17.769  1.00  0.00    -0.388 OA
ATOM     52  H   UNL     1      15.750  29.059  16.942  1.00  0.00     0.211 HD
ENDBRANCH  50  51
BRANCH  50  53
ATOM     53  C   UNL     1      18.265  28.012  17.676  1.00  0.00     0.154 C 
BRANCH  53  54
ATOM     54  N   UNL     1      19.528  28.685  17.834  1.00  0.00    -0.319 N 
ATOM     55  C   UNL     1      20.443  28.460  18.913  1.00  0.00     0.407 C 
ATOM     56  H   UNL     1      19.871  29.412  17.137  1.00  0.00     0.167 HD
ATOM     57  O   UNL     1      20.152  27.629  19.804  1.00  0.00    -0.225 OA
BRANCH  55  58
ATOM     58  O   UNL     1      21.643  29.142  18.998  1.00  0.00    -0.443 OA
BRANCH  58  59
ATOM     59  C   UNL     1      22.825  28.520  18.557  1.00  0.00     0.294 C 
BRANCH  59  60
ATOM     60  C   UNL     1      23.469  27.755  19.646  1.00  0.00     0.120 A 
ATOM     61  C   UNL     1      23.271  26.384  19.860  1.00  0.00     0.138 A 
ATOM     62  N   UNL     1      24.320  28.135  20.605  1.00  0.00    -0.132 NA
ATOM     63  N   UNL     1      24.003  26.011  20.922  1.00  0.00    -0.248 N 
ATOM     64  N   UNL     1      24.624  27.067  21.357  1.00  0.00    -0.067 NA
BRANCH  63  65
ATOM     65  C   UNL     1      24.073  24.669  21.457  1.00  0.00     0.181 C 
BRANCH  65  66
ATOM     66  C   UNL     1      23.468  24.647  22.811  1.00  0.00    -0.026 A 
ATOM     67  C   UNL     1      24.240  24.619  23.959  1.00  0.00     0.005 A 
ATOM     68  C   UNL     1      22.086  24.657  22.922  1.00  0.00     0.005 A 
ATOM     69  C   UNL     1      23.627  24.598  25.200  1.00  0.00     0.000 A 
ATOM     70  C   UNL     1      21.486  24.637  24.167  1.00  0.00     0.000 A 
ATOM     71  C   UNL     1      22.259  24.608  25.299  1.00  0.00     0.000 A 
ENDBRANCH  65  66
ENDBRANCH  63  65
ENDBRANCH  59  60
ENDBRANCH  58  59
ENDBRANCH  55  58
ENDBRANCH  53  54
ENDBRANCH  50  53
ENDBRANCH  47  50
ENDBRANCH   5  47
BRANCH   4  72
ATOM     72  N   UNL     1      18.350  31.560  20.027  1.00  0.00    -0.348 N 
ATOM     73  C   UNL     1      19.240  31.420  21.116  1.00  0.00     0.217 C 
ATOM     74  H   UNL     1      18.702  32.035  19.167  1.00  0.00     0.163 HD
ATOM     75  C   UNL     1      20.643  31.929  21.061  1.00  0.00     0.114 C 
ATOM     76  O   UNL     1      18.829  30.847  22.154  1.00  0.00    -0.275 OA
ENDBRANCH   4  72
TORSDOF 31
