REMARK VINA RESULT:    -5.385     24.779     28.206
REMARK INTER + INTRA:         -21.092
REMARK INTER:                 -15.407
REMARK INTRA:                  -5.686
REMARK UNBOUND:                -7.364
REMARK SMILES CC(=O)N[C@@H]1[C@@H](O)C[C@](OC[C@H]2O[C@@H](O[C@H]3[C@H](O)[C@@H](O)[C@H](OCCN=[N+]=[N-])O[C@@H]3CO)[C@H](O)[C@@H](O)[C@H]2O)(C(=O)O)O[C@H]1C(O)[C@H](O)CNC(=O)OCc1cn([C@@H](C)C(=O)O)nn1
REMARK SMILES IDX 9 1 8 2 6 3 5 4 42 5 41 6 10 7 11 8 12 9 14 10 13 11 32 12
REMARK SMILES IDX 34 13 36 14 15 15 16 16 29 17 28 18 21 19 17 20 19 21 30 22
REMARK SMILES IDX 31 23 22 25 23 26 24 27 25 28 26 29 27 30 18 31 20 33 33 35
REMARK SMILES IDX 35 37 37 39 38 41 39 42 40 43 7 45 43 47 44 48 45 50 46 51
REMARK SMILES IDX 47 53 48 54 49 55 50 57 51 58 52 59 53 60 54 61 62 62 55 63
REMARK SMILES IDX 61 64 56 65 57 66 58 67 59 68 60 69 4 71 2 72 1 74 3 75
REMARK H PARENT 31 24 18 32 20 34 33 36 35 38 37 40 40 44 7 46 44 49 46 52
REMARK H PARENT 48 56 60 70 4 73
REMARK Flexibility Score: inf
ROOT
ATOM      1  C   UNL     1      25.476  21.034  13.831  1.00  0.00     0.272 C 
ATOM      2  C   UNL     1      25.809  22.451  13.567  1.00  0.00     0.113 C 
ATOM      3  C   UNL     1      27.316  22.547  13.495  1.00  0.00     0.145 C 
ATOM      4  C   UNL     1      27.742  22.385  14.998  1.00  0.00     0.142 C 
ATOM      5  C   UNL     1      26.983  21.322  15.634  1.00  0.00     0.178 C 
ATOM      6  O   UNL     1      26.273  20.469  14.832  1.00  0.00    -0.332 OA
ENDROOT
BRANCH   1   7
ATOM      7  O   UNL     1      25.486  20.269  12.707  1.00  0.00    -0.338 OA
BRANCH   7   8
ATOM      8  C   UNL     1      26.011  19.031  12.752  1.00  0.00     0.199 C 
BRANCH   8   9
ATOM      9  C   UNL     1      25.085  18.008  12.048  1.00  0.00     0.179 C 
ATOM     10  C   UNL     1      22.835  17.569  11.778  1.00  0.00     0.282 C 
ATOM     11  O   UNL     1      23.804  18.468  12.210  1.00  0.00    -0.341 OA
ATOM     12  C   UNL     1      23.415  16.406  11.028  1.00  0.00     0.202 C 
ATOM     13  C   UNL     1      24.436  16.878  10.011  1.00  0.00     0.179 C 
ATOM     14  C   UNL     1      25.431  17.860  10.607  1.00  0.00     0.177 C 
BRANCH  10  15
ATOM     15  O   UNL     1      21.877  18.162  10.944  1.00  0.00    -0.341 OA
BRANCH  15  16
ATOM     16  C   UNL     1      21.180  19.168  11.596  1.00  0.00     0.184 C 
ATOM     17  C   UNL     1      19.810  19.309  11.012  1.00  0.00     0.178 C 
ATOM     18  O   UNL     1      19.656  20.500  10.302  1.00  0.00    -0.341 OA
ATOM     19  C   UNL     1      20.678  20.665   9.363  1.00  0.00     0.281 C 
ATOM     20  C   UNL     1      21.961  20.450  11.433  1.00  0.00     0.180 C 
ATOM     21  C   UNL     1      21.998  20.958  10.018  1.00  0.00     0.202 C 
BRANCH  17  22
ATOM     22  C   UNL     1      18.734  19.261  12.072  1.00  0.00     0.191 C 
BRANCH  22  23
ATOM     23  O   UNL     1      17.807  18.250  11.831  1.00  0.00    -0.394 OA
ATOM     24  H   UNL     1      17.632  17.756  12.658  1.00  0.00     0.210 HD
ENDBRANCH  22  23
ENDBRANCH  17  22
BRANCH  19  25
ATOM     25  O   UNL     1      20.317  21.750   8.583  1.00  0.00    -0.350 OA
BRANCH  25  26
ATOM     26  C   UNL     1      19.722  21.300   7.423  1.00  0.00     0.169 C 
BRANCH  26  27
ATOM     27  C   UNL     1      20.706  20.502   6.593  1.00  0.00     0.119 C 
BRANCH  27  28
ATOM     28  N   UNL     1      20.148  19.169   6.375  1.00  0.00    -0.092 NA
ATOM     29  N   UNL     1      20.702  18.150   6.789  1.00  0.00     0.001 N 
ATOM     30  N   UNL     1      21.187  17.240   7.438  1.00  0.00    -0.003 NA
ENDBRANCH  27  28
ENDBRANCH  26  27
ENDBRANCH  25  26
ENDBRANCH  19  25
BRANCH  20  31
ATOM     31  O   UNL     1      21.494  21.459  12.274  1.00  0.00    -0.387 OA
ATOM     32  H   UNL     1      20.768  21.994  11.887  1.00  0.00     0.211 HD
ENDBRANCH  20  31
BRANCH  21  33
ATOM     33  O   UNL     1      22.998  20.307   9.300  1.00  0.00    -0.385 OA
ATOM     34  H   UNL     1      22.861  20.399   8.329  1.00  0.00     0.211 HD
ENDBRANCH  21  33
ENDBRANCH  15  16
ENDBRANCH  10  15
BRANCH  12  35
ATOM     35  O   UNL     1      23.873  15.385  11.826  1.00  0.00    -0.385 OA
ATOM     36  H   UNL     1      24.517  14.807  11.309  1.00  0.00     0.211 HD
ENDBRANCH  12  35
BRANCH  13  37
ATOM     37  O   UNL     1      23.715  17.530   8.987  1.00  0.00    -0.387 OA
ATOM     38  H   UNL     1      22.978  16.953   8.653  1.00  0.00     0.211 HD
ENDBRANCH  13  37
BRANCH  14  39
ATOM     39  O   UNL     1      25.381  19.084   9.941  1.00  0.00    -0.387 OA
ATOM     40  H   UNL     1      26.212  19.594  10.121  1.00  0.00     0.211 HD
ENDBRANCH  14  39
ENDBRANCH   8   9
ENDBRANCH   7   8
ENDBRANCH   1   7
BRANCH   1  41
ATOM     41  C   UNL     1      24.117  21.001  14.434  1.00  0.00     0.364 C 
ATOM     42  O   UNL     1      23.514  22.058  14.671  1.00  0.00    -0.246 OA
BRANCH  41  43
ATOM     43  O   UNL     1      23.495  19.799  14.743  1.00  0.00    -0.477 OA
ATOM     44  H   UNL     1      22.475  19.753  14.881  1.00  0.00     0.296 HD
ENDBRANCH  41  43
ENDBRANCH   1  41
BRANCH   3  45
ATOM     45  O   UNL     1      27.787  21.400  12.868  1.00  0.00    -0.391 OA
ATOM     46  H   UNL     1      28.335  20.839  13.443  1.00  0.00     0.211 HD
ENDBRANCH   3  45
BRANCH   5  47
ATOM     47  C   UNL     1      27.733  20.456  16.633  1.00  0.00     0.176 C 
BRANCH  47  48
ATOM     48  O   UNL     1      28.754  21.294  17.212  1.00  0.00    -0.388 OA
ATOM     49  H   UNL     1      28.756  22.153  16.759  1.00  0.00     0.211 HD
ENDBRANCH  47  48
BRANCH  47  50
ATOM     50  C   UNL     1      28.539  19.341  15.998  1.00  0.00     0.165 C 
BRANCH  50  51
ATOM     51  O   UNL     1      27.827  18.268  15.561  1.00  0.00    -0.388 OA
ATOM     52  H   UNL     1      28.294  17.617  14.991  1.00  0.00     0.211 HD
ENDBRANCH  50  51
BRANCH  50  53
ATOM     53  C   UNL     1      29.785  19.037  16.758  1.00  0.00     0.154 C 
BRANCH  53  54
ATOM     54  N   UNL     1      29.642  18.425  18.026  1.00  0.00    -0.319 N 
ATOM     55  C   UNL     1      29.996  18.967  19.289  1.00  0.00     0.407 C 
ATOM     56  H   UNL     1      29.221  17.445  18.030  1.00  0.00     0.167 HD
ATOM     57  O   UNL     1      30.479  20.104  19.344  1.00  0.00    -0.225 OA
BRANCH  55  58
ATOM     58  O   UNL     1      29.794  18.209  20.454  1.00  0.00    -0.443 OA
BRANCH  58  59
ATOM     59  C   UNL     1      28.903  18.643  21.447  1.00  0.00     0.294 C 
BRANCH  59  60
ATOM     60  C   UNL     1      29.524  19.519  22.447  1.00  0.00     0.120 A 
ATOM     61  C   UNL     1      30.647  19.308  23.216  1.00  0.00     0.139 A 
ATOM     62  N   UNL     1      29.036  20.747  22.767  1.00  0.00    -0.132 NA
ATOM     63  N   UNL     1      30.809  20.397  23.969  1.00  0.00    -0.238 N 
ATOM     64  N   UNL     1      29.842  21.266  23.704  1.00  0.00    -0.066 NA
BRANCH  63  65
ATOM     65  C   UNL     1      31.870  20.607  24.933  1.00  0.00     0.215 C 
ATOM     66  C   UNL     1      32.289  22.044  24.919  1.00  0.00     0.046 C 
BRANCH  65  67
ATOM     67  C   UNL     1      31.446  20.212  26.297  1.00  0.00     0.328 C 
ATOM     68  O   UNL     1      32.009  19.230  26.839  1.00  0.00    -0.250 OA
BRANCH  67  69
ATOM     69  O   UNL     1      30.452  20.885  26.991  1.00  0.00    -0.480 OA
ATOM     70  H   UNL     1      30.665  21.647  27.624  1.00  0.00     0.296 HD
ENDBRANCH  67  69
ENDBRANCH  65  67
ENDBRANCH  63  65
ENDBRANCH  59  60
ENDBRANCH  58  59
ENDBRANCH  55  58
ENDBRANCH  53  54
ENDBRANCH  50  53
ENDBRANCH  47  50
ENDBRANCH   5  47
BRANCH   4  71
ATOM     71  N   UNL     1      27.652  23.697  15.611  1.00  0.00    -0.348 N 
ATOM     72  C   UNL     1      28.689  24.422  16.197  1.00  0.00     0.217 C 
ATOM     73  H   UNL     1      26.689  24.140  15.605  1.00  0.00     0.163 HD
ATOM     74  C   UNL     1      28.469  25.760  16.797  1.00  0.00     0.114 C 
ATOM     75  O   UNL     1      29.833  23.932  16.221  1.00  0.00    -0.275 OA
ENDBRANCH   4  71
TORSDOF 32
