REMARK VINA RESULT:    -6.496      5.644     12.882
REMARK INTER + INTRA:         -22.209
REMARK INTER:                 -18.031
REMARK INTRA:                  -4.178
REMARK UNBOUND:                -5.460
REMARK SMILES CC(=O)N[C@@H]1[C@@H](O)C[C@](OC[C@H]2O[C@@H](O[C@H]3[C@H](O)[C@@H](O)[C@H](OCCN=[N+]=[N-])O[C@@H]3CO)[C@H](O)[C@@H](O)[C@H]2O)(C(=O)O)O[C@H]1C(O)[C@H](O)CNC(=O)OCc1cn(C(c2ccccc2)c2ccccc2)nn1
REMARK SMILES IDX 9 1 8 2 6 3 5 4 42 5 41 6 10 7 11 8 12 9 14 10 13 11 32 12
REMARK SMILES IDX 34 13 36 14 15 15 16 16 29 17 28 18 21 19 17 20 19 21 30 22
REMARK SMILES IDX 31 23 22 25 23 26 24 27 25 28 26 29 27 30 18 31 20 33 33 35
REMARK SMILES IDX 35 37 37 39 38 41 39 42 40 43 7 45 43 47 44 48 45 50 46 51
REMARK SMILES IDX 47 53 48 54 49 55 50 57 51 58 52 59 53 60 54 61 70 62 55 63
REMARK SMILES IDX 69 64 56 65 57 66 58 67 62 68 59 69 61 70 60 71 63 72 64 73
REMARK SMILES IDX 68 74 65 75 67 76 66 77 4 78 2 79 1 81 3 82
REMARK H PARENT 31 24 18 32 20 34 33 36 35 38 37 40 40 44 7 46 44 49 46 52
REMARK H PARENT 48 56 4 80
REMARK Flexibility Score: inf
ROOT
ATOM      1  C   UNL     1      18.889  28.905  19.380  1.00  0.00     0.272 C 
ATOM      2  C   UNL     1      18.747  30.394  18.998  1.00  0.00     0.113 C 
ATOM      3  C   UNL     1      18.119  30.513  17.670  1.00  0.00     0.145 C 
ATOM      4  C   UNL     1      16.768  29.843  17.679  1.00  0.00     0.142 C 
ATOM      5  C   UNL     1      16.618  28.830  18.754  1.00  0.00     0.178 C 
ATOM      6  O   UNL     1      17.757  28.216  19.164  1.00  0.00    -0.332 OA
ENDROOT
BRANCH   1   7
ATOM      7  O   UNL     1      19.215  28.853  20.745  1.00  0.00    -0.338 OA
BRANCH   7   8
ATOM      8  C   UNL     1      19.129  30.088  21.332  1.00  0.00     0.199 C 
BRANCH   8   9
ATOM      9  C   UNL     1      19.177  30.012  22.858  1.00  0.00     0.179 C 
ATOM     10  C   UNL     1      21.305  29.408  23.748  1.00  0.00     0.282 C 
ATOM     11  O   UNL     1      20.067  29.156  23.280  1.00  0.00    -0.341 OA
ATOM     12  C   UNL     1      21.723  30.799  23.701  1.00  0.00     0.202 C 
ATOM     13  C   UNL     1      20.630  31.795  23.872  1.00  0.00     0.179 C 
ATOM     14  C   UNL     1      19.264  31.389  23.475  1.00  0.00     0.177 C 
BRANCH  10  15
ATOM     15  O   UNL     1      22.125  28.505  23.003  1.00  0.00    -0.341 OA
BRANCH  15  16
ATOM     16  C   UNL     1      22.590  27.486  23.778  1.00  0.00     0.184 C 
ATOM     17  C   UNL     1      21.884  26.205  23.506  1.00  0.00     0.178 C 
ATOM     18  O   UNL     1      22.531  25.146  24.156  1.00  0.00    -0.341 OA
ATOM     19  C   UNL     1      22.317  25.228  25.505  1.00  0.00     0.281 C 
ATOM     20  C   UNL     1      22.389  27.775  25.261  1.00  0.00     0.180 C 
ATOM     21  C   UNL     1      21.936  26.569  25.985  1.00  0.00     0.202 C 
BRANCH  17  22
ATOM     22  C   UNL     1      21.676  25.890  22.038  1.00  0.00     0.191 C 
BRANCH  22  23
ATOM     23  O   UNL     1      20.617  26.652  21.555  1.00  0.00    -0.394 OA
ATOM     24  H   UNL     1      20.882  27.527  21.204  1.00  0.00     0.210 HD
ENDBRANCH  22  23
ENDBRANCH  17  22
BRANCH  19  25
ATOM     25  O   UNL     1      23.385  24.681  26.235  1.00  0.00    -0.350 OA
BRANCH  25  26
ATOM     26  C   UNL     1      23.364  24.944  27.574  1.00  0.00     0.169 C 
BRANCH  26  27
ATOM     27  C   UNL     1      24.740  25.378  28.025  1.00  0.00     0.119 C 
BRANCH  27  28
ATOM     28  N   UNL     1      25.261  26.465  27.200  1.00  0.00    -0.092 NA
ATOM     29  N   UNL     1      26.441  26.792  27.219  1.00  0.00     0.001 N 
ATOM     30  N   UNL     1      27.539  27.253  27.555  1.00  0.00    -0.003 NA
ENDBRANCH  27  28
ENDBRANCH  26  27
ENDBRANCH  25  26
ENDBRANCH  19  25
BRANCH  20  31
ATOM     31  O   UNL     1      23.582  28.327  25.733  1.00  0.00    -0.387 OA
ATOM     32  H   UNL     1      23.705  28.155  26.705  1.00  0.00     0.211 HD
ENDBRANCH  20  31
BRANCH  21  33
ATOM     33  O   UNL     1      20.517  26.647  26.105  1.00  0.00    -0.385 OA
ATOM     34  H   UNL     1      20.316  26.309  27.022  1.00  0.00     0.211 HD
ENDBRANCH  21  33
ENDBRANCH  15  16
ENDBRANCH  10  15
BRANCH  12  35
ATOM     35  O   UNL     1      22.688  31.129  24.688  1.00  0.00    -0.385 OA
ATOM     36  H   UNL     1      22.895  32.084  24.542  1.00  0.00     0.211 HD
ENDBRANCH  12  35
BRANCH  13  37
ATOM     37  O   UNL     1      20.942  33.013  23.214  1.00  0.00    -0.387 OA
ATOM     38  H   UNL     1      21.593  32.832  22.486  1.00  0.00     0.211 HD
ENDBRANCH  13  37
BRANCH  14  39
ATOM     39  O   UNL     1      18.786  32.274  22.495  1.00  0.00    -0.387 OA
ATOM     40  H   UNL     1      19.211  32.118  21.618  1.00  0.00     0.211 HD
ENDBRANCH  14  39
ENDBRANCH   8   9
ENDBRANCH   7   8
ENDBRANCH   1   7
BRANCH   1  41
ATOM     41  C   UNL     1      20.021  28.411  18.597  1.00  0.00     0.364 C 
ATOM     42  O   UNL     1      19.868  28.003  17.430  1.00  0.00    -0.246 OA
BRANCH  41  43
ATOM     43  O   UNL     1      21.321  28.366  19.108  1.00  0.00    -0.477 OA
ATOM     44  H   UNL     1      21.618  29.005  19.831  1.00  0.00     0.296 HD
ENDBRANCH  41  43
ENDBRANCH   1  41
BRANCH   3  45
ATOM     45  O   UNL     1      17.960  31.891  17.408  1.00  0.00    -0.391 OA
ATOM     46  H   UNL     1      17.036  32.183  17.608  1.00  0.00     0.211 HD
ENDBRANCH   3  45
BRANCH   5  47
ATOM     47  C   UNL     1      15.794  29.227  19.946  1.00  0.00     0.176 C 
BRANCH  47  48
ATOM     48  O   UNL     1      16.061  28.264  20.943  1.00  0.00    -0.388 OA
ATOM     49  H   UNL     1      15.354  28.193  21.607  1.00  0.00     0.211 HD
ENDBRANCH  47  48
BRANCH  47  50
ATOM     50  C   UNL     1      14.324  29.278  19.742  1.00  0.00     0.165 C 
BRANCH  50  51
ATOM     51  O   UNL     1      14.067  28.758  18.478  1.00  0.00    -0.388 OA
ATOM     52  H   UNL     1      13.932  27.776  18.483  1.00  0.00     0.211 HD
ENDBRANCH  50  51
BRANCH  50  53
ATOM     53  C   UNL     1      13.687  30.618  19.870  1.00  0.00     0.154 C 
BRANCH  53  54
ATOM     54  N   UNL     1      12.878  30.829  21.028  1.00  0.00    -0.319 N 
ATOM     55  C   UNL     1      12.659  29.952  22.094  1.00  0.00     0.407 C 
ATOM     56  H   UNL     1      12.375  31.771  21.097  1.00  0.00     0.167 HD
ATOM     57  O   UNL     1      13.184  28.832  22.100  1.00  0.00    -0.225 OA
BRANCH  55  58
ATOM     58  O   UNL     1      11.849  30.309  23.169  1.00  0.00    -0.443 OA
BRANCH  58  59
ATOM     59  C   UNL     1      11.879  29.528  24.374  1.00  0.00     0.294 C 
BRANCH  59  60
ATOM     60  C   UNL     1      10.547  28.895  24.555  1.00  0.00     0.120 A 
ATOM     61  C   UNL     1       9.368  29.565  24.396  1.00  0.00     0.139 A 
ATOM     62  N   UNL     1      10.317  27.628  24.882  1.00  0.00    -0.132 NA
ATOM     63  N   UNL     1       8.404  28.660  24.639  1.00  0.00    -0.240 N 
ATOM     64  N   UNL     1       8.992  27.493  24.930  1.00  0.00    -0.066 NA
BRANCH  63  65
ATOM     65  C   UNL     1       6.965  28.816  24.601  1.00  0.00     0.169 C 
BRANCH  65  66
ATOM     66  C   UNL     1       6.629  29.639  23.432  1.00  0.00    -0.019 A 
ATOM     67  C   UNL     1       5.848  29.128  22.415  1.00  0.00     0.006 A 
ATOM     68  C   UNL     1       7.076  30.933  23.273  1.00  0.00     0.006 A 
ATOM     69  C   UNL     1       5.532  29.883  21.293  1.00  0.00     0.000 A 
ATOM     70  C   UNL     1       6.766  31.699  22.153  1.00  0.00     0.000 A 
ATOM     71  C   UNL     1       5.982  31.171  21.146  1.00  0.00     0.000 A 
ENDBRANCH  65  66
BRANCH  65  72
ATOM     72  C   UNL     1       6.466  29.333  25.891  1.00  0.00    -0.019 A 
ATOM     73  C   UNL     1       5.823  28.428  26.727  1.00  0.00     0.006 A 
ATOM     74  C   UNL     1       6.567  30.628  26.306  1.00  0.00     0.006 A 
ATOM     75  C   UNL     1       5.308  28.834  27.930  1.00  0.00     0.000 A 
ATOM     76  C   UNL     1       6.051  31.046  27.520  1.00  0.00     0.000 A 
ATOM     77  C   UNL     1       5.417  30.148  28.339  1.00  0.00     0.000 A 
ENDBRANCH  65  72
ENDBRANCH  63  65
ENDBRANCH  59  60
ENDBRANCH  58  59
ENDBRANCH  55  58
ENDBRANCH  53  54
ENDBRANCH  50  53
ENDBRANCH  47  50
ENDBRANCH   5  47
BRANCH   4  78
ATOM     78  N   UNL     1      16.664  29.192  16.359  1.00  0.00    -0.348 N 
ATOM     79  C   UNL     1      15.554  29.403  15.494  1.00  0.00     0.217 C 
ATOM     80  H   UNL     1      17.414  28.545  16.009  1.00  0.00     0.163 HD
ATOM     81  C   UNL     1      15.479  28.728  14.153  1.00  0.00     0.114 C 
ATOM     82  O   UNL     1      14.612  30.155  15.820  1.00  0.00    -0.275 OA
ENDBRANCH   4  78
TORSDOF 32
