REMARK VINA RESULT:    -5.721      4.718      9.564
REMARK INTER + INTRA:         -21.271
REMARK INTER:                 -13.155
REMARK INTRA:                  -8.116
REMARK UNBOUND:                -6.855
REMARK SMILES CC(=O)N[C@@H]1[C@@H](O)C[C@](OC[C@H]2O[C@@H](O[C@H]3[C@H](O)[C@@H](O)[C@H](OCCN=[N+]=[N-])O[C@@H]3CO)[C@H](O)[C@@H](O)[C@H]2O)(C(=O)O)O[C@H]1C(O)[C@H](O)CNC(=O)OCc1cn(Cc2ccsc2)nn1
REMARK SMILES IDX 9 1 8 2 6 3 5 4 42 5 41 6 10 7 11 8 12 9 14 10 13 11 32 12
REMARK SMILES IDX 34 13 36 14 15 15 16 16 29 17 28 18 21 19 17 20 19 21 30 22
REMARK SMILES IDX 31 23 22 25 23 26 24 27 25 28 26 29 27 30 18 31 20 33 33 35
REMARK SMILES IDX 35 37 37 39 38 41 39 42 40 43 7 45 43 47 44 48 45 50 46 51
REMARK SMILES IDX 47 53 48 54 49 55 50 57 51 58 52 59 53 60 54 61 63 62 55 63
REMARK SMILES IDX 62 64 56 65 57 66 58 67 61 68 59 69 60 70 4 71 2 72 1 74
REMARK SMILES IDX 3 75
REMARK H PARENT 31 24 18 32 20 34 33 36 35 38 37 40 40 44 7 46 44 49 46 52
REMARK H PARENT 48 56 4 73
REMARK Flexibility Score: inf
ROOT
ATOM      1  C   UNL     1      20.174  31.398  19.274  1.00  0.00     0.272 C 
ATOM      2  C   UNL     1      20.835  32.699  18.927  1.00  0.00     0.113 C 
ATOM      3  C   UNL     1      22.121  32.571  18.157  1.00  0.00     0.145 C 
ATOM      4  C   UNL     1      22.061  31.552  17.085  1.00  0.00     0.142 C 
ATOM      5  C   UNL     1      21.081  30.423  17.338  1.00  0.00     0.178 C 
ATOM      6  O   UNL     1      19.949  30.752  17.995  1.00  0.00    -0.332 OA
ENDROOT
BRANCH   1   7
ATOM      7  O   UNL     1      18.909  31.623  19.687  1.00  0.00    -0.338 OA
BRANCH   7   8
ATOM      8  C   UNL     1      18.279  30.962  20.640  1.00  0.00     0.199 C 
BRANCH   8   9
ATOM      9  C   UNL     1      17.116  30.082  20.437  1.00  0.00     0.179 C 
ATOM     10  C   UNL     1      15.222  30.094  19.178  1.00  0.00     0.282 C 
ATOM     11  O   UNL     1      16.596  30.424  19.132  1.00  0.00    -0.341 OA
ATOM     12  C   UNL     1      14.974  28.719  19.696  1.00  0.00     0.202 C 
ATOM     13  C   UNL     1      16.172  27.873  19.937  1.00  0.00     0.179 C 
ATOM     14  C   UNL     1      17.442  28.610  20.253  1.00  0.00     0.177 C 
BRANCH  10  15
ATOM     15  O   UNL     1      14.695  30.318  17.931  1.00  0.00    -0.341 OA
BRANCH  15  16
ATOM     16  C   UNL     1      15.665  30.473  16.926  1.00  0.00     0.184 C 
ATOM     17  C   UNL     1      15.449  31.708  16.126  1.00  0.00     0.178 C 
ATOM     18  O   UNL     1      14.766  31.588  14.955  1.00  0.00    -0.341 OA
ATOM     19  C   UNL     1      14.263  30.303  14.691  1.00  0.00     0.281 C 
ATOM     20  C   UNL     1      15.863  29.216  16.139  1.00  0.00     0.180 C 
ATOM     21  C   UNL     1      15.463  29.396  14.668  1.00  0.00     0.202 C 
BRANCH  17  22
ATOM     22  C   UNL     1      16.742  32.459  15.851  1.00  0.00     0.191 C 
BRANCH  22  23
ATOM     23  O   UNL     1      17.585  32.219  16.935  1.00  0.00    -0.394 OA
ATOM     24  H   UNL     1      17.916  33.073  17.342  1.00  0.00     0.210 HD
ENDBRANCH  22  23
ENDBRANCH  17  22
BRANCH  19  25
ATOM     25  O   UNL     1      13.556  30.375  13.522  1.00  0.00    -0.350 OA
BRANCH  25  26
ATOM     26  C   UNL     1      12.190  30.240  13.677  1.00  0.00     0.169 C 
BRANCH  26  27
ATOM     27  C   UNL     1      11.729  28.959  14.291  1.00  0.00     0.119 C 
BRANCH  27  28
ATOM     28  N   UNL     1      12.114  27.829  13.490  1.00  0.00    -0.092 NA
ATOM     29  N   UNL     1      11.827  27.843  12.282  1.00  0.00     0.001 N 
ATOM     30  N   UNL     1      11.769  27.630  11.071  1.00  0.00    -0.003 NA
ENDBRANCH  27  28
ENDBRANCH  26  27
ENDBRANCH  25  26
ENDBRANCH  19  25
BRANCH  20  31
ATOM     31  O   UNL     1      17.124  28.671  16.242  1.00  0.00    -0.387 OA
ATOM     32  H   UNL     1      17.638  28.798  15.418  1.00  0.00     0.211 HD
ENDBRANCH  20  31
BRANCH  21  33
ATOM     33  O   UNL     1      15.215  28.203  14.040  1.00  0.00    -0.385 OA
ATOM     34  H   UNL     1      15.222  27.430  14.668  1.00  0.00     0.211 HD
ENDBRANCH  21  33
ENDBRANCH  15  16
ENDBRANCH  10  15
BRANCH  12  35
ATOM     35  O   UNL     1      14.113  28.738  20.825  1.00  0.00    -0.385 OA
ATOM     36  H   UNL     1      13.179  28.566  20.534  1.00  0.00     0.211 HD
ENDBRANCH  12  35
BRANCH  13  37
ATOM     37  O   UNL     1      16.423  27.106  18.781  1.00  0.00    -0.387 OA
ATOM     38  H   UNL     1      15.662  26.496  18.646  1.00  0.00     0.211 HD
ENDBRANCH  13  37
BRANCH  14  39
ATOM     39  O   UNL     1      18.323  28.572  19.145  1.00  0.00    -0.387 OA
ATOM     40  H   UNL     1      17.861  27.974  18.480  1.00  0.00     0.211 HD
ENDBRANCH  14  39
ENDBRANCH   8   9
ENDBRANCH   7   8
ENDBRANCH   1   7
BRANCH   1  41
ATOM     41  C   UNL     1      21.015  30.451  20.005  1.00  0.00     0.364 C 
ATOM     42  O   UNL     1      21.851  30.798  20.861  1.00  0.00    -0.246 OA
BRANCH  41  43
ATOM     43  O   UNL     1      20.937  29.062  19.788  1.00  0.00    -0.477 OA
ATOM     44  H   UNL     1      20.892  28.416  20.564  1.00  0.00     0.296 HD
ENDBRANCH  41  43
ENDBRANCH   1  41
BRANCH   3  45
ATOM     45  O   UNL     1      22.289  33.842  17.543  1.00  0.00    -0.391 OA
ATOM     46  H   UNL     1      21.738  33.893  16.713  1.00  0.00     0.211 HD
ENDBRANCH   3  45
BRANCH   5  47
ATOM     47  C   UNL     1      20.607  29.894  15.962  1.00  0.00     0.176 C 
BRANCH  47  48
ATOM     48  O   UNL     1      19.288  30.290  15.757  1.00  0.00    -0.388 OA
ATOM     49  H   UNL     1      18.882  29.751  15.041  1.00  0.00     0.211 HD
ENDBRANCH  47  48
BRANCH  47  50
ATOM     50  C   UNL     1      20.649  28.409  16.005  1.00  0.00     0.165 C 
BRANCH  50  51
ATOM     51  O   UNL     1      20.211  27.978  17.256  1.00  0.00    -0.388 OA
ATOM     52  H   UNL     1      20.224  26.992  17.317  1.00  0.00     0.211 HD
ENDBRANCH  50  51
BRANCH  50  53
ATOM     53  C   UNL     1      22.010  27.811  15.765  1.00  0.00     0.154 C 
BRANCH  53  54
ATOM     54  N   UNL     1      22.364  26.803  16.719  1.00  0.00    -0.319 N 
ATOM     55  C   UNL     1      22.359  25.423  16.481  1.00  0.00     0.407 C 
ATOM     56  H   UNL     1      22.654  27.132  17.688  1.00  0.00     0.167 HD
ATOM     57  O   UNL     1      22.025  25.000  15.354  1.00  0.00    -0.225 OA
BRANCH  55  58
ATOM     58  O   UNL     1      22.723  24.560  17.493  1.00  0.00    -0.443 OA
BRANCH  58  59
ATOM     59  C   UNL     1      23.546  24.909  18.568  1.00  0.00     0.294 C 
BRANCH  59  60
ATOM     60  C   UNL     1      22.706  25.217  19.743  1.00  0.00     0.120 A 
ATOM     61  C   UNL     1      22.490  24.420  20.823  1.00  0.00     0.138 A 
ATOM     62  N   UNL     1      22.017  26.353  19.922  1.00  0.00    -0.132 NA
ATOM     63  N   UNL     1      21.667  25.092  21.648  1.00  0.00    -0.248 N 
ATOM     64  N   UNL     1      21.387  26.255  21.097  1.00  0.00    -0.067 NA
BRANCH  63  65
ATOM     65  C   UNL     1      21.184  24.605  22.915  1.00  0.00     0.182 C 
BRANCH  65  66
ATOM     66  C   UNL     1      22.334  24.667  23.928  1.00  0.00    -0.016 A 
ATOM     67  C   UNL     1      23.607  24.695  23.590  1.00  0.00     0.017 A 
ATOM     68  C   UNL     1      21.992  24.694  25.279  1.00  0.00     0.070 A 
ATOM     69  C   UNL     1      24.605  24.751  24.546  1.00  0.00     0.065 A 
ATOM     70  S   UNL     1      23.605  24.762  26.081  1.00  0.00    -0.152 S 
ENDBRANCH  65  66
ENDBRANCH  63  65
ENDBRANCH  59  60
ENDBRANCH  58  59
ENDBRANCH  55  58
ENDBRANCH  53  54
ENDBRANCH  50  53
ENDBRANCH  47  50
ENDBRANCH   5  47
BRANCH   4  71
ATOM     71  N   UNL     1      23.320  30.961  16.746  1.00  0.00    -0.348 N 
ATOM     72  C   UNL     1      24.140  31.449  15.695  1.00  0.00     0.217 C 
ATOM     73  H   UNL     1      23.671  30.136  17.281  1.00  0.00     0.163 HD
ATOM     74  C   UNL     1      25.456  30.841  15.333  1.00  0.00     0.114 C 
ATOM     75  O   UNL     1      23.684  32.450  15.069  1.00  0.00    -0.275 OA
ENDBRANCH   4  71
TORSDOF 31
