REMARK VINA RESULT:    -7.273      3.947     11.015
REMARK INTER + INTRA:         -23.495
REMARK INTER:                 -16.252
REMARK INTRA:                  -7.243
REMARK UNBOUND:                -5.593
REMARK SMILES CC(=O)N[C@@H]1[C@@H](O)C[C@](OC[C@H]2O[C@@H](O[C@H]3[C@H](O)[C@@H](O)[C@H](OCCN=[N+]=[N-])O[C@@H]3CO)[C@H](O)[C@@H](O)[C@H]2O)(C(=O)O)O[C@H]1C(O)[C@H](O)CNC(=O)OCc1cn(C2c3ccccc3-c3ccccc32)nn1
REMARK SMILES IDX 9 1 8 2 6 3 5 4 42 5 41 6 10 7 11 8 12 9 14 10 13 11 32 12
REMARK SMILES IDX 34 13 36 14 15 15 16 16 29 17 28 18 21 19 17 20 19 21 30 22
REMARK SMILES IDX 31 23 22 25 23 26 24 27 25 28 26 29 27 30 18 31 20 33 33 35
REMARK SMILES IDX 35 37 37 39 38 41 39 42 40 43 7 45 43 47 44 48 45 50 46 51
REMARK SMILES IDX 47 53 48 54 49 55 50 57 51 58 52 59 53 60 54 61 70 62 55 63
REMARK SMILES IDX 69 64 56 65 57 66 68 67 58 68 62 69 63 70 67 71 59 72 61 73
REMARK SMILES IDX 64 74 66 75 60 76 65 77 4 78 2 79 1 81 3 82
REMARK H PARENT 31 24 18 32 20 34 33 36 35 38 37 40 40 44 7 46 44 49 46 52
REMARK H PARENT 48 56 4 80
REMARK Flexibility Score: inf
ROOT
ATOM      1  C   UNL     1      16.966  33.515  18.859  1.00  0.00     0.272 C 
ATOM      2  C   UNL     1      16.120  34.622  18.377  1.00  0.00     0.113 C 
ATOM      3  C   UNL     1      14.670  34.354  18.524  1.00  0.00     0.145 C 
ATOM      4  C   UNL     1      14.326  32.895  18.646  1.00  0.00     0.142 C 
ATOM      5  C   UNL     1      15.355  32.095  17.926  1.00  0.00     0.178 C 
ATOM      6  O   UNL     1      16.650  32.271  18.293  1.00  0.00    -0.332 OA
ENDROOT
BRANCH   1   7
ATOM      7  O   UNL     1      16.960  33.376  20.222  1.00  0.00    -0.338 OA
BRANCH   7   8
ATOM      8  C   UNL     1      17.380  32.175  20.724  1.00  0.00     0.199 C 
BRANCH   8   9
ATOM      9  C   UNL     1      17.856  32.348  22.149  1.00  0.00     0.179 C 
ATOM     10  C   UNL     1      15.960  31.309  23.056  1.00  0.00     0.282 C 
ATOM     11  O   UNL     1      16.751  32.420  22.965  1.00  0.00    -0.341 OA
ATOM     12  C   UNL     1      16.771  30.082  23.231  1.00  0.00     0.202 C 
ATOM     13  C   UNL     1      18.122  30.556  23.801  1.00  0.00     0.179 C 
ATOM     14  C   UNL     1      18.783  31.247  22.588  1.00  0.00     0.177 C 
BRANCH  10  15
ATOM     15  O   UNL     1      14.976  31.297  22.104  1.00  0.00    -0.341 OA
BRANCH  15  16
ATOM     16  C   UNL     1      13.687  31.426  22.546  1.00  0.00     0.184 C 
ATOM     17  C   UNL     1      13.623  32.262  23.768  1.00  0.00     0.178 C 
ATOM     18  O   UNL     1      12.707  31.801  24.708  1.00  0.00    -0.341 OA
ATOM     19  C   UNL     1      11.610  31.214  24.168  1.00  0.00     0.281 C 
ATOM     20  C   UNL     1      13.218  29.994  22.787  1.00  0.00     0.180 C 
ATOM     21  C   UNL     1      12.026  29.846  23.637  1.00  0.00     0.202 C 
BRANCH  17  22
ATOM     22  C   UNL     1      13.257  33.697  23.459  1.00  0.00     0.191 C 
BRANCH  22  23
ATOM     23  O   UNL     1      13.111  33.879  22.062  1.00  0.00    -0.394 OA
ATOM     24  H   UNL     1      12.981  34.856  21.865  1.00  0.00     0.210 HD
ENDBRANCH  22  23
ENDBRANCH  17  22
BRANCH  19  25
ATOM     25  O   UNL     1      11.003  31.875  23.117  1.00  0.00    -0.350 OA
BRANCH  25  26
ATOM     26  C   UNL     1       9.782  32.410  23.413  1.00  0.00     0.169 C 
BRANCH  26  27
ATOM     27  C   UNL     1       8.605  31.507  23.285  1.00  0.00     0.119 C 
BRANCH  27  28
ATOM     28  N   UNL     1       8.227  30.876  24.534  1.00  0.00    -0.092 NA
ATOM     29  N   UNL     1       8.223  29.639  24.544  1.00  0.00     0.001 N 
ATOM     30  N   UNL     1       8.095  28.410  24.604  1.00  0.00    -0.003 NA
ENDBRANCH  27  28
ENDBRANCH  26  27
ENDBRANCH  25  26
ENDBRANCH  19  25
BRANCH  20  31
ATOM     31  O   UNL     1      12.938  29.387  21.533  1.00  0.00    -0.387 OA
ATOM     32  H   UNL     1      11.963  29.396  21.360  1.00  0.00     0.211 HD
ENDBRANCH  20  31
BRANCH  21  33
ATOM     33  O   UNL     1      12.318  29.054  24.756  1.00  0.00    -0.385 OA
ATOM     34  H   UNL     1      11.824  28.194  24.754  1.00  0.00     0.211 HD
ENDBRANCH  21  33
ENDBRANCH  15  16
ENDBRANCH  10  15
BRANCH  12  35
ATOM     35  O   UNL     1      16.263  29.211  24.193  1.00  0.00    -0.385 OA
ATOM     36  H   UNL     1      15.297  29.383  24.293  1.00  0.00     0.211 HD
ENDBRANCH  12  35
BRANCH  13  37
ATOM     37  O   UNL     1      18.927  29.496  24.145  1.00  0.00    -0.387 OA
ATOM     38  H   UNL     1      19.854  29.705  23.875  1.00  0.00     0.211 HD
ENDBRANCH  13  37
BRANCH  14  39
ATOM     39  O   UNL     1      18.847  30.281  21.602  1.00  0.00    -0.387 OA
ATOM     40  H   UNL     1      18.631  30.633  20.703  1.00  0.00     0.211 HD
ENDBRANCH  14  39
ENDBRANCH   8   9
ENDBRANCH   7   8
ENDBRANCH   1   7
BRANCH   1  41
ATOM     41  C   UNL     1      18.405  33.714  18.384  1.00  0.00     0.364 C 
ATOM     42  O   UNL     1      18.884  32.857  17.634  1.00  0.00    -0.246 OA
BRANCH  41  43
ATOM     43  O   UNL     1      19.148  34.802  18.771  1.00  0.00    -0.477 OA
ATOM     44  H   UNL     1      19.368  35.561  18.116  1.00  0.00     0.296 HD
ENDBRANCH  41  43
ENDBRANCH   1  41
BRANCH   3  45
ATOM     45  O   UNL     1      14.045  35.053  19.558  1.00  0.00    -0.391 OA
ATOM     46  H   UNL     1      13.644  34.477  20.225  1.00  0.00     0.211 HD
ENDBRANCH   3  45
BRANCH   5  47
ATOM     47  C   UNL     1      15.005  30.615  18.067  1.00  0.00     0.176 C 
BRANCH  47  48
ATOM     48  O   UNL     1      14.650  30.352  19.365  1.00  0.00    -0.388 OA
ATOM     49  H   UNL     1      15.449  30.368  19.973  1.00  0.00     0.211 HD
ENDBRANCH  47  48
BRANCH  47  50
ATOM     50  C   UNL     1      16.190  29.809  17.629  1.00  0.00     0.165 C 
BRANCH  50  51
ATOM     51  O   UNL     1      15.760  28.740  16.823  1.00  0.00    -0.388 OA
ATOM     52  H   UNL     1      16.529  28.252  16.454  1.00  0.00     0.211 HD
ENDBRANCH  50  51
BRANCH  50  53
ATOM     53  C   UNL     1      16.766  29.149  18.888  1.00  0.00     0.154 C 
BRANCH  53  54
ATOM     54  N   UNL     1      18.182  29.361  18.888  1.00  0.00    -0.319 N 
ATOM     55  C   UNL     1      19.031  28.551  18.106  1.00  0.00     0.407 C 
ATOM     56  H   UNL     1      18.593  30.127  19.473  1.00  0.00     0.167 HD
ATOM     57  O   UNL     1      18.575  27.616  17.399  1.00  0.00    -0.225 OA
BRANCH  55  58
ATOM     58  O   UNL     1      20.398  28.742  18.077  1.00  0.00    -0.443 OA
BRANCH  58  59
ATOM     59  C   UNL     1      21.158  29.067  19.231  1.00  0.00     0.294 C 
BRANCH  59  60
ATOM     60  C   UNL     1      21.137  27.881  20.124  1.00  0.00     0.120 A 
ATOM     61  C   UNL     1      21.999  26.793  20.126  1.00  0.00     0.139 A 
ATOM     62  N   UNL     1      20.264  27.643  21.115  1.00  0.00    -0.132 NA
ATOM     63  N   UNL     1      21.631  25.944  21.099  1.00  0.00    -0.240 N 
ATOM     64  N   UNL     1      20.575  26.489  21.681  1.00  0.00    -0.066 NA
BRANCH  63  65
ATOM     65  C   UNL     1      22.273  24.674  21.444  1.00  0.00     0.170 C 
ATOM     66  C   UNL     1      22.493  24.652  22.892  1.00  0.00    -0.011 A 
ATOM     67  C   UNL     1      23.632  24.612  20.875  1.00  0.00    -0.011 A 
ATOM     68  C   UNL     1      21.612  24.683  23.966  1.00  0.00     0.007 A 
ATOM     69  C   UNL     1      23.829  24.587  23.182  1.00  0.00    -0.012 A 
ATOM     70  C   UNL     1      24.540  24.563  21.906  1.00  0.00    -0.012 A 
ATOM     71  C   UNL     1      24.105  24.594  19.577  1.00  0.00     0.007 A 
ATOM     72  C   UNL     1      22.077  24.650  25.261  1.00  0.00     0.000 A 
ATOM     73  C   UNL     1      24.297  24.554  24.488  1.00  0.00     0.009 A 
ATOM     74  C   UNL     1      25.892  24.496  21.659  1.00  0.00     0.009 A 
ATOM     75  C   UNL     1      25.453  24.528  19.308  1.00  0.00     0.000 A 
ATOM     76  C   UNL     1      23.431  24.585  25.556  1.00  0.00     0.001 A 
ATOM     77  C   UNL     1      26.351  24.479  20.354  1.00  0.00     0.001 A 
ENDBRANCH  63  65
ENDBRANCH  59  60
ENDBRANCH  58  59
ENDBRANCH  55  58
ENDBRANCH  53  54
ENDBRANCH  50  53
ENDBRANCH  47  50
ENDBRANCH   5  47
BRANCH   4  78
ATOM     78  N   UNL     1      13.066  32.707  17.902  1.00  0.00    -0.348 N 
ATOM     79  C   UNL     1      11.811  32.660  18.562  1.00  0.00     0.217 C 
ATOM     80  H   UNL     1      13.126  32.608  16.879  1.00  0.00     0.163 HD
ATOM     81  C   UNL     1      10.542  32.468  17.792  1.00  0.00     0.114 C 
ATOM     82  O   UNL     1      11.798  32.786  19.818  1.00  0.00    -0.275 OA
ENDBRANCH   4  78
TORSDOF 30
