REMARK VINA RESULT:    -5.232     19.245     22.895
REMARK INTER + INTRA:         -20.943
REMARK INTER:                 -13.337
REMARK INTRA:                  -7.606
REMARK UNBOUND:                -7.606
REMARK SMILES CC(=O)N[C@@H]1[C@@H](O)C[C@](OC[C@H]2O[C@@H](O[C@H]3[C@H](O)[C@@H](O)[C@H](OCCN=[N+]=[N-])O[C@@H]3CO)[C@H](O)[C@@H](O)[C@H]2O)(C(=O)O)O[C@H]1C(O)[C@H](O)CNC(=O)OCc1cn(-c2ccc(CO)cn2)nn1
REMARK SMILES IDX 9 1 8 2 6 3 5 4 42 5 41 6 10 7 11 8 12 9 14 10 13 11 32 12
REMARK SMILES IDX 34 13 36 14 15 15 16 16 29 17 28 18 21 19 17 20 19 21 30 22
REMARK SMILES IDX 31 23 22 25 23 26 24 27 25 28 26 29 27 30 18 31 20 33 33 35
REMARK SMILES IDX 35 37 37 39 38 41 39 42 40 43 7 45 43 47 44 48 45 50 46 51
REMARK SMILES IDX 47 53 48 54 49 55 50 57 51 58 52 59 53 60 54 61 65 62 55 63
REMARK SMILES IDX 64 64 56 65 57 66 63 67 58 68 62 69 59 70 60 71 61 72 4 74
REMARK SMILES IDX 2 75 1 77 3 78
REMARK H PARENT 31 24 18 32 20 34 33 36 35 38 37 40 40 44 7 46 44 49 46 52
REMARK H PARENT 48 56 61 73 4 76
REMARK Flexibility Score: inf
ROOT
ATOM      1  C   UNL     1       2.258  22.326  31.834  1.00  0.00     0.272 C 
ATOM      2  C   UNL     1       1.332  23.384  32.304  1.00  0.00     0.113 C 
ATOM      3  C   UNL     1       1.759  23.981  33.616  1.00  0.00     0.145 C 
ATOM      4  C   UNL     1       3.233  24.335  33.570  1.00  0.00     0.142 C 
ATOM      5  C   UNL     1       4.027  23.188  33.095  1.00  0.00     0.178 C 
ATOM      6  O   UNL     1       3.586  22.657  31.933  1.00  0.00    -0.332 OA
ENDROOT
BRANCH   1   7
ATOM      7  O   UNL     1       2.037  21.928  30.527  1.00  0.00    -0.338 OA
BRANCH   7   8
ATOM      8  C   UNL     1       0.717  22.042  30.140  1.00  0.00     0.199 C 
BRANCH   8   9
ATOM      9  C   UNL     1       0.648  22.458  28.702  1.00  0.00     0.179 C 
ATOM     10  C   UNL     1       0.747  24.269  27.353  1.00  0.00     0.282 C 
ATOM     11  O   UNL     1       1.368  23.645  28.465  1.00  0.00    -0.341 OA
ATOM     12  C   UNL     1       0.608  23.307  26.245  1.00  0.00     0.202 C 
ATOM     13  C   UNL     1       1.398  22.017  26.384  1.00  0.00     0.179 C 
ATOM     14  C   UNL     1       1.216  21.429  27.780  1.00  0.00     0.177 C 
BRANCH  10  15
ATOM     15  O   UNL     1       1.441  25.442  27.038  1.00  0.00    -0.341 OA
BRANCH  15  16
ATOM     16  C   UNL     1       2.638  25.550  27.712  1.00  0.00     0.184 C 
ATOM     17  C   UNL     1       2.732  26.678  28.692  1.00  0.00     0.178 C 
ATOM     18  O   UNL     1       3.625  27.675  28.310  1.00  0.00    -0.341 OA
ATOM     19  C   UNL     1       3.344  28.216  27.081  1.00  0.00     0.281 C 
ATOM     20  C   UNL     1       3.710  25.805  26.637  1.00  0.00     0.180 C 
ATOM     21  C   UNL     1       3.285  27.133  25.994  1.00  0.00     0.202 C 
BRANCH  17  22
ATOM     22  C   UNL     1       3.328  26.094  29.986  1.00  0.00     0.191 C 
BRANCH  22  23
ATOM     23  O   UNL     1       3.557  24.719  29.822  1.00  0.00    -0.394 OA
ATOM     24  H   UNL     1       3.410  24.233  30.689  1.00  0.00     0.210 HD
ENDBRANCH  22  23
ENDBRANCH  17  22
BRANCH  19  25
ATOM     25  O   UNL     1       4.352  29.120  26.758  1.00  0.00    -0.350 OA
BRANCH  25  26
ATOM     26  C   UNL     1       4.800  28.998  25.468  1.00  0.00     0.169 C 
BRANCH  26  27
ATOM     27  C   UNL     1       6.271  29.390  25.440  1.00  0.00     0.119 C 
BRANCH  27  28
ATOM     28  N   UNL     1       7.032  28.439  24.641  1.00  0.00    -0.092 NA
ATOM     29  N   UNL     1       7.210  27.276  24.960  1.00  0.00     0.001 N 
ATOM     30  N   UNL     1       7.110  26.050  24.992  1.00  0.00    -0.003 NA
ENDBRANCH  27  28
ENDBRANCH  26  27
ENDBRANCH  25  26
ENDBRANCH  19  25
BRANCH  20  31
ATOM     31  O   UNL     1       4.980  25.833  27.144  1.00  0.00    -0.387 OA
ATOM     32  H   UNL     1       5.576  26.260  26.511  1.00  0.00     0.211 HD
ENDBRANCH  20  31
BRANCH  21  33
ATOM     33  O   UNL     1       1.969  26.954  25.573  1.00  0.00    -0.385 OA
ATOM     34  H   UNL     1       1.978  26.276  24.851  1.00  0.00     0.211 HD
ENDBRANCH  21  33
ENDBRANCH  15  16
ENDBRANCH  10  15
BRANCH  12  35
ATOM     35  O   UNL     1      -0.757  22.962  26.108  1.00  0.00    -0.385 OA
ATOM     36  H   UNL     1      -0.979  22.727  25.170  1.00  0.00     0.211 HD
ENDBRANCH  12  35
BRANCH  13  37
ATOM     37  O   UNL     1       2.728  22.179  26.039  1.00  0.00    -0.387 OA
ATOM     38  H   UNL     1       3.003  23.102  25.928  1.00  0.00     0.211 HD
ENDBRANCH  13  37
BRANCH  14  39
ATOM     39  O   UNL     1       2.449  20.982  28.204  1.00  0.00    -0.387 OA
ATOM     40  H   UNL     1       2.878  20.477  27.486  1.00  0.00     0.211 HD
ENDBRANCH  14  39
ENDBRANCH   8   9
ENDBRANCH   7   8
ENDBRANCH   1   7
BRANCH   1  41
ATOM     41  C   UNL     1       2.113  21.060  32.654  1.00  0.00     0.364 C 
ATOM     42  O   UNL     1       2.953  20.130  32.628  1.00  0.00    -0.246 OA
BRANCH  41  43
ATOM     43  O   UNL     1       1.019  20.884  33.478  1.00  0.00    -0.477 OA
ATOM     44  H   UNL     1       0.074  21.051  33.110  1.00  0.00     0.296 HD
ENDBRANCH  41  43
ENDBRANCH   1  41
BRANCH   3  45
ATOM     45  O   UNL     1       1.074  25.207  33.733  1.00  0.00    -0.391 OA
ATOM     46  H   UNL     1       0.118  25.103  33.889  1.00  0.00     0.211 HD
ENDBRANCH   3  45
BRANCH   5  47
ATOM     47  C   UNL     1       5.515  23.472  33.016  1.00  0.00     0.176 C 
BRANCH  47  48
ATOM     48  O   UNL     1       5.765  24.375  31.984  1.00  0.00    -0.388 OA
ATOM     49  H   UNL     1       5.338  25.243  32.171  1.00  0.00     0.211 HD
ENDBRANCH  47  48
BRANCH  47  50
ATOM     50  C   UNL     1       6.382  22.287  32.820  1.00  0.00     0.165 C 
BRANCH  50  51
ATOM     51  O   UNL     1       5.732  21.078  33.104  1.00  0.00    -0.388 OA
ATOM     52  H   UNL     1       5.909  20.741  33.996  1.00  0.00     0.211 HD
ENDBRANCH  50  51
BRANCH  50  53
ATOM     53  C   UNL     1       7.731  22.336  33.478  1.00  0.00     0.154 C 
BRANCH  53  54
ATOM     54  N   UNL     1       8.190  23.693  33.612  1.00  0.00    -0.319 N 
ATOM     55  C   UNL     1       9.061  24.047  34.670  1.00  0.00     0.407 C 
ATOM     56  H   UNL     1       7.869  24.437  32.910  1.00  0.00     0.167 HD
ATOM     57  O   UNL     1       9.470  23.223  35.518  1.00  0.00    -0.225 OA
BRANCH  55  58
ATOM     58  O   UNL     1       9.517  25.361  34.820  1.00  0.00    -0.443 OA
BRANCH  58  59
ATOM     59  C   UNL     1       8.684  26.310  35.421  1.00  0.00     0.294 C 
BRANCH  59  60
ATOM     60  C   UNL     1       7.606  26.831  34.591  1.00  0.00     0.121 A 
ATOM     61  C   UNL     1       7.628  27.973  33.829  1.00  0.00     0.146 A 
ATOM     62  N   UNL     1       6.386  26.296  34.417  1.00  0.00    -0.131 NA
ATOM     63  N   UNL     1       6.433  28.103  33.218  1.00  0.00    -0.202 N 
ATOM     64  N   UNL     1       5.711  27.066  33.601  1.00  0.00    -0.061 NA
BRANCH  63  65
ATOM     65  C   UNL     1       6.080  29.168  32.350  1.00  0.00     0.155 A 
ATOM     66  C   UNL     1       5.504  28.936  31.105  1.00  0.00     0.049 A 
ATOM     67  N   UNL     1       6.297  30.448  32.696  1.00  0.00    -0.237 NA
ATOM     68  C   UNL     1       5.173  29.991  30.265  1.00  0.00     0.011 A 
ATOM     69  C   UNL     1       5.981  31.492  31.892  1.00  0.00     0.119 A 
ATOM     70  C   UNL     1       5.408  31.293  30.647  1.00  0.00    -0.004 A 
BRANCH  70  71
ATOM     71  C   UNL     1       5.053  32.418  29.741  1.00  0.00     0.193 C 
BRANCH  71  72
ATOM     72  O   UNL     1       6.199  33.058  29.270  1.00  0.00    -0.392 OA
ATOM     73  H   UNL     1       6.976  32.907  29.847  1.00  0.00     0.211 HD
ENDBRANCH  71  72
ENDBRANCH  70  71
ENDBRANCH  63  65
ENDBRANCH  59  60
ENDBRANCH  58  59
ENDBRANCH  55  58
ENDBRANCH  53  54
ENDBRANCH  50  53
ENDBRANCH  47  50
ENDBRANCH   5  47
BRANCH   4  74
ATOM     74  N   UNL     1       3.659  24.800  34.891  1.00  0.00    -0.348 N 
ATOM     75  C   UNL     1       3.819  23.939  35.974  1.00  0.00     0.217 C 
ATOM     76  H   UNL     1       3.853  25.815  35.007  1.00  0.00     0.163 HD
ATOM     77  C   UNL     1       4.257  24.553  37.284  1.00  0.00     0.114 C 
ATOM     78  O   UNL     1       3.625  22.716  35.926  1.00  0.00    -0.275 OA
ENDBRANCH   4  74
TORSDOF 32
