REMARK VINA RESULT:    -4.938      0.000      0.000
REMARK INTER + INTRA:         -23.283
REMARK INTER:                 -15.570
REMARK INTRA:                  -7.712
REMARK UNBOUND:               -10.839
REMARK SMILES CC(=O)N[C@@H]1[C@@H](O)C[C@](OC[C@H]2O[C@@H](O[C@H]3[C@H](O)[C@@H](O)[C@H](OCCN=[N+]=[N-])O[C@@H]3CO)[C@H](O)[C@@H](O)[C@H]2O)(C(=O)O)O[C@H]1C(O)[C@H](O)CNC(=O)OCc1cn(-c2ccccc2C(C)C)nn1
REMARK SMILES IDX 9 1 8 2 6 3 5 4 42 5 41 6 10 7 11 8 12 9 14 10 13 11 32 12
REMARK SMILES IDX 34 13 36 14 15 15 16 16 29 17 28 18 21 19 17 20 19 21 30 22
REMARK SMILES IDX 31 23 22 25 23 26 24 27 25 28 26 29 27 30 18 31 20 33 33 35
REMARK SMILES IDX 35 37 37 39 38 41 39 42 40 43 7 45 43 47 44 48 45 50 46 51
REMARK SMILES IDX 47 53 48 54 49 55 50 57 51 58 52 59 53 60 54 61 66 62 55 63
REMARK SMILES IDX 65 64 56 65 61 66 57 67 60 68 58 69 59 70 62 71 63 72 64 73
REMARK SMILES IDX 4 74 2 75 1 77 3 78
REMARK H PARENT 31 24 18 32 20 34 33 36 35 38 37 40 40 44 7 46 44 49 46 52
REMARK H PARENT 48 56 4 76
REMARK Flexibility Score: inf
ROOT
ATOM      1  C   UNL     1       2.790  28.706  30.237  1.00  0.00     0.272 C 
ATOM      2  C   UNL     1       3.885  29.720  30.475  1.00  0.00     0.113 C 
ATOM      3  C   UNL     1       5.214  28.982  30.407  1.00  0.00     0.145 C 
ATOM      4  C   UNL     1       5.275  28.065  31.641  1.00  0.00     0.142 C 
ATOM      5  C   UNL     1       4.009  27.296  31.685  1.00  0.00     0.178 C 
ATOM      6  O   UNL     1       3.348  27.414  30.471  1.00  0.00    -0.332 OA
ENDROOT
BRANCH   1   7
ATOM      7  O   UNL     1       2.409  28.653  28.946  1.00  0.00    -0.338 OA
BRANCH   7   8
ATOM      8  C   UNL     1       1.978  27.686  28.214  1.00  0.00     0.199 C 
BRANCH   8   9
ATOM      9  C   UNL     1       2.732  27.074  27.078  1.00  0.00     0.179 C 
ATOM     10  C   UNL     1       4.691  27.097  25.925  1.00  0.00     0.282 C 
ATOM     11  O   UNL     1       3.855  27.778  26.720  1.00  0.00    -0.341 OA
ATOM     12  C   UNL     1       4.124  25.862  25.240  1.00  0.00     0.202 C 
ATOM     13  C   UNL     1       3.504  24.912  26.229  1.00  0.00     0.179 C 
ATOM     14  C   UNL     1       3.201  25.661  27.494  1.00  0.00     0.177 C 
BRANCH  10  15
ATOM     15  O   UNL     1       5.920  26.771  26.412  1.00  0.00    -0.341 OA
BRANCH  15  16
ATOM     16  C   UNL     1       6.983  27.608  26.180  1.00  0.00     0.184 C 
ATOM     17  C   UNL     1       6.615  28.858  25.452  1.00  0.00     0.178 C 
ATOM     18  O   UNL     1       7.279  29.029  24.288  1.00  0.00    -0.341 OA
ATOM     19  C   UNL     1       8.638  29.001  24.263  1.00  0.00     0.281 C 
ATOM     20  C   UNL     1       8.179  26.971  25.599  1.00  0.00     0.180 C 
ATOM     21  C   UNL     1       9.205  28.058  25.326  1.00  0.00     0.202 C 
BRANCH  17  22
ATOM     22  C   UNL     1       6.797  30.130  26.295  1.00  0.00     0.191 C 
BRANCH  22  23
ATOM     23  O   UNL     1       5.734  30.167  27.226  1.00  0.00    -0.394 OA
ATOM     24  H   UNL     1       5.081  29.462  26.919  1.00  0.00     0.210 HD
ENDBRANCH  22  23
ENDBRANCH  17  22
BRANCH  19  25
ATOM     25  O   UNL     1       9.154  30.248  24.496  1.00  0.00    -0.350 OA
BRANCH  25  26
ATOM     26  C   UNL     1      10.044  30.755  23.603  1.00  0.00     0.169 C 
BRANCH  26  27
ATOM     27  C   UNL     1      11.485  30.736  23.956  1.00  0.00     0.119 C 
BRANCH  27  28
ATOM     28  N   UNL     1      12.148  29.584  23.444  1.00  0.00    -0.092 NA
ATOM     29  N   UNL     1      12.685  29.465  22.361  1.00  0.00     0.001 N 
ATOM     30  N   UNL     1      13.307  29.557  21.309  1.00  0.00    -0.003 NA
ENDBRANCH  27  28
ENDBRANCH  26  27
ENDBRANCH  25  26
ENDBRANCH  19  25
BRANCH  20  31
ATOM     31  O   UNL     1       8.807  26.049  26.435  1.00  0.00    -0.387 OA
ATOM     32  H   UNL     1       9.774  26.227  26.414  1.00  0.00     0.211 HD
ENDBRANCH  20  31
BRANCH  21  33
ATOM     33  O   UNL     1      10.385  27.507  24.822  1.00  0.00    -0.385 OA
ATOM     34  H   UNL     1      10.199  27.235  23.888  1.00  0.00     0.211 HD
ENDBRANCH  21  33
ENDBRANCH  15  16
ENDBRANCH  10  15
BRANCH  12  35
ATOM     35  O   UNL     1       3.193  26.284  24.306  1.00  0.00    -0.385 OA
ATOM     36  H   UNL     1       3.665  26.694  23.515  1.00  0.00     0.211 HD
ENDBRANCH  12  35
BRANCH  13  37
ATOM     37  O   UNL     1       4.389  23.850  26.462  1.00  0.00    -0.387 OA
ATOM     38  H   UNL     1       4.193  23.167  25.774  1.00  0.00     0.211 HD
ENDBRANCH  13  37
BRANCH  14  39
ATOM     39  O   UNL     1       4.355  25.817  28.233  1.00  0.00    -0.387 OA
ATOM     40  H   UNL     1       5.014  25.151  27.915  1.00  0.00     0.211 HD
ENDBRANCH  14  39
ENDBRANCH   8   9
ENDBRANCH   7   8
ENDBRANCH   1   7
BRANCH   1  41
ATOM     41  C   UNL     1       1.669  28.886  31.167  1.00  0.00     0.364 C 
ATOM     42  O   UNL     1       1.690  29.950  31.884  1.00  0.00    -0.246 OA
BRANCH  41  43
ATOM     43  O   UNL     1       0.592  28.068  31.383  1.00  0.00    -0.477 OA
ATOM     44  H   UNL     1      -0.356  28.352  31.549  1.00  0.00     0.296 HD
ENDBRANCH  41  43
ENDBRANCH   1  41
BRANCH   3  45
ATOM     45  O   UNL     1       5.213  28.110  29.313  1.00  0.00    -0.391 OA
ATOM     46  H   UNL     1       4.341  28.217  28.857  1.00  0.00     0.211 HD
ENDBRANCH   3  45
BRANCH   5  47
ATOM     47  C   UNL     1       4.106  25.822  31.938  1.00  0.00     0.176 C 
BRANCH  47  48
ATOM     48  O   UNL     1       5.105  25.392  30.995  1.00  0.00    -0.388 OA
ATOM     49  H   UNL     1       4.635  24.619  30.547  1.00  0.00     0.211 HD
ENDBRANCH  47  48
BRANCH  47  50
ATOM     50  C   UNL     1       2.895  25.002  31.628  1.00  0.00     0.165 C 
BRANCH  50  51
ATOM     51  O   UNL     1       1.724  25.530  32.101  1.00  0.00    -0.388 OA
ATOM     52  H   UNL     1       1.871  25.740  33.059  1.00  0.00     0.211 HD
ENDBRANCH  50  51
BRANCH  50  53
ATOM     53  C   UNL     1       3.106  23.541  31.763  1.00  0.00     0.154 C 
BRANCH  53  54
ATOM     54  N   UNL     1       4.297  23.148  32.491  1.00  0.00    -0.319 N 
ATOM     55  C   UNL     1       4.775  21.815  32.466  1.00  0.00     0.407 C 
ATOM     56  H   UNL     1       4.851  23.823  33.059  1.00  0.00     0.167 HD
ATOM     57  O   UNL     1       4.220  20.889  31.833  1.00  0.00    -0.225 OA
BRANCH  55  58
ATOM     58  O   UNL     1       5.939  21.408  33.162  1.00  0.00    -0.443 OA
BRANCH  58  59
ATOM     59  C   UNL     1       7.172  21.981  32.852  1.00  0.00     0.294 C 
BRANCH  59  60
ATOM     60  C   UNL     1       7.572  22.881  33.970  1.00  0.00     0.121 A 
ATOM     61  C   UNL     1       8.815  23.156  34.496  1.00  0.00     0.144 A 
ATOM     62  N   UNL     1       6.719  23.646  34.723  1.00  0.00    -0.131 NA
ATOM     63  N   UNL     1       8.727  24.036  35.507  1.00  0.00    -0.220 N 
ATOM     64  N   UNL     1       7.420  24.312  35.616  1.00  0.00    -0.062 NA
BRANCH  63  65
ATOM     65  C   UNL     1       9.757  24.595  36.316  1.00  0.00     0.070 A 
ATOM     66  C   UNL     1      10.370  25.762  35.917  1.00  0.00    -0.020 A 
ATOM     67  C   UNL     1      10.193  24.022  37.490  1.00  0.00     0.029 A 
ATOM     68  C   UNL     1      11.382  26.329  36.667  1.00  0.00     0.006 A 
ATOM     69  C   UNL     1      11.204  24.577  38.252  1.00  0.00     0.002 A 
ATOM     70  C   UNL     1      11.808  25.746  37.836  1.00  0.00     0.000 A 
BRANCH  66  71
ATOM     71  C   UNL     1       9.925  26.415  34.669  1.00  0.00     0.015 C 
ATOM     72  C   UNL     1      10.990  26.181  33.609  1.00  0.00     0.012 C 
ATOM     73  C   UNL     1       9.822  27.932  34.898  1.00  0.00     0.012 C 
ENDBRANCH  66  71
ENDBRANCH  63  65
ENDBRANCH  59  60
ENDBRANCH  58  59
ENDBRANCH  55  58
ENDBRANCH  53  54
ENDBRANCH  50  53
ENDBRANCH  47  50
ENDBRANCH   5  47
BRANCH   4  74
ATOM     74  N   UNL     1       5.459  28.921  32.791  1.00  0.00    -0.348 N 
ATOM     75  C   UNL     1       6.068  28.536  33.996  1.00  0.00     0.217 C 
ATOM     76  H   UNL     1       5.100  29.920  32.724  1.00  0.00     0.163 HD
ATOM     77  C   UNL     1       6.178  29.545  35.102  1.00  0.00     0.114 C 
ATOM     78  O   UNL     1       6.507  27.389  34.149  1.00  0.00    -0.275 OA
ENDBRANCH   4  74
TORSDOF 31
