REMARK VINA RESULT:    -5.811      2.619      6.454
REMARK INTER + INTRA:         -23.475
REMARK INTER:                 -14.593
REMARK INTRA:                  -8.882
REMARK UNBOUND:                -7.304
REMARK SMILES CC(=O)N[C@@H]1[C@@H](O)C[C@](OC[C@H]2O[C@@H](O[C@H]3[C@H](O)[C@@H](O)[C@H](OCCN=[N+]=[N-])O[C@@H]3CO)[C@H](O)[C@@H](O)[C@H]2O)(C(=O)O)O[C@H]1C(O)[C@H](O)CNC(=O)OCc1cn(CCCCCC(=O)O)nn1
REMARK SMILES IDX 47 1 45 2 43 3 42 4 9 5 8 6 41 7 6 8 5 9 10 10 11 11 12 12
REMARK SMILES IDX 14 13 13 14 32 15 34 16 36 17 15 18 16 19 29 20 28 21 21 22
REMARK SMILES IDX 17 23 19 24 30 25 31 26 22 28 23 29 24 30 25 31 26 32 27 33
REMARK SMILES IDX 18 34 20 36 33 38 35 40 37 42 38 44 39 45 40 46 7 48 4 50
REMARK SMILES IDX 2 51 1 53 3 54 44 55 46 57 48 59 49 60 50 62 51 63 52 64
REMARK SMILES IDX 53 65 54 66 65 67 55 68 64 69 56 70 57 71 58 72 59 73 60 74
REMARK SMILES IDX 61 75 62 76 63 77
REMARK H PARENT 31 27 18 35 20 37 33 39 35 41 37 43 40 47 7 49 4 52 44 56
REMARK H PARENT 46 58 48 61 63 78
REMARK Flexibility Score: inf
ROOT
ATOM      1  C   UNL     1      22.474  28.726  21.177  1.00  0.00     0.154 C 
ENDROOT
BRANCH   1   2
ATOM      2  C   UNL     1      23.658  28.975  22.079  1.00  0.00     0.165 C 
BRANCH   2   3
ATOM      3  C   UNL     1      24.625  27.860  21.842  1.00  0.00     0.176 C 
BRANCH   3   4
ATOM      4  C   UNL     1      24.146  26.493  22.188  1.00  0.00     0.178 C 
ATOM      5  C   UNL     1      22.733  25.285  23.462  1.00  0.00     0.272 C 
ATOM      6  C   UNL     1      22.993  24.238  22.428  1.00  0.00     0.113 C 
ATOM      7  O   UNL     1      23.609  26.362  23.459  1.00  0.00    -0.332 OA
ATOM      8  C   UNL     1      24.371  24.122  21.896  1.00  0.00     0.145 C 
ATOM      9  C   UNL     1      25.191  25.405  22.081  1.00  0.00     0.142 C 
BRANCH   5  10
ATOM     10  O   UNL     1      22.576  24.752  24.740  1.00  0.00    -0.338 OA
BRANCH  10  11
ATOM     11  C   UNL     1      23.702  24.508  25.457  1.00  0.00     0.199 C 
BRANCH  11  12
ATOM     12  C   UNL     1      23.483  25.110  26.832  1.00  0.00     0.179 C 
ATOM     13  C   UNL     1      24.333  25.662  28.826  1.00  0.00     0.282 C 
ATOM     14  O   UNL     1      24.641  25.574  27.436  1.00  0.00    -0.341 OA
ATOM     15  C   UNL     1      22.965  26.080  29.127  1.00  0.00     0.202 C 
ATOM     16  C   UNL     1      22.194  26.762  28.033  1.00  0.00     0.179 C 
ATOM     17  C   UNL     1      22.609  26.337  26.649  1.00  0.00     0.177 C 
BRANCH  13  18
ATOM     18  O   UNL     1      25.384  26.282  29.496  1.00  0.00    -0.341 OA
BRANCH  18  19
ATOM     19  C   UNL     1      26.277  26.922  28.720  1.00  0.00     0.184 C 
ATOM     20  C   UNL     1      27.674  26.871  29.260  1.00  0.00     0.178 C 
ATOM     21  O   UNL     1      28.505  27.212  28.173  1.00  0.00    -0.341 OA
ATOM     22  C   UNL     1      28.360  28.515  27.837  1.00  0.00     0.281 C 
ATOM     23  C   UNL     1      25.979  28.461  28.708  1.00  0.00     0.180 C 
ATOM     24  C   UNL     1      27.278  29.213  28.571  1.00  0.00     0.202 C 
BRANCH  20  25
ATOM     25  C   UNL     1      28.101  25.504  29.726  1.00  0.00     0.191 C 
BRANCH  25  26
ATOM     26  O   UNL     1      27.516  25.189  30.933  1.00  0.00    -0.394 OA
ATOM     27  H   UNL     1      27.721  25.926  31.567  1.00  0.00     0.210 HD
ENDBRANCH  25  26
ENDBRANCH  20  25
BRANCH  22  28
ATOM     28  O   UNL     1      28.238  28.727  26.457  1.00  0.00    -0.350 OA
BRANCH  28  29
ATOM     29  C   UNL     1      28.143  30.056  26.130  1.00  0.00     0.169 C 
BRANCH  29  30
ATOM     30  C   UNL     1      27.474  30.201  24.771  1.00  0.00     0.119 C 
BRANCH  30  31
ATOM     31  N   UNL     1      26.042  29.976  24.873  1.00  0.00    -0.092 NA
ATOM     32  N   UNL     1      25.281  30.943  25.067  1.00  0.00     0.001 N 
ATOM     33  N   UNL     1      24.551  31.718  25.687  1.00  0.00    -0.003 NA
ENDBRANCH  30  31
ENDBRANCH  29  30
ENDBRANCH  28  29
ENDBRANCH  22  28
BRANCH  23  34
ATOM     34  O   UNL     1      25.205  28.748  27.585  1.00  0.00    -0.387 OA
ATOM     35  H   UNL     1      25.704  28.456  26.768  1.00  0.00     0.211 HD
ENDBRANCH  23  34
BRANCH  24  36
ATOM     36  O   UNL     1      27.691  29.806  29.771  1.00  0.00    -0.385 OA
ATOM     37  H   UNL     1      28.548  29.435  30.100  1.00  0.00     0.211 HD
ENDBRANCH  24  36
ENDBRANCH  18  19
ENDBRANCH  13  18
BRANCH  15  38
ATOM     38  O   UNL     1      22.151  24.977  29.520  1.00  0.00    -0.385 OA
ATOM     39  H   UNL     1      21.728  24.574  28.740  1.00  0.00     0.211 HD
ENDBRANCH  15  38
BRANCH  16  40
ATOM     40  O   UNL     1      22.314  28.163  28.081  1.00  0.00    -0.387 OA
ATOM     41  H   UNL     1      22.113  28.592  27.230  1.00  0.00     0.211 HD
ENDBRANCH  16  40
BRANCH  17  42
ATOM     42  O   UNL     1      23.452  27.333  26.094  1.00  0.00    -0.387 OA
ATOM     43  H   UNL     1      24.208  27.427  26.756  1.00  0.00     0.211 HD
ENDBRANCH  17  42
ENDBRANCH  11  12
ENDBRANCH  10  11
ENDBRANCH   5  10
BRANCH   5  44
ATOM     44  C   UNL     1      21.405  25.876  23.136  1.00  0.00     0.364 C 
ATOM     45  O   UNL     1      20.991  26.890  23.739  1.00  0.00    -0.246 OA
BRANCH  44  46
ATOM     46  O   UNL     1      20.617  25.310  22.164  1.00  0.00    -0.477 OA
ATOM     47  H   UNL     1      20.042  24.465  22.323  1.00  0.00     0.296 HD
ENDBRANCH  44  46
ENDBRANCH   5  44
BRANCH   8  48
ATOM     48  O   UNL     1      25.074  22.989  22.298  1.00  0.00    -0.391 OA
ATOM     49  H   UNL     1      25.971  23.277  22.579  1.00  0.00     0.211 HD
ENDBRANCH   8  48
BRANCH   9  50
ATOM     50  N   UNL     1      26.138  25.581  21.036  1.00  0.00    -0.348 N 
ATOM     51  C   UNL     1      27.383  24.909  21.097  1.00  0.00     0.217 C 
ATOM     52  H   UNL     1      25.935  26.187  20.230  1.00  0.00     0.163 HD
ATOM     53  C   UNL     1      28.389  25.072  20.016  1.00  0.00     0.114 C 
ATOM     54  O   UNL     1      27.692  24.148  22.061  1.00  0.00    -0.275 OA
ENDBRANCH   9  50
ENDBRANCH   3   4
BRANCH   3  55
ATOM     55  O   UNL     1      25.847  28.094  22.512  1.00  0.00    -0.388 OA
ATOM     56  H   UNL     1      26.105  29.038  22.414  1.00  0.00     0.211 HD
ENDBRANCH   3  55
ENDBRANCH   2   3
BRANCH   2  57
ATOM     57  O   UNL     1      23.207  28.965  23.393  1.00  0.00    -0.388 OA
ATOM     58  H   UNL     1      23.717  29.661  23.879  1.00  0.00     0.211 HD
ENDBRANCH   2  57
ENDBRANCH   1   2
BRANCH   1  59
ATOM     59  N   UNL     1      21.271  29.375  21.592  1.00  0.00    -0.319 N 
ATOM     60  C   UNL     1      20.021  28.809  21.184  1.00  0.00     0.407 C 
ATOM     61  H   UNL     1      21.262  30.229  22.170  1.00  0.00     0.167 HD
ATOM     62  O   UNL     1      19.992  27.769  20.480  1.00  0.00    -0.225 OA
BRANCH  60  63
ATOM     63  O   UNL     1      18.817  29.372  21.537  1.00  0.00    -0.443 OA
BRANCH  63  64
ATOM     64  C   UNL     1      18.671  30.485  22.348  1.00  0.00     0.294 C 
BRANCH  64  65
ATOM     65  C   UNL     1      17.515  30.499  23.253  1.00  0.00     0.120 A 
ATOM     66  C   UNL     1      16.962  31.582  23.886  1.00  0.00     0.138 A 
ATOM     67  N   UNL     1      16.800  29.415  23.630  1.00  0.00    -0.132 NA
ATOM     68  N   UNL     1      15.940  31.141  24.621  1.00  0.00    -0.252 N 
ATOM     69  N   UNL     1      15.871  29.837  24.444  1.00  0.00    -0.067 NA
BRANCH  68  70
ATOM     70  C   UNL     1      15.068  31.963  25.450  1.00  0.00     0.146 C 
BRANCH  70  71
ATOM     71  C   UNL     1      13.830  32.317  24.627  1.00  0.00     0.024 C 
BRANCH  71  72
ATOM     72  C   UNL     1      12.668  31.437  24.981  1.00  0.00     0.002 C 
BRANCH  72  73
ATOM     73  C   UNL     1      11.890  31.096  23.743  1.00  0.00     0.012 C 
BRANCH  73  74
ATOM     74  C   UNL     1      12.004  29.661  23.348  1.00  0.00     0.122 C 
BRANCH  74  75
ATOM     75  C   UNL     1      12.994  29.527  22.242  1.00  0.00     0.303 C 
ATOM     76  O   UNL     1      12.869  30.216  21.206  1.00  0.00    -0.252 OA
BRANCH  75  77
ATOM     77  O   UNL     1      14.064  28.644  22.340  1.00  0.00    -0.481 OA
ATOM     78  H   UNL     1      13.946  27.763  22.844  1.00  0.00     0.296 HD
ENDBRANCH  75  77
ENDBRANCH  74  75
ENDBRANCH  73  74
ENDBRANCH  72  73
ENDBRANCH  71  72
ENDBRANCH  70  71
ENDBRANCH  68  70
ENDBRANCH  64  65
ENDBRANCH  63  64
ENDBRANCH  60  63
ENDBRANCH   1  59
TORSDOF 36
