REMARK VINA RESULT:    -5.834     16.181     20.773
REMARK INTER + INTRA:         -21.809
REMARK INTER:                 -14.041
REMARK INTRA:                  -7.768
REMARK UNBOUND:                -6.938
REMARK SMILES CC(=O)N[C@@H]1[C@@H](O)C[C@](OC[C@H]2O[C@@H](O[C@H]3[C@H](O)[C@@H](O)[C@H](OCCN=[N+]=[N-])O[C@@H]3CO)[C@H](O)[C@@H](O)[C@H]2O)(C(=O)O)O[C@H]1C(O)[C@H](O)CNC(=O)OCc1cn(Cc2cc(Br)cc(Br)c2O)nn1
REMARK SMILES IDX 9 1 8 2 6 3 5 4 42 5 41 6 10 7 11 8 12 9 14 10 13 11 32 12
REMARK SMILES IDX 34 13 36 14 15 15 16 16 29 17 28 18 21 19 17 20 19 21 30 22
REMARK SMILES IDX 31 23 22 25 23 26 24 27 25 28 26 29 27 30 18 31 20 33 33 35
REMARK SMILES IDX 35 37 37 39 38 41 39 42 40 43 7 45 43 47 44 48 45 50 46 51
REMARK SMILES IDX 47 53 48 54 49 55 50 57 51 58 52 59 53 60 54 61 67 62 55 63
REMARK SMILES IDX 66 64 56 65 57 66 58 67 64 68 59 69 62 70 60 71 61 72 63 73
REMARK SMILES IDX 65 74 4 76 2 77 1 79 3 80
REMARK H PARENT 31 24 18 32 20 34 33 36 35 38 37 40 40 44 7 46 44 49 46 52
REMARK H PARENT 48 56 65 75 4 78
REMARK Flexibility Score: inf
ROOT
ATOM      1  C   UNL     1       2.741  23.134  34.486  1.00  0.00     0.272 C 
ATOM      2  C   UNL     1       4.039  22.665  33.669  1.00  0.00     0.113 C 
ATOM      3  C   UNL     1       3.867  21.278  33.201  1.00  0.00     0.145 C 
ATOM      4  C   UNL     1       2.605  21.153  32.389  1.00  0.00     0.142 C 
ATOM      5  C   UNL     1       1.588  22.232  32.611  1.00  0.00     0.178 C 
ATOM      6  O   UNL     1       1.694  23.067  33.638  1.00  0.00    -0.332 OA
ENDROOT
BRANCH   1   7
ATOM      7  O   UNL     1       3.086  24.419  34.735  1.00  0.00    -0.338 OA
BRANCH   7   8
ATOM      8  C   UNL     1       3.381  25.340  33.839  1.00  0.00     0.199 C 
BRANCH   8   9
ATOM      9  C   UNL     1       3.653  26.753  34.224  1.00  0.00     0.179 C 
ATOM     10  C   UNL     1       5.974  26.611  34.363  1.00  0.00     0.282 C 
ATOM     11  O   UNL     1       4.786  26.911  34.945  1.00  0.00    -0.341 OA
ATOM     12  C   UNL     1       6.071  27.109  32.957  1.00  0.00     0.202 C 
ATOM     13  C   UNL     1       5.020  28.151  32.687  1.00  0.00     0.179 C 
ATOM     14  C   UNL     1       3.631  27.686  33.012  1.00  0.00     0.177 C 
BRANCH  10  15
ATOM     15  O   UNL     1       6.273  25.246  34.495  1.00  0.00    -0.341 OA
BRANCH  15  16
ATOM     16  C   UNL     1       7.086  24.947  35.564  1.00  0.00     0.184 C 
ATOM     17  C   UNL     1       8.176  23.973  35.179  1.00  0.00     0.178 C 
ATOM     18  O   UNL     1       8.857  23.439  36.236  1.00  0.00    -0.341 OA
ATOM     19  C   UNL     1       8.682  24.065  37.457  1.00  0.00     0.281 C 
ATOM     20  C   UNL     1       6.309  24.221  36.668  1.00  0.00     0.180 C 
ATOM     21  C   UNL     1       7.237  24.182  37.858  1.00  0.00     0.202 C 
BRANCH  17  22
ATOM     22  C   UNL     1       9.144  24.551  34.169  1.00  0.00     0.191 C 
BRANCH  22  23
ATOM     23  O   UNL     1       9.226  25.923  34.274  1.00  0.00    -0.394 OA
ATOM     24  H   UNL     1      10.171  26.169  34.406  1.00  0.00     0.210 HD
ENDBRANCH  22  23
ENDBRANCH  17  22
BRANCH  19  25
ATOM     25  O   UNL     1       9.332  25.288  37.431  1.00  0.00    -0.350 OA
BRANCH  25  26
ATOM     26  C   UNL     1      10.650  25.157  37.777  1.00  0.00     0.169 C 
BRANCH  26  27
ATOM     27  C   UNL     1      11.642  25.606  36.760  1.00  0.00     0.119 C 
BRANCH  27  28
ATOM     28  N   UNL     1      12.579  24.565  36.387  1.00  0.00    -0.092 NA
ATOM     29  N   UNL     1      12.315  23.382  36.465  1.00  0.00     0.001 N 
ATOM     30  N   UNL     1      12.113  22.191  36.243  1.00  0.00    -0.003 NA
ENDBRANCH  27  28
ENDBRANCH  26  27
ENDBRANCH  25  26
ENDBRANCH  19  25
BRANCH  20  31
ATOM     31  O   UNL     1       5.093  24.784  36.945  1.00  0.00    -0.387 OA
ATOM     32  H   UNL     1       4.419  24.286  36.380  1.00  0.00     0.211 HD
ENDBRANCH  20  31
BRANCH  21  33
ATOM     33  O   UNL     1       6.914  23.145  38.727  1.00  0.00    -0.385 OA
ATOM     34  H   UNL     1       7.311  23.293  39.603  1.00  0.00     0.211 HD
ENDBRANCH  21  33
ENDBRANCH  15  16
ENDBRANCH  10  15
BRANCH  12  35
ATOM     35  O   UNL     1       7.361  27.671  32.793  1.00  0.00    -0.385 OA
ATOM     36  H   UNL     1       7.697  27.287  31.949  1.00  0.00     0.211 HD
ENDBRANCH  12  35
BRANCH  13  37
ATOM     37  O   UNL     1       5.093  28.642  31.384  1.00  0.00    -0.387 OA
ATOM     38  H   UNL     1       4.432  29.378  31.334  1.00  0.00     0.211 HD
ENDBRANCH  13  37
BRANCH  14  39
ATOM     39  O   UNL     1       3.098  27.014  31.927  1.00  0.00    -0.387 OA
ATOM     40  H   UNL     1       3.355  27.459  31.075  1.00  0.00     0.211 HD
ENDBRANCH  14  39
ENDBRANCH   8   9
ENDBRANCH   7   8
ENDBRANCH   1   7
BRANCH   1  41
ATOM     41  C   UNL     1       2.656  22.217  35.618  1.00  0.00     0.364 C 
ATOM     42  O   UNL     1       3.589  22.169  36.505  1.00  0.00    -0.246 OA
BRANCH  41  43
ATOM     43  O   UNL     1       1.616  21.356  35.850  1.00  0.00    -0.477 OA
ATOM     44  H   UNL     1       0.715  21.696  36.154  1.00  0.00     0.296 HD
ENDBRANCH  41  43
ENDBRANCH   1  41
BRANCH   3  45
ATOM     45  O   UNL     1       5.000  20.912  32.450  1.00  0.00    -0.391 OA
ATOM     46  H   UNL     1       5.673  20.504  33.042  1.00  0.00     0.211 HD
ENDBRANCH   3  45
BRANCH   5  47
ATOM     47  C   UNL     1       1.338  22.906  31.276  1.00  0.00     0.176 C 
BRANCH  47  48
ATOM     48  O   UNL     1       0.777  24.189  31.499  1.00  0.00    -0.388 OA
ATOM     49  H   UNL     1      -0.080  24.117  31.964  1.00  0.00     0.211 HD
ENDBRANCH  47  48
BRANCH  47  50
ATOM     50  C   UNL     1       2.485  22.962  30.355  1.00  0.00     0.165 C 
BRANCH  50  51
ATOM     51  O   UNL     1       3.246  24.098  30.520  1.00  0.00    -0.388 OA
ATOM     52  H   UNL     1       4.186  23.992  30.228  1.00  0.00     0.211 HD
ENDBRANCH  50  51
BRANCH  50  53
ATOM     53  C   UNL     1       2.239  22.701  28.909  1.00  0.00     0.154 C 
BRANCH  53  54
ATOM     54  N   UNL     1       1.568  23.720  28.178  1.00  0.00    -0.319 N 
ATOM     55  C   UNL     1       2.201  24.207  26.985  1.00  0.00     0.407 C 
ATOM     56  H   UNL     1       0.671  24.149  28.457  1.00  0.00     0.167 HD
ATOM     57  O   UNL     1       3.326  23.708  26.636  1.00  0.00    -0.225 OA
BRANCH  55  58
ATOM     58  O   UNL     1       1.603  25.185  26.242  1.00  0.00    -0.443 OA
BRANCH  58  59
ATOM     59  C   UNL     1       1.243  26.434  26.775  1.00  0.00     0.294 C 
BRANCH  59  60
ATOM     60  C   UNL     1       2.392  27.053  27.473  1.00  0.00     0.120 A 
ATOM     61  C   UNL     1       3.269  28.036  27.032  1.00  0.00     0.138 A 
ATOM     62  N   UNL     1       2.811  26.774  28.718  1.00  0.00    -0.132 NA
ATOM     63  N   UNL     1       4.168  28.316  27.986  1.00  0.00    -0.248 N 
ATOM     64  N   UNL     1       3.857  27.520  29.012  1.00  0.00    -0.067 NA
BRANCH  63  65
ATOM     65  C   UNL     1       5.281  29.272  27.979  1.00  0.00     0.185 C 
BRANCH  65  66
ATOM     66  C   UNL     1       6.067  29.031  26.747  1.00  0.00     0.018 A 
ATOM     67  C   UNL     1       6.286  30.083  25.880  1.00  0.00     0.025 A 
ATOM     68  C   UNL     1       6.592  27.783  26.432  1.00  0.00     0.134 A 
ATOM     69  C   UNL     1       7.014  29.929  24.710  1.00  0.00     0.019 A 
ATOM     70  C   UNL     1       7.324  27.597  25.270  1.00  0.00     0.061 A 
ATOM     71  Br  UNL     1       7.290  31.409  23.544  1.00  0.00    -0.051 Br
ATOM     72  C   UNL     1       7.523  28.686  24.422  1.00  0.00     0.035 A 
ATOM     73  Br  UNL     1       8.028  25.892  24.866  1.00  0.00    -0.047 Br
BRANCH  68  74
ATOM     74  O   UNL     1       6.337  26.773  27.339  1.00  0.00    -0.506 OA
ATOM     75  H   UNL     1       6.980  26.002  27.416  1.00  0.00     0.293 HD
ENDBRANCH  68  74
ENDBRANCH  65  66
ENDBRANCH  63  65
ENDBRANCH  59  60
ENDBRANCH  58  59
ENDBRANCH  55  58
ENDBRANCH  53  54
ENDBRANCH  50  53
ENDBRANCH  47  50
ENDBRANCH   5  47
BRANCH   4  76
ATOM     76  N   UNL     1       2.082  19.809  32.504  1.00  0.00    -0.348 N 
ATOM     77  C   UNL     1       2.375  18.866  31.485  1.00  0.00     0.217 C 
ATOM     78  H   UNL     1       1.488  19.493  33.306  1.00  0.00     0.163 HD
ATOM     79  C   UNL     1       1.834  17.476  31.605  1.00  0.00     0.114 C 
ATOM     80  O   UNL     1       3.093  19.209  30.487  1.00  0.00    -0.275 OA
ENDBRANCH   4  76
TORSDOF 32
