REMARK VINA RESULT:    -5.651      4.212      9.741
REMARK INTER + INTRA:         -21.510
REMARK INTER:                 -15.664
REMARK INTRA:                  -5.847
REMARK UNBOUND:                -7.600
REMARK SMILES CC(=O)N[C@@H]1[C@@H](O)C[C@](OC[C@H]2O[C@@H](O[C@H]3[C@H](O)[C@@H](O)[C@H](OCCN=[N+]=[N-])O[C@@H]3CO)[C@H](O)[C@@H](O)[C@H]2O)(C(=O)O)O[C@H]1C(O)[C@H](O)CNC(=O)OCc1cn(-c2ccc(Cl)cc2)nn1
REMARK SMILES IDX 9 1 8 2 6 3 5 4 42 5 41 6 10 7 11 8 12 9 14 10 13 11 32 12
REMARK SMILES IDX 34 13 36 14 15 15 16 16 29 17 28 18 21 19 17 20 19 21 30 22
REMARK SMILES IDX 31 23 22 25 23 26 24 27 25 28 26 29 27 30 18 31 20 33 33 35
REMARK SMILES IDX 35 37 37 39 38 41 39 42 40 43 7 45 43 47 44 48 45 50 46 51
REMARK SMILES IDX 47 53 48 54 49 55 50 57 51 58 52 59 53 60 54 61 64 62 55 63
REMARK SMILES IDX 63 64 56 65 57 66 62 67 58 68 61 69 59 70 60 71 4 72 2 73
REMARK SMILES IDX 1 75 3 76
REMARK H PARENT 31 24 18 32 20 34 33 36 35 38 37 40 40 44 7 46 44 49 46 52
REMARK H PARENT 48 56 4 74
REMARK Flexibility Score: inf
ROOT
ATOM      1  C   UNL     1      17.924  30.315  22.025  1.00  0.00     0.272 C 
ATOM      2  C   UNL     1      17.765  31.625  21.370  1.00  0.00     0.113 C 
ATOM      3  C   UNL     1      18.571  31.951  20.180  1.00  0.00     0.145 C 
ATOM      4  C   UNL     1      19.333  30.731  19.709  1.00  0.00     0.142 C 
ATOM      5  C   UNL     1      19.946  30.136  20.995  1.00  0.00     0.178 C 
ATOM      6  O   UNL     1      18.820  29.419  21.504  1.00  0.00    -0.332 OA
ENDROOT
BRANCH   1   7
ATOM      7  O   UNL     1      16.640  29.703  22.049  1.00  0.00    -0.338 OA
BRANCH   7   8
ATOM      8  C   UNL     1      16.335  29.034  20.895  1.00  0.00     0.199 C 
BRANCH   8   9
ATOM      9  C   UNL     1      14.834  28.798  20.754  1.00  0.00     0.179 C 
ATOM     10  C   UNL     1      13.021  30.266  21.062  1.00  0.00     0.282 C 
ATOM     11  O   UNL     1      14.109  29.577  21.599  1.00  0.00    -0.341 OA
ATOM     12  C   UNL     1      13.518  31.153  19.998  1.00  0.00     0.202 C 
ATOM     13  C   UNL     1      14.160  30.316  18.900  1.00  0.00     0.179 C 
ATOM     14  C   UNL     1      14.390  28.897  19.312  1.00  0.00     0.177 C 
BRANCH  10  15
ATOM     15  O   UNL     1      12.443  30.870  22.176  1.00  0.00    -0.341 OA
BRANCH  15  16
ATOM     16  C   UNL     1      13.109  30.813  23.325  1.00  0.00     0.184 C 
ATOM     17  C   UNL     1      12.281  30.420  24.496  1.00  0.00     0.178 C 
ATOM     18  O   UNL     1      13.078  30.076  25.583  1.00  0.00    -0.341 OA
ATOM     19  C   UNL     1      13.910  31.049  26.035  1.00  0.00     0.281 C 
ATOM     20  C   UNL     1      13.800  32.130  23.733  1.00  0.00     0.180 C 
ATOM     21  C   UNL     1      13.842  32.283  25.211  1.00  0.00     0.202 C 
BRANCH  17  22
ATOM     22  C   UNL     1      11.272  29.336  24.281  1.00  0.00     0.191 C 
BRANCH  22  23
ATOM     23  O   UNL     1      11.411  28.293  25.197  1.00  0.00    -0.394 OA
ATOM     24  H   UNL     1      12.352  27.999  25.212  1.00  0.00     0.210 HD
ENDBRANCH  22  23
ENDBRANCH  17  22
BRANCH  19  25
ATOM     25  O   UNL     1      15.235  30.599  26.023  1.00  0.00    -0.350 OA
BRANCH  25  26
ATOM     26  C   UNL     1      16.011  31.269  26.956  1.00  0.00     0.169 C 
BRANCH  26  27
ATOM     27  C   UNL     1      15.701  30.905  28.376  1.00  0.00     0.119 C 
BRANCH  27  28
ATOM     28  N   UNL     1      15.572  32.157  29.118  1.00  0.00    -0.092 NA
ATOM     29  N   UNL     1      14.611  32.874  28.787  1.00  0.00     0.001 N 
ATOM     30  N   UNL     1      13.495  33.434  28.739  1.00  0.00    -0.003 NA
ENDBRANCH  27  28
ENDBRANCH  26  27
ENDBRANCH  25  26
ENDBRANCH  19  25
BRANCH  20  31
ATOM     31  O   UNL     1      15.089  32.068  23.233  1.00  0.00    -0.387 OA
ATOM     32  H   UNL     1      15.348  33.017  23.004  1.00  0.00     0.211 HD
ENDBRANCH  20  31
BRANCH  21  33
ATOM     33  O   UNL     1      12.814  33.117  25.697  1.00  0.00    -0.385 OA
ATOM     34  H   UNL     1      12.393  32.608  26.425  1.00  0.00     0.211 HD
ENDBRANCH  21  33
ENDBRANCH  15  16
ENDBRANCH  10  15
BRANCH  12  35
ATOM     35  O   UNL     1      12.559  31.974  19.402  1.00  0.00    -0.385 OA
ATOM     36  H   UNL     1      11.858  31.427  18.921  1.00  0.00     0.211 HD
ENDBRANCH  12  35
BRANCH  13  37
ATOM     37  O   UNL     1      15.317  30.969  18.480  1.00  0.00    -0.387 OA
ATOM     38  H   UNL     1      15.818  30.508  17.790  1.00  0.00     0.211 HD
ENDBRANCH  13  37
BRANCH  14  39
ATOM     39  O   UNL     1      15.460  28.354  18.560  1.00  0.00    -0.387 OA
ATOM     40  H   UNL     1      15.293  28.590  17.630  1.00  0.00     0.211 HD
ENDBRANCH  14  39
ENDBRANCH   8   9
ENDBRANCH   7   8
ENDBRANCH   1   7
BRANCH   1  41
ATOM     41  C   UNL     1      18.272  30.543  23.474  1.00  0.00     0.364 C 
ATOM     42  O   UNL     1      18.041  31.632  24.045  1.00  0.00    -0.246 OA
BRANCH  41  43
ATOM     43  O   UNL     1      18.857  29.529  24.190  1.00  0.00    -0.477 OA
ATOM     44  H   UNL     1      18.457  28.597  24.284  1.00  0.00     0.296 HD
ENDBRANCH  41  43
ENDBRANCH   1  41
BRANCH   3  45
ATOM     45  O   UNL     1      17.764  32.355  19.116  1.00  0.00    -0.391 OA
ATOM     46  H   UNL     1      17.832  31.683  18.412  1.00  0.00     0.211 HD
ENDBRANCH   3  45
BRANCH   5  47
ATOM     47  C   UNL     1      21.038  29.165  20.726  1.00  0.00     0.176 C 
BRANCH  47  48
ATOM     48  O   UNL     1      21.805  29.055  21.878  1.00  0.00    -0.388 OA
ATOM     49  H   UNL     1      22.638  28.536  21.768  1.00  0.00     0.211 HD
ENDBRANCH  47  48
BRANCH  47  50
ATOM     50  C   UNL     1      20.722  27.847  20.159  1.00  0.00     0.165 C 
BRANCH  50  51
ATOM     51  O   UNL     1      20.387  27.028  21.300  1.00  0.00    -0.388 OA
ATOM     52  H   UNL     1      19.413  26.878  21.326  1.00  0.00     0.211 HD
ENDBRANCH  50  51
BRANCH  50  53
ATOM     53  C   UNL     1      21.936  27.121  19.599  1.00  0.00     0.154 C 
BRANCH  53  54
ATOM     54  N   UNL     1      22.524  26.171  20.502  1.00  0.00    -0.319 N 
ATOM     55  C   UNL     1      22.707  24.834  20.064  1.00  0.00     0.407 C 
ATOM     56  H   UNL     1      22.825  26.411  21.476  1.00  0.00     0.167 HD
ATOM     57  O   UNL     1      22.352  24.453  18.907  1.00  0.00    -0.225 OA
BRANCH  55  58
ATOM     58  O   UNL     1      23.284  23.890  20.891  1.00  0.00    -0.443 OA
BRANCH  58  59
ATOM     59  C   UNL     1      24.228  24.245  21.906  1.00  0.00     0.294 C 
BRANCH  59  60
ATOM     60  C   UNL     1      23.530  24.454  23.208  1.00  0.00     0.121 A 
ATOM     61  C   UNL     1      24.158  24.644  24.430  1.00  0.00     0.144 A 
ATOM     62  N   UNL     1      22.211  24.496  23.440  1.00  0.00    -0.131 NA
ATOM     63  N   UNL     1      23.207  24.795  25.361  1.00  0.00    -0.220 N 
ATOM     64  N   UNL     1      22.063  24.702  24.746  1.00  0.00    -0.062 NA
BRANCH  63  65
ATOM     65  C   UNL     1      23.506  25.011  26.741  1.00  0.00     0.066 A 
ATOM     66  C   UNL     1      24.703  25.555  27.134  1.00  0.00     0.030 A 
ATOM     67  C   UNL     1      22.597  24.678  27.707  1.00  0.00     0.030 A 
ATOM     68  C   UNL     1      25.025  25.780  28.475  1.00  0.00     0.023 A 
ATOM     69  C   UNL     1      22.891  24.889  29.047  1.00  0.00     0.023 A 
ATOM     70  C   UNL     1      24.110  25.443  29.437  1.00  0.00     0.041 A 
ATOM     71  Cl  UNL     1      24.471  25.706  31.145  1.00  0.00    -0.084 Cl
ENDBRANCH  63  65
ENDBRANCH  59  60
ENDBRANCH  58  59
ENDBRANCH  55  58
ENDBRANCH  53  54
ENDBRANCH  50  53
ENDBRANCH  47  50
ENDBRANCH   5  47
BRANCH   4  72
ATOM     72  N   UNL     1      20.268  31.057  18.701  1.00  0.00    -0.348 N 
ATOM     73  C   UNL     1      20.196  30.399  17.422  1.00  0.00     0.217 C 
ATOM     74  H   UNL     1      21.021  31.758  18.792  1.00  0.00     0.163 HD
ATOM     75  C   UNL     1      21.167  30.720  16.337  1.00  0.00     0.114 C 
ATOM     76  O   UNL     1      19.290  29.546  17.242  1.00  0.00    -0.275 OA
ENDBRANCH   4  72
TORSDOF 30
