REMARK VINA RESULT:    -5.742      2.606      5.817
REMARK INTER + INTRA:         -24.944
REMARK INTER:                 -15.236
REMARK INTRA:                  -9.708
REMARK UNBOUND:                -8.963
REMARK SMILES CC(=O)N[C@@H]1[C@@H](O)C[C@](OC[C@H]2O[C@@H](O[C@H]3[C@H](O)[C@@H](O)[C@H](OCCN=[N+]=[N-])O[C@@H]3CO)[C@H](O)[C@@H](O)[C@H]2O)(C(=O)O)O[C@H]1C(O)[C@H](O)CNC(=O)OCc1cn(C[C@@H](C(=O)O)C(c2ccccc2)c2ccccc2)nn1
REMARK SMILES IDX 43 1 42 2 9 3 8 4 41 5 6 6 5 7 10 8 11 9 12 10 14 11 13 12
REMARK SMILES IDX 32 13 34 14 36 15 15 16 16 17 29 18 28 19 21 20 17 21 19 22
REMARK SMILES IDX 30 23 31 24 22 26 23 27 24 28 25 29 26 30 27 31 18 32 20 34
REMARK SMILES IDX 33 36 35 38 37 40 38 42 39 43 40 44 7 46 4 48 2 49 1 51 3 52
REMARK SMILES IDX 44 53 45 55 46 56 47 58 48 59 49 60 50 62 51 63 52 64 53 65
REMARK SMILES IDX 54 66 75 67 55 68 74 69 56 70 57 71 58 72 59 73 60 74 61 76
REMARK SMILES IDX 62 77 63 78 67 79 64 80 66 81 65 82 68 83 69 84 73 85 70 86
REMARK SMILES IDX 72 87 71 88
REMARK H PARENT 31 25 18 33 20 35 33 37 35 39 37 41 40 45 7 47 4 50 44 54
REMARK H PARENT 46 57 48 61 60 75
REMARK Flexibility Score: inf
ROOT
ATOM      1  C   UNL     1      18.721  30.807  22.874  1.00  0.00     0.176 C 
ENDROOT
BRANCH   1   2
ATOM      2  C   UNL     1      19.452  30.911  24.229  1.00  0.00     0.178 C 
ATOM      3  C   UNL     1      20.997  30.030  25.705  1.00  0.00     0.272 C 
ATOM      4  C   UNL     1      20.592  31.400  26.345  1.00  0.00     0.113 C 
ATOM      5  O   UNL     1      20.270  29.880  24.510  1.00  0.00    -0.332 OA
ATOM      6  C   UNL     1      19.119  31.512  26.537  1.00  0.00     0.145 C 
ATOM      7  C   UNL     1      18.394  31.211  25.265  1.00  0.00     0.142 C 
BRANCH   3   8
ATOM      8  O   UNL     1      20.845  29.112  26.601  1.00  0.00    -0.338 OA
BRANCH   8   9
ATOM      9  C   UNL     1      21.374  28.675  27.675  1.00  0.00     0.199 C 
BRANCH   9  10
ATOM     10  C   UNL     1      21.693  27.232  27.962  1.00  0.00     0.179 C 
ATOM     11  C   UNL     1      22.275  25.391  26.583  1.00  0.00     0.282 C 
ATOM     12  O   UNL     1      21.525  26.473  26.844  1.00  0.00    -0.341 OA
ATOM     13  C   UNL     1      23.238  24.893  27.589  1.00  0.00     0.202 C 
ATOM     14  C   UNL     1      23.455  25.786  28.775  1.00  0.00     0.179 C 
ATOM     15  C   UNL     1      23.200  27.183  28.305  1.00  0.00     0.177 C 
BRANCH  11  16
ATOM     16  O   UNL     1      23.045  25.747  25.436  1.00  0.00    -0.341 OA
BRANCH  16  17
ATOM     17  C   UNL     1      22.928  24.860  24.404  1.00  0.00     0.184 C 
ATOM     18  C   UNL     1      24.060  25.087  23.443  1.00  0.00     0.178 C 
ATOM     19  O   UNL     1      23.782  26.079  22.510  1.00  0.00    -0.341 OA
ATOM     20  C   UNL     1      22.863  27.034  22.968  1.00  0.00     0.281 C 
ATOM     21  C   UNL     1      21.629  25.035  23.630  1.00  0.00     0.180 C 
ATOM     22  C   UNL     1      21.497  26.466  23.148  1.00  0.00     0.202 C 
BRANCH  18  23
ATOM     23  C   UNL     1      24.517  23.851  22.721  1.00  0.00     0.191 C 
BRANCH  23  24
ATOM     24  O   UNL     1      24.277  23.896  21.362  1.00  0.00    -0.394 OA
ATOM     25  H   UNL     1      23.334  23.583  21.224  1.00  0.00     0.210 HD
ENDBRANCH  23  24
ENDBRANCH  18  23
BRANCH  20  26
ATOM     26  O   UNL     1      22.792  28.043  22.033  1.00  0.00    -0.350 OA
BRANCH  26  27
ATOM     27  C   UNL     1      23.887  28.243  21.253  1.00  0.00     0.169 C 
BRANCH  27  28
ATOM     28  C   UNL     1      24.848  29.262  21.774  1.00  0.00     0.119 C 
BRANCH  28  29
ATOM     29  N   UNL     1      24.041  30.454  22.104  1.00  0.00    -0.092 NA
ATOM     30  N   UNL     1      24.638  31.532  22.150  1.00  0.00     0.001 N 
ATOM     31  N   UNL     1      25.240  32.587  22.341  1.00  0.00    -0.003 NA
ENDBRANCH  28  29
ENDBRANCH  27  28
ENDBRANCH  26  27
ENDBRANCH  20  26
BRANCH  21  32
ATOM     32  O   UNL     1      21.710  24.220  22.505  1.00  0.00    -0.387 OA
ATOM     33  H   UNL     1      20.849  24.116  22.040  1.00  0.00     0.211 HD
ENDBRANCH  21  32
BRANCH  22  34
ATOM     34  O   UNL     1      20.802  27.223  24.082  1.00  0.00    -0.385 OA
ATOM     35  H   UNL     1      19.826  26.988  23.975  1.00  0.00     0.211 HD
ENDBRANCH  22  34
ENDBRANCH  16  17
ENDBRANCH  11  16
BRANCH  13  36
ATOM     36  O   UNL     1      22.797  23.655  28.116  1.00  0.00    -0.385 OA
ATOM     37  H   UNL     1      23.537  23.212  28.621  1.00  0.00     0.211 HD
ENDBRANCH  13  36
BRANCH  14  38
ATOM     38  O   UNL     1      24.746  25.651  29.244  1.00  0.00    -0.387 OA
ATOM     39  H   UNL     1      25.313  26.358  28.839  1.00  0.00     0.211 HD
ENDBRANCH  14  38
BRANCH  15  40
ATOM     40  O   UNL     1      23.970  27.426  27.176  1.00  0.00    -0.387 OA
ATOM     41  H   UNL     1      24.610  26.690  27.082  1.00  0.00     0.211 HD
ENDBRANCH  15  40
ENDBRANCH   9  10
ENDBRANCH   8   9
ENDBRANCH   3   8
BRANCH   3  42
ATOM     42  C   UNL     1      22.384  30.292  25.271  1.00  0.00     0.364 C 
ATOM     43  O   UNL     1      22.921  31.418  25.210  1.00  0.00    -0.246 OA
BRANCH  42  44
ATOM     44  O   UNL     1      23.201  29.208  24.885  1.00  0.00    -0.477 OA
ATOM     45  H   UNL     1      24.001  29.015  25.449  1.00  0.00     0.296 HD
ENDBRANCH  42  44
ENDBRANCH   3  42
BRANCH   6  46
ATOM     46  O   UNL     1      18.654  30.705  27.586  1.00  0.00    -0.391 OA
ATOM     47  H   UNL     1      19.149  29.854  27.644  1.00  0.00     0.211 HD
ENDBRANCH   6  46
BRANCH   7  48
ATOM     48  N   UNL     1      17.670  32.387  24.838  1.00  0.00    -0.348 N 
ATOM     49  C   UNL     1      16.257  32.453  24.921  1.00  0.00     0.217 C 
ATOM     50  H   UNL     1      18.220  33.209  24.460  1.00  0.00     0.163 HD
ATOM     51  C   UNL     1      15.499  33.674  24.480  1.00  0.00     0.114 C 
ATOM     52  O   UNL     1      15.658  31.447  25.380  1.00  0.00    -0.275 OA
ENDBRANCH   7  48
ENDBRANCH   1   2
BRANCH   1  53
ATOM     53  O   UNL     1      18.429  29.504  22.573  1.00  0.00    -0.388 OA
ATOM     54  H   UNL     1      18.272  29.334  21.616  1.00  0.00     0.211 HD
ENDBRANCH   1  53
BRANCH   1  55
ATOM     55  C   UNL     1      19.529  31.417  21.796  1.00  0.00     0.165 C 
BRANCH  55  56
ATOM     56  O   UNL     1      18.769  32.200  20.903  1.00  0.00    -0.388 OA
ATOM     57  H   UNL     1      17.987  31.611  20.664  1.00  0.00     0.211 HD
ENDBRANCH  55  56
BRANCH  55  58
ATOM     58  C   UNL     1      20.500  30.605  21.024  1.00  0.00     0.154 C 
BRANCH  58  59
ATOM     59  N   UNL     1      20.026  29.992  19.838  1.00  0.00    -0.319 N 
ATOM     60  C   UNL     1      19.692  28.632  19.670  1.00  0.00     0.407 C 
ATOM     61  H   UNL     1      19.900  30.633  18.961  1.00  0.00     0.167 HD
ATOM     62  O   UNL     1      19.823  27.785  20.571  1.00  0.00    -0.225 OA
BRANCH  60  63
ATOM     63  O   UNL     1      19.192  28.235  18.447  1.00  0.00    -0.443 OA
BRANCH  63  64
ATOM     64  C   UNL     1      17.834  28.169  18.188  1.00  0.00     0.294 C 
BRANCH  64  65
ATOM     65  C   UNL     1      16.972  28.587  19.304  1.00  0.00     0.120 A 
ATOM     66  C   UNL     1      16.408  29.814  19.561  1.00  0.00     0.138 A 
ATOM     67  N   UNL     1      16.584  27.803  20.357  1.00  0.00    -0.132 NA
ATOM     68  N   UNL     1      15.723  29.756  20.708  1.00  0.00    -0.251 N 
ATOM     69  N   UNL     1      15.847  28.526  21.169  1.00  0.00    -0.067 NA
BRANCH  68  70
ATOM     70  C   UNL     1      14.958  30.829  21.372  1.00  0.00     0.162 C 
BRANCH  70  71
ATOM     71  C   UNL     1      13.520  30.747  20.976  1.00  0.00     0.132 C 
BRANCH  71  72
ATOM     72  C   UNL     1      12.704  30.126  22.062  1.00  0.00     0.309 C 
ATOM     73  O   UNL     1      11.847  30.754  22.707  1.00  0.00    -0.252 OA
BRANCH  72  74
ATOM     74  O   UNL     1      12.896  28.792  22.376  1.00  0.00    -0.481 OA
ATOM     75  H   UNL     1      12.762  28.477  23.341  1.00  0.00     0.296 HD
ENDBRANCH  72  74
ENDBRANCH  71  72
BRANCH  71  76
ATOM     76  C   UNL     1      12.883  31.954  20.397  1.00  0.00     0.065 C 
BRANCH  76  77
ATOM     77  C   UNL     1      13.423  33.261  20.778  1.00  0.00    -0.040 A 
ATOM     78  C   UNL     1      14.573  33.775  20.161  1.00  0.00     0.004 A 
ATOM     79  C   UNL     1      12.861  34.076  21.763  1.00  0.00     0.004 A 
ATOM     80  C   UNL     1      15.113  34.979  20.485  1.00  0.00     0.000 A 
ATOM     81  C   UNL     1      13.415  35.292  22.083  1.00  0.00     0.000 A 
ATOM     82  C   UNL     1      14.548  35.757  21.448  1.00  0.00     0.000 A 
ENDBRANCH  76  77
BRANCH  76  83
ATOM     83  C   UNL     1      12.537  31.816  18.958  1.00  0.00    -0.040 A 
ATOM     84  C   UNL     1      13.253  30.887  18.234  1.00  0.00     0.004 A 
ATOM     85  C   UNL     1      11.552  32.553  18.358  1.00  0.00     0.004 A 
ATOM     86  C   UNL     1      12.995  30.683  16.907  1.00  0.00     0.000 A 
ATOM     87  C   UNL     1      11.300  32.335  17.006  1.00  0.00     0.000 A 
ATOM     88  C   UNL     1      12.012  31.409  16.277  1.00  0.00     0.000 A 
ENDBRANCH  76  83
ENDBRANCH  71  76
ENDBRANCH  70  71
ENDBRANCH  68  70
ENDBRANCH  64  65
ENDBRANCH  63  64
ENDBRANCH  60  63
ENDBRANCH  58  59
ENDBRANCH  55  58
ENDBRANCH   1  55
TORSDOF 36
