REMARK VINA RESULT:    -6.474     18.883     24.014
REMARK INTER + INTRA:         -22.033
REMARK INTER:                 -15.204
REMARK INTRA:                  -6.829
REMARK UNBOUND:                -5.152
REMARK SMILES CC(=O)N[C@@H]1[C@@H](O)C[C@](OC[C@H]2O[C@@H](O[C@H]3[C@H](O)[C@@H](O)[C@H](OCCN=[N+]=[N-])O[C@@H]3CO)[C@H](O)[C@@H](O)[C@H]2O)(C(=O)O)O[C@H]1C(O)[C@H](O)CNC(=O)OCc1cn(CC(O)c2ccccc2)nn1
REMARK SMILES IDX 9 1 8 2 6 3 5 4 42 5 41 6 10 7 11 8 12 9 14 10 13 11 32 12
REMARK SMILES IDX 34 13 36 14 15 15 16 16 29 17 28 18 21 19 17 20 19 21 30 22
REMARK SMILES IDX 31 23 22 25 23 26 24 27 25 28 26 29 27 30 18 31 20 33 33 35
REMARK SMILES IDX 35 37 37 39 38 41 39 42 40 43 7 45 43 47 44 48 45 50 46 51
REMARK SMILES IDX 47 53 48 54 49 55 50 57 51 58 52 59 53 60 54 61 66 62 55 63
REMARK SMILES IDX 65 64 56 65 57 66 58 67 59 69 60 70 64 71 61 72 63 73 62 74
REMARK SMILES IDX 4 75 2 76 1 78 3 79
REMARK H PARENT 31 24 18 32 20 34 33 36 35 38 37 40 40 44 7 46 44 49 46 52
REMARK H PARENT 48 56 58 68 4 77
REMARK Flexibility Score: inf
ROOT
ATOM      1  C   UNL     1      10.704  23.953  36.120  1.00  0.00     0.272 C 
ATOM      2  C   UNL     1      11.493  25.000  35.427  1.00  0.00     0.113 C 
ATOM      3  C   UNL     1      10.749  26.193  34.941  1.00  0.00     0.145 C 
ATOM      4  C   UNL     1       9.282  25.896  34.958  1.00  0.00     0.142 C 
ATOM      5  C   UNL     1       9.100  24.460  34.500  1.00  0.00     0.178 C 
ATOM      6  O   UNL     1       9.640  23.519  35.322  1.00  0.00    -0.332 OA
ENDROOT
BRANCH   1   7
ATOM      7  O   UNL     1      10.184  24.257  37.342  1.00  0.00    -0.338 OA
BRANCH   7   8
ATOM      8  C   UNL     1      11.002  24.185  38.427  1.00  0.00     0.199 C 
BRANCH   8   9
ATOM      9  C   UNL     1      10.209  24.134  39.712  1.00  0.00     0.179 C 
ATOM     10  C   UNL     1       8.081  23.577  40.387  1.00  0.00     0.282 C 
ATOM     11  O   UNL     1       8.854  24.214  39.454  1.00  0.00    -0.341 OA
ATOM     12  C   UNL     1       8.279  22.079  40.464  1.00  0.00     0.202 C 
ATOM     13  C   UNL     1       9.732  21.785  40.163  1.00  0.00     0.179 C 
ATOM     14  C   UNL     1      10.532  22.990  40.614  1.00  0.00     0.177 C 
BRANCH  10  15
ATOM     15  O   UNL     1       6.722  23.756  40.148  1.00  0.00    -0.341 OA
BRANCH  15  16
ATOM     16  C   UNL     1       6.397  24.208  38.899  1.00  0.00     0.184 C 
ATOM     17  C   UNL     1       5.793  25.595  39.078  1.00  0.00     0.178 C 
ATOM     18  O   UNL     1       4.415  25.550  39.034  1.00  0.00    -0.341 OA
ATOM     19  C   UNL     1       3.990  24.544  39.922  1.00  0.00     0.281 C 
ATOM     20  C   UNL     1       5.379  23.228  38.329  1.00  0.00     0.180 C 
ATOM     21  C   UNL     1       4.115  23.222  39.172  1.00  0.00     0.202 C 
BRANCH  17  22
ATOM     22  C   UNL     1       6.360  26.567  38.058  1.00  0.00     0.191 C 
BRANCH  22  23
ATOM     23  O   UNL     1       7.672  26.244  37.725  1.00  0.00    -0.394 OA
ATOM     24  H   UNL     1       7.847  25.270  37.802  1.00  0.00     0.210 HD
ENDBRANCH  22  23
ENDBRANCH  17  22
BRANCH  19  25
ATOM     25  O   UNL     1       2.695  24.842  40.269  1.00  0.00    -0.350 OA
BRANCH  25  26
ATOM     26  C   UNL     1       2.484  26.121  40.727  1.00  0.00     0.169 C 
BRANCH  26  27
ATOM     27  C   UNL     1       1.187  26.734  40.280  1.00  0.00     0.119 C 
BRANCH  27  28
ATOM     28  N   UNL     1       1.053  26.609  38.824  1.00  0.00    -0.092 NA
ATOM     29  N   UNL     1       1.728  27.422  38.172  1.00  0.00     0.001 N 
ATOM     30  N   UNL     1       2.415  28.002  37.332  1.00  0.00    -0.003 NA
ENDBRANCH  27  28
ENDBRANCH  26  27
ENDBRANCH  25  26
ENDBRANCH  19  25
BRANCH  20  31
ATOM     31  O   UNL     1       5.082  23.556  37.013  1.00  0.00    -0.387 OA
ATOM     32  H   UNL     1       4.302  24.179  36.990  1.00  0.00     0.211 HD
ENDBRANCH  20  31
BRANCH  21  33
ATOM     33  O   UNL     1       4.085  22.128  40.017  1.00  0.00    -0.385 OA
ATOM     34  H   UNL     1       3.318  22.240  40.630  1.00  0.00     0.211 HD
ENDBRANCH  21  33
ENDBRANCH  15  16
ENDBRANCH  10  15
BRANCH  12  35
ATOM     35  O   UNL     1       7.985  21.658  41.766  1.00  0.00    -0.385 OA
ATOM     36  H   UNL     1       7.016  21.429  41.789  1.00  0.00     0.211 HD
ENDBRANCH  12  35
BRANCH  13  37
ATOM     37  O   UNL     1       9.816  21.616  38.783  1.00  0.00    -0.387 OA
ATOM     38  H   UNL     1      10.590  21.105  38.490  1.00  0.00     0.211 HD
ENDBRANCH  13  37
BRANCH  14  39
ATOM     39  O   UNL     1      11.878  22.749  40.756  1.00  0.00    -0.387 OA
ATOM     40  H   UNL     1      12.392  23.527  41.094  1.00  0.00     0.211 HD
ENDBRANCH  14  39
ENDBRANCH   8   9
ENDBRANCH   7   8
ENDBRANCH   1   7
BRANCH   1  41
ATOM     41  C   UNL     1      11.617  22.738  36.192  1.00  0.00     0.364 C 
ATOM     42  O   UNL     1      12.826  22.879  36.112  1.00  0.00    -0.246 OA
BRANCH  41  43
ATOM     43  O   UNL     1      10.987  21.516  36.348  1.00  0.00    -0.477 OA
ATOM     44  H   UNL     1      11.268  20.784  35.731  1.00  0.00     0.296 HD
ENDBRANCH  41  43
ENDBRANCH   1  41
BRANCH   3  45
ATOM     45  O   UNL     1      11.092  27.347  35.646  1.00  0.00    -0.391 OA
ATOM     46  H   UNL     1      12.045  27.228  35.916  1.00  0.00     0.211 HD
ENDBRANCH   3  45
BRANCH   5  47
ATOM     47  C   UNL     1       7.627  24.296  34.229  1.00  0.00     0.176 C 
BRANCH  47  48
ATOM     48  O   UNL     1       6.917  24.685  35.375  1.00  0.00    -0.388 OA
ATOM     49  H   UNL     1       7.425  24.329  36.156  1.00  0.00     0.211 HD
ENDBRANCH  47  48
BRANCH  47  50
ATOM     50  C   UNL     1       7.276  22.914  33.789  1.00  0.00     0.165 C 
BRANCH  50  51
ATOM     51  O   UNL     1       8.376  22.154  33.495  1.00  0.00    -0.388 OA
ATOM     52  H   UNL     1       8.574  21.448  34.129  1.00  0.00     0.211 HD
ENDBRANCH  50  51
BRANCH  50  53
ATOM     53  C   UNL     1       6.147  22.840  32.793  1.00  0.00     0.154 C 
BRANCH  53  54
ATOM     54  N   UNL     1       5.604  24.098  32.373  1.00  0.00    -0.319 N 
ATOM     55  C   UNL     1       4.214  24.367  32.207  1.00  0.00     0.407 C 
ATOM     56  H   UNL     1       6.270  24.911  32.171  1.00  0.00     0.167 HD
ATOM     57  O   UNL     1       3.365  23.488  32.436  1.00  0.00    -0.225 OA
BRANCH  55  58
ATOM     58  O   UNL     1       3.772  25.603  31.789  1.00  0.00    -0.443 OA
BRANCH  58  59
ATOM     59  C   UNL     1       4.588  26.525  31.067  1.00  0.00     0.294 C 
BRANCH  59  60
ATOM     60  C   UNL     1       4.339  26.366  29.599  1.00  0.00     0.120 A 
ATOM     61  C   UNL     1       5.036  26.865  28.530  1.00  0.00     0.138 A 
ATOM     62  N   UNL     1       3.321  25.640  29.088  1.00  0.00    -0.132 NA
ATOM     63  N   UNL     1       4.436  26.437  27.379  1.00  0.00    -0.249 N 
ATOM     64  N   UNL     1       3.420  25.710  27.784  1.00  0.00    -0.067 NA
BRANCH  63  65
ATOM     65  C   UNL     1       4.873  26.744  26.026  1.00  0.00     0.182 C 
BRANCH  65  66
ATOM     66  C   UNL     1       6.388  26.841  25.980  1.00  0.00     0.166 C 
BRANCH  66  67
ATOM     67  O   UNL     1       6.780  25.864  25.034  1.00  0.00    -0.386 OA
ATOM     68  H   UNL     1       6.047  25.726  24.372  1.00  0.00     0.211 HD
ENDBRANCH  66  67
BRANCH  66  69
ATOM     69  C   UNL     1       6.895  28.159  25.588  1.00  0.00    -0.018 A 
ATOM     70  C   UNL     1       6.279  29.324  25.928  1.00  0.00     0.006 A 
ATOM     71  C   UNL     1       8.065  28.150  24.815  1.00  0.00     0.006 A 
ATOM     72  C   UNL     1       6.836  30.516  25.491  1.00  0.00     0.000 A 
ATOM     73  C   UNL     1       8.593  29.340  24.395  1.00  0.00     0.000 A 
ATOM     74  C   UNL     1       7.981  30.531  24.731  1.00  0.00     0.000 A 
ENDBRANCH  66  69
ENDBRANCH  65  66
ENDBRANCH  63  65
ENDBRANCH  59  60
ENDBRANCH  58  59
ENDBRANCH  55  58
ENDBRANCH  53  54
ENDBRANCH  50  53
ENDBRANCH  47  50
ENDBRANCH   5  47
BRANCH   4  75
ATOM     75  N   UNL     1       8.591  26.705  33.941  1.00  0.00    -0.348 N 
ATOM     76  C   UNL     1       7.966  27.939  34.249  1.00  0.00     0.217 C 
ATOM     77  H   UNL     1       8.544  26.375  32.953  1.00  0.00     0.163 HD
ATOM     78  C   UNL     1       7.259  28.782  33.251  1.00  0.00     0.114 C 
ATOM     79  O   UNL     1       8.019  28.344  35.443  1.00  0.00    -0.275 OA
ENDBRANCH   4  75
TORSDOF 33
