REMARK VINA RESULT:    -6.367      3.734      9.738
REMARK INTER + INTRA:         -22.316
REMARK INTER:                 -15.604
REMARK INTRA:                  -6.713
REMARK UNBOUND:                -6.272
REMARK SMILES CC(=O)N[C@@H]1[C@@H](O)C[C@](OC[C@H]2O[C@@H](O[C@H]3[C@H](O)[C@@H](O)[C@H](OCCN=[N+]=[N-])O[C@@H]3CO)[C@H](O)[C@@H](O)[C@H]2O)(C(=O)O)O[C@H]1C(O)[C@H](O)CNC(=O)OCc1cn(Cc2cccc(Br)c2)nn1
REMARK SMILES IDX 9 1 8 2 6 3 5 4 42 5 41 6 10 7 11 8 12 9 14 10 13 11 32 12
REMARK SMILES IDX 34 13 36 14 15 15 16 16 29 17 28 18 21 19 17 20 19 21 30 22
REMARK SMILES IDX 31 23 22 25 23 26 24 27 25 28 26 29 27 30 18 31 20 33 33 35
REMARK SMILES IDX 35 37 37 39 38 41 39 42 40 43 7 45 43 47 44 48 45 50 46 51
REMARK SMILES IDX 47 53 48 54 49 55 50 57 51 58 52 59 53 60 54 61 65 62 55 63
REMARK SMILES IDX 64 64 56 65 57 66 58 67 63 68 59 69 61 70 60 71 62 72 4 73
REMARK SMILES IDX 2 74 1 76 3 77
REMARK H PARENT 31 24 18 32 20 34 33 36 35 38 37 40 40 44 7 46 44 49 46 52
REMARK H PARENT 48 56 4 75
REMARK Flexibility Score: inf
ROOT
ATOM      1  C   UNL     1      24.202  25.999  19.990  1.00  0.00     0.272 C 
ATOM      2  C   UNL     1      24.384  24.590  20.409  1.00  0.00     0.113 C 
ATOM      3  C   UNL     1      23.413  24.105  21.437  1.00  0.00     0.145 C 
ATOM      4  C   UNL     1      22.978  25.190  22.396  1.00  0.00     0.142 C 
ATOM      5  C   UNL     1      22.986  26.542  21.837  1.00  0.00     0.178 C 
ATOM      6  O   UNL     1      23.111  26.656  20.488  1.00  0.00    -0.332 OA
ENDROOT
BRANCH   1   7
ATOM      7  O   UNL     1      24.174  26.052  18.561  1.00  0.00    -0.338 OA
BRANCH   7   8
ATOM      8  C   UNL     1      22.915  25.909  18.054  1.00  0.00     0.199 C 
BRANCH   8   9
ATOM      9  C   UNL     1      22.741  26.772  16.786  1.00  0.00     0.179 C 
ATOM     10  C   UNL     1      21.041  28.063  15.821  1.00  0.00     0.282 C 
ATOM     11  O   UNL     1      21.408  26.989  16.666  1.00  0.00    -0.341 OA
ATOM     12  C   UNL     1      22.167  28.528  14.986  1.00  0.00     0.202 C 
ATOM     13  C   UNL     1      23.400  28.892  15.794  1.00  0.00     0.179 C 
ATOM     14  C   UNL     1      23.447  28.079  17.076  1.00  0.00     0.177 C 
BRANCH  10  15
ATOM     15  O   UNL     1      20.457  28.969  16.672  1.00  0.00    -0.341 OA
BRANCH  15  16
ATOM     16  C   UNL     1      19.192  29.348  16.401  1.00  0.00     0.184 C 
ATOM     17  C   UNL     1      19.101  30.851  16.461  1.00  0.00     0.178 C 
ATOM     18  O   UNL     1      17.842  31.241  16.012  1.00  0.00    -0.341 OA
ATOM     19  C   UNL     1      16.802  30.820  16.844  1.00  0.00     0.281 C 
ATOM     20  C   UNL     1      18.169  28.873  17.428  1.00  0.00     0.180 C 
ATOM     21  C   UNL     1      16.816  29.310  16.847  1.00  0.00     0.202 C 
BRANCH  17  22
ATOM     22  C   UNL     1      20.117  31.445  15.546  1.00  0.00     0.191 C 
BRANCH  22  23
ATOM     23  O   UNL     1      21.078  32.141  16.257  1.00  0.00    -0.394 OA
ATOM     24  H   UNL     1      21.879  32.227  15.678  1.00  0.00     0.210 HD
ENDBRANCH  22  23
ENDBRANCH  17  22
BRANCH  19  25
ATOM     25  O   UNL     1      15.646  31.351  16.311  1.00  0.00    -0.350 OA
BRANCH  25  26
ATOM     26  C   UNL     1      15.697  31.651  14.979  1.00  0.00     0.169 C 
BRANCH  26  27
ATOM     27  C   UNL     1      14.358  31.617  14.278  1.00  0.00     0.119 C 
BRANCH  27  28
ATOM     28  N   UNL     1      13.675  30.422  14.721  1.00  0.00    -0.092 NA
ATOM     29  N   UNL     1      14.030  29.285  14.447  1.00  0.00     0.001 N 
ATOM     30  N   UNL     1      14.543  28.189  14.235  1.00  0.00    -0.003 NA
ENDBRANCH  27  28
ENDBRANCH  26  27
ENDBRANCH  25  26
ENDBRANCH  19  25
BRANCH  20  31
ATOM     31  O   UNL     1      18.129  27.517  17.588  1.00  0.00    -0.387 OA
ATOM     32  H   UNL     1      18.994  27.090  17.776  1.00  0.00     0.211 HD
ENDBRANCH  20  31
BRANCH  21  33
ATOM     33  O   UNL     1      15.843  28.736  17.621  1.00  0.00    -0.385 OA
ATOM     34  H   UNL     1      14.910  28.957  17.299  1.00  0.00     0.211 HD
ENDBRANCH  21  33
ENDBRANCH  15  16
ENDBRANCH  10  15
BRANCH  12  35
ATOM     35  O   UNL     1      22.517  27.461  14.118  1.00  0.00    -0.385 OA
ATOM     36  H   UNL     1      21.769  26.809  14.088  1.00  0.00     0.211 HD
ENDBRANCH  12  35
BRANCH  13  37
ATOM     37  O   UNL     1      23.503  30.261  16.020  1.00  0.00    -0.387 OA
ATOM     38  H   UNL     1      22.623  30.587  16.397  1.00  0.00     0.211 HD
ENDBRANCH  13  37
BRANCH  14  39
ATOM     39  O   UNL     1      22.820  28.685  18.140  1.00  0.00    -0.387 OA
ATOM     40  H   UNL     1      22.225  29.430  17.821  1.00  0.00     0.211 HD
ENDBRANCH  14  39
ENDBRANCH   8   9
ENDBRANCH   7   8
ENDBRANCH   1   7
BRANCH   1  41
ATOM     41  C   UNL     1      25.429  26.774  20.342  1.00  0.00     0.364 C 
ATOM     42  O   UNL     1      25.604  27.931  19.818  1.00  0.00    -0.246 OA
BRANCH  41  43
ATOM     43  O   UNL     1      26.420  26.366  21.190  1.00  0.00    -0.477 OA
ATOM     44  H   UNL     1      26.830  27.068  21.820  1.00  0.00     0.296 HD
ENDBRANCH  41  43
ENDBRANCH   1  41
BRANCH   3  45
ATOM     45  O   UNL     1      22.347  23.431  20.859  1.00  0.00    -0.391 OA
ATOM     46  H   UNL     1      21.891  23.938  20.152  1.00  0.00     0.211 HD
ENDBRANCH   3  45
BRANCH   5  47
ATOM     47  C   UNL     1      21.786  27.383  22.302  1.00  0.00     0.176 C 
BRANCH  47  48
ATOM     48  O   UNL     1      20.627  26.543  22.056  1.00  0.00    -0.388 OA
ATOM     49  H   UNL     1      20.983  25.682  21.717  1.00  0.00     0.211 HD
ENDBRANCH  47  48
BRANCH  47  50
ATOM     50  C   UNL     1      21.766  27.703  23.752  1.00  0.00     0.165 C 
BRANCH  50  51
ATOM     51  O   UNL     1      20.599  27.014  24.255  1.00  0.00    -0.388 OA
ATOM     52  H   UNL     1      20.588  26.102  23.831  1.00  0.00     0.211 HD
ENDBRANCH  50  51
BRANCH  50  53
ATOM     53  C   UNL     1      21.529  29.120  24.153  1.00  0.00     0.154 C 
BRANCH  53  54
ATOM     54  N   UNL     1      20.964  29.944  23.096  1.00  0.00    -0.319 N 
ATOM     55  C   UNL     1      19.560  30.127  23.043  1.00  0.00     0.407 C 
ATOM     56  H   UNL     1      21.559  30.401  22.383  1.00  0.00     0.167 HD
ATOM     57  O   UNL     1      18.815  29.575  23.901  1.00  0.00    -0.225 OA
BRANCH  55  58
ATOM     58  O   UNL     1      18.970  30.914  22.054  1.00  0.00    -0.443 OA
BRANCH  58  59
ATOM     59  C   UNL     1      18.857  30.369  20.732  1.00  0.00     0.294 C 
BRANCH  59  60
ATOM     60  C   UNL     1      17.620  29.556  20.670  1.00  0.00     0.120 A 
ATOM     61  C   UNL     1      16.321  29.963  20.849  1.00  0.00     0.138 A 
ATOM     62  N   UNL     1      17.589  28.241  20.418  1.00  0.00    -0.132 NA
ATOM     63  N   UNL     1      15.541  28.874  20.698  1.00  0.00    -0.248 N 
ATOM     64  N   UNL     1      16.332  27.844  20.439  1.00  0.00    -0.067 NA
BRANCH  63  65
ATOM     65  C   UNL     1      14.086  28.866  20.807  1.00  0.00     0.181 C 
BRANCH  65  66
ATOM     66  C   UNL     1      13.640  29.414  22.115  1.00  0.00    -0.025 A 
ATOM     67  C   UNL     1      14.428  29.277  23.239  1.00  0.00     0.006 A 
ATOM     68  C   UNL     1      12.444  30.069  22.278  1.00  0.00     0.021 A 
ATOM     69  C   UNL     1      14.070  29.759  24.478  1.00  0.00     0.002 A 
ATOM     70  C   UNL     1      12.056  30.563  23.502  1.00  0.00     0.018 A 
ATOM     71  C   UNL     1      12.844  30.424  24.616  1.00  0.00     0.016 A 
ATOM     72  Br  UNL     1      10.391  31.478  23.734  1.00  0.00    -0.051 Br
ENDBRANCH  65  66
ENDBRANCH  63  65
ENDBRANCH  59  60
ENDBRANCH  58  59
ENDBRANCH  55  58
ENDBRANCH  53  54
ENDBRANCH  50  53
ENDBRANCH  47  50
ENDBRANCH   5  47
BRANCH   4  73
ATOM     73  N   UNL     1      23.826  25.128  23.615  1.00  0.00    -0.348 N 
ATOM     74  C   UNL     1      23.283  24.689  24.847  1.00  0.00     0.217 C 
ATOM     75  H   UNL     1      24.839  25.408  23.584  1.00  0.00     0.163 HD
ATOM     76  C   UNL     1      24.123  24.618  26.094  1.00  0.00     0.114 C 
ATOM     77  O   UNL     1      22.070  24.352  24.886  1.00  0.00    -0.275 OA
ENDBRANCH   4  73
TORSDOF 31
