REMARK VINA RESULT:    -5.335      3.508      9.890
REMARK INTER + INTRA:         -22.523
REMARK INTER:                 -13.419
REMARK INTRA:                  -9.104
REMARK UNBOUND:                -9.390
REMARK SMILES CC(=O)N[C@@H]1[C@@H](O)C[C@](OC[C@H]2O[C@@H](O[C@H]3[C@H](O)[C@@H](O)[C@H](OCCN=[N+]=[N-])O[C@@H]3CO)[C@H](O)[C@@H](O)[C@H]2O)(C(=O)O)O[C@H]1C(O)[C@H](O)CNC(=O)OCc1cn(-c2ccncc2)nn1
REMARK SMILES IDX 9 1 8 2 6 3 5 4 42 5 41 6 10 7 11 8 12 9 14 10 13 11 32 12
REMARK SMILES IDX 34 13 36 14 15 15 16 16 29 17 28 18 21 19 17 20 19 21 30 22
REMARK SMILES IDX 31 23 22 25 23 26 24 27 25 28 26 29 27 30 18 31 20 33 33 35
REMARK SMILES IDX 35 37 37 39 38 41 39 42 40 43 7 45 43 47 44 48 45 50 46 51
REMARK SMILES IDX 47 53 48 54 49 55 50 57 51 58 52 59 53 60 54 61 63 62 55 63
REMARK SMILES IDX 62 64 56 65 57 66 61 67 58 68 60 69 59 70 4 71 2 72 1 74
REMARK SMILES IDX 3 75
REMARK H PARENT 31 24 18 32 20 34 33 36 35 38 37 40 40 44 7 46 44 49 46 52
REMARK H PARENT 48 56 4 73
REMARK Flexibility Score: inf
ROOT
ATOM      1  C   UNL     1      22.890  25.989  21.492  1.00  0.00     0.272 C 
ATOM      2  C   UNL     1      24.022  25.442  20.598  1.00  0.00     0.113 C 
ATOM      3  C   UNL     1      24.443  26.499  19.572  1.00  0.00     0.145 C 
ATOM      4  C   UNL     1      23.233  26.640  18.588  1.00  0.00     0.142 C 
ATOM      5  C   UNL     1      22.032  26.882  19.454  1.00  0.00     0.178 C 
ATOM      6  O   UNL     1      22.458  27.110  20.756  1.00  0.00    -0.332 OA
ENDROOT
BRANCH   1   7
ATOM      7  O   UNL     1      23.378  26.478  22.614  1.00  0.00    -0.338 OA
BRANCH   7   8
ATOM      8  C   UNL     1      24.286  26.332  23.475  1.00  0.00     0.199 C 
BRANCH   8   9
ATOM      9  C   UNL     1      24.027  26.543  24.935  1.00  0.00     0.179 C 
ATOM     10  C   UNL     1      22.263  27.391  26.238  1.00  0.00     0.282 C 
ATOM     11  O   UNL     1      22.711  27.107  24.969  1.00  0.00    -0.341 OA
ATOM     12  C   UNL     1      22.131  26.143  27.053  1.00  0.00     0.202 C 
ATOM     13  C   UNL     1      23.459  25.381  27.042  1.00  0.00     0.179 C 
ATOM     14  C   UNL     1      23.864  25.179  25.613  1.00  0.00     0.177 C 
BRANCH  10  15
ATOM     15  O   UNL     1      20.981  27.957  26.019  1.00  0.00    -0.341 OA
BRANCH  15  16
ATOM     16  C   UNL     1      21.018  29.135  25.353  1.00  0.00     0.184 C 
ATOM     17  C   UNL     1      20.447  30.276  26.093  1.00  0.00     0.178 C 
ATOM     18  O   UNL     1      20.634  31.473  25.370  1.00  0.00    -0.341 OA
ATOM     19  C   UNL     1      19.584  31.386  24.379  1.00  0.00     0.281 C 
ATOM     20  C   UNL     1      20.201  28.958  24.036  1.00  0.00     0.180 C 
ATOM     21  C   UNL     1      19.998  30.331  23.423  1.00  0.00     0.202 C 
BRANCH  17  22
ATOM     22  C   UNL     1      20.994  30.436  27.461  1.00  0.00     0.191 C 
BRANCH  22  23
ATOM     23  O   UNL     1      20.562  29.426  28.334  1.00  0.00    -0.394 OA
ATOM     24  H   UNL     1      20.993  29.614  29.219  1.00  0.00     0.210 HD
ENDBRANCH  22  23
ENDBRANCH  17  22
BRANCH  19  25
ATOM     25  O   UNL     1      19.558  32.622  23.795  1.00  0.00    -0.350 OA
BRANCH  25  26
ATOM     26  C   UNL     1      18.593  33.436  24.304  1.00  0.00     0.169 C 
BRANCH  26  27
ATOM     27  C   UNL     1      17.203  33.224  23.795  1.00  0.00     0.119 C 
BRANCH  27  28
ATOM     28  N   UNL     1      17.051  33.586  22.400  1.00  0.00    -0.092 NA
ATOM     29  N   UNL     1      17.201  32.810  21.467  1.00  0.00     0.001 N 
ATOM     30  N   UNL     1      17.629  32.038  20.604  1.00  0.00    -0.003 NA
ENDBRANCH  27  28
ENDBRANCH  26  27
ENDBRANCH  25  26
ENDBRANCH  19  25
BRANCH  20  31
ATOM     31  O   UNL     1      20.991  28.215  23.191  1.00  0.00    -0.387 OA
ATOM     32  H   UNL     1      21.969  28.425  23.322  1.00  0.00     0.211 HD
ENDBRANCH  20  31
BRANCH  21  33
ATOM     33  O   UNL     1      19.096  30.257  22.372  1.00  0.00    -0.385 OA
ATOM     34  H   UNL     1      18.271  30.749  22.622  1.00  0.00     0.211 HD
ENDBRANCH  21  33
ENDBRANCH  15  16
ENDBRANCH  10  15
BRANCH  12  35
ATOM     35  O   UNL     1      21.858  26.451  28.407  1.00  0.00    -0.385 OA
ATOM     36  H   UNL     1      22.501  27.158  28.650  1.00  0.00     0.211 HD
ENDBRANCH  12  35
BRANCH  13  37
ATOM     37  O   UNL     1      23.384  24.169  27.686  1.00  0.00    -0.387 OA
ATOM     38  H   UNL     1      24.255  23.956  28.147  1.00  0.00     0.211 HD
ENDBRANCH  13  37
BRANCH  14  39
ATOM     39  O   UNL     1      22.859  24.517  24.891  1.00  0.00    -0.387 OA
ATOM     40  H   UNL     1      23.163  24.392  23.940  1.00  0.00     0.211 HD
ENDBRANCH  14  39
ENDBRANCH   8   9
ENDBRANCH   7   8
ENDBRANCH   1   7
BRANCH   1  41
ATOM     41  C   UNL     1      21.827  24.993  21.658  1.00  0.00     0.364 C 
ATOM     42  O   UNL     1      21.939  23.807  21.208  1.00  0.00    -0.246 OA
BRANCH  41  43
ATOM     43  O   UNL     1      20.642  25.256  22.303  1.00  0.00    -0.477 OA
ATOM     44  H   UNL     1      20.460  25.165  23.279  1.00  0.00     0.296 HD
ENDBRANCH  41  43
ENDBRANCH   1  41
BRANCH   3  45
ATOM     45  O   UNL     1      24.601  27.708  20.193  1.00  0.00    -0.391 OA
ATOM     46  H   UNL     1      24.092  28.420  19.760  1.00  0.00     0.211 HD
ENDBRANCH   3  45
BRANCH   5  47
ATOM     47  C   UNL     1      21.296  28.188  19.124  1.00  0.00     0.176 C 
BRANCH  47  48
ATOM     48  O   UNL     1      22.252  29.167  19.644  1.00  0.00    -0.388 OA
ATOM     49  H   UNL     1      22.146  29.158  20.643  1.00  0.00     0.211 HD
ENDBRANCH  47  48
BRANCH  47  50
ATOM     50  C   UNL     1      20.022  28.434  19.806  1.00  0.00     0.165 C 
BRANCH  50  51
ATOM     51  O   UNL     1      19.704  27.661  20.897  1.00  0.00    -0.388 OA
ATOM     52  H   UNL     1      19.856  26.696  20.715  1.00  0.00     0.211 HD
ENDBRANCH  50  51
BRANCH  50  53
ATOM     53  C   UNL     1      18.901  28.886  18.952  1.00  0.00     0.154 C 
BRANCH  53  54
ATOM     54  N   UNL     1      17.644  29.097  19.620  1.00  0.00    -0.319 N 
ATOM     55  C   UNL     1      16.577  28.177  19.476  1.00  0.00     0.407 C 
ATOM     56  H   UNL     1      17.546  29.952  20.194  1.00  0.00     0.167 HD
ATOM     57  O   UNL     1      16.779  27.178  18.751  1.00  0.00    -0.225 OA
BRANCH  55  58
ATOM     58  O   UNL     1      15.357  28.314  20.076  1.00  0.00    -0.443 OA
BRANCH  58  59
ATOM     59  C   UNL     1      14.832  29.497  20.638  1.00  0.00     0.294 C 
BRANCH  59  60
ATOM     60  C   UNL     1      15.266  29.677  22.062  1.00  0.00     0.121 A 
ATOM     61  C   UNL     1      14.620  30.306  23.104  1.00  0.00     0.144 A 
ATOM     62  N   UNL     1      16.432  29.227  22.586  1.00  0.00    -0.131 NA
ATOM     63  N   UNL     1      15.389  30.224  24.204  1.00  0.00    -0.220 N 
ATOM     64  N   UNL     1      16.493  29.559  23.862  1.00  0.00    -0.062 NA
BRANCH  63  65
ATOM     65  C   UNL     1      15.059  30.759  25.479  1.00  0.00     0.069 A 
ATOM     66  C   UNL     1      15.984  31.065  26.453  1.00  0.00     0.048 A 
ATOM     67  C   UNL     1      13.730  30.991  25.758  1.00  0.00     0.048 A 
ATOM     68  C   UNL     1      15.618  31.590  27.682  1.00  0.00     0.113 A 
ATOM     69  C   UNL     1      13.373  31.516  26.989  1.00  0.00     0.113 A 
ATOM     70  N   UNL     1      14.301  31.802  27.911  1.00  0.00    -0.265 NA
ENDBRANCH  63  65
ENDBRANCH  59  60
ENDBRANCH  58  59
ENDBRANCH  55  58
ENDBRANCH  53  54
ENDBRANCH  50  53
ENDBRANCH  47  50
ENDBRANCH   5  47
BRANCH   4  71
ATOM     71  N   UNL     1      23.223  25.363  17.916  1.00  0.00    -0.348 N 
ATOM     72  C   UNL     1      23.832  25.102  16.670  1.00  0.00     0.217 C 
ATOM     73  H   UNL     1      22.735  24.567  18.368  1.00  0.00     0.163 HD
ATOM     74  C   UNL     1      23.755  23.757  16.081  1.00  0.00     0.114 C 
ATOM     75  O   UNL     1      24.436  26.010  16.066  1.00  0.00    -0.275 OA
ENDBRANCH   4  71
TORSDOF 30
