REMARK VINA RESULT:    -6.568      4.094      8.090
REMARK INTER + INTRA:         -22.879
REMARK INTER:                 -13.881
REMARK INTRA:                  -8.999
REMARK UNBOUND:                -6.520
REMARK SMILES CC(=O)N[C@@H]1[C@@H](O)C[C@](OC[C@H]2O[C@@H](O[C@H]3[C@H](O)[C@@H](O)[C@H](OCCN=[N+]=[N-])O[C@@H]3CO)[C@H](O)[C@@H](O)[C@H]2O)(C(=O)O)O[C@H]1C(O)[C@H](O)CNC(=O)OCc1cn(-c2nc(C)nc(N)n2)nn1
REMARK SMILES IDX 9 1 8 2 6 3 5 4 42 5 41 6 10 7 11 8 12 9 14 10 13 11 32 12
REMARK SMILES IDX 34 13 36 14 15 15 16 16 29 17 28 18 21 19 17 20 19 21 30 22
REMARK SMILES IDX 31 23 22 25 23 26 24 27 25 28 26 29 27 30 18 31 20 33 33 35
REMARK SMILES IDX 35 37 37 39 38 41 39 42 40 43 7 45 43 47 44 48 45 50 46 51
REMARK SMILES IDX 47 53 48 54 49 55 50 57 51 58 52 59 53 60 54 61 65 62 55 63
REMARK SMILES IDX 64 64 56 65 63 66 57 67 61 68 58 69 60 70 59 71 62 72 4 75
REMARK SMILES IDX 2 76 1 78 3 79
REMARK H PARENT 31 24 18 32 20 34 33 36 35 38 37 40 40 44 7 46 44 49 46 52
REMARK H PARENT 48 56 62 73 62 74 4 77
REMARK Flexibility Score: inf
ROOT
ATOM      1  C   UNL     1      23.864  30.390  21.582  1.00  0.00     0.272 C 
ATOM      2  C   UNL     1      24.184  30.455  23.036  1.00  0.00     0.113 C 
ATOM      3  C   UNL     1      23.371  29.472  23.822  1.00  0.00     0.145 C 
ATOM      4  C   UNL     1      21.912  29.733  23.556  1.00  0.00     0.142 C 
ATOM      5  C   UNL     1      21.604  29.936  22.091  1.00  0.00     0.178 C 
ATOM      6  O   UNL     1      22.487  30.703  21.431  1.00  0.00    -0.332 OA
ENDROOT
BRANCH   1   7
ATOM      7  O   UNL     1      24.262  29.382  20.888  1.00  0.00    -0.338 OA
BRANCH   7   8
ATOM      8  C   UNL     1      24.527  28.978  19.705  1.00  0.00     0.199 C 
BRANCH   8   9
ATOM      9  C   UNL     1      24.307  27.630  19.109  1.00  0.00     0.179 C 
ATOM     10  C   UNL     1      23.762  25.495  19.400  1.00  0.00     0.282 C 
ATOM     11  O   UNL     1      23.670  26.795  19.968  1.00  0.00    -0.341 OA
ATOM     12  C   UNL     1      22.682  25.486  18.348  1.00  0.00     0.202 C 
ATOM     13  C   UNL     1      23.044  26.466  17.259  1.00  0.00     0.179 C 
ATOM     14  C   UNL     1      23.908  27.593  17.670  1.00  0.00     0.177 C 
BRANCH  10  15
ATOM     15  O   UNL     1      23.556  24.522  20.340  1.00  0.00    -0.341 OA
BRANCH  15  16
ATOM     16  C   UNL     1      23.667  24.969  21.646  1.00  0.00     0.184 C 
ATOM     17  C   UNL     1      24.842  24.446  22.400  1.00  0.00     0.178 C 
ATOM     18  O   UNL     1      24.499  23.840  23.602  1.00  0.00    -0.341 OA
ATOM     19  C   UNL     1      23.687  24.615  24.421  1.00  0.00     0.281 C 
ATOM     20  C   UNL     1      22.379  24.486  22.340  1.00  0.00     0.180 C 
ATOM     21  C   UNL     1      22.413  25.032  23.748  1.00  0.00     0.202 C 
BRANCH  17  22
ATOM     22  C   UNL     1      25.964  25.432  22.585  1.00  0.00     0.191 C 
BRANCH  22  23
ATOM     23  O   UNL     1      25.463  26.693  22.196  1.00  0.00    -0.394 OA
ATOM     24  H   UNL     1      26.072  27.428  22.427  1.00  0.00     0.210 HD
ENDBRANCH  22  23
ENDBRANCH  17  22
BRANCH  19  25
ATOM     25  O   UNL     1      24.313  25.722  24.921  1.00  0.00    -0.350 OA
BRANCH  25  26
ATOM     26  C   UNL     1      24.709  25.688  26.225  1.00  0.00     0.169 C 
BRANCH  26  27
ATOM     27  C   UNL     1      23.577  25.483  27.194  1.00  0.00     0.119 C 
BRANCH  27  28
ATOM     28  N   UNL     1      22.851  26.754  27.320  1.00  0.00    -0.092 NA
ATOM     29  N   UNL     1      21.719  26.793  26.841  1.00  0.00     0.001 N 
ATOM     30  N   UNL     1      20.810  27.261  26.122  1.00  0.00    -0.003 NA
ENDBRANCH  27  28
ENDBRANCH  26  27
ENDBRANCH  25  26
ENDBRANCH  19  25
BRANCH  20  31
ATOM     31  O   UNL     1      21.277  24.907  21.627  1.00  0.00    -0.387 OA
ATOM     32  H   UNL     1      21.330  25.880  21.419  1.00  0.00     0.211 HD
ENDBRANCH  20  31
BRANCH  21  33
ATOM     33  O   UNL     1      21.288  24.538  24.407  1.00  0.00    -0.385 OA
ATOM     34  H   UNL     1      20.468  24.674  23.869  1.00  0.00     0.211 HD
ENDBRANCH  21  33
ENDBRANCH  15  16
ENDBRANCH  10  15
BRANCH  12  35
ATOM     35  O   UNL     1      22.452  24.217  17.820  1.00  0.00    -0.385 OA
ATOM     36  H   UNL     1      21.579  24.239  17.352  1.00  0.00     0.211 HD
ENDBRANCH  12  35
BRANCH  13  37
ATOM     37  O   UNL     1      21.847  26.862  16.657  1.00  0.00    -0.387 OA
ATOM     38  H   UNL     1      21.048  26.512  17.124  1.00  0.00     0.211 HD
ENDBRANCH  13  37
BRANCH  14  39
ATOM     39  O   UNL     1      23.404  28.787  17.165  1.00  0.00    -0.387 OA
ATOM     40  H   UNL     1      23.820  28.895  16.258  1.00  0.00     0.211 HD
ENDBRANCH  14  39
ENDBRANCH   8   9
ENDBRANCH   7   8
ENDBRANCH   1   7
BRANCH   1  41
ATOM     41  C   UNL     1      24.479  31.714  21.047  1.00  0.00     0.364 C 
ATOM     42  O   UNL     1      25.698  31.809  21.109  1.00  0.00    -0.246 OA
BRANCH  41  43
ATOM     43  O   UNL     1      23.676  32.691  20.546  1.00  0.00    -0.477 OA
ATOM     44  H   UNL     1      23.420  32.765  19.551  1.00  0.00     0.296 HD
ENDBRANCH  41  43
ENDBRANCH   1  41
BRANCH   3  45
ATOM     45  O   UNL     1      23.609  28.154  23.504  1.00  0.00    -0.391 OA
ATOM     46  H   UNL     1      22.794  27.650  23.337  1.00  0.00     0.211 HD
ENDBRANCH   3  45
BRANCH   5  47
ATOM     47  C   UNL     1      21.211  28.665  21.378  1.00  0.00     0.176 C 
BRANCH  47  48
ATOM     48  O   UNL     1      20.773  27.711  22.280  1.00  0.00    -0.388 OA
ATOM     49  H   UNL     1      20.179  27.032  21.915  1.00  0.00     0.211 HD
ENDBRANCH  47  48
BRANCH  47  50
ATOM     50  C   UNL     1      20.157  28.976  20.362  1.00  0.00     0.165 C 
BRANCH  50  51
ATOM     51  O   UNL     1      19.122  28.030  20.485  1.00  0.00    -0.388 OA
ATOM     52  H   UNL     1      18.391  28.437  20.981  1.00  0.00     0.211 HD
ENDBRANCH  50  51
BRANCH  50  53
ATOM     53  C   UNL     1      20.615  28.975  18.943  1.00  0.00     0.154 C 
BRANCH  53  54
ATOM     54  N   UNL     1      19.578  28.560  18.026  1.00  0.00    -0.319 N 
ATOM     55  C   UNL     1      18.748  29.446  17.312  1.00  0.00     0.407 C 
ATOM     56  H   UNL     1      19.403  27.526  17.856  1.00  0.00     0.167 HD
ATOM     57  O   UNL     1      18.876  30.667  17.441  1.00  0.00    -0.225 OA
BRANCH  55  58
ATOM     58  O   UNL     1      17.760  28.992  16.444  1.00  0.00    -0.443 OA
BRANCH  58  59
ATOM     59  C   UNL     1      16.414  28.821  16.808  1.00  0.00     0.294 C 
BRANCH  59  60
ATOM     60  C   UNL     1      16.269  28.492  18.258  1.00  0.00     0.121 A 
ATOM     61  C   UNL     1      15.676  29.282  19.221  1.00  0.00     0.148 A 
ATOM     62  N   UNL     1      16.686  27.376  18.887  1.00  0.00    -0.131 NA
ATOM     63  N   UNL     1      15.750  28.631  20.394  1.00  0.00    -0.185 N 
ATOM     64  N   UNL     1      16.362  27.487  20.163  1.00  0.00    -0.059 NA
BRANCH  63  65
ATOM     65  C   UNL     1      15.241  29.139  21.619  1.00  0.00     0.257 A 
ATOM     66  N   UNL     1      16.096  29.603  22.550  1.00  0.00    -0.175 NA
ATOM     67  N   UNL     1      13.931  29.195  21.922  1.00  0.00    -0.196 NA
ATOM     68  C   UNL     1      15.666  30.102  23.737  1.00  0.00     0.225 A 
ATOM     69  C   UNL     1      13.470  29.679  23.080  1.00  0.00     0.133 A 
ATOM     70  N   UNL     1      14.337  30.130  23.981  1.00  0.00    -0.198 NA
ATOM     71  C   UNL     1      11.995  29.722  23.377  1.00  0.00     0.090 C 
BRANCH  68  72
ATOM     72  N   UNL     1      16.606  30.576  24.679  1.00  0.00    -0.368 N 
ATOM     73  H   UNL     1      16.402  31.393  25.287  1.00  0.00     0.159 HD
ATOM     74  H   UNL     1      17.529  30.112  24.784  1.00  0.00     0.159 HD
ENDBRANCH  68  72
ENDBRANCH  63  65
ENDBRANCH  59  60
ENDBRANCH  58  59
ENDBRANCH  55  58
ENDBRANCH  53  54
ENDBRANCH  50  53
ENDBRANCH  47  50
ENDBRANCH   5  47
BRANCH   4  75
ATOM     75  N   UNL     1      21.502  30.894  24.316  1.00  0.00    -0.348 N 
ATOM     76  C   UNL     1      20.195  30.979  24.873  1.00  0.00     0.217 C 
ATOM     77  H   UNL     1      22.142  31.711  24.488  1.00  0.00     0.163 HD
ATOM     78  C   UNL     1      19.795  32.165  25.641  1.00  0.00     0.114 C 
ATOM     79  O   UNL     1      19.390  30.037  24.703  1.00  0.00    -0.275 OA
ENDBRANCH   4  75
TORSDOF 31
