REMARK VINA RESULT:    -6.406     13.315     19.980
REMARK INTER + INTRA:         -24.106
REMARK INTER:                 -17.635
REMARK INTRA:                  -6.471
REMARK UNBOUND:                -7.402
REMARK SMILES CC(=O)N[C@@H]1[C@@H](O)C[C@](OC[C@H]2O[C@@H](O[C@H]3[C@H](O)[C@@H](O)[C@H](OCCN=[N+]=[N-])O[C@@H]3CO)[C@H](O)[C@@H](O)[C@H]2O)(C(=O)O)O[C@H]1C(O)[C@H](O)CNC(=O)OCc1cn(-c2ccc(S(=O)(=O)c3ccc(N)cc3)cc2)nn1
REMARK SMILES IDX 43 1 42 2 9 3 8 4 41 5 6 6 5 7 10 8 11 9 12 10 14 11 13 12
REMARK SMILES IDX 32 13 34 14 36 15 15 16 16 17 29 18 28 19 21 20 17 21 19 22
REMARK SMILES IDX 30 23 31 24 22 26 23 27 24 28 25 29 26 30 27 31 18 32 20 34
REMARK SMILES IDX 33 36 35 38 37 40 38 42 39 43 40 44 7 46 4 48 2 49 1 51 3 52
REMARK SMILES IDX 44 53 45 55 46 56 47 58 48 59 49 60 50 62 51 63 52 64 53 65
REMARK SMILES IDX 54 66 73 67 55 68 72 69 56 70 57 71 71 72 58 73 70 74 59 75
REMARK SMILES IDX 60 76 61 77 62 78 63 79 64 80 69 81 65 82 68 83 66 84 67 85
REMARK H PARENT 31 25 18 33 20 35 33 37 35 39 37 41 40 45 7 47 4 50 44 54
REMARK H PARENT 46 57 48 61 67 86 67 87
REMARK Flexibility Score: inf
ROOT
ATOM      1  C   UNL     1       3.483  22.618  32.926  1.00  0.00     0.176 C 
ENDROOT
BRANCH   1   2
ATOM      2  C   UNL     1       4.749  23.449  33.132  1.00  0.00     0.178 C 
ATOM      3  C   UNL     1       6.439  23.934  34.634  1.00  0.00     0.272 C 
ATOM      4  C   UNL     1       6.307  25.393  34.338  1.00  0.00     0.113 C 
ATOM      5  O   UNL     1       5.225  23.265  34.395  1.00  0.00    -0.332 OA
ATOM      6  C   UNL     1       4.845  25.697  34.055  1.00  0.00     0.145 C 
ATOM      7  C   UNL     1       4.425  24.925  32.850  1.00  0.00     0.142 C 
BRANCH   3   8
ATOM      8  O   UNL     1       6.738  23.627  35.965  1.00  0.00    -0.338 OA
BRANCH   8   9
ATOM      9  C   UNL     1       7.488  24.540  36.643  1.00  0.00     0.199 C 
BRANCH   9  10
ATOM     10  C   UNL     1       8.832  23.935  36.982  1.00  0.00     0.179 C 
ATOM     11  C   UNL     1      11.081  24.130  36.638  1.00  0.00     0.282 C 
ATOM     12  O   UNL     1       9.826  24.771  36.460  1.00  0.00    -0.341 OA
ATOM     13  C   UNL     1      11.368  24.225  38.109  1.00  0.00     0.202 C 
ATOM     14  C   UNL     1      10.373  23.367  38.857  1.00  0.00     0.179 C 
ATOM     15  C   UNL     1       8.964  23.770  38.457  1.00  0.00     0.177 C 
BRANCH  11  16
ATOM     16  O   UNL     1      11.986  24.752  35.817  1.00  0.00    -0.341 OA
BRANCH  16  17
ATOM     17  C   UNL     1      11.601  26.090  35.567  1.00  0.00     0.184 C 
ATOM     18  C   UNL     1      11.901  26.392  34.133  1.00  0.00     0.178 C 
ATOM     19  O   UNL     1      12.664  27.507  33.912  1.00  0.00    -0.341 OA
ATOM     20  C   UNL     1      13.820  27.633  34.626  1.00  0.00     0.281 C 
ATOM     21  C   UNL     1      12.466  26.916  36.510  1.00  0.00     0.180 C 
ATOM     22  C   UNL     1      13.862  26.858  35.923  1.00  0.00     0.202 C 
BRANCH  18  23
ATOM     23  C   UNL     1      10.539  26.684  33.475  1.00  0.00     0.191 C 
BRANCH  23  24
ATOM     24  O   UNL     1       9.507  26.718  34.381  1.00  0.00    -0.394 OA
ATOM     25  H   UNL     1       8.614  26.875  33.986  1.00  0.00     0.210 HD
ENDBRANCH  23  24
ENDBRANCH  18  23
BRANCH  20  26
ATOM     26  O   UNL     1      13.964  28.975  34.961  1.00  0.00    -0.350 OA
BRANCH  26  27
ATOM     27  C   UNL     1      14.018  29.841  33.903  1.00  0.00     0.169 C 
BRANCH  27  28
ATOM     28  C   UNL     1      13.237  31.082  34.181  1.00  0.00     0.119 C 
BRANCH  28  29
ATOM     29  N   UNL     1      11.987  30.730  34.874  1.00  0.00    -0.092 NA
ATOM     30  N   UNL     1      10.918  30.679  34.268  1.00  0.00     0.001 N 
ATOM     31  N   UNL     1       9.962  30.201  33.632  1.00  0.00    -0.003 NA
ENDBRANCH  28  29
ENDBRANCH  27  28
ENDBRANCH  26  27
ENDBRANCH  20  26
BRANCH  21  32
ATOM     32  O   UNL     1      12.040  28.223  36.527  1.00  0.00    -0.387 OA
ATOM     33  H   UNL     1      12.748  28.818  36.896  1.00  0.00     0.211 HD
ENDBRANCH  21  32
BRANCH  22  34
ATOM     34  O   UNL     1      14.326  25.571  35.779  1.00  0.00    -0.385 OA
ATOM     35  H   UNL     1      13.647  24.885  36.016  1.00  0.00     0.211 HD
ENDBRANCH  22  34
ENDBRANCH  16  17
ENDBRANCH  11  16
BRANCH  13  36
ATOM     36  O   UNL     1      12.681  23.879  38.422  1.00  0.00    -0.385 OA
ATOM     37  H   UNL     1      12.769  23.981  39.422  1.00  0.00     0.211 HD
ENDBRANCH  13  36
BRANCH  14  38
ATOM     38  O   UNL     1      10.475  23.664  40.224  1.00  0.00    -0.387 OA
ATOM     39  H   UNL     1      11.252  23.219  40.610  1.00  0.00     0.211 HD
ENDBRANCH  14  38
BRANCH  15  40
ATOM     40  O   UNL     1       8.559  24.904  39.146  1.00  0.00    -0.387 OA
ATOM     41  H   UNL     1       9.166  25.656  38.954  1.00  0.00     0.211 HD
ENDBRANCH  15  40
ENDBRANCH   9  10
ENDBRANCH   8   9
ENDBRANCH   3   8
BRANCH   3  42
ATOM     42  C   UNL     1       7.475  23.253  33.812  1.00  0.00     0.364 C 
ATOM     43  O   UNL     1       7.379  22.100  33.331  1.00  0.00    -0.246 OA
BRANCH  42  44
ATOM     44  O   UNL     1       8.658  23.921  33.540  1.00  0.00    -0.477 OA
ATOM     45  H   UNL     1       9.355  24.110  34.277  1.00  0.00     0.296 HD
ENDBRANCH  42  44
ENDBRANCH   3  42
BRANCH   6  46
ATOM     46  O   UNL     1       4.131  25.197  35.149  1.00  0.00    -0.391 OA
ATOM     47  H   UNL     1       4.636  25.303  36.000  1.00  0.00     0.211 HD
ENDBRANCH   6  46
BRANCH   7  48
ATOM     48  N   UNL     1       5.023  25.330  31.618  1.00  0.00    -0.348 N 
ATOM     49  C   UNL     1       4.424  26.226  30.688  1.00  0.00     0.217 C 
ATOM     50  H   UNL     1       5.971  24.954  31.366  1.00  0.00     0.163 HD
ATOM     51  C   UNL     1       5.148  26.571  29.440  1.00  0.00     0.114 C 
ATOM     52  O   UNL     1       3.308  26.687  30.964  1.00  0.00    -0.275 OA
ENDBRANCH   7  48
ENDBRANCH   1   2
BRANCH   1  53
ATOM     53  O   UNL     1       2.619  23.239  32.038  1.00  0.00    -0.388 OA
ATOM     54  H   UNL     1       1.672  22.969  32.232  1.00  0.00     0.211 HD
ENDBRANCH   1  53
BRANCH   1  55
ATOM     55  C   UNL     1       3.773  21.202  32.607  1.00  0.00     0.165 C 
BRANCH  55  56
ATOM     56  O   UNL     1       4.619  20.634  33.564  1.00  0.00    -0.388 OA
ATOM     57  H   UNL     1       4.930  21.258  34.240  1.00  0.00     0.211 HD
ENDBRANCH  55  56
BRANCH  55  58
ATOM     58  C   UNL     1       4.502  21.074  31.287  1.00  0.00     0.154 C 
BRANCH  58  59
ATOM     59  N   UNL     1       3.701  21.431  30.150  1.00  0.00    -0.319 N 
ATOM     60  C   UNL     1       2.773  20.485  29.647  1.00  0.00     0.407 C 
ATOM     61  H   UNL     1       3.786  22.353  29.695  1.00  0.00     0.167 HD
ATOM     62  O   UNL     1       2.677  19.365  30.226  1.00  0.00    -0.225 OA
BRANCH  60  63
ATOM     63  O   UNL     1       1.957  20.695  28.559  1.00  0.00    -0.443 OA
BRANCH  63  64
ATOM     64  C   UNL     1       0.886  21.613  28.530  1.00  0.00     0.294 C 
BRANCH  64  65
ATOM     65  C   UNL     1       1.224  22.704  27.583  1.00  0.00     0.121 A 
ATOM     66  C   UNL     1       2.318  23.545  27.542  1.00  0.00     0.144 A 
ATOM     67  N   UNL     1       0.466  23.075  26.503  1.00  0.00    -0.131 NA
ATOM     68  N   UNL     1       2.197  24.380  26.465  1.00  0.00    -0.220 N 
ATOM     69  N   UNL     1       1.072  24.059  25.876  1.00  0.00    -0.062 NA
BRANCH  68  70
ATOM     70  C   UNL     1       3.093  25.383  26.037  1.00  0.00     0.066 A 
ATOM     71  C   UNL     1       4.470  25.137  26.002  1.00  0.00     0.030 A 
ATOM     72  C   UNL     1       2.690  26.632  25.640  1.00  0.00     0.030 A 
ATOM     73  C   UNL     1       5.382  26.078  25.595  1.00  0.00     0.023 A 
ATOM     74  C   UNL     1       3.613  27.594  25.225  1.00  0.00     0.023 A 
ATOM     75  C   UNL     1       4.964  27.329  25.198  1.00  0.00     0.072 A 
BRANCH  75  76
ATOM     76  S   UNL     1       6.119  28.535  24.673  1.00  0.00     0.206 S 
ATOM     77  O   UNL     1       5.581  29.193  23.412  1.00  0.00    -0.219 OA
ATOM     78  O   UNL     1       7.488  27.983  24.462  1.00  0.00    -0.219 OA
BRANCH  76  79
ATOM     79  C   UNL     1       6.180  29.821  25.880  1.00  0.00     0.072 A 
ATOM     80  C   UNL     1       6.631  31.067  25.540  1.00  0.00     0.023 A 
ATOM     81  C   UNL     1       5.779  29.588  27.174  1.00  0.00     0.023 A 
ATOM     82  C   UNL     1       6.676  32.053  26.483  1.00  0.00     0.027 A 
ATOM     83  C   UNL     1       5.830  30.588  28.111  1.00  0.00     0.027 A 
ATOM     84  C   UNL     1       6.275  31.842  27.801  1.00  0.00     0.031 A 
BRANCH  84  85
ATOM     85  N   UNL     1       6.341  32.890  28.744  1.00  0.00    -0.399 N 
ATOM     86  H   UNL     1       7.157  33.516  28.793  1.00  0.00     0.156 HD
ATOM     87  H   UNL     1       5.554  33.036  29.401  1.00  0.00     0.156 HD
ENDBRANCH  84  85
ENDBRANCH  76  79
ENDBRANCH  75  76
ENDBRANCH  68  70
ENDBRANCH  64  65
ENDBRANCH  63  64
ENDBRANCH  60  63
ENDBRANCH  58  59
ENDBRANCH  55  58
ENDBRANCH   1  55
TORSDOF 33
