REMARK VINA RESULT:    -6.312      3.723      8.146
REMARK INTER + INTRA:         -23.862
REMARK INTER:                 -15.146
REMARK INTRA:                  -8.716
REMARK UNBOUND:                -7.402
REMARK SMILES CC(=O)N[C@@H]1[C@@H](O)C[C@](OC[C@H]2O[C@@H](O[C@H]3[C@H](O)[C@@H](O)[C@H](OCCN=[N+]=[N-])O[C@@H]3CO)[C@H](O)[C@@H](O)[C@H]2O)(C(=O)O)O[C@H]1C(O)[C@H](O)CNC(=O)OCc1cn(-c2ccc(S(=O)(=O)c3ccc(N)cc3)cc2)nn1
REMARK SMILES IDX 43 1 42 2 9 3 8 4 41 5 6 6 5 7 10 8 11 9 12 10 14 11 13 12
REMARK SMILES IDX 32 13 34 14 36 15 15 16 16 17 29 18 28 19 21 20 17 21 19 22
REMARK SMILES IDX 30 23 31 24 22 26 23 27 24 28 25 29 26 30 27 31 18 32 20 34
REMARK SMILES IDX 33 36 35 38 37 40 38 42 39 43 40 44 7 46 4 48 2 49 1 51 3 52
REMARK SMILES IDX 44 53 45 55 46 56 47 58 48 59 49 60 50 62 51 63 52 64 53 65
REMARK SMILES IDX 54 66 73 67 55 68 72 69 56 70 57 71 71 72 58 73 70 74 59 75
REMARK SMILES IDX 60 76 61 77 62 78 63 79 64 80 69 81 65 82 68 83 66 84 67 85
REMARK H PARENT 31 25 18 33 20 35 33 37 35 39 37 41 40 45 7 47 4 50 44 54
REMARK H PARENT 46 57 48 61 67 86 67 87
REMARK Flexibility Score: inf
ROOT
ATOM      1  C   UNL     1      21.916  26.610  21.382  1.00  0.00     0.176 C 
ENDROOT
BRANCH   1   2
ATOM      2  C   UNL     1      21.819  27.732  22.415  1.00  0.00     0.178 C 
ATOM      3  C   UNL     1      20.341  29.104  23.547  1.00  0.00     0.272 C 
ATOM      4  C   UNL     1      21.221  30.286  23.299  1.00  0.00     0.113 C 
ATOM      5  O   UNL     1      20.523  28.129  22.550  1.00  0.00    -0.332 OA
ATOM      6  C   UNL     1      21.886  30.116  21.942  1.00  0.00     0.145 C 
ATOM      7  C   UNL     1      22.732  28.889  21.979  1.00  0.00     0.142 C 
BRANCH   3   8
ATOM      8  O   UNL     1      18.970  29.373  23.510  1.00  0.00    -0.338 OA
BRANCH   8   9
ATOM      9  C   UNL     1      18.596  30.656  23.775  1.00  0.00     0.199 C 
BRANCH   9  10
ATOM     10  C   UNL     1      17.345  30.988  22.993  1.00  0.00     0.179 C 
ATOM     11  C   UNL     1      16.244  30.610  21.029  1.00  0.00     0.282 C 
ATOM     12  O   UNL     1      17.332  30.193  21.841  1.00  0.00    -0.341 OA
ATOM     13  C   UNL     1      15.012  30.118  21.734  1.00  0.00     0.202 C 
ATOM     14  C   UNL     1      14.855  30.879  23.031  1.00  0.00     0.179 C 
ATOM     15  C   UNL     1      16.138  30.764  23.836  1.00  0.00     0.177 C 
BRANCH  11  16
ATOM     16  O   UNL     1      16.447  30.106  19.771  1.00  0.00    -0.341 OA
BRANCH  16  17
ATOM     17  C   UNL     1      17.828  29.937  19.513  1.00  0.00     0.184 C 
ATOM     18  C   UNL     1      18.156  30.693  18.265  1.00  0.00     0.178 C 
ATOM     19  O   UNL     1      18.795  29.973  17.291  1.00  0.00    -0.341 OA
ATOM     20  C   UNL     1      18.253  28.773  16.934  1.00  0.00     0.281 C 
ATOM     21  C   UNL     1      17.998  28.435  19.325  1.00  0.00     0.180 C 
ATOM     22  C   UNL     1      17.371  28.130  17.979  1.00  0.00     0.202 C 
BRANCH  18  23
ATOM     23  C   UNL     1      19.151  31.789  18.691  1.00  0.00     0.191 C 
BRANCH  23  24
ATOM     24  O   UNL     1      19.193  31.969  20.052  1.00  0.00    -0.394 OA
ATOM     25  H   UNL     1      18.426  31.586  20.545  1.00  0.00     0.210 HD
ENDBRANCH  23  24
ENDBRANCH  18  23
BRANCH  20  26
ATOM     26  O   UNL     1      19.301  27.890  16.700  1.00  0.00    -0.350 OA
BRANCH  26  27
ATOM     27  C   UNL     1      20.403  28.432  16.097  1.00  0.00     0.169 C 
BRANCH  27  28
ATOM     28  C   UNL     1      21.657  28.021  16.793  1.00  0.00     0.119 C 
BRANCH  28  29
ATOM     29  N   UNL     1      21.806  28.798  18.035  1.00  0.00    -0.092 NA
ATOM     30  N   UNL     1      22.905  29.219  18.392  1.00  0.00     0.001 N 
ATOM     31  N   UNL     1      23.862  30.001  18.531  1.00  0.00    -0.003 NA
ENDBRANCH  28  29
ENDBRANCH  27  28
ENDBRANCH  26  27
ENDBRANCH  20  26
BRANCH  21  32
ATOM     32  O   UNL     1      19.332  28.107  19.284  1.00  0.00    -0.387 OA
ATOM     33  H   UNL     1      19.847  28.649  19.941  1.00  0.00     0.211 HD
ENDBRANCH  21  32
BRANCH  22  34
ATOM     34  O   UNL     1      16.054  28.521  17.904  1.00  0.00    -0.385 OA
ATOM     35  H   UNL     1      15.699  28.511  16.977  1.00  0.00     0.211 HD
ENDBRANCH  22  34
ENDBRANCH  16  17
ENDBRANCH  11  16
BRANCH  13  36
ATOM     36  O   UNL     1      13.869  30.211  20.942  1.00  0.00    -0.385 OA
ATOM     37  H   UNL     1      14.187  30.459  20.016  1.00  0.00     0.211 HD
ENDBRANCH  13  36
BRANCH  14  38
ATOM     38  O   UNL     1      13.870  30.241  23.799  1.00  0.00    -0.387 OA
ATOM     39  H   UNL     1      13.541  30.841  24.493  1.00  0.00     0.211 HD
ENDBRANCH  14  38
BRANCH  15  40
ATOM     40  O   UNL     1      16.191  29.553  24.512  1.00  0.00    -0.387 OA
ATOM     41  H   UNL     1      15.426  28.986  24.258  1.00  0.00     0.211 HD
ENDBRANCH  15  40
ENDBRANCH   9  10
ENDBRANCH   8   9
ENDBRANCH   3   8
BRANCH   3  42
ATOM     42  C   UNL     1      20.595  28.438  24.852  1.00  0.00     0.364 C 
ATOM     43  O   UNL     1      21.254  28.925  25.800  1.00  0.00    -0.246 OA
BRANCH  42  44
ATOM     44  O   UNL     1      20.075  27.173  25.069  1.00  0.00    -0.477 OA
ATOM     45  H   UNL     1      20.251  26.659  25.947  1.00  0.00     0.296 HD
ENDBRANCH  42  44
ENDBRANCH   3  42
BRANCH   6  46
ATOM     46  O   UNL     1      20.847  29.888  21.033  1.00  0.00    -0.391 OA
ATOM     47  H   UNL     1      20.475  30.739  20.675  1.00  0.00     0.211 HD
ENDBRANCH   6  46
BRANCH   7  48
ATOM     48  N   UNL     1      23.878  28.954  22.829  1.00  0.00    -0.348 N 
ATOM     49  C   UNL     1      25.215  28.730  22.394  1.00  0.00     0.217 C 
ATOM     50  H   UNL     1      23.745  29.186  23.843  1.00  0.00     0.163 HD
ATOM     51  C   UNL     1      26.324  28.827  23.375  1.00  0.00     0.114 C 
ATOM     52  O   UNL     1      25.400  28.459  21.200  1.00  0.00    -0.275 OA
ENDBRANCH   7  48
ENDBRANCH   1   2
BRANCH   1  53
ATOM     53  O   UNL     1      23.102  26.691  20.669  1.00  0.00    -0.388 OA
ATOM     54  H   UNL     1      23.498  25.776  20.553  1.00  0.00     0.211 HD
ENDBRANCH   1  53
BRANCH   1  55
ATOM     55  C   UNL     1      21.640  25.275  21.959  1.00  0.00     0.165 C 
BRANCH  55  56
ATOM     56  O   UNL     1      20.396  25.249  22.594  1.00  0.00    -0.388 OA
ATOM     57  H   UNL     1      20.095  24.361  22.844  1.00  0.00     0.211 HD
ENDBRANCH  55  56
BRANCH  55  58
ATOM     58  C   UNL     1      22.653  24.917  23.025  1.00  0.00     0.154 C 
BRANCH  58  59
ATOM     59  N   UNL     1      22.088  24.800  24.340  1.00  0.00    -0.319 N 
ATOM     60  C   UNL     1      22.961  24.625  25.443  1.00  0.00     0.407 C 
ATOM     61  H   UNL     1      21.070  24.841  24.499  1.00  0.00     0.167 HD
ATOM     62  O   UNL     1      24.207  24.590  25.229  1.00  0.00    -0.225 OA
BRANCH  60  63
ATOM     63  O   UNL     1      22.551  24.488  26.750  1.00  0.00    -0.443 OA
BRANCH  63  64
ATOM     64  C   UNL     1      23.396  24.635  27.871  1.00  0.00     0.294 C 
BRANCH  64  65
ATOM     65  C   UNL     1      22.770  25.597  28.811  1.00  0.00     0.121 A 
ATOM     66  C   UNL     1      21.537  26.216  28.767  1.00  0.00     0.144 A 
ATOM     67  N   UNL     1      23.340  26.051  29.972  1.00  0.00    -0.131 NA
ATOM     68  N   UNL     1      21.396  27.006  29.875  1.00  0.00    -0.220 N 
ATOM     69  N   UNL     1      22.502  26.873  30.564  1.00  0.00    -0.062 NA
BRANCH  68  70
ATOM     70  C   UNL     1      20.289  27.803  30.240  1.00  0.00     0.066 A 
ATOM     71  C   UNL     1      19.147  27.219  30.797  1.00  0.00     0.030 A 
ATOM     72  C   UNL     1      20.256  29.164  30.078  1.00  0.00     0.030 A 
ATOM     73  C   UNL     1      18.046  27.948  31.168  1.00  0.00     0.023 A 
ATOM     74  C   UNL     1      19.139  29.913  30.453  1.00  0.00     0.023 A 
ATOM     75  C   UNL     1      18.025  29.315  31.000  1.00  0.00     0.072 A 
BRANCH  75  76
ATOM     76  S   UNL     1      16.627  30.256  31.474  1.00  0.00     0.206 S 
ATOM     77  O   UNL     1      17.112  31.592  32.015  1.00  0.00    -0.219 OA
ATOM     78  O   UNL     1      15.752  29.552  32.455  1.00  0.00    -0.219 OA
BRANCH  76  79
ATOM     79  C   UNL     1      15.695  30.649  30.028  1.00  0.00     0.072 A 
ATOM     80  C   UNL     1      16.308  30.712  28.806  1.00  0.00     0.023 A 
ATOM     81  C   UNL     1      14.345  30.899  30.109  1.00  0.00     0.023 A 
ATOM     82  C   UNL     1      15.578  31.018  27.695  1.00  0.00     0.027 A 
ATOM     83  C   UNL     1      13.624  31.207  28.984  1.00  0.00     0.027 A 
ATOM     84  C   UNL     1      14.209  31.277  27.751  1.00  0.00     0.031 A 
BRANCH  84  85
ATOM     85  N   UNL     1      13.493  31.593  26.577  1.00  0.00    -0.399 N 
ATOM     86  H   UNL     1      13.831  32.310  25.921  1.00  0.00     0.156 HD
ATOM     87  H   UNL     1      12.610  31.095  26.367  1.00  0.00     0.156 HD
ENDBRANCH  84  85
ENDBRANCH  76  79
ENDBRANCH  75  76
ENDBRANCH  68  70
ENDBRANCH  64  65
ENDBRANCH  63  64
ENDBRANCH  60  63
ENDBRANCH  58  59
ENDBRANCH  55  58
ENDBRANCH   1  55
TORSDOF 33
