REMARK VINA RESULT:    -5.923     12.375     17.378
REMARK INTER + INTRA:         -21.367
REMARK INTER:                 -16.855
REMARK INTRA:                  -4.513
REMARK UNBOUND:                -6.268
REMARK SMILES CC(=O)N[C@@H]1[C@@H](O)C[C@](OC[C@H]2O[C@@H](O[C@H]3[C@H](O)[C@@H](O)[C@H](OCCN=[N+]=[N-])O[C@@H]3CO)[C@H](O)[C@@H](O)[C@H]2O)(C(=O)O)O[C@H]1C(O)[C@H](O)CNC(=O)OCc1cn(C(C)(C)CO)nn1
REMARK SMILES IDX 9 1 8 2 6 3 5 4 42 5 41 6 10 7 11 8 12 9 14 10 13 11 32 12
REMARK SMILES IDX 34 13 36 14 15 15 16 16 29 17 28 18 21 19 17 20 19 21 30 22
REMARK SMILES IDX 31 23 22 25 23 26 24 27 25 28 26 29 27 30 18 31 20 33 33 35
REMARK SMILES IDX 35 37 37 39 38 41 39 42 40 43 7 45 43 47 44 48 45 50 46 51
REMARK SMILES IDX 47 53 48 54 49 55 50 57 51 58 52 59 53 60 54 61 62 62 55 63
REMARK SMILES IDX 61 64 56 65 57 66 58 67 59 68 60 69 4 71 2 72 1 74 3 75
REMARK H PARENT 31 24 18 32 20 34 33 36 35 38 37 40 40 44 7 46 44 49 46 52
REMARK H PARENT 48 56 60 70 4 73
REMARK Flexibility Score: inf
ROOT
ATOM      1  C   UNL     1       6.517  23.921  34.516  1.00  0.00     0.272 C 
ATOM      2  C   UNL     1       6.317  25.350  34.086  1.00  0.00     0.113 C 
ATOM      3  C   UNL     1       4.837  25.563  33.877  1.00  0.00     0.145 C 
ATOM      4  C   UNL     1       4.493  24.769  32.596  1.00  0.00     0.142 C 
ATOM      5  C   UNL     1       4.973  23.367  32.820  1.00  0.00     0.178 C 
ATOM      6  O   UNL     1       5.368  23.136  34.123  1.00  0.00    -0.332 OA
ENDROOT
BRANCH   1   7
ATOM      7  O   UNL     1       6.541  23.744  35.861  1.00  0.00    -0.338 OA
BRANCH   7   8
ATOM      8  C   UNL     1       7.462  24.250  36.663  1.00  0.00     0.199 C 
BRANCH   8   9
ATOM      9  C   UNL     1       8.815  23.704  36.866  1.00  0.00     0.179 C 
ATOM     10  C   UNL     1      10.972  23.980  36.095  1.00  0.00     0.282 C 
ATOM     11  O   UNL     1       9.748  24.584  36.219  1.00  0.00    -0.341 OA
ATOM     12  C   UNL     1      11.245  22.839  37.008  1.00  0.00     0.202 C 
ATOM     13  C   UNL     1      10.573  22.951  38.359  1.00  0.00     0.179 C 
ATOM     14  C   UNL     1       9.306  23.743  38.309  1.00  0.00     0.177 C 
BRANCH  10  15
ATOM     15  O   UNL     1      11.946  24.981  36.145  1.00  0.00    -0.341 OA
BRANCH  15  16
ATOM     16  C   UNL     1      11.536  26.183  35.618  1.00  0.00     0.184 C 
ATOM     17  C   UNL     1      11.949  26.387  34.177  1.00  0.00     0.178 C 
ATOM     18  O   UNL     1      12.484  27.633  33.927  1.00  0.00    -0.341 OA
ATOM     19  C   UNL     1      13.629  27.943  34.610  1.00  0.00     0.281 C 
ATOM     20  C   UNL     1      12.229  27.270  36.461  1.00  0.00     0.180 C 
ATOM     21  C   UNL     1      13.662  27.265  35.961  1.00  0.00     0.202 C 
BRANCH  17  22
ATOM     22  C   UNL     1      10.667  26.293  33.360  1.00  0.00     0.191 C 
BRANCH  22  23
ATOM     23  O   UNL     1       9.584  26.698  34.143  1.00  0.00    -0.394 OA
ATOM     24  H   UNL     1       8.869  26.037  34.194  1.00  0.00     0.210 HD
ENDBRANCH  22  23
ENDBRANCH  17  22
BRANCH  19  25
ATOM     25  O   UNL     1      13.698  29.321  34.706  1.00  0.00    -0.350 OA
BRANCH  25  26
ATOM     26  C   UNL     1      14.654  29.921  33.948  1.00  0.00     0.169 C 
BRANCH  26  27
ATOM     27  C   UNL     1      15.478  28.958  33.108  1.00  0.00     0.119 C 
BRANCH  27  28
ATOM     28  N   UNL     1      16.547  29.651  32.416  1.00  0.00    -0.092 NA
ATOM     29  N   UNL     1      16.496  29.686  31.178  1.00  0.00     0.001 N 
ATOM     30  N   UNL     1      16.358  30.088  30.002  1.00  0.00    -0.003 NA
ENDBRANCH  27  28
ENDBRANCH  26  27
ENDBRANCH  25  26
ENDBRANCH  19  25
BRANCH  20  31
ATOM     31  O   UNL     1      11.566  28.459  36.144  1.00  0.00    -0.387 OA
ATOM     32  H   UNL     1      10.597  28.249  36.215  1.00  0.00     0.211 HD
ENDBRANCH  20  31
BRANCH  21  33
ATOM     33  O   UNL     1      14.017  25.924  35.740  1.00  0.00    -0.385 OA
ATOM     34  H   UNL     1      13.369  25.499  35.101  1.00  0.00     0.211 HD
ENDBRANCH  21  33
ENDBRANCH  15  16
ENDBRANCH  10  15
BRANCH  12  35
ATOM     35  O   UNL     1      11.036  21.581  36.441  1.00  0.00    -0.385 OA
ATOM     36  H   UNL     1      10.483  21.077  37.071  1.00  0.00     0.211 HD
ENDBRANCH  12  35
BRANCH  13  37
ATOM     37  O   UNL     1      11.458  23.473  39.319  1.00  0.00    -0.387 OA
ATOM     38  H   UNL     1      11.930  22.742  39.799  1.00  0.00     0.211 HD
ENDBRANCH  13  37
BRANCH  14  39
ATOM     39  O   UNL     1       9.658  25.085  38.577  1.00  0.00    -0.387 OA
ATOM     40  H   UNL     1       9.919  25.533  37.746  1.00  0.00     0.211 HD
ENDBRANCH  14  39
ENDBRANCH   8   9
ENDBRANCH   7   8
ENDBRANCH   1   7
BRANCH   1  41
ATOM     41  C   UNL     1       7.610  23.261  33.804  1.00  0.00     0.364 C 
ATOM     42  O   UNL     1       7.565  22.074  33.472  1.00  0.00    -0.246 OA
BRANCH  41  43
ATOM     43  O   UNL     1       8.792  23.936  33.449  1.00  0.00    -0.477 OA
ATOM     44  H   UNL     1       8.768  24.949  33.476  1.00  0.00     0.296 HD
ENDBRANCH  41  43
ENDBRANCH   1  41
BRANCH   3  45
ATOM     45  O   UNL     1       4.169  24.888  34.901  1.00  0.00    -0.391 OA
ATOM     46  H   UNL     1       3.198  24.924  34.779  1.00  0.00     0.211 HD
ENDBRANCH   3  45
BRANCH   5  47
ATOM     47  C   UNL     1       3.734  22.469  32.650  1.00  0.00     0.176 C 
BRANCH  47  48
ATOM     48  O   UNL     1       3.386  21.954  33.923  1.00  0.00    -0.388 OA
ATOM     49  H   UNL     1       3.368  22.646  34.605  1.00  0.00     0.211 HD
ENDBRANCH  47  48
BRANCH  47  50
ATOM     50  C   UNL     1       4.041  21.231  31.824  1.00  0.00     0.165 C 
BRANCH  50  51
ATOM     51  O   UNL     1       5.352  21.110  31.500  1.00  0.00    -0.388 OA
ATOM     52  H   UNL     1       5.550  20.732  30.612  1.00  0.00     0.211 HD
ENDBRANCH  50  51
BRANCH  50  53
ATOM     53  C   UNL     1       3.168  21.208  30.585  1.00  0.00     0.154 C 
BRANCH  53  54
ATOM     54  N   UNL     1       3.170  22.387  29.800  1.00  0.00    -0.319 N 
ATOM     55  C   UNL     1       2.472  22.541  28.598  1.00  0.00     0.407 C 
ATOM     56  H   UNL     1       3.742  23.237  30.133  1.00  0.00     0.167 HD
ATOM     57  O   UNL     1       1.770  21.638  28.116  1.00  0.00    -0.225 OA
BRANCH  55  58
ATOM     58  O   UNL     1       2.533  23.748  27.861  1.00  0.00    -0.443 OA
BRANCH  58  59
ATOM     59  C   UNL     1       3.325  23.858  26.700  1.00  0.00     0.294 C 
BRANCH  59  60
ATOM     60  C   UNL     1       3.734  25.243  26.391  1.00  0.00     0.120 A 
ATOM     61  C   UNL     1       4.957  25.671  25.918  1.00  0.00     0.139 A 
ATOM     62  N   UNL     1       2.987  26.353  26.508  1.00  0.00    -0.132 NA
ATOM     63  N   UNL     1       4.924  27.018  25.761  1.00  0.00    -0.244 N 
ATOM     64  N   UNL     1       3.715  27.407  26.127  1.00  0.00    -0.066 NA
BRANCH  63  65
ATOM     65  C   UNL     1       6.012  27.834  25.283  1.00  0.00     0.082 C 
ATOM     66  C   UNL     1       6.351  28.877  26.306  1.00  0.00     0.039 C 
ATOM     67  C   UNL     1       5.590  28.580  24.009  1.00  0.00     0.039 C 
BRANCH  65  68
ATOM     68  C   UNL     1       7.251  27.056  24.943  1.00  0.00     0.186 C 
BRANCH  68  69
ATOM     69  O   UNL     1       7.564  27.075  23.604  1.00  0.00    -0.394 OA
ATOM     70  H   UNL     1       8.249  27.713  23.346  1.00  0.00     0.210 HD
ENDBRANCH  68  69
ENDBRANCH  65  68
ENDBRANCH  63  65
ENDBRANCH  59  60
ENDBRANCH  58  59
ENDBRANCH  55  58
ENDBRANCH  53  54
ENDBRANCH  50  53
ENDBRANCH  47  50
ENDBRANCH   5  47
BRANCH   4  71
ATOM     71  N   UNL     1       5.126  25.474  31.527  1.00  0.00    -0.348 N 
ATOM     72  C   UNL     1       4.481  26.061  30.413  1.00  0.00     0.217 C 
ATOM     73  H   UNL     1       6.184  25.588  31.528  1.00  0.00     0.163 HD
ATOM     74  C   UNL     1       5.230  26.775  29.345  1.00  0.00     0.114 C 
ATOM     75  O   UNL     1       3.246  25.982  30.315  1.00  0.00    -0.275 OA
ENDBRANCH   4  71
TORSDOF 32
