REMARK VINA RESULT:    -4.052     20.671     24.541
REMARK INTER + INTRA:         -22.103
REMARK INTER:                 -16.523
REMARK INTRA:                  -5.580
REMARK UNBOUND:               -11.418
REMARK SMILES CC(=O)N[C@@H]1[C@@H](O)C[C@](OC[C@H]2O[C@@H](O[C@H]3[C@H](O)[C@@H](O)[C@H](OCCN=[N+]=[N-])O[C@@H]3CO)[C@H](O)[C@@H](O)[C@H]2O)(C(=O)O)O[C@H]1C(O)[C@H](O)CNC(=O)OCc1cn(CC(=O)NCc2cccs2)nn1
REMARK SMILES IDX 43 1 42 2 9 3 8 4 41 5 6 6 5 7 10 8 11 9 12 10 14 11 13 12
REMARK SMILES IDX 32 13 34 14 36 15 15 16 16 17 29 18 28 19 21 20 17 21 19 22
REMARK SMILES IDX 30 23 31 24 22 26 23 27 24 28 25 29 26 30 27 31 18 32 20 34
REMARK SMILES IDX 33 36 35 38 37 40 38 42 39 43 40 44 7 46 4 48 2 49 1 51 3 52
REMARK SMILES IDX 44 53 45 55 46 56 47 58 48 59 49 60 50 62 51 63 52 64 53 65
REMARK SMILES IDX 54 66 67 67 55 68 66 69 56 70 57 71 58 72 59 73 60 75 61 76
REMARK SMILES IDX 62 77 65 78 63 79 64 80
REMARK H PARENT 31 25 18 33 20 35 33 37 35 39 37 41 40 45 7 47 4 50 44 54
REMARK H PARENT 46 57 48 61 59 74
REMARK Flexibility Score: inf
ROOT
ATOM      1  C   UNL     1      23.697  22.128  14.077  1.00  0.00     0.176 C 
ENDROOT
BRANCH   1   2
ATOM      2  C   UNL     1      25.171  22.425  13.991  1.00  0.00     0.178 C 
ATOM      3  C   UNL     1      26.017  22.520  11.784  1.00  0.00     0.272 C 
ATOM      4  C   UNL     1      26.183  20.993  11.862  1.00  0.00     0.113 C 
ATOM      5  O   UNL     1      25.405  23.080  12.833  1.00  0.00    -0.332 OA
ATOM      6  C   UNL     1      26.755  20.648  13.177  1.00  0.00     0.145 C 
ATOM      7  C   UNL     1      26.079  21.313  14.347  1.00  0.00     0.142 C 
BRANCH   3   8
ATOM      8  O   UNL     1      25.305  22.717  10.624  1.00  0.00    -0.338 OA
BRANCH   8   9
ATOM      9  C   UNL     1      24.336  23.631  10.547  1.00  0.00     0.199 C 
BRANCH   9  10
ATOM     10  C   UNL     1      23.004  23.256   9.963  1.00  0.00     0.179 C 
ATOM     11  C   UNL     1      21.267  21.874  10.545  1.00  0.00     0.282 C 
ATOM     12  O   UNL     1      22.272  22.712  11.046  1.00  0.00    -0.341 OA
ATOM     13  C   UNL     1      20.546  22.499   9.397  1.00  0.00     0.202 C 
ATOM     14  C   UNL     1      20.790  23.959   9.206  1.00  0.00     0.179 C 
ATOM     15  C   UNL     1      22.171  24.439   9.516  1.00  0.00     0.177 C 
BRANCH  11  16
ATOM     16  O   UNL     1      20.387  21.469  11.509  1.00  0.00    -0.341 OA
BRANCH  16  17
ATOM     17  C   UNL     1      20.446  20.103  11.777  1.00  0.00     0.184 C 
ATOM     18  C   UNL     1      21.678  19.454  11.318  1.00  0.00     0.178 C 
ATOM     19  O   UNL     1      21.606  18.581  10.266  1.00  0.00    -0.341 OA
ATOM     20  C   UNL     1      20.449  18.522   9.558  1.00  0.00     0.281 C 
ATOM     21  C   UNL     1      19.145  19.502  11.328  1.00  0.00     0.180 C 
ATOM     22  C   UNL     1      19.324  18.215  10.562  1.00  0.00     0.202 C 
BRANCH  18  23
ATOM     23  C   UNL     1      22.306  18.638  12.465  1.00  0.00     0.191 C 
BRANCH  23  24
ATOM     24  O   UNL     1      21.610  18.775  13.647  1.00  0.00    -0.394 OA
ATOM     25  H   UNL     1      22.264  18.993  14.364  1.00  0.00     0.210 HD
ENDBRANCH  23  24
ENDBRANCH  18  23
BRANCH  20  26
ATOM     26  O   UNL     1      20.488  17.385   8.734  1.00  0.00    -0.350 OA
BRANCH  26  27
ATOM     27  C   UNL     1      21.114  16.322   9.352  1.00  0.00     0.169 C 
BRANCH  27  28
ATOM     28  C   UNL     1      22.234  15.853   8.419  1.00  0.00     0.119 C 
BRANCH  28  29
ATOM     29  N   UNL     1      23.482  15.790   9.164  1.00  0.00    -0.092 NA
ATOM     30  N   UNL     1      23.466  15.455  10.347  1.00  0.00     0.001 N 
ATOM     31  N   UNL     1      23.539  14.936  11.477  1.00  0.00    -0.003 NA
ENDBRANCH  28  29
ENDBRANCH  27  28
ENDBRANCH  26  27
ENDBRANCH  20  26
BRANCH  21  32
ATOM     32  O   UNL     1      18.227  19.342  12.371  1.00  0.00    -0.387 OA
ATOM     33  H   UNL     1      17.586  18.593  12.173  1.00  0.00     0.211 HD
ENDBRANCH  21  32
BRANCH  22  34
ATOM     34  O   UNL     1      18.143  17.932   9.906  1.00  0.00    -0.385 OA
ATOM     35  H   UNL     1      17.407  17.783  10.554  1.00  0.00     0.211 HD
ENDBRANCH  22  34
ENDBRANCH  16  17
ENDBRANCH  11  16
BRANCH  13  36
ATOM     36  O   UNL     1      20.795  21.808   8.188  1.00  0.00    -0.385 OA
ATOM     37  H   UNL     1      20.099  21.928   7.523  1.00  0.00     0.211 HD
ENDBRANCH  13  36
BRANCH  14  38
ATOM     38  O   UNL     1      19.809  24.719   9.886  1.00  0.00    -0.387 OA
ATOM     39  H   UNL     1      19.058  24.914   9.274  1.00  0.00     0.211 HD
ENDBRANCH  14  38
BRANCH  15  40
ATOM     40  O   UNL     1      22.045  25.336  10.603  1.00  0.00    -0.387 OA
ATOM     41  H   UNL     1      21.211  25.856  10.562  1.00  0.00     0.211 HD
ENDBRANCH  15  40
ENDBRANCH   9  10
ENDBRANCH   8   9
ENDBRANCH   3   8
BRANCH   3  42
ATOM     42  C   UNL     1      27.417  23.033  11.661  1.00  0.00     0.364 C 
ATOM     43  O   UNL     1      27.940  23.862  12.440  1.00  0.00    -0.246 OA
BRANCH  42  44
ATOM     44  O   UNL     1      28.217  22.573  10.623  1.00  0.00    -0.477 OA
ATOM     45  H   UNL     1      28.102  21.633  10.265  1.00  0.00     0.296 HD
ENDBRANCH  42  44
ENDBRANCH   3  42
BRANCH   6  46
ATOM     46  O   UNL     1      26.757  19.231  13.329  1.00  0.00    -0.391 OA
ATOM     47  H   UNL     1      27.401  18.809  12.721  1.00  0.00     0.211 HD
ENDBRANCH   6  46
BRANCH   7  48
ATOM     48  N   UNL     1      27.051  21.706  15.348  1.00  0.00    -0.348 N 
ATOM     49  C   UNL     1      27.700  20.727  16.130  1.00  0.00     0.217 C 
ATOM     50  H   UNL     1      27.295  22.717  15.523  1.00  0.00     0.163 HD
ATOM     51  C   UNL     1      28.697  21.151  17.157  1.00  0.00     0.114 C 
ATOM     52  O   UNL     1      27.492  19.496  16.022  1.00  0.00    -0.275 OA
ENDBRANCH   7  48
ENDBRANCH   1   2
BRANCH   1  53
ATOM     53  O   UNL     1      23.363  20.957  14.693  1.00  0.00    -0.388 OA
ATOM     54  H   UNL     1      23.664  20.131  14.260  1.00  0.00     0.211 HD
ENDBRANCH   1  53
BRANCH   1  55
ATOM     55  C   UNL     1      22.832  23.296  14.501  1.00  0.00     0.165 C 
BRANCH  55  56
ATOM     56  O   UNL     1      22.499  24.126  13.474  1.00  0.00    -0.388 OA
ATOM     57  H   UNL     1      21.558  24.408  13.451  1.00  0.00     0.211 HD
ENDBRANCH  55  56
BRANCH  55  58
ATOM     58  C   UNL     1      23.504  24.059  15.630  1.00  0.00     0.154 C 
BRANCH  58  59
ATOM     59  N   UNL     1      22.807  23.942  16.876  1.00  0.00    -0.319 N 
ATOM     60  C   UNL     1      23.043  24.687  18.058  1.00  0.00     0.407 C 
ATOM     61  H   UNL     1      22.003  23.225  16.989  1.00  0.00     0.167 HD
ATOM     62  O   UNL     1      23.912  25.556  18.121  1.00  0.00    -0.225 OA
BRANCH  60  63
ATOM     63  O   UNL     1      22.287  24.464  19.226  1.00  0.00    -0.443 OA
BRANCH  63  64
ATOM     64  C   UNL     1      22.778  23.907  20.401  1.00  0.00     0.294 C 
BRANCH  64  65
ATOM     65  C   UNL     1      22.666  24.767  21.587  1.00  0.00     0.120 A 
ATOM     66  C   UNL     1      21.924  25.922  21.708  1.00  0.00     0.138 A 
ATOM     67  N   UNL     1      23.269  24.585  22.791  1.00  0.00    -0.132 NA
ATOM     68  N   UNL     1      22.086  26.405  22.947  1.00  0.00    -0.243 N 
ATOM     69  N   UNL     1      22.896  25.580  23.567  1.00  0.00    -0.067 NA
BRANCH  68  70
ATOM     70  C   UNL     1      21.528  27.581  23.578  1.00  0.00     0.245 C 
BRANCH  70  71
ATOM     71  C   UNL     1      21.175  27.241  24.968  1.00  0.00     0.242 C 
ATOM     72  O   UNL     1      20.005  26.935  25.263  1.00  0.00    -0.273 OA
ATOM     73  N   UNL     1      22.161  27.260  25.984  1.00  0.00    -0.350 N 
ATOM     74  H   UNL     1      23.167  27.516  25.776  1.00  0.00     0.163 HD
BRANCH  73  75
ATOM     75  C   UNL     1      21.860  26.935  27.344  1.00  0.00     0.162 C 
BRANCH  75  76
ATOM     76  C   UNL     1      23.096  26.535  28.032  1.00  0.00     0.024 A 
ATOM     77  C   UNL     1      24.285  26.084  27.559  1.00  0.00     0.017 A 
ATOM     78  S   UNL     1      23.333  26.562  29.774  1.00  0.00    -0.147 S 
ATOM     79  C   UNL     1      25.269  25.790  28.423  1.00  0.00     0.012 A 
ATOM     80  C   UNL     1      25.075  25.942  29.745  1.00  0.00     0.065 A 
ENDBRANCH  75  76
ENDBRANCH  73  75
ENDBRANCH  70  71
ENDBRANCH  68  70
ENDBRANCH  64  65
ENDBRANCH  63  64
ENDBRANCH  60  63
ENDBRANCH  58  59
ENDBRANCH  55  58
ENDBRANCH   1  55
TORSDOF 33
