REMARK VINA RESULT:    -5.488     13.012     18.484
REMARK INTER + INTRA:         -21.233
REMARK INTER:                 -12.170
REMARK INTRA:                  -9.062
REMARK UNBOUND:                -6.761
REMARK SMILES CC(=O)N[C@@H]1[C@@H](O)C[C@](OC[C@H]2O[C@@H](O[C@H]3[C@H](O)[C@@H](O)[C@H](OCCN=[N+]=[N-])O[C@@H]3CO)[C@H](O)[C@@H](O)[C@H]2O)(C(=O)O)O[C@H]1C(O)[C@H](O)CNC(=O)OCc1cn(CCNS(C)(=O)=O)nn1
REMARK SMILES IDX 43 1 42 2 9 3 8 4 41 5 6 6 5 7 10 8 11 9 12 10 14 11 13 12
REMARK SMILES IDX 32 13 34 14 36 15 15 16 16 17 29 18 28 19 21 20 17 21 19 22
REMARK SMILES IDX 30 23 31 24 22 26 23 27 24 28 25 29 26 30 27 31 18 32 20 34
REMARK SMILES IDX 33 36 35 38 37 40 38 42 39 43 40 44 7 46 4 48 2 49 1 51 3 52
REMARK SMILES IDX 44 53 45 55 46 56 47 58 48 59 49 60 50 62 51 63 52 64 53 65
REMARK SMILES IDX 54 66 64 67 55 68 63 69 56 70 57 71 58 72 59 74 61 75 62 76
REMARK SMILES IDX 60 77
REMARK H PARENT 31 25 18 33 20 35 33 37 35 39 37 41 40 45 7 47 4 50 44 54
REMARK H PARENT 46 57 48 61 58 73
REMARK Flexibility Score: inf
ROOT
ATOM      1  C   UNL     1      -0.643  24.328  30.172  1.00  0.00     0.176 C 
ENDROOT
BRANCH   1   2
ATOM      2  C   UNL     1       0.099  23.245  29.367  1.00  0.00     0.178 C 
ATOM      3  C   UNL     1       1.633  21.532  29.808  1.00  0.00     0.272 C 
ATOM      4  C   UNL     1       2.710  22.106  28.976  1.00  0.00     0.113 C 
ATOM      5  O   UNL     1       0.764  22.505  30.285  1.00  0.00    -0.332 OA
ATOM      6  C   UNL     1       2.404  23.436  28.345  1.00  0.00     0.145 C 
ATOM      7  C   UNL     1       0.980  23.874  28.360  1.00  0.00     0.142 C 
BRANCH   3   8
ATOM      8  O   UNL     1       2.042  20.851  30.958  1.00  0.00    -0.338 OA
BRANCH   8   9
ATOM      9  C   UNL     1       2.179  21.685  32.054  1.00  0.00     0.199 C 
BRANCH   9  10
ATOM     10  C   UNL     1       3.584  22.167  32.165  1.00  0.00     0.179 C 
ATOM     11  C   UNL     1       4.967  23.883  32.844  1.00  0.00     0.282 C 
ATOM     12  O   UNL     1       3.685  23.314  32.932  1.00  0.00    -0.341 OA
ATOM     13  C   UNL     1       6.012  22.973  33.389  1.00  0.00     0.202 C 
ATOM     14  C   UNL     1       6.008  21.723  32.536  1.00  0.00     0.179 C 
ATOM     15  C   UNL     1       4.632  21.150  32.471  1.00  0.00     0.177 C 
BRANCH  11  16
ATOM     16  O   UNL     1       4.919  25.072  33.509  1.00  0.00    -0.341 OA
BRANCH  16  17
ATOM     17  C   UNL     1       5.326  26.165  32.825  1.00  0.00     0.184 C 
ATOM     18  C   UNL     1       5.501  27.461  33.512  1.00  0.00     0.178 C 
ATOM     19  O   UNL     1       5.348  28.482  32.573  1.00  0.00    -0.341 OA
ATOM     20  C   UNL     1       4.042  28.682  32.230  1.00  0.00     0.281 C 
ATOM     21  C   UNL     1       4.444  26.400  31.567  1.00  0.00     0.180 C 
ATOM     22  C   UNL     1       3.362  27.339  32.056  1.00  0.00     0.202 C 
BRANCH  18  23
ATOM     23  C   UNL     1       6.936  27.614  34.006  1.00  0.00     0.191 C 
BRANCH  23  24
ATOM     24  O   UNL     1       7.576  26.353  34.004  1.00  0.00    -0.394 OA
ATOM     25  H   UNL     1       7.414  25.862  34.839  1.00  0.00     0.210 HD
ENDBRANCH  23  24
ENDBRANCH  18  23
BRANCH  20  26
ATOM     26  O   UNL     1       3.925  29.462  31.070  1.00  0.00    -0.350 OA
BRANCH  26  27
ATOM     27  C   UNL     1       4.422  30.734  31.190  1.00  0.00     0.169 C 
BRANCH  27  28
ATOM     28  C   UNL     1       5.312  31.008  30.019  1.00  0.00     0.119 C 
BRANCH  28  29
ATOM     29  N   UNL     1       5.470  29.839  29.163  1.00  0.00    -0.092 NA
ATOM     30  N   UNL     1       5.852  30.086  28.006  1.00  0.00     0.001 N 
ATOM     31  N   UNL     1       6.147  30.018  26.818  1.00  0.00    -0.003 NA
ENDBRANCH  28  29
ENDBRANCH  27  28
ENDBRANCH  26  27
ENDBRANCH  20  26
BRANCH  21  32
ATOM     32  O   UNL     1       5.184  27.076  30.593  1.00  0.00    -0.387 OA
ATOM     33  H   UNL     1       4.693  27.899  30.331  1.00  0.00     0.211 HD
ENDBRANCH  21  32
BRANCH  22  34
ATOM     34  O   UNL     1       2.722  26.913  33.198  1.00  0.00    -0.385 OA
ATOM     35  H   UNL     1       2.115  26.142  33.060  1.00  0.00     0.211 HD
ENDBRANCH  22  34
ENDBRANCH  16  17
ENDBRANCH  11  16
BRANCH  13  36
ATOM     36  O   UNL     1       7.293  23.522  33.227  1.00  0.00    -0.385 OA
ATOM     37  H   UNL     1       7.722  23.222  32.385  1.00  0.00     0.211 HD
ENDBRANCH  13  36
BRANCH  14  38
ATOM     38  O   UNL     1       6.986  20.834  32.906  1.00  0.00    -0.387 OA
ATOM     39  H   UNL     1       6.808  20.424  33.809  1.00  0.00     0.211 HD
ENDBRANCH  14  38
BRANCH  15  40
ATOM     40  O   UNL     1       4.335  20.566  33.698  1.00  0.00    -0.387 OA
ATOM     41  H   UNL     1       5.050  20.695  34.373  1.00  0.00     0.211 HD
ENDBRANCH  15  40
ENDBRANCH   9  10
ENDBRANCH   8   9
ENDBRANCH   3   8
BRANCH   3  42
ATOM     42  C   UNL     1       0.849  20.528  29.050  1.00  0.00     0.364 C 
ATOM     43  O   UNL     1       0.810  20.526  27.775  1.00  0.00    -0.246 OA
BRANCH  42  44
ATOM     44  O   UNL     1       0.103  19.524  29.634  1.00  0.00    -0.477 OA
ATOM     45  H   UNL     1       0.344  18.539  29.573  1.00  0.00     0.296 HD
ENDBRANCH  42  44
ENDBRANCH   3  42
BRANCH   6  46
ATOM     46  O   UNL     1       3.206  24.437  28.871  1.00  0.00    -0.391 OA
ATOM     47  H   UNL     1       2.806  24.968  29.588  1.00  0.00     0.211 HD
ENDBRANCH   6  46
BRANCH   7  48
ATOM     48  N   UNL     1       0.428  23.651  27.013  1.00  0.00    -0.348 N 
ATOM     49  C   UNL     1      -0.312  24.568  26.262  1.00  0.00     0.217 C 
ATOM     50  H   UNL     1       0.631  22.707  26.528  1.00  0.00     0.163 HD
ATOM     51  C   UNL     1      -0.837  24.217  24.895  1.00  0.00     0.114 C 
ATOM     52  O   UNL     1      -0.576  25.724  26.692  1.00  0.00    -0.275 OA
ENDBRANCH   7  48
ENDBRANCH   1   2
BRANCH   1  53
ATOM     53  O   UNL     1      -1.385  23.698  31.186  1.00  0.00    -0.388 OA
ATOM     54  H   UNL     1      -1.472  24.337  31.917  1.00  0.00     0.211 HD
ENDBRANCH   1  53
BRANCH   1  55
ATOM     55  C   UNL     1       0.330  25.251  30.809  1.00  0.00     0.165 C 
BRANCH  55  56
ATOM     56  O   UNL     1       1.031  24.747  31.877  1.00  0.00    -0.388 OA
ATOM     57  H   UNL     1       1.944  25.128  31.968  1.00  0.00     0.211 HD
ENDBRANCH  55  56
BRANCH  55  58
ATOM     58  C   UNL     1      -0.174  26.633  31.089  1.00  0.00     0.154 C 
BRANCH  58  59
ATOM     59  N   UNL     1       0.452  27.621  30.251  1.00  0.00    -0.319 N 
ATOM     60  C   UNL     1      -0.346  28.204  29.193  1.00  0.00     0.407 C 
ATOM     61  H   UNL     1       1.428  27.939  30.353  1.00  0.00     0.167 HD
ATOM     62  O   UNL     1      -1.538  27.814  29.107  1.00  0.00    -0.225 OA
BRANCH  60  63
ATOM     63  O   UNL     1       0.189  29.132  28.338  1.00  0.00    -0.443 OA
BRANCH  63  64
ATOM     64  C   UNL     1       1.533  29.531  28.472  1.00  0.00     0.294 C 
BRANCH  64  65
ATOM     65  C   UNL     1       2.441  28.552  27.847  1.00  0.00     0.120 A 
ATOM     66  C   UNL     1       2.882  28.532  26.534  1.00  0.00     0.138 A 
ATOM     67  N   UNL     1       3.037  27.524  28.434  1.00  0.00    -0.132 NA
ATOM     68  N   UNL     1       3.721  27.510  26.361  1.00  0.00    -0.251 N 
ATOM     69  N   UNL     1       3.809  26.892  27.540  1.00  0.00    -0.067 NA
BRANCH  68  70
ATOM     70  C   UNL     1       4.395  27.139  25.128  1.00  0.00     0.162 C 
BRANCH  70  71
ATOM     71  C   UNL     1       5.560  26.201  25.439  1.00  0.00     0.122 C 
BRANCH  71  72
ATOM     72  N   UNL     1       6.585  26.888  26.171  1.00  0.00    -0.214 NA
ATOM     73  H   UNL     1       6.733  26.397  27.094  1.00  0.00     0.141 HD
BRANCH  72  74
ATOM     74  S   UNL     1       8.102  26.891  25.360  1.00  0.00     0.208 S 
ATOM     75  O   UNL     1       9.199  26.439  26.309  1.00  0.00    -0.213 OA
ATOM     76  O   UNL     1       7.987  25.871  24.242  1.00  0.00    -0.213 OA
ATOM     77  C   UNL     1       8.464  28.486  24.694  1.00  0.00     0.176 C 
ENDBRANCH  72  74
ENDBRANCH  71  72
ENDBRANCH  70  71
ENDBRANCH  68  70
ENDBRANCH  64  65
ENDBRANCH  63  64
ENDBRANCH  60  63
ENDBRANCH  58  59
ENDBRANCH  55  58
ENDBRANCH   1  55
TORSDOF 33
