REMARK VINA RESULT:    -6.076      6.092     13.185
REMARK INTER + INTRA:         -21.254
REMARK INTER:                 -15.116
REMARK INTRA:                  -6.138
REMARK UNBOUND:                -6.298
REMARK SMILES CC(=O)N[C@@H]1[C@@H](O)C[C@](OC[C@H]2O[C@@H](O[C@H]3[C@H](O)[C@@H](O)[C@H](OCCN=[N+]=[N-])O[C@@H]3CO)[C@H](O)[C@@H](O)[C@H]2O)(C(=O)O)O[C@H]1C(O)[C@H](O)CNC(=O)OCc1cn(-c2c(C)cc(C)cc2C)nn1
REMARK SMILES IDX 9 1 8 2 6 3 5 4 42 5 41 6 10 7 11 8 12 9 14 10 13 11 32 12
REMARK SMILES IDX 34 13 36 14 15 15 16 16 29 17 28 18 21 19 17 20 19 21 30 22
REMARK SMILES IDX 31 23 22 25 23 26 24 27 25 28 26 29 27 30 18 31 20 33 33 35
REMARK SMILES IDX 35 37 37 39 38 41 39 42 40 43 7 45 43 47 44 48 45 50 46 51
REMARK SMILES IDX 47 53 48 54 49 55 50 57 51 58 52 59 53 60 54 61 66 62 55 63
REMARK SMILES IDX 65 64 56 65 57 66 63 67 58 68 59 69 62 70 64 71 60 72 61 73
REMARK SMILES IDX 4 74 2 75 1 77 3 78
REMARK H PARENT 31 24 18 32 20 34 33 36 35 38 37 40 40 44 7 46 44 49 46 52
REMARK H PARENT 48 56 4 76
REMARK Flexibility Score: inf
ROOT
ATOM      1  C   UNL     1      22.814  25.074  23.177  1.00  0.00     0.272 C 
ATOM      2  C   UNL     1      24.104  24.911  22.474  1.00  0.00     0.113 C 
ATOM      3  C   UNL     1      25.261  25.729  22.992  1.00  0.00     0.145 C 
ATOM      4  C   UNL     1      24.768  27.049  23.496  1.00  0.00     0.142 C 
ATOM      5  C   UNL     1      23.445  27.298  22.760  1.00  0.00     0.178 C 
ATOM      6  O   UNL     1      22.497  26.428  23.362  1.00  0.00    -0.332 OA
ENDROOT
BRANCH   1   7
ATOM      7  O   UNL     1      22.634  24.394  24.343  1.00  0.00    -0.338 OA
BRANCH   7   8
ATOM      8  C   UNL     1      21.975  24.959  25.372  1.00  0.00     0.199 C 
BRANCH   8   9
ATOM      9  C   UNL     1      22.970  25.859  26.120  1.00  0.00     0.179 C 
ATOM     10  C   UNL     1      22.937  27.234  27.966  1.00  0.00     0.282 C 
ATOM     11  O   UNL     1      22.306  26.871  26.785  1.00  0.00    -0.341 OA
ATOM     12  C   UNL     1      22.748  26.077  28.912  1.00  0.00     0.202 C 
ATOM     13  C   UNL     1      23.558  24.926  28.336  1.00  0.00     0.179 C 
ATOM     14  C   UNL     1      23.972  25.109  26.918  1.00  0.00     0.177 C 
BRANCH  10  15
ATOM     15  O   UNL     1      22.586  28.444  28.430  1.00  0.00    -0.341 OA
BRANCH  15  16
ATOM     16  C   UNL     1      21.376  28.950  28.119  1.00  0.00     0.184 C 
ATOM     17  C   UNL     1      21.553  30.241  27.339  1.00  0.00     0.178 C 
ATOM     18  O   UNL     1      21.332  31.357  28.091  1.00  0.00    -0.341 OA
ATOM     19  C   UNL     1      20.042  31.479  28.582  1.00  0.00     0.281 C 
ATOM     20  C   UNL     1      20.618  29.248  29.416  1.00  0.00     0.180 C 
ATOM     21  C   UNL     1      19.486  30.223  29.146  1.00  0.00     0.202 C 
BRANCH  17  22
ATOM     22  C   UNL     1      20.746  30.215  26.052  1.00  0.00     0.191 C 
BRANCH  22  23
ATOM     23  O   UNL     1      20.371  28.912  25.735  1.00  0.00    -0.394 OA
ATOM     24  H   UNL     1      20.446  28.702  24.776  1.00  0.00     0.210 HD
ENDBRANCH  22  23
ENDBRANCH  17  22
BRANCH  19  25
ATOM     25  O   UNL     1      19.172  31.971  27.599  1.00  0.00    -0.350 OA
BRANCH  25  26
ATOM     26  C   UNL     1      17.890  32.169  28.045  1.00  0.00     0.169 C 
BRANCH  26  27
ATOM     27  C   UNL     1      16.812  31.862  27.050  1.00  0.00     0.119 C 
BRANCH  27  28
ATOM     28  N   UNL     1      15.908  30.828  27.521  1.00  0.00    -0.092 NA
ATOM     29  N   UNL     1      15.848  30.535  28.731  1.00  0.00     0.001 N 
ATOM     30  N   UNL     1      15.892  30.438  29.963  1.00  0.00    -0.003 NA
ENDBRANCH  27  28
ENDBRANCH  26  27
ENDBRANCH  25  26
ENDBRANCH  19  25
BRANCH  20  31
ATOM     31  O   UNL     1      20.082  28.126  29.998  1.00  0.00    -0.387 OA
ATOM     32  H   UNL     1      19.950  27.360  29.383  1.00  0.00     0.211 HD
ENDBRANCH  20  31
BRANCH  21  33
ATOM     33  O   UNL     1      18.889  30.499  30.374  1.00  0.00    -0.385 OA
ATOM     34  H   UNL     1      18.881  31.480  30.556  1.00  0.00     0.211 HD
ENDBRANCH  21  33
ENDBRANCH  15  16
ENDBRANCH  10  15
BRANCH  12  35
ATOM     35  O   UNL     1      23.250  26.337  30.184  1.00  0.00    -0.385 OA
ATOM     36  H   UNL     1      23.432  25.446  30.611  1.00  0.00     0.211 HD
ENDBRANCH  12  35
BRANCH  13  37
ATOM     37  O   UNL     1      22.875  23.717  28.454  1.00  0.00    -0.387 OA
ATOM     38  H   UNL     1      22.422  23.440  27.616  1.00  0.00     0.211 HD
ENDBRANCH  13  37
BRANCH  14  39
ATOM     39  O   UNL     1      24.154  23.819  26.363  1.00  0.00    -0.387 OA
ATOM     40  H   UNL     1      23.887  23.123  27.006  1.00  0.00     0.211 HD
ENDBRANCH  14  39
ENDBRANCH   8   9
ENDBRANCH   7   8
ENDBRANCH   1   7
BRANCH   1  41
ATOM     41  C   UNL     1      21.748  24.626  22.201  1.00  0.00     0.364 C 
ATOM     42  O   UNL     1      22.057  23.838  21.301  1.00  0.00    -0.246 OA
BRANCH  41  43
ATOM     43  O   UNL     1      20.446  25.078  22.296  1.00  0.00    -0.477 OA
ATOM     44  H   UNL     1      19.983  25.320  23.154  1.00  0.00     0.296 HD
ENDBRANCH  41  43
ENDBRANCH   1  41
BRANCH   3  45
ATOM     45  O   UNL     1      25.906  24.960  23.960  1.00  0.00    -0.391 OA
ATOM     46  H   UNL     1      26.326  24.161  23.504  1.00  0.00     0.211 HD
ENDBRANCH   3  45
BRANCH   5  47
ATOM     47  C   UNL     1      22.873  28.647  22.944  1.00  0.00     0.176 C 
BRANCH  47  48
ATOM     48  O   UNL     1      21.469  28.455  23.216  1.00  0.00    -0.388 OA
ATOM     49  H   UNL     1      21.153  27.675  22.691  1.00  0.00     0.211 HD
ENDBRANCH  47  48
BRANCH  47  50
ATOM     50  C   UNL     1      22.828  29.562  21.737  1.00  0.00     0.165 C 
BRANCH  50  51
ATOM     51  O   UNL     1      23.403  30.779  22.272  1.00  0.00    -0.388 OA
ATOM     52  H   UNL     1      23.571  31.399  21.536  1.00  0.00     0.211 HD
ENDBRANCH  50  51
BRANCH  50  53
ATOM     53  C   UNL     1      21.417  29.984  21.407  1.00  0.00     0.154 C 
BRANCH  53  54
ATOM     54  N   UNL     1      20.949  29.653  20.096  1.00  0.00    -0.319 N 
ATOM     55  C   UNL     1      20.312  28.395  19.871  1.00  0.00     0.407 C 
ATOM     56  H   UNL     1      21.073  30.327  19.287  1.00  0.00     0.167 HD
ATOM     57  O   UNL     1      20.208  27.630  20.869  1.00  0.00    -0.225 OA
BRANCH  55  58
ATOM     58  O   UNL     1      19.823  28.016  18.627  1.00  0.00    -0.443 OA
BRANCH  58  59
ATOM     59  C   UNL     1      18.549  28.404  18.170  1.00  0.00     0.294 C 
BRANCH  59  60
ATOM     60  C   UNL     1      17.769  29.191  19.163  1.00  0.00     0.121 A 
ATOM     61  C   UNL     1      16.912  28.731  20.137  1.00  0.00     0.144 A 
ATOM     62  N   UNL     1      17.760  30.550  19.294  1.00  0.00    -0.131 NA
ATOM     63  N   UNL     1      16.416  29.779  20.814  1.00  0.00    -0.220 N 
ATOM     64  N   UNL     1      16.961  30.863  20.264  1.00  0.00    -0.062 NA
BRANCH  63  65
ATOM     65  C   UNL     1      15.480  29.782  21.909  1.00  0.00     0.072 A 
ATOM     66  C   UNL     1      14.155  29.612  21.593  1.00  0.00    -0.025 A 
ATOM     67  C   UNL     1      15.918  29.950  23.176  1.00  0.00    -0.025 A 
ATOM     68  C   UNL     1      13.708  29.428  20.169  1.00  0.00     0.047 C 
ATOM     69  C   UNL     1      13.242  29.615  22.628  1.00  0.00     0.009 A 
ATOM     70  C   UNL     1      14.955  29.947  24.192  1.00  0.00     0.009 A 
ATOM     71  C   UNL     1      17.342  30.135  23.556  1.00  0.00     0.047 C 
ATOM     72  C   UNL     1      13.616  29.781  23.937  1.00  0.00    -0.050 A 
ATOM     73  C   UNL     1      12.585  29.772  25.004  1.00  0.00     0.044 C 
ENDBRANCH  63  65
ENDBRANCH  59  60
ENDBRANCH  58  59
ENDBRANCH  55  58
ENDBRANCH  53  54
ENDBRANCH  50  53
ENDBRANCH  47  50
ENDBRANCH   5  47
BRANCH   4  74
ATOM     74  N   UNL     1      25.663  28.122  23.433  1.00  0.00    -0.348 N 
ATOM     75  C   UNL     1      26.309  28.674  24.576  1.00  0.00     0.217 C 
ATOM     76  H   UNL     1      25.904  28.544  22.518  1.00  0.00     0.163 HD
ATOM     77  C   UNL     1      27.263  29.820  24.473  1.00  0.00     0.114 C 
ATOM     78  O   UNL     1      26.055  28.165  25.680  1.00  0.00    -0.275 OA
ENDBRANCH   4  74
TORSDOF 30
