REMARK VINA RESULT:    -5.843     17.238     22.439
REMARK INTER + INTRA:         -19.804
REMARK INTER:                 -14.895
REMARK INTRA:                  -4.909
REMARK UNBOUND:                -4.909
REMARK SMILES CC(=O)N[C@@H]1[C@@H](O)C[C@](OC[C@H]2O[C@@H](O[C@H]3[C@H](O)[C@@H](O)[C@H](OCCN=[N+]=[N-])O[C@@H]3CO)[C@H](O)[C@@H](O)[C@H]2O)(C(=O)O)O[C@H]1C(O)[C@H](O)CNC(=O)OCc1cn(CCO)nn1
REMARK SMILES IDX 9 1 8 2 6 3 5 4 42 5 41 6 10 7 11 8 12 9 14 10 13 11 32 12
REMARK SMILES IDX 34 13 36 14 15 15 16 16 29 17 28 18 21 19 17 20 19 21 30 22
REMARK SMILES IDX 31 23 22 25 23 26 24 27 25 28 26 29 27 30 18 31 20 33 33 35
REMARK SMILES IDX 35 37 37 39 38 41 39 42 40 43 7 45 43 47 44 48 45 50 46 51
REMARK SMILES IDX 47 53 48 54 49 55 50 57 51 58 52 59 53 60 54 61 60 62 55 63
REMARK SMILES IDX 59 64 56 65 57 66 58 67 4 69 2 70 1 72 3 73
REMARK H PARENT 31 24 18 32 20 34 33 36 35 38 37 40 40 44 7 46 44 49 46 52
REMARK H PARENT 48 56 58 68 4 71
REMARK Flexibility Score: inf
ROOT
ATOM      1  C   UNL     1      24.200  25.733  18.216  1.00  0.00     0.272 C 
ATOM      2  C   UNL     1      25.409  26.261  17.517  1.00  0.00     0.113 C 
ATOM      3  C   UNL     1      25.036  26.775  16.154  1.00  0.00     0.145 C 
ATOM      4  C   UNL     1      23.948  27.825  16.385  1.00  0.00     0.142 C 
ATOM      5  C   UNL     1      22.746  27.066  16.935  1.00  0.00     0.178 C 
ATOM      6  O   UNL     1      23.185  26.643  18.211  1.00  0.00    -0.332 OA
ENDROOT
BRANCH   1   7
ATOM      7  O   UNL     1      24.487  25.422  19.565  1.00  0.00    -0.338 OA
BRANCH   7   8
ATOM      8  C   UNL     1      24.024  26.302  20.486  1.00  0.00     0.199 C 
BRANCH   8   9
ATOM      9  C   UNL     1      23.682  25.594  21.806  1.00  0.00     0.179 C 
ATOM     10  C   UNL     1      23.233  25.986  24.049  1.00  0.00     0.282 C 
ATOM     11  O   UNL     1      23.706  26.502  22.843  1.00  0.00    -0.341 OA
ATOM     12  C   UNL     1      21.785  25.580  23.967  1.00  0.00     0.202 C 
ATOM     13  C   UNL     1      21.304  25.328  22.560  1.00  0.00     0.179 C 
ATOM     14  C   UNL     1      22.433  24.785  21.729  1.00  0.00     0.177 C 
BRANCH  10  15
ATOM     15  O   UNL     1      23.368  26.962  24.960  1.00  0.00    -0.341 OA
BRANCH  15  16
ATOM     16  C   UNL     1      23.855  26.715  26.186  1.00  0.00     0.184 C 
ATOM     17  C   UNL     1      23.148  27.110  27.405  1.00  0.00     0.178 C 
ATOM     18  O   UNL     1      24.044  27.486  28.390  1.00  0.00    -0.341 OA
ATOM     19  C   UNL     1      25.171  26.744  28.546  1.00  0.00     0.281 C 
ATOM     20  C   UNL     1      25.226  27.439  26.220  1.00  0.00     0.180 C 
ATOM     21  C   UNL     1      26.022  26.691  27.268  1.00  0.00     0.202 C 
BRANCH  17  22
ATOM     22  C   UNL     1      22.272  26.005  27.987  1.00  0.00     0.191 C 
BRANCH  22  23
ATOM     23  O   UNL     1      22.584  24.756  27.446  1.00  0.00    -0.394 OA
ATOM     24  H   UNL     1      23.417  24.448  27.850  1.00  0.00     0.210 HD
ENDBRANCH  22  23
ENDBRANCH  17  22
BRANCH  19  25
ATOM     25  O   UNL     1      25.030  25.507  29.107  1.00  0.00    -0.350 OA
BRANCH  25  26
ATOM     26  C   UNL     1      25.058  25.432  30.467  1.00  0.00     0.169 C 
BRANCH  26  27
ATOM     27  C   UNL     1      26.299  26.046  31.021  1.00  0.00     0.119 C 
BRANCH  27  28
ATOM     28  N   UNL     1      27.385  25.052  30.988  1.00  0.00    -0.092 NA
ATOM     29  N   UNL     1      28.305  25.313  30.192  1.00  0.00     0.001 N 
ATOM     30  N   UNL     1      29.453  25.701  29.915  1.00  0.00    -0.003 NA
ENDBRANCH  27  28
ENDBRANCH  26  27
ENDBRANCH  25  26
ENDBRANCH  19  25
BRANCH  20  31
ATOM     31  O   UNL     1      25.814  27.433  24.983  1.00  0.00    -0.387 OA
ATOM     32  H   UNL     1      26.804  27.397  25.027  1.00  0.00     0.211 HD
ENDBRANCH  20  31
BRANCH  21  33
ATOM     33  O   UNL     1      27.271  27.230  27.422  1.00  0.00    -0.385 OA
ATOM     34  H   UNL     1      27.527  27.828  26.677  1.00  0.00     0.211 HD
ENDBRANCH  21  33
ENDBRANCH  15  16
ENDBRANCH  10  15
BRANCH  12  35
ATOM     35  O   UNL     1      21.648  24.355  24.639  1.00  0.00    -0.385 OA
ATOM     36  H   UNL     1      22.415  23.760  24.520  1.00  0.00     0.211 HD
ENDBRANCH  12  35
BRANCH  13  37
ATOM     37  O   UNL     1      20.744  26.471  22.054  1.00  0.00    -0.387 OA
ATOM     38  H   UNL     1      20.728  27.216  22.734  1.00  0.00     0.211 HD
ENDBRANCH  13  37
BRANCH  14  39
ATOM     39  O   UNL     1      22.000  24.807  20.384  1.00  0.00    -0.387 OA
ATOM     40  H   UNL     1      21.585  23.944  20.134  1.00  0.00     0.211 HD
ENDBRANCH  14  39
ENDBRANCH   8   9
ENDBRANCH   7   8
ENDBRANCH   1   7
BRANCH   1  41
ATOM     41  C   UNL     1      23.836  24.430  17.618  1.00  0.00     0.364 C 
ATOM     42  O   UNL     1      24.628  23.752  16.937  1.00  0.00    -0.246 OA
BRANCH  41  43
ATOM     43  O   UNL     1      22.570  23.900  17.797  1.00  0.00    -0.477 OA
ATOM     44  H   UNL     1      21.711  24.386  17.487  1.00  0.00     0.296 HD
ENDBRANCH  41  43
ENDBRANCH   1  41
BRANCH   3  45
ATOM     45  O   UNL     1      26.122  27.461  15.567  1.00  0.00    -0.391 OA
ATOM     46  H   UNL     1      25.841  28.396  15.372  1.00  0.00     0.211 HD
ENDBRANCH   3  45
BRANCH   5  47
ATOM     47  C   UNL     1      21.649  28.040  17.223  1.00  0.00     0.176 C 
BRANCH  47  48
ATOM     48  O   UNL     1      20.434  27.631  16.671  1.00  0.00    -0.388 OA
ATOM     49  H   UNL     1      19.693  28.253  16.898  1.00  0.00     0.211 HD
ENDBRANCH  47  48
BRANCH  47  50
ATOM     50  C   UNL     1      21.451  28.502  18.614  1.00  0.00     0.165 C 
BRANCH  50  51
ATOM     51  O   UNL     1      20.800  27.348  19.232  1.00  0.00    -0.388 OA
ATOM     52  H   UNL     1      19.856  27.580  19.391  1.00  0.00     0.211 HD
ENDBRANCH  50  51
BRANCH  50  53
ATOM     53  C   UNL     1      20.372  29.558  18.776  1.00  0.00     0.154 C 
BRANCH  53  54
ATOM     54  N   UNL     1      19.058  29.021  18.933  1.00  0.00    -0.319 N 
ATOM     55  C   UNL     1      18.507  28.812  20.223  1.00  0.00     0.407 C 
ATOM     56  H   UNL     1      18.463  28.754  18.099  1.00  0.00     0.167 HD
ATOM     57  O   UNL     1      19.255  29.122  21.211  1.00  0.00    -0.225 OA
BRANCH  55  58
ATOM     58  O   UNL     1      17.262  28.317  20.500  1.00  0.00    -0.443 OA
BRANCH  58  59
ATOM     59  C   UNL     1      16.179  29.217  20.645  1.00  0.00     0.294 C 
BRANCH  59  60
ATOM     60  C   UNL     1      15.755  29.382  22.037  1.00  0.00     0.120 A 
ATOM     61  C   UNL     1      14.458  29.528  22.463  1.00  0.00     0.138 A 
ATOM     62  N   UNL     1      16.505  29.427  23.150  1.00  0.00    -0.132 NA
ATOM     63  N   UNL     1      14.444  29.656  23.805  1.00  0.00    -0.250 N 
ATOM     64  N   UNL     1      15.693  29.592  24.202  1.00  0.00    -0.067 NA
BRANCH  63  65
ATOM     65  C   UNL     1      13.243  29.832  24.634  1.00  0.00     0.174 C 
BRANCH  65  66
ATOM     66  C   UNL     1      12.032  29.595  23.766  1.00  0.00     0.179 C 
BRANCH  66  67
ATOM     67  O   UNL     1      11.151  28.773  24.488  1.00  0.00    -0.394 OA
ATOM     68  H   UNL     1      11.350  28.735  25.439  1.00  0.00     0.210 HD
ENDBRANCH  66  67
ENDBRANCH  65  66
ENDBRANCH  63  65
ENDBRANCH  59  60
ENDBRANCH  58  59
ENDBRANCH  55  58
ENDBRANCH  53  54
ENDBRANCH  50  53
ENDBRANCH  47  50
ENDBRANCH   5  47
BRANCH   4  69
ATOM     69  N   UNL     1      23.720  28.655  15.270  1.00  0.00    -0.348 N 
ATOM     70  C   UNL     1      23.204  28.235  14.022  1.00  0.00     0.217 C 
ATOM     71  H   UNL     1      23.925  29.685  15.344  1.00  0.00     0.163 HD
ATOM     72  C   UNL     1      23.020  29.219  12.936  1.00  0.00     0.114 C 
ATOM     73  O   UNL     1      22.903  27.048  13.824  1.00  0.00    -0.275 OA
ENDBRANCH   4  69
TORSDOF 32
