REMARK VINA RESULT:    -5.186     18.319     23.537
REMARK INTER + INTRA:         -22.456
REMARK INTER:                 -13.978
REMARK INTRA:                  -8.477
REMARK UNBOUND:                -8.780
REMARK SMILES COc1ccc(Cn2cc(COC(=O)NC[C@@H](O)C(O)[C@@H]3O[C@@](OC[C@H]4O[C@@H](O[C@H]5[C@H](O)[C@@H](O)[C@H](OCCN=[N+]=[N-])O[C@@H]5CO)[C@H](O)[C@@H](O)[C@H]4O)(C(=O)O)C[C@H](O)[C@H]3NC(C)=O)nn2)cc1OC
REMARK SMILES IDX 23 1 55 2 56 3 58 4 21 5 22 6 24 7 25 8 26 9 28 10 27 11
REMARK SMILES IDX 46 12 48 13 50 14 29 15 30 16 43 17 42 18 35 19 31 20 33 21
REMARK SMILES IDX 44 22 45 23 36 25 37 26 38 27 39 28 40 29 41 30 32 31 34 33
REMARK SMILES IDX 47 35 49 37 51 39 52 41 53 42 54 43 57 45 19 47 20 48 17 50
REMARK SMILES IDX 18 51 16 53 15 54 13 55 14 57 12 58 11 59 10 60 9 61 63 62
REMARK SMILES IDX 8 63 64 64 7 65 6 66 65 67 5 68 66 69 4 70 3 71 67 72 68 73
REMARK SMILES IDX 2 74 1 75 59 76 60 77 61 79 62 80
REMARK H PARENT 45 24 32 32 34 34 47 36 49 38 51 40 54 44 57 46 20 49 18 52
REMARK H PARENT 15 56 59 78
REMARK Flexibility Score: inf
ROOT
ATOM      1  C   UNL     1       6.193  27.039  35.203  1.00  0.00     0.272 C 
ATOM      2  C   UNL     1       5.474  25.854  35.823  1.00  0.00     0.113 C 
ATOM      3  C   UNL     1       5.618  24.521  35.184  1.00  0.00     0.145 C 
ATOM      4  C   UNL     1       6.036  24.693  33.727  1.00  0.00     0.142 C 
ATOM      5  C   UNL     1       5.427  25.966  33.293  1.00  0.00     0.178 C 
ATOM      6  O   UNL     1       6.164  27.022  33.794  1.00  0.00    -0.332 OA
ENDROOT
BRANCH   1   7
ATOM      7  O   UNL     1       7.514  26.889  35.605  1.00  0.00    -0.338 OA
BRANCH   7   8
ATOM      8  C   UNL     1       8.200  28.015  35.941  1.00  0.00     0.199 C 
BRANCH   8   9
ATOM      9  C   UNL     1       9.600  27.981  35.392  1.00  0.00     0.179 C 
ATOM     10  C   UNL     1      11.405  26.697  34.883  1.00  0.00     0.282 C 
ATOM     11  O   UNL     1       9.961  26.678  35.005  1.00  0.00    -0.341 OA
ATOM     12  C   UNL     1      11.784  27.434  33.684  1.00  0.00     0.202 C 
ATOM     13  C   UNL     1      11.022  28.740  33.532  1.00  0.00     0.179 C 
ATOM     14  C   UNL     1       9.642  28.750  34.063  1.00  0.00     0.177 C 
BRANCH  10  15
ATOM     15  O   UNL     1      11.807  25.378  34.921  1.00  0.00    -0.341 OA
BRANCH  15  16
ATOM     16  C   UNL     1      11.271  24.740  36.040  1.00  0.00     0.184 C 
ATOM     17  C   UNL     1      12.293  24.232  36.978  1.00  0.00     0.178 C 
ATOM     18  O   UNL     1      11.653  23.878  38.162  1.00  0.00    -0.341 OA
ATOM     19  C   UNL     1      10.444  23.311  37.972  1.00  0.00     0.281 C 
ATOM     20  C   UNL     1      10.418  23.576  35.523  1.00  0.00     0.180 C 
ATOM     21  C   UNL     1      10.260  22.567  36.668  1.00  0.00     0.202 C 
BRANCH  17  22
ATOM     22  C   UNL     1      13.414  25.214  37.225  1.00  0.00     0.191 C 
BRANCH  22  23
ATOM     23  O   UNL     1      13.270  25.654  38.541  1.00  0.00    -0.394 OA
ATOM     24  H   UNL     1      12.353  25.408  38.865  1.00  0.00     0.210 HD
ENDBRANCH  22  23
ENDBRANCH  17  22
BRANCH  19  25
ATOM     25  O   UNL     1       9.457  24.361  37.955  1.00  0.00    -0.350 OA
BRANCH  25  26
ATOM     26  C   UNL     1       8.553  24.080  39.000  1.00  0.00     0.169 C 
BRANCH  26  27
ATOM     27  C   UNL     1       7.219  24.782  38.828  1.00  0.00     0.119 C 
BRANCH  27  28
ATOM     28  N   UNL     1       6.209  24.040  39.531  1.00  0.00    -0.092 NA
ATOM     29  N   UNL     1       5.501  23.197  38.972  1.00  0.00     0.001 N 
ATOM     30  N   UNL     1       4.846  22.567  38.118  1.00  0.00    -0.003 NA
ENDBRANCH  27  28
ENDBRANCH  26  27
ENDBRANCH  25  26
ENDBRANCH  19  25
BRANCH  20  31
ATOM     31  O   UNL     1       9.157  24.080  35.247  1.00  0.00    -0.387 OA
ATOM     32  H   UNL     1       8.529  23.303  35.144  1.00  0.00     0.211 HD
ENDBRANCH  20  31
BRANCH  21  33
ATOM     33  O   UNL     1      11.239  21.612  36.536  1.00  0.00    -0.385 OA
ATOM     34  H   UNL     1      10.960  20.728  36.902  1.00  0.00     0.211 HD
ENDBRANCH  21  33
ENDBRANCH  15  16
ENDBRANCH  10  15
BRANCH  12  35
ATOM     35  O   UNL     1      13.127  27.777  33.693  1.00  0.00    -0.385 OA
ATOM     36  H   UNL     1      13.293  28.630  34.190  1.00  0.00     0.211 HD
ENDBRANCH  12  35
BRANCH  13  37
ATOM     37  O   UNL     1      11.041  29.081  32.153  1.00  0.00    -0.387 OA
ATOM     38  H   UNL     1      10.166  29.505  31.956  1.00  0.00     0.211 HD
ENDBRANCH  13  37
BRANCH  14  39
ATOM     39  O   UNL     1       8.752  28.061  33.209  1.00  0.00    -0.387 OA
ATOM     40  H   UNL     1       8.706  27.076  33.459  1.00  0.00     0.211 HD
ENDBRANCH  14  39
ENDBRANCH   8   9
ENDBRANCH   7   8
ENDBRANCH   1   7
BRANCH   1  41
ATOM     41  C   UNL     1       5.523  28.280  35.667  1.00  0.00     0.364 C 
ATOM     42  O   UNL     1       5.248  29.198  34.890  1.00  0.00    -0.246 OA
BRANCH  41  43
ATOM     43  O   UNL     1       5.153  28.511  37.019  1.00  0.00    -0.477 OA
ATOM     44  H   UNL     1       4.955  27.649  37.579  1.00  0.00     0.296 HD
ENDBRANCH  41  43
ENDBRANCH   1  41
BRANCH   3  45
ATOM     45  O   UNL     1       6.562  23.749  35.818  1.00  0.00    -0.391 OA
ATOM     46  H   UNL     1       7.478  24.116  35.648  1.00  0.00     0.211 HD
ENDBRANCH   3  45
BRANCH   5  47
ATOM     47  C   UNL     1       5.061  26.015  31.882  1.00  0.00     0.176 C 
BRANCH  47  48
ATOM     48  O   UNL     1       3.745  25.699  31.570  1.00  0.00    -0.388 OA
ATOM     49  H   UNL     1       3.075  26.085  32.145  1.00  0.00     0.211 HD
ENDBRANCH  47  48
BRANCH  47  50
ATOM     50  C   UNL     1       5.009  27.580  31.451  1.00  0.00     0.165 C 
BRANCH  50  51
ATOM     51  O   UNL     1       4.069  28.165  32.206  1.00  0.00    -0.388 OA
ATOM     52  H   UNL     1       3.567  28.888  31.726  1.00  0.00     0.211 HD
ENDBRANCH  50  51
BRANCH  50  53
ATOM     53  C   UNL     1       5.070  27.703  30.014  1.00  0.00     0.154 C 
BRANCH  53  54
ATOM     54  N   UNL     1       3.991  27.429  29.125  1.00  0.00    -0.319 N 
ATOM     55  C   UNL     1       4.221  27.700  27.754  1.00  0.00     0.407 C 
ATOM     56  H   UNL     1       3.071  27.074  29.374  1.00  0.00     0.167 HD
ATOM     57  O   UNL     1       5.339  28.174  27.366  1.00  0.00    -0.225 OA
BRANCH  55  58
ATOM     58  O   UNL     1       3.305  27.492  26.728  1.00  0.00    -0.443 OA
BRANCH  58  59
ATOM     59  C   UNL     1       3.740  26.597  25.647  1.00  0.00     0.294 C 
BRANCH  59  60
ATOM     60  C   UNL     1       3.458  25.246  26.213  1.00  0.00     0.120 A 
ATOM     61  C   UNL     1       2.211  24.839  26.745  1.00  0.00     0.138 A 
ATOM     62  N   UNL     1       4.265  24.194  26.252  1.00  0.00    -0.132 NA
ATOM     63  N   UNL     1       2.367  23.533  27.067  1.00  0.00    -0.248 N 
ATOM     64  N   UNL     1       3.567  23.165  26.779  1.00  0.00    -0.067 NA
BRANCH  63  65
ATOM     65  C   UNL     1       1.278  22.674  27.605  1.00  0.00     0.181 C 
BRANCH  65  66
ATOM     66  C   UNL     1       1.874  22.154  28.914  1.00  0.00    -0.023 A 
ATOM     67  C   UNL     1       2.088  22.976  30.000  1.00  0.00     0.056 A 
ATOM     68  C   UNL     1       2.073  20.815  29.016  1.00  0.00     0.010 A 
ATOM     69  C   UNL     1       2.512  22.317  31.188  1.00  0.00     0.161 A 
ATOM     70  C   UNL     1       2.500  20.173  30.220  1.00  0.00     0.051 A 
ATOM     71  C   UNL     1       2.703  20.999  31.293  1.00  0.00     0.160 A 
BRANCH  69  72
ATOM     72  O   UNL     1       2.753  23.093  32.323  1.00  0.00    -0.493 OA
ATOM     73  C   UNL     1       1.696  23.494  33.202  1.00  0.00     0.278 C 
ENDBRANCH  69  72
BRANCH  71  74
ATOM     74  O   UNL     1       3.101  20.450  32.545  1.00  0.00    -0.493 OA
ATOM     75  C   UNL     1       2.439  19.251  33.000  1.00  0.00     0.278 C 
ENDBRANCH  71  74
ENDBRANCH  65  66
ENDBRANCH  63  65
ENDBRANCH  59  60
ENDBRANCH  58  59
ENDBRANCH  55  58
ENDBRANCH  53  54
ENDBRANCH  50  53
ENDBRANCH  47  50
ENDBRANCH   5  47
BRANCH   4  76
ATOM     76  N   UNL     1       5.615  23.531  32.992  1.00  0.00    -0.348 N 
ATOM     77  C   UNL     1       6.508  22.470  32.808  1.00  0.00     0.217 C 
ATOM     78  H   UNL     1       4.644  23.414  32.589  1.00  0.00     0.163 HD
ATOM     79  C   UNL     1       6.236  21.210  32.051  1.00  0.00     0.114 C 
ATOM     80  O   UNL     1       7.711  22.481  33.295  1.00  0.00    -0.275 OA
ENDBRANCH   4  76
TORSDOF 33
