REMARK VINA RESULT:    -6.443      1.878      2.431
REMARK INTER + INTRA:         -23.415
REMARK INTER:                 -16.245
REMARK INTRA:                  -7.171
REMARK UNBOUND:                -6.425
REMARK SMILES CC(=O)N[C@@H]1[C@@H](O)C[C@](OC[C@H]2O[C@@H](O[C@H]3[C@H](O)[C@@H](O)[C@H](OCCN=[N+]=[N-])O[C@@H]3CO)[C@H](O)[C@@H](O)[C@H]2O)(C(=O)O)O[C@H]1C(O)[C@H](O)CNC(=O)OCc1cn(-c2ccc(S(=O)(=O)Nc3nccs3)cc2)nn1
REMARK SMILES IDX 43 1 42 2 9 3 8 4 41 5 6 6 5 7 10 8 11 9 12 10 14 11 13 12
REMARK SMILES IDX 32 13 34 14 36 15 15 16 16 17 29 18 28 19 21 20 17 21 19 22
REMARK SMILES IDX 30 23 31 24 22 26 23 27 24 28 25 29 26 30 27 31 18 32 20 34
REMARK SMILES IDX 33 36 35 38 37 40 38 42 39 43 40 44 7 46 4 48 2 49 1 51 3 52
REMARK SMILES IDX 44 53 45 55 46 56 47 58 48 59 49 60 50 62 51 63 52 64 53 65
REMARK SMILES IDX 54 66 72 67 55 68 71 69 56 70 57 71 70 72 58 73 69 74 59 75
REMARK SMILES IDX 60 76 61 77 62 78 63 79 64 81 65 82 68 83 66 84 67 85
REMARK H PARENT 31 25 18 33 20 35 33 37 35 39 37 41 40 45 7 47 4 50 44 54
REMARK H PARENT 46 57 48 61 63 80
REMARK Flexibility Score: inf
ROOT
ATOM      1  C   UNL     1      25.917  25.231  21.487  1.00  0.00     0.176 C 
ENDROOT
BRANCH   1   2
ATOM      2  C   UNL     1      24.576  24.673  21.149  1.00  0.00     0.178 C 
ATOM      3  C   UNL     1      23.030  25.029  19.432  1.00  0.00     0.272 C 
ATOM      4  C   UNL     1      22.366  23.904  20.256  1.00  0.00     0.113 C 
ATOM      5  O   UNL     1      24.107  25.532  20.107  1.00  0.00    -0.332 OA
ATOM      6  C   UNL     1      22.235  24.231  21.695  1.00  0.00     0.145 C 
ATOM      7  C   UNL     1      23.536  24.834  22.231  1.00  0.00     0.142 C 
BRANCH   3   8
ATOM      8  O   UNL     1      22.134  26.047  19.222  1.00  0.00    -0.338 OA
BRANCH   8   9
ATOM      9  C   UNL     1      22.648  27.312  19.356  1.00  0.00     0.199 C 
BRANCH   9  10
ATOM     10  C   UNL     1      21.665  28.300  19.940  1.00  0.00     0.179 C 
ATOM     11  C   UNL     1      19.553  28.784  20.476  1.00  0.00     0.282 C 
ATOM     12  O   UNL     1      20.457  27.710  20.296  1.00  0.00    -0.341 OA
ATOM     13  C   UNL     1      19.844  29.357  21.841  1.00  0.00     0.202 C 
ATOM     14  C   UNL     1      21.206  28.860  22.335  1.00  0.00     0.179 C 
ATOM     15  C   UNL     1      22.217  28.935  21.206  1.00  0.00     0.177 C 
BRANCH  11  16
ATOM     16  O   UNL     1      18.258  28.405  20.377  1.00  0.00    -0.341 OA
BRANCH  16  17
ATOM     17  C   UNL     1      17.464  29.173  19.545  1.00  0.00     0.184 C 
ATOM     18  C   UNL     1      16.322  28.512  18.886  1.00  0.00     0.178 C 
ATOM     19  O   UNL     1      16.075  29.189  17.659  1.00  0.00    -0.341 OA
ATOM     20  C   UNL     1      17.026  28.828  16.696  1.00  0.00     0.281 C 
ATOM     21  C   UNL     1      18.311  29.923  18.525  1.00  0.00     0.180 C 
ATOM     22  C   UNL     1      18.417  29.161  17.203  1.00  0.00     0.202 C 
BRANCH  18  23
ATOM     23  C   UNL     1      14.990  28.647  19.624  1.00  0.00     0.191 C 
BRANCH  23  24
ATOM     24  O   UNL     1      15.050  28.367  20.955  1.00  0.00    -0.394 OA
ATOM     25  H   UNL     1      15.852  28.776  21.353  1.00  0.00     0.210 HD
ENDBRANCH  23  24
ENDBRANCH  18  23
BRANCH  20  26
ATOM     26  O   UNL     1      16.748  29.527  15.543  1.00  0.00    -0.350 OA
BRANCH  26  27
ATOM     27  C   UNL     1      16.532  28.765  14.424  1.00  0.00     0.169 C 
BRANCH  27  28
ATOM     28  C   UNL     1      15.287  29.148  13.659  1.00  0.00     0.119 C 
BRANCH  28  29
ATOM     29  N   UNL     1      14.167  28.547  14.335  1.00  0.00    -0.092 NA
ATOM     30  N   UNL     1      13.410  29.254  14.996  1.00  0.00     0.001 N 
ATOM     31  N   UNL     1      12.863  29.770  15.973  1.00  0.00    -0.003 NA
ENDBRANCH  28  29
ENDBRANCH  27  28
ENDBRANCH  26  27
ENDBRANCH  20  26
BRANCH  21  32
ATOM     32  O   UNL     1      17.747  31.162  18.224  1.00  0.00    -0.387 OA
ATOM     33  H   UNL     1      18.353  31.900  18.465  1.00  0.00     0.211 HD
ENDBRANCH  21  32
BRANCH  22  34
ATOM     34  O   UNL     1      19.235  28.045  17.325  1.00  0.00    -0.385 OA
ATOM     35  H   UNL     1      18.966  27.414  16.621  1.00  0.00     0.211 HD
ENDBRANCH  22  34
ENDBRANCH  16  17
ENDBRANCH  11  16
BRANCH  13  36
ATOM     36  O   UNL     1      20.003  30.766  21.805  1.00  0.00    -0.385 OA
ATOM     37  H   UNL     1      20.934  31.022  21.743  1.00  0.00     0.211 HD
ENDBRANCH  13  36
BRANCH  14  38
ATOM     38  O   UNL     1      21.096  27.588  22.878  1.00  0.00    -0.387 OA
ATOM     39  H   UNL     1      20.183  27.214  22.770  1.00  0.00     0.211 HD
ENDBRANCH  14  38
BRANCH  15  40
ATOM     40  O   UNL     1      23.377  28.307  21.632  1.00  0.00    -0.387 OA
ATOM     41  H   UNL     1      23.540  28.357  22.588  1.00  0.00     0.211 HD
ENDBRANCH  15  40
ENDBRANCH   9  10
ENDBRANCH   8   9
ENDBRANCH   3   8
BRANCH   3  42
ATOM     42  C   UNL     1      23.436  24.398  18.175  1.00  0.00     0.364 C 
ATOM     43  O   UNL     1      24.633  24.018  17.964  1.00  0.00    -0.246 OA
BRANCH  42  44
ATOM     44  O   UNL     1      22.555  24.167  17.133  1.00  0.00    -0.477 OA
ATOM     45  H   UNL     1      22.089  24.961  16.675  1.00  0.00     0.296 HD
ENDBRANCH  42  44
ENDBRANCH   3  42
BRANCH   6  46
ATOM     46  O   UNL     1      21.152  25.065  21.974  1.00  0.00    -0.391 OA
ATOM     47  H   UNL     1      20.765  25.395  21.128  1.00  0.00     0.211 HD
ENDBRANCH   6  46
BRANCH   7  48
ATOM     48  N   UNL     1      23.854  24.266  23.492  1.00  0.00    -0.348 N 
ATOM     49  C   UNL     1      23.665  25.021  24.685  1.00  0.00     0.217 C 
ATOM     50  H   UNL     1      24.226  23.302  23.588  1.00  0.00     0.163 HD
ATOM     51  C   UNL     1      23.968  24.507  26.030  1.00  0.00     0.114 C 
ATOM     52  O   UNL     1      23.206  26.211  24.596  1.00  0.00    -0.275 OA
ENDBRANCH   7  48
ENDBRANCH   1   2
BRANCH   1  53
ATOM     53  O   UNL     1      25.815  26.658  21.501  1.00  0.00    -0.388 OA
ATOM     54  H   UNL     1      26.408  27.053  20.836  1.00  0.00     0.211 HD
ENDBRANCH   1  53
BRANCH   1  55
ATOM     55  C   UNL     1      27.057  24.841  20.590  1.00  0.00     0.165 C 
BRANCH  55  56
ATOM     56  O   UNL     1      28.126  24.558  21.507  1.00  0.00    -0.388 OA
ATOM     57  H   UNL     1      28.521  25.417  21.809  1.00  0.00     0.211 HD
ENDBRANCH  55  56
BRANCH  55  58
ATOM     58  C   UNL     1      27.590  26.033  19.804  1.00  0.00     0.154 C 
BRANCH  58  59
ATOM     59  N   UNL     1      26.849  26.086  18.571  1.00  0.00    -0.319 N 
ATOM     60  C   UNL     1      27.409  25.772  17.305  1.00  0.00     0.407 C 
ATOM     61  H   UNL     1      25.815  26.372  18.568  1.00  0.00     0.167 HD
ATOM     62  O   UNL     1      28.588  25.410  17.207  1.00  0.00    -0.225 OA
BRANCH  60  63
ATOM     63  O   UNL     1      26.658  25.862  16.140  1.00  0.00    -0.443 OA
BRANCH  63  64
ATOM     64  C   UNL     1      26.526  24.866  15.163  1.00  0.00     0.294 C 
BRANCH  64  65
ATOM     65  C   UNL     1      25.148  24.607  14.716  1.00  0.00     0.121 A 
ATOM     66  C   UNL     1      24.691  23.452  14.073  1.00  0.00     0.144 A 
ATOM     67  N   UNL     1      24.067  25.377  14.822  1.00  0.00    -0.131 NA
ATOM     68  N   UNL     1      23.362  23.561  13.816  1.00  0.00    -0.220 N 
ATOM     69  N   UNL     1      23.011  24.744  14.284  1.00  0.00    -0.062 NA
BRANCH  68  70
ATOM     70  C   UNL     1      22.558  22.558  13.170  1.00  0.00     0.066 A 
ATOM     71  C   UNL     1      23.060  21.343  12.800  1.00  0.00     0.030 A 
ATOM     72  C   UNL     1      21.232  22.852  12.910  1.00  0.00     0.030 A 
ATOM     73  C   UNL     1      22.242  20.410  12.164  1.00  0.00     0.024 A 
ATOM     74  C   UNL     1      20.386  21.966  12.286  1.00  0.00     0.024 A 
ATOM     75  C   UNL     1      20.930  20.741  11.923  1.00  0.00     0.088 A 
BRANCH  75  76
ATOM     76  S   UNL     1      19.881  19.597  11.123  1.00  0.00     0.263 S 
ATOM     77  O   UNL     1      18.605  19.497  11.935  1.00  0.00    -0.201 OA
ATOM     78  O   UNL     1      20.563  18.259  11.188  1.00  0.00    -0.201 OA
BRANCH  76  79
ATOM     79  N   UNL     1      19.590  20.092   9.520  1.00  0.00    -0.255 N 
ATOM     80  H   UNL     1      19.296  21.071   9.354  1.00  0.00     0.182 HD
BRANCH  79  81
ATOM     81  C   UNL     1      19.749  19.192   8.479  1.00  0.00     0.196 A 
ATOM     82  N   UNL     1      19.192  18.152   7.994  1.00  0.00    -0.228 NA
ATOM     83  S   UNL     1      21.161  19.357   7.284  1.00  0.00    -0.105 S 
ATOM     84  C   UNL     1      19.584  17.491   6.968  1.00  0.00     0.125 A 
ATOM     85  C   UNL     1      20.702  17.895   6.291  1.00  0.00     0.089 A 
ENDBRANCH  79  81
ENDBRANCH  76  79
ENDBRANCH  75  76
ENDBRANCH  68  70
ENDBRANCH  64  65
ENDBRANCH  63  64
ENDBRANCH  60  63
ENDBRANCH  58  59
ENDBRANCH  55  58
ENDBRANCH   1  55
TORSDOF 33
