REMARK VINA RESULT:    -5.350     14.822     19.938
REMARK INTER + INTRA:         -22.836
REMARK INTER:                 -16.093
REMARK INTRA:                  -6.742
REMARK UNBOUND:                -8.417
REMARK SMILES CC(=O)N[C@@H]1[C@@H](O)C[C@](OC[C@H]2O[C@@H](O[C@H]3[C@H](O)[C@@H](O)[C@H](OCCN=[N+]=[N-])O[C@@H]3CO)[C@H](O)[C@@H](O)[C@H]2O)(C(=O)O)O[C@H]1C(O)[C@H](O)CNC(=O)OCc1cn(CCNC(=O)NCc2ccco2)nn1
REMARK SMILES IDX 43 1 42 2 9 3 8 4 41 5 6 6 5 7 10 8 11 9 12 10 14 11 13 12
REMARK SMILES IDX 32 13 34 14 36 15 15 16 16 17 29 18 28 19 21 20 17 21 19 22
REMARK SMILES IDX 30 23 31 24 22 26 23 27 24 28 25 29 26 30 27 31 18 32 20 34
REMARK SMILES IDX 33 36 35 38 37 40 38 42 39 43 40 44 7 46 4 48 2 49 1 51 3 52
REMARK SMILES IDX 44 53 45 55 46 56 47 58 48 59 49 60 50 62 51 63 52 64 53 65
REMARK SMILES IDX 54 66 69 67 55 68 68 69 56 70 57 71 58 72 59 73 60 75 61 76
REMARK SMILES IDX 62 78 63 79 64 80 67 81 65 82 66 83
REMARK H PARENT 31 25 18 33 20 35 33 37 35 39 37 41 40 45 7 47 4 50 44 54
REMARK H PARENT 46 57 48 61 58 74 61 77
REMARK Flexibility Score: inf
ROOT
ATOM      1  C   UNL     1       3.150  23.928  32.202  1.00  0.00     0.176 C 
ENDROOT
BRANCH   1   2
ATOM      2  C   UNL     1       3.705  22.556  31.985  1.00  0.00     0.178 C 
ATOM      3  C   UNL     1       1.862  21.073  31.741  1.00  0.00     0.272 C 
ATOM      4  C   UNL     1       1.854  21.184  33.300  1.00  0.00     0.113 C 
ATOM      5  O   UNL     1       2.911  21.749  31.229  1.00  0.00    -0.332 OA
ATOM      6  C   UNL     1       3.206  21.094  33.886  1.00  0.00     0.145 C 
ATOM      7  C   UNL     1       4.279  21.889  33.181  1.00  0.00     0.142 C 
BRANCH   3   8
ATOM      8  O   UNL     1       0.704  21.723  31.371  1.00  0.00    -0.338 OA
BRANCH   8   9
ATOM      9  C   UNL     1       0.088  21.437  30.227  1.00  0.00     0.199 C 
BRANCH   9  10
ATOM     10  C   UNL     1       0.246  22.105  28.951  1.00  0.00     0.179 C 
ATOM     11  C   UNL     1       0.962  23.907  27.725  1.00  0.00     0.282 C 
ATOM     12  O   UNL     1       1.088  23.204  28.923  1.00  0.00    -0.341 OA
ATOM     13  C   UNL     1       0.410  23.126  26.590  1.00  0.00     0.202 C 
ATOM     14  C   UNL     1       0.716  21.657  26.591  1.00  0.00     0.179 C 
ATOM     15  C   UNL     1       0.892  21.103  27.974  1.00  0.00     0.177 C 
BRANCH  11  16
ATOM     16  O   UNL     1       2.152  24.502  27.339  1.00  0.00    -0.341 OA
BRANCH  16  17
ATOM     17  C   UNL     1       2.140  25.901  27.511  1.00  0.00     0.184 C 
ATOM     18  C   UNL     1       2.626  26.512  26.229  1.00  0.00     0.178 C 
ATOM     19  O   UNL     1       3.351  27.682  26.442  1.00  0.00    -0.341 OA
ATOM     20  C   UNL     1       4.520  27.308  27.093  1.00  0.00     0.281 C 
ATOM     21  C   UNL     1       2.954  26.216  28.721  1.00  0.00     0.180 C 
ATOM     22  C   UNL     1       4.211  26.972  28.513  1.00  0.00     0.202 C 
BRANCH  18  23
ATOM     23  C   UNL     1       1.404  26.916  25.405  1.00  0.00     0.191 C 
BRANCH  23  24
ATOM     24  O   UNL     1       1.044  25.794  24.627  1.00  0.00    -0.394 OA
ATOM     25  H   UNL     1       0.486  25.235  25.242  1.00  0.00     0.210 HD
ENDBRANCH  23  24
ENDBRANCH  18  23
BRANCH  20  26
ATOM     26  O   UNL     1       5.342  28.439  27.097  1.00  0.00    -0.350 OA
BRANCH  26  27
ATOM     27  C   UNL     1       6.554  28.192  26.452  1.00  0.00     0.169 C 
BRANCH  27  28
ATOM     28  C   UNL     1       6.477  28.906  25.100  1.00  0.00     0.119 C 
BRANCH  28  29
ATOM     29  N   UNL     1       7.657  28.505  24.355  1.00  0.00    -0.092 NA
ATOM     30  N   UNL     1       8.198  27.408  24.560  1.00  0.00     0.001 N 
ATOM     31  N   UNL     1       8.523  26.209  24.561  1.00  0.00    -0.003 NA
ENDBRANCH  28  29
ENDBRANCH  27  28
ENDBRANCH  26  27
ENDBRANCH  20  26
BRANCH  21  32
ATOM     32  O   UNL     1       2.116  26.912  29.616  1.00  0.00    -0.387 OA
ATOM     33  H   UNL     1       2.178  27.878  29.506  1.00  0.00     0.211 HD
ENDBRANCH  21  32
BRANCH  22  34
ATOM     34  O   UNL     1       5.288  26.168  28.967  1.00  0.00    -0.385 OA
ATOM     35  H   UNL     1       6.098  26.761  28.905  1.00  0.00     0.211 HD
ENDBRANCH  22  34
ENDBRANCH  16  17
ENDBRANCH  11  16
BRANCH  13  36
ATOM     36  O   UNL     1      -0.950  23.380  26.364  1.00  0.00    -0.385 OA
ATOM     37  H   UNL     1      -1.339  23.951  27.064  1.00  0.00     0.211 HD
ENDBRANCH  13  36
BRANCH  14  38
ATOM     38  O   UNL     1       1.826  21.354  25.792  1.00  0.00    -0.387 OA
ATOM     39  H   UNL     1       2.501  20.972  26.420  1.00  0.00     0.211 HD
ENDBRANCH  14  38
BRANCH  15  40
ATOM     40  O   UNL     1       2.199  20.848  28.313  1.00  0.00    -0.387 OA
ATOM     41  H   UNL     1       2.249  19.946  28.680  1.00  0.00     0.211 HD
ENDBRANCH  15  40
ENDBRANCH   9  10
ENDBRANCH   8   9
ENDBRANCH   3   8
BRANCH   3  42
ATOM     42  C   UNL     1       1.778  19.634  31.504  1.00  0.00     0.364 C 
ATOM     43  O   UNL     1       2.565  19.055  30.742  1.00  0.00    -0.246 OA
BRANCH  42  44
ATOM     44  O   UNL     1       0.821  18.810  32.106  1.00  0.00    -0.477 OA
ATOM     45  H   UNL     1       0.850  17.806  31.926  1.00  0.00     0.296 HD
ENDBRANCH  42  44
ENDBRANCH   3  42
BRANCH   6  46
ATOM     46  O   UNL     1       3.120  21.540  35.218  1.00  0.00    -0.391 OA
ATOM     47  H   UNL     1       3.940  22.050  35.441  1.00  0.00     0.211 HD
ENDBRANCH   6  46
BRANCH   7  48
ATOM     48  N   UNL     1       5.368  20.981  32.821  1.00  0.00    -0.348 N 
ATOM     49  C   UNL     1       6.701  21.413  32.802  1.00  0.00     0.217 C 
ATOM     50  H   UNL     1       5.124  19.998  32.578  1.00  0.00     0.163 HD
ATOM     51  C   UNL     1       7.847  20.526  32.439  1.00  0.00     0.114 C 
ATOM     52  O   UNL     1       6.926  22.627  33.110  1.00  0.00    -0.275 OA
ENDBRANCH   7  48
ENDBRANCH   1   2
BRANCH   1  53
ATOM     53  O   UNL     1       2.198  24.185  31.151  1.00  0.00    -0.388 OA
ATOM     54  H   UNL     1       1.432  23.628  31.358  1.00  0.00     0.211 HD
ENDBRANCH   1  53
BRANCH   1  55
ATOM     55  C   UNL     1       4.114  25.069  32.052  1.00  0.00     0.165 C 
BRANCH  55  56
ATOM     56  O   UNL     1       5.397  24.752  31.671  1.00  0.00    -0.388 OA
ATOM     57  H   UNL     1       6.014  25.526  31.673  1.00  0.00     0.211 HD
ENDBRANCH  55  56
BRANCH  55  58
ATOM     58  C   UNL     1       4.127  25.951  33.305  1.00  0.00     0.154 C 
BRANCH  58  59
ATOM     59  N   UNL     1       4.956  25.373  34.335  1.00  0.00    -0.319 N 
ATOM     60  C   UNL     1       5.373  26.083  35.484  1.00  0.00     0.407 C 
ATOM     61  H   UNL     1       5.259  24.386  34.227  1.00  0.00     0.167 HD
ATOM     62  O   UNL     1       5.012  27.279  35.635  1.00  0.00    -0.225 OA
BRANCH  60  63
ATOM     63  O   UNL     1       6.175  25.500  36.461  1.00  0.00    -0.443 OA
BRANCH  63  64
ATOM     64  C   UNL     1       5.560  24.696  37.462  1.00  0.00     0.294 C 
BRANCH  64  65
ATOM     65  C   UNL     1       6.679  23.923  38.085  1.00  0.00     0.120 A 
ATOM     66  C   UNL     1       7.977  23.922  37.650  1.00  0.00     0.138 A 
ATOM     67  N   UNL     1       6.602  23.109  39.166  1.00  0.00    -0.132 NA
ATOM     68  N   UNL     1       8.642  23.118  38.467  1.00  0.00    -0.250 N 
ATOM     69  N   UNL     1       7.805  22.629  39.382  1.00  0.00    -0.067 NA
BRANCH  68  70
ATOM     70  C   UNL     1      10.069  22.816  38.360  1.00  0.00     0.167 C 
BRANCH  70  71
ATOM     71  C   UNL     1      10.362  22.570  36.879  1.00  0.00     0.141 C 
BRANCH  71  72
ATOM     72  N   UNL     1      10.987  23.756  36.372  1.00  0.00    -0.336 N 
ATOM     73  C   UNL     1      10.670  24.344  35.130  1.00  0.00     0.315 C 
ATOM     74  H   UNL     1      11.727  24.195  36.984  1.00  0.00     0.165 HD
ATOM     75  O   UNL     1       9.815  23.837  34.373  1.00  0.00    -0.249 OA
ATOM     76  N   UNL     1      11.349  25.549  34.745  1.00  0.00    -0.331 N 
ATOM     77  H   UNL     1      12.060  25.940  35.414  1.00  0.00     0.165 HD
BRANCH  76  78
ATOM     78  C   UNL     1      11.052  26.179  33.489  1.00  0.00     0.193 C 
BRANCH  78  79
ATOM     79  C   UNL     1       9.987  27.203  33.663  1.00  0.00     0.122 A 
ATOM     80  C   UNL     1      10.031  28.480  33.116  1.00  0.00     0.047 A 
ATOM     81  O   UNL     1       8.887  27.077  34.325  1.00  0.00    -0.467 OA
ATOM     82  C   UNL     1       8.877  29.095  33.506  1.00  0.00     0.042 A 
ATOM     83  C   UNL     1       8.185  28.187  34.261  1.00  0.00     0.195 A 
ENDBRANCH  78  79
ENDBRANCH  76  78
ENDBRANCH  71  72
ENDBRANCH  70  71
ENDBRANCH  68  70
ENDBRANCH  64  65
ENDBRANCH  63  64
ENDBRANCH  60  63
ENDBRANCH  58  59
ENDBRANCH  55  58
ENDBRANCH   1  55
TORSDOF 34
