REMARK VINA RESULT:    -5.690      5.353      8.879
REMARK INTER + INTRA:         -22.962
REMARK INTER:                 -15.718
REMARK INTRA:                  -7.244
REMARK UNBOUND:                -8.458
REMARK SMILES CC(=O)N[C@@H]1[C@@H](O)C[C@](OC[C@H]2O[C@@H](O[C@H]3[C@H](O)[C@@H](O)[C@H](OCCN=[N+]=[N-])O[C@@H]3CO)[C@H](O)[C@@H](O)[C@H]2O)(C(=O)O)O[C@H]1C(O)[C@H](O)CNC(=O)OCc1cn(-c2ccc(O)c([N+](=O)[O-])c2)nn1
REMARK SMILES IDX 9 1 8 2 6 3 5 4 42 5 41 6 10 7 11 8 12 9 14 10 13 11 32 12
REMARK SMILES IDX 34 13 36 14 15 15 16 16 29 17 28 18 21 19 17 20 19 21 30 22
REMARK SMILES IDX 31 23 22 25 23 26 24 27 25 28 26 29 27 30 18 31 20 33 33 35
REMARK SMILES IDX 35 37 37 39 38 41 39 42 40 43 7 45 43 47 44 48 45 50 46 51
REMARK SMILES IDX 47 53 48 54 49 55 50 57 51 58 52 59 53 60 54 61 67 62 55 63
REMARK SMILES IDX 66 64 56 65 57 66 65 67 58 68 61 69 59 70 62 71 63 72 64 73
REMARK SMILES IDX 60 74 4 76 2 77 1 79 3 80
REMARK H PARENT 31 24 18 32 20 34 33 36 35 38 37 40 40 44 7 46 44 49 46 52
REMARK H PARENT 48 56 60 75 4 78
REMARK Flexibility Score: inf
ROOT
ATOM      1  C   UNL     1      20.628  28.732  24.445  1.00  0.00     0.272 C 
ATOM      2  C   UNL     1      21.502  29.403  23.369  1.00  0.00     0.113 C 
ATOM      3  C   UNL     1      21.401  28.596  22.078  1.00  0.00     0.145 C 
ATOM      4  C   UNL     1      22.121  27.263  22.411  1.00  0.00     0.142 C 
ATOM      5  C   UNL     1      21.738  26.817  23.794  1.00  0.00     0.178 C 
ATOM      6  O   UNL     1      20.510  27.385  24.180  1.00  0.00    -0.332 OA
ENDROOT
BRANCH   1   7
ATOM      7  O   UNL     1      19.391  29.335  24.315  1.00  0.00    -0.338 OA
BRANCH   7   8
ATOM      8  C   UNL     1      19.380  30.684  24.132  1.00  0.00     0.199 C 
BRANCH   8   9
ATOM      9  C   UNL     1      17.991  31.010  23.531  1.00  0.00     0.179 C 
ATOM     10  C   UNL     1      16.107  29.854  23.020  1.00  0.00     0.282 C 
ATOM     11  O   UNL     1      17.500  29.811  23.108  1.00  0.00    -0.341 OA
ATOM     12  C   UNL     1      15.584  29.848  24.415  1.00  0.00     0.202 C 
ATOM     13  C   UNL     1      16.019  31.112  25.110  1.00  0.00     0.179 C 
ATOM     14  C   UNL     1      17.212  31.774  24.527  1.00  0.00     0.177 C 
BRANCH  10  15
ATOM     15  O   UNL     1      15.653  28.784  22.237  1.00  0.00    -0.341 OA
BRANCH  15  16
ATOM     16  C   UNL     1      15.545  29.215  20.929  1.00  0.00     0.184 C 
ATOM     17  C   UNL     1      14.169  29.199  20.359  1.00  0.00     0.178 C 
ATOM     18  O   UNL     1      14.199  29.929  19.178  1.00  0.00    -0.341 OA
ATOM     19  C   UNL     1      14.908  29.208  18.172  1.00  0.00     0.281 C 
ATOM     20  C   UNL     1      16.367  28.272  20.011  1.00  0.00     0.180 C 
ATOM     21  C   UNL     1      16.287  28.888  18.617  1.00  0.00     0.202 C 
BRANCH  17  22
ATOM     22  C   UNL     1      13.088  29.722  21.245  1.00  0.00     0.191 C 
BRANCH  22  23
ATOM     23  O   UNL     1      12.801  28.831  22.265  1.00  0.00    -0.394 OA
ATOM     24  H   UNL     1      12.446  29.368  23.043  1.00  0.00     0.210 HD
ENDBRANCH  22  23
ENDBRANCH  17  22
BRANCH  19  25
ATOM     25  O   UNL     1      14.935  30.096  17.103  1.00  0.00    -0.350 OA
BRANCH  25  26
ATOM     26  C   UNL     1      13.878  29.944  16.226  1.00  0.00     0.169 C 
BRANCH  26  27
ATOM     27  C   UNL     1      14.345  29.780  14.813  1.00  0.00     0.119 C 
BRANCH  27  28
ATOM     28  N   UNL     1      13.997  28.431  14.371  1.00  0.00    -0.092 NA
ATOM     29  N   UNL     1      12.842  28.208  13.944  1.00  0.00     0.001 N 
ATOM     30  N   UNL     1      11.954  27.909  13.126  1.00  0.00    -0.003 NA
ENDBRANCH  27  28
ENDBRANCH  26  27
ENDBRANCH  25  26
ENDBRANCH  19  25
BRANCH  20  31
ATOM     31  O   UNL     1      17.702  28.262  20.384  1.00  0.00    -0.387 OA
ATOM     32  H   UNL     1      17.929  29.020  20.989  1.00  0.00     0.211 HD
ENDBRANCH  20  31
BRANCH  21  33
ATOM     33  O   UNL     1      16.859  27.940  17.772  1.00  0.00    -0.385 OA
ATOM     34  H   UNL     1      16.253  27.686  17.051  1.00  0.00     0.211 HD
ENDBRANCH  21  33
ENDBRANCH  15  16
ENDBRANCH  10  15
BRANCH  12  35
ATOM     35  O   UNL     1      14.201  29.721  24.486  1.00  0.00    -0.385 OA
ATOM     36  H   UNL     1      13.767  30.604  24.666  1.00  0.00     0.211 HD
ENDBRANCH  12  35
BRANCH  13  37
ATOM     37  O   UNL     1      16.136  30.808  26.471  1.00  0.00    -0.387 OA
ATOM     38  H   UNL     1      15.242  30.969  26.878  1.00  0.00     0.211 HD
ENDBRANCH  13  37
BRANCH  14  39
ATOM     39  O   UNL     1      18.015  32.244  25.588  1.00  0.00    -0.387 OA
ATOM     40  H   UNL     1      18.173  33.210  25.540  1.00  0.00     0.211 HD
ENDBRANCH  14  39
ENDBRANCH   8   9
ENDBRANCH   7   8
ENDBRANCH   1   7
BRANCH   1  41
ATOM     41  C   UNL     1      21.226  29.098  25.724  1.00  0.00     0.364 C 
ATOM     42  O   UNL     1      20.743  28.863  26.863  1.00  0.00    -0.246 OA
BRANCH  41  43
ATOM     43  O   UNL     1      22.449  29.772  25.735  1.00  0.00    -0.477 OA
ATOM     44  H   UNL     1      22.992  29.911  26.581  1.00  0.00     0.296 HD
ENDBRANCH  41  43
ENDBRANCH   1  41
BRANCH   3  45
ATOM     45  O   UNL     1      20.098  28.362  21.728  1.00  0.00    -0.391 OA
ATOM     46  H   UNL     1      19.574  29.190  21.849  1.00  0.00     0.211 HD
ENDBRANCH   3  45
BRANCH   5  47
ATOM     47  C   UNL     1      21.530  25.323  23.798  1.00  0.00     0.176 C 
BRANCH  47  48
ATOM     48  O   UNL     1      21.848  24.840  22.538  1.00  0.00    -0.388 OA
ATOM     49  H   UNL     1      22.344  25.498  21.990  1.00  0.00     0.211 HD
ENDBRANCH  47  48
BRANCH  47  50
ATOM     50  C   UNL     1      22.350  24.586  24.828  1.00  0.00     0.165 C 
BRANCH  50  51
ATOM     51  O   UNL     1      22.161  25.329  26.024  1.00  0.00    -0.388 OA
ATOM     52  H   UNL     1      23.016  25.411  26.532  1.00  0.00     0.211 HD
ENDBRANCH  50  51
BRANCH  50  53
ATOM     53  C   UNL     1      23.820  24.656  24.527  1.00  0.00     0.154 C 
BRANCH  53  54
ATOM     54  N   UNL     1      24.548  25.082  25.692  1.00  0.00    -0.319 N 
ATOM     55  C   UNL     1      25.174  26.335  25.860  1.00  0.00     0.407 C 
ATOM     56  H   UNL     1      24.637  24.412  26.516  1.00  0.00     0.167 HD
ATOM     57  O   UNL     1      25.102  27.144  24.925  1.00  0.00    -0.225 OA
BRANCH  55  58
ATOM     58  O   UNL     1      25.857  26.723  26.988  1.00  0.00    -0.443 OA
BRANCH  58  59
ATOM     59  C   UNL     1      25.780  25.976  28.176  1.00  0.00     0.294 C 
BRANCH  59  60
ATOM     60  C   UNL     1      24.351  25.945  28.611  1.00  0.00     0.121 A 
ATOM     61  C   UNL     1      23.636  27.018  29.148  1.00  0.00     0.144 A 
ATOM     62  N   UNL     1      23.459  24.946  28.604  1.00  0.00    -0.131 NA
ATOM     63  N   UNL     1      22.400  26.617  29.423  1.00  0.00    -0.220 N 
ATOM     64  N   UNL     1      22.330  25.340  29.075  1.00  0.00    -0.062 NA
BRANCH  63  65
ATOM     65  C   UNL     1      21.345  27.409  29.995  1.00  0.00     0.073 A 
ATOM     66  C   UNL     1      20.148  26.850  30.324  1.00  0.00     0.033 A 
ATOM     67  C   UNL     1      21.502  28.748  30.232  1.00  0.00     0.118 A 
ATOM     68  C   UNL     1      19.110  27.565  30.875  1.00  0.00     0.056 A 
ATOM     69  C   UNL     1      20.456  29.506  30.795  1.00  0.00     0.312 A 
ATOM     70  C   UNL     1      19.251  28.948  31.129  1.00  0.00     0.194 A 
BRANCH  69  71
ATOM     71  N   UNL     1      20.704  30.873  31.008  1.00  0.00     0.066 N 
ATOM     72  O   UNL     1      21.245  31.521  30.059  1.00  0.00    -0.258 OA
ATOM     73  O   UNL     1      20.389  31.489  32.176  1.00  0.00    -0.258 OA
ENDBRANCH  69  71
BRANCH  70  74
ATOM     74  O   UNL     1      18.177  29.618  31.688  1.00  0.00    -0.502 OA
ATOM     75  H   UNL     1      18.207  30.549  31.957  1.00  0.00     0.293 HD
ENDBRANCH  70  74
ENDBRANCH  63  65
ENDBRANCH  59  60
ENDBRANCH  58  59
ENDBRANCH  55  58
ENDBRANCH  53  54
ENDBRANCH  50  53
ENDBRANCH  47  50
ENDBRANCH   5  47
BRANCH   4  76
ATOM     76  N   UNL     1      23.530  27.588  22.300  1.00  0.00    -0.348 N 
ATOM     77  C   UNL     1      24.406  26.823  21.462  1.00  0.00     0.217 C 
ATOM     78  H   UNL     1      23.941  28.381  22.824  1.00  0.00     0.163 HD
ATOM     79  C   UNL     1      25.842  27.173  21.364  1.00  0.00     0.114 C 
ATOM     80  O   UNL     1      23.920  25.848  20.812  1.00  0.00    -0.275 OA
ENDBRANCH   4  76
TORSDOF 32
