REMARK VINA RESULT:    -6.871      1.718      2.498
REMARK INTER + INTRA:         -23.580
REMARK INTER:                 -16.358
REMARK INTRA:                  -7.222
REMARK UNBOUND:                -5.463
REMARK SMILES CC(=O)N[C@@H]1[C@@H](O)C[C@](OC[C@H]2O[C@@H](O[C@H]3[C@H](O)[C@@H](O)[C@H](OCCN=[N+]=[N-])O[C@@H]3CO)[C@H](O)[C@@H](O)[C@H]2O)(C(=O)O)O[C@H]1C(O)[C@H](O)CNC(=O)OCc1cn(COCc2ccccc2)nn1
REMARK SMILES IDX 43 1 42 2 9 3 8 4 41 5 6 6 5 7 10 8 11 9 12 10 14 11 13 12
REMARK SMILES IDX 32 13 34 14 36 15 15 16 16 17 29 18 28 19 21 20 17 21 19 22
REMARK SMILES IDX 30 23 31 24 22 26 23 27 24 28 25 29 26 30 27 31 18 32 20 34
REMARK SMILES IDX 33 36 35 38 37 40 38 42 39 43 40 44 7 46 4 48 2 49 1 51 3 52
REMARK SMILES IDX 44 53 45 55 46 56 47 58 48 59 49 60 50 62 51 63 52 64 53 65
REMARK SMILES IDX 54 66 66 67 55 68 65 69 56 70 57 71 58 72 59 73 60 74 64 75
REMARK SMILES IDX 61 76 63 77 62 78
REMARK H PARENT 31 25 18 33 20 35 33 37 35 39 37 41 40 45 7 47 4 50 44 54
REMARK H PARENT 46 57 48 61
REMARK Flexibility Score: inf
ROOT
ATOM      1  C   UNL     1      14.915  33.281  22.143  1.00  0.00     0.176 C 
ENDROOT
BRANCH   1   2
ATOM      2  C   UNL     1      14.452  31.822  22.348  1.00  0.00     0.178 C 
ATOM      3  C   UNL     1      15.338  29.704  21.984  1.00  0.00     0.272 C 
ATOM      4  C   UNL     1      13.978  29.235  21.478  1.00  0.00     0.113 C 
ATOM      5  O   UNL     1      15.401  31.033  21.697  1.00  0.00    -0.332 OA
ATOM      6  C   UNL     1      13.289  30.365  20.752  1.00  0.00     0.145 C 
ATOM      7  C   UNL     1      13.113  31.562  21.735  1.00  0.00     0.142 C 
BRANCH   3   8
ATOM      8  O   UNL     1      16.362  28.995  21.325  1.00  0.00    -0.338 OA
BRANCH   8   9
ATOM      9  C   UNL     1      15.995  28.122  20.374  1.00  0.00     0.199 C 
BRANCH   9  10
ATOM     10  C   UNL     1      16.701  28.425  19.073  1.00  0.00     0.179 C 
ATOM     11  C   UNL     1      16.790  29.713  17.211  1.00  0.00     0.282 C 
ATOM     12  O   UNL     1      16.099  29.526  18.430  1.00  0.00    -0.341 OA
ATOM     13  C   UNL     1      18.151  30.351  17.467  1.00  0.00     0.202 C 
ATOM     14  C   UNL     1      18.425  30.146  18.965  1.00  0.00     0.179 C 
ATOM     15  C   UNL     1      18.157  28.678  19.223  1.00  0.00     0.177 C 
BRANCH  11  16
ATOM     16  O   UNL     1      16.058  30.578  16.445  1.00  0.00    -0.341 OA
BRANCH  16  17
ATOM     17  C   UNL     1      15.087  29.963  15.668  1.00  0.00     0.184 C 
ATOM     18  C   UNL     1      15.235  30.228  14.212  1.00  0.00     0.178 C 
ATOM     19  O   UNL     1      14.882  31.514  13.937  1.00  0.00    -0.341 OA
ATOM     20  C   UNL     1      13.547  31.802  14.100  1.00  0.00     0.281 C 
ATOM     21  C   UNL     1      13.741  30.353  16.171  1.00  0.00     0.180 C 
ATOM     22  C   UNL     1      12.898  31.183  15.275  1.00  0.00     0.202 C 
BRANCH  18  23
ATOM     23  C   UNL     1      14.468  29.192  13.423  1.00  0.00     0.191 C 
BRANCH  23  24
ATOM     24  O   UNL     1      14.462  27.956  14.079  1.00  0.00    -0.394 OA
ATOM     25  H   UNL     1      15.269  27.881  14.647  1.00  0.00     0.210 HD
ENDBRANCH  23  24
ENDBRANCH  18  23
BRANCH  20  26
ATOM     26  O   UNL     1      12.895  31.370  12.939  1.00  0.00    -0.350 OA
BRANCH  26  27
ATOM     27  C   UNL     1      11.531  31.283  13.058  1.00  0.00     0.169 C 
BRANCH  27  28
ATOM     28  C   UNL     1      11.043  30.435  11.896  1.00  0.00     0.119 C 
BRANCH  28  29
ATOM     29  N   UNL     1      11.084  29.022  12.198  1.00  0.00    -0.092 NA
ATOM     30  N   UNL     1      11.747  28.248  11.483  1.00  0.00     0.001 N 
ATOM     31  N   UNL     1      11.923  27.496  10.505  1.00  0.00    -0.003 NA
ENDBRANCH  28  29
ENDBRANCH  27  28
ENDBRANCH  26  27
ENDBRANCH  20  26
BRANCH  21  32
ATOM     32  O   UNL     1      12.985  29.186  16.472  1.00  0.00    -0.387 OA
ATOM     33  H   UNL     1      13.390  28.663  17.180  1.00  0.00     0.211 HD
ENDBRANCH  21  32
BRANCH  22  34
ATOM     34  O   UNL     1      12.368  32.249  16.049  1.00  0.00    -0.385 OA
ATOM     35  H   UNL     1      11.391  32.247  15.872  1.00  0.00     0.211 HD
ENDBRANCH  22  34
ENDBRANCH  16  17
ENDBRANCH  11  16
BRANCH  13  36
ATOM     36  O   UNL     1      19.176  29.676  16.803  1.00  0.00    -0.385 OA
ATOM     37  H   UNL     1      19.771  30.362  16.410  1.00  0.00     0.211 HD
ENDBRANCH  13  36
BRANCH  14  38
ATOM     38  O   UNL     1      17.454  30.894  19.617  1.00  0.00    -0.387 OA
ATOM     39  H   UNL     1      16.817  30.347  20.141  1.00  0.00     0.211 HD
ENDBRANCH  14  38
BRANCH  15  40
ATOM     40  O   UNL     1      18.686  28.252  20.431  1.00  0.00    -0.387 OA
ATOM     41  H   UNL     1      18.039  28.298  21.181  1.00  0.00     0.211 HD
ENDBRANCH  15  40
ENDBRANCH   9  10
ENDBRANCH   8   9
ENDBRANCH   3   8
BRANCH   3  42
ATOM     42  C   UNL     1      15.540  29.444  23.409  1.00  0.00     0.364 C 
ATOM     43  O   UNL     1      16.624  29.481  24.049  1.00  0.00    -0.246 OA
BRANCH  42  44
ATOM     44  O   UNL     1      14.417  29.111  24.204  1.00  0.00    -0.477 OA
ATOM     45  H   UNL     1      14.529  28.557  25.053  1.00  0.00     0.296 HD
ENDBRANCH  42  44
ENDBRANCH   3  42
BRANCH   6  46
ATOM     46  O   UNL     1      13.891  30.848  19.644  1.00  0.00    -0.391 OA
ATOM     47  H   UNL     1      14.140  30.128  18.986  1.00  0.00     0.211 HD
ENDBRANCH   6  46
BRANCH   7  48
ATOM     48  N   UNL     1      12.140  31.084  22.687  1.00  0.00    -0.348 N 
ATOM     49  C   UNL     1      10.895  31.743  22.776  1.00  0.00     0.217 C 
ATOM     50  H   UNL     1      12.345  30.285  23.291  1.00  0.00     0.163 HD
ATOM     51  C   UNL     1       9.870  31.260  23.740  1.00  0.00     0.114 C 
ATOM     52  O   UNL     1      10.632  32.744  22.039  1.00  0.00    -0.275 OA
ENDBRANCH   7  48
ENDBRANCH   1   2
BRANCH   1  53
ATOM     53  O   UNL     1      14.200  33.745  20.973  1.00  0.00    -0.388 OA
ATOM     54  H   UNL     1      14.721  34.536  20.644  1.00  0.00     0.211 HD
ENDBRANCH   1  53
BRANCH   1  55
ATOM     55  C   UNL     1      16.359  33.445  21.822  1.00  0.00     0.165 C 
BRANCH  55  56
ATOM     56  O   UNL     1      16.729  33.362  20.510  1.00  0.00    -0.388 OA
ATOM     57  H   UNL     1      17.154  32.515  20.252  1.00  0.00     0.211 HD
ENDBRANCH  55  56
BRANCH  55  58
ATOM     58  C   UNL     1      17.385  32.895  22.736  1.00  0.00     0.154 C 
BRANCH  58  59
ATOM     59  N   UNL     1      18.048  31.680  22.353  1.00  0.00    -0.319 N 
ATOM     60  C   UNL     1      19.373  31.334  22.725  1.00  0.00     0.407 C 
ATOM     61  H   UNL     1      17.546  30.974  21.771  1.00  0.00     0.167 HD
ATOM     62  O   UNL     1      20.038  32.096  23.436  1.00  0.00    -0.225 OA
BRANCH  60  63
ATOM     63  O   UNL     1      20.007  30.148  22.335  1.00  0.00    -0.443 OA
BRANCH  63  64
ATOM     64  C   UNL     1      21.274  29.803  22.898  1.00  0.00     0.294 C 
BRANCH  64  65
ATOM     65  C   UNL     1      21.147  28.909  24.071  1.00  0.00     0.120 A 
ATOM     66  C   UNL     1      22.224  28.438  24.793  1.00  0.00     0.141 A 
ATOM     67  N   UNL     1      20.055  28.391  24.644  1.00  0.00    -0.132 NA
ATOM     68  N   UNL     1      21.743  27.646  25.783  1.00  0.00    -0.226 N 
ATOM     69  N   UNL     1      20.424  27.640  25.663  1.00  0.00    -0.065 NA
BRANCH  68  70
ATOM     70  C   UNL     1      22.484  26.932  26.798  1.00  0.00     0.307 C 
BRANCH  70  71
ATOM     71  O   UNL     1      23.327  25.997  26.261  1.00  0.00    -0.355 OA
BRANCH  71  72
ATOM     72  C   UNL     1      22.630  24.829  25.993  1.00  0.00     0.198 C 
BRANCH  72  73
ATOM     73  C   UNL     1      22.504  24.672  24.500  1.00  0.00    -0.022 A 
ATOM     74  C   UNL     1      21.235  24.658  23.959  1.00  0.00     0.006 A 
ATOM     75  C   UNL     1      23.617  24.546  23.710  1.00  0.00     0.006 A 
ATOM     76  C   UNL     1      21.077  24.515  22.597  1.00  0.00     0.000 A 
ATOM     77  C   UNL     1      23.437  24.404  22.365  1.00  0.00     0.000 A 
ATOM     78  C   UNL     1      22.181  24.386  21.781  1.00  0.00     0.000 A 
ENDBRANCH  72  73
ENDBRANCH  71  72
ENDBRANCH  70  71
ENDBRANCH  68  70
ENDBRANCH  64  65
ENDBRANCH  63  64
ENDBRANCH  60  63
ENDBRANCH  58  59
ENDBRANCH  55  58
ENDBRANCH   1  55
TORSDOF 33
