REMARK VINA RESULT:    -5.168      2.833     10.566
REMARK INTER + INTRA:         -22.588
REMARK INTER:                 -14.233
REMARK INTRA:                  -8.356
REMARK UNBOUND:                -8.356
REMARK SMILES CC(=O)N[C@@H]1[C@@H](O)C[C@](OC[C@H]2O[C@@H](O[C@H]3[C@H](O)[C@@H](O)[C@H](OCCN=[N+]=[N-])O[C@@H]3CO)[C@H](O)[C@@H](O)[C@H]2O)(C(=O)O)O[C@H]1C(O)[C@H](O)CNC(=O)OCc1cn([C@@H](CCC(=O)O)C(=O)O)nn1
REMARK SMILES IDX 43 1 42 2 9 3 8 4 41 5 6 6 5 7 10 8 11 9 12 10 14 11 13 12
REMARK SMILES IDX 32 13 34 14 36 15 15 16 16 17 29 18 28 19 21 20 17 21 19 22
REMARK SMILES IDX 30 23 31 24 22 26 23 27 24 28 25 29 26 30 27 31 18 32 20 34
REMARK SMILES IDX 33 36 35 38 37 40 38 42 39 43 40 44 7 46 4 48 2 49 1 51 3 52
REMARK SMILES IDX 44 53 45 55 46 56 47 58 48 59 49 60 50 62 51 63 52 64 53 65
REMARK SMILES IDX 54 66 66 67 55 68 65 69 56 70 57 71 58 72 59 73 60 74 61 75
REMARK SMILES IDX 62 77 63 78 64 79
REMARK H PARENT 31 25 18 33 20 35 33 37 35 39 37 41 40 45 7 47 4 50 44 54
REMARK H PARENT 46 57 48 61 61 76 64 80
REMARK Flexibility Score: inf
ROOT
ATOM      1  C   UNL     1      16.192  32.314  19.532  1.00  0.00     0.176 C 
ENDROOT
BRANCH   1   2
ATOM      2  C   UNL     1      15.419  31.186  20.217  1.00  0.00     0.178 C 
ATOM      3  C   UNL     1      15.826  28.898  20.592  1.00  0.00     0.272 C 
ATOM      4  C   UNL     1      14.632  28.437  19.856  1.00  0.00     0.113 C 
ATOM      5  O   UNL     1      16.223  30.082  19.935  1.00  0.00    -0.332 OA
ATOM      6  C   UNL     1      14.013  29.530  19.029  1.00  0.00     0.145 C 
ATOM      7  C   UNL     1      14.091  30.913  19.569  1.00  0.00     0.142 C 
BRANCH   3   8
ATOM      8  O   UNL     1      16.882  28.020  20.455  1.00  0.00    -0.338 OA
BRANCH   8   9
ATOM      9  C   UNL     1      17.907  28.180  19.659  1.00  0.00     0.199 C 
BRANCH   9  10
ATOM     10  C   UNL     1      19.199  28.829  20.070  1.00  0.00     0.179 C 
ATOM     11  C   UNL     1      21.328  27.958  20.458  1.00  0.00     0.282 C 
ATOM     12  O   UNL     1      20.001  27.997  20.797  1.00  0.00    -0.341 OA
ATOM     13  C   UNL     1      21.442  27.518  19.015  1.00  0.00     0.202 C 
ATOM     14  C   UNL     1      20.823  28.565  18.145  1.00  0.00     0.179 C 
ATOM     15  C   UNL     1      19.888  29.466  18.869  1.00  0.00     0.177 C 
BRANCH  11  16
ATOM     16  O   UNL     1      21.962  27.007  21.261  1.00  0.00    -0.341 OA
BRANCH  16  17
ATOM     17  C   UNL     1      21.261  26.623  22.376  1.00  0.00     0.184 C 
ATOM     18  C   UNL     1      21.962  27.057  23.659  1.00  0.00     0.178 C 
ATOM     19  O   UNL     1      22.285  25.926  24.405  1.00  0.00    -0.341 OA
ATOM     20  C   UNL     1      23.316  25.196  23.749  1.00  0.00     0.281 C 
ATOM     21  C   UNL     1      21.222  25.108  22.382  1.00  0.00     0.180 C 
ATOM     22  C   UNL     1      22.684  24.632  22.512  1.00  0.00     0.202 C 
BRANCH  18  23
ATOM     23  C   UNL     1      21.009  27.892  24.496  1.00  0.00     0.191 C 
BRANCH  23  24
ATOM     24  O   UNL     1      20.053  27.115  25.124  1.00  0.00    -0.394 OA
ATOM     25  H   UNL     1      19.550  26.551  24.480  1.00  0.00     0.210 HD
ENDBRANCH  23  24
ENDBRANCH  18  23
BRANCH  20  26
ATOM     26  O   UNL     1      23.798  24.290  24.648  1.00  0.00    -0.350 OA
BRANCH  26  27
ATOM     27  C   UNL     1      24.251  24.807  25.829  1.00  0.00     0.169 C 
BRANCH  27  28
ATOM     28  C   UNL     1      23.495  24.323  27.050  1.00  0.00     0.119 C 
BRANCH  28  29
ATOM     29  N   UNL     1      23.279  25.380  28.017  1.00  0.00    -0.092 NA
ATOM     30  N   UNL     1      22.378  26.208  27.936  1.00  0.00     0.001 N 
ATOM     31  N   UNL     1      21.358  26.859  27.867  1.00  0.00    -0.003 NA
ENDBRANCH  28  29
ENDBRANCH  27  28
ENDBRANCH  26  27
ENDBRANCH  20  26
BRANCH  21  32
ATOM     32  O   UNL     1      20.451  24.594  23.417  1.00  0.00    -0.387 OA
ATOM     33  H   UNL     1      20.782  24.881  24.324  1.00  0.00     0.211 HD
ENDBRANCH  21  32
BRANCH  22  34
ATOM     34  O   UNL     1      23.334  25.240  21.409  1.00  0.00    -0.385 OA
ATOM     35  H   UNL     1      23.767  24.516  20.888  1.00  0.00     0.211 HD
ENDBRANCH  22  34
ENDBRANCH  16  17
ENDBRANCH  11  16
BRANCH  13  36
ATOM     36  O   UNL     1      22.779  27.316  18.668  1.00  0.00    -0.385 OA
ATOM     37  H   UNL     1      23.298  27.381  19.532  1.00  0.00     0.211 HD
ENDBRANCH  13  36
BRANCH  14  38
ATOM     38  O   UNL     1      20.198  28.018  17.021  1.00  0.00    -0.387 OA
ATOM     39  H   UNL     1      20.404  27.038  16.981  1.00  0.00     0.211 HD
ENDBRANCH  14  38
BRANCH  15  40
ATOM     40  O   UNL     1      18.906  29.848  17.952  1.00  0.00    -0.387 OA
ATOM     41  H   UNL     1      19.169  30.666  17.474  1.00  0.00     0.211 HD
ENDBRANCH  15  40
ENDBRANCH   9  10
ENDBRANCH   8   9
ENDBRANCH   3   8
BRANCH   3  42
ATOM     42  C   UNL     1      15.692  29.196  22.012  1.00  0.00     0.364 C 
ATOM     43  O   UNL     1      16.736  29.605  22.640  1.00  0.00    -0.246 OA
BRANCH  42  44
ATOM     44  O   UNL     1      14.571  29.095  22.813  1.00  0.00    -0.477 OA
ATOM     45  H   UNL     1      14.152  29.887  23.243  1.00  0.00     0.296 HD
ENDBRANCH  42  44
ENDBRANCH   3  42
BRANCH   6  46
ATOM     46  O   UNL     1      14.722  29.554  17.795  1.00  0.00    -0.391 OA
ATOM     47  H   UNL     1      14.657  28.679  17.333  1.00  0.00     0.211 HD
ENDBRANCH   6  46
BRANCH   7  48
ATOM     48  N   UNL     1      12.917  31.143  20.335  1.00  0.00    -0.348 N 
ATOM     49  C   UNL     1      12.274  32.400  20.449  1.00  0.00     0.217 C 
ATOM     50  H   UNL     1      12.445  30.372  20.847  1.00  0.00     0.163 HD
ATOM     51  C   UNL     1      11.032  32.573  21.283  1.00  0.00     0.114 C 
ATOM     52  O   UNL     1      12.720  33.385  19.865  1.00  0.00    -0.275 OA
ENDBRANCH   7  48
ENDBRANCH   1   2
BRANCH   1  53
ATOM     53  O   UNL     1      15.823  32.377  18.193  1.00  0.00    -0.388 OA
ATOM     54  H   UNL     1      16.180  31.586  17.706  1.00  0.00     0.211 HD
ENDBRANCH   1  53
BRANCH   1  55
ATOM     55  C   UNL     1      17.640  32.315  19.685  1.00  0.00     0.165 C 
BRANCH  55  56
ATOM     56  O   UNL     1      17.941  32.131  21.068  1.00  0.00    -0.388 OA
ATOM     57  H   UNL     1      18.859  31.774  21.127  1.00  0.00     0.211 HD
ENDBRANCH  55  56
BRANCH  55  58
ATOM     58  C   UNL     1      18.395  33.550  19.291  1.00  0.00     0.154 C 
BRANCH  58  59
ATOM     59  N   UNL     1      18.815  33.548  17.911  1.00  0.00    -0.319 N 
ATOM     60  C   UNL     1      18.148  34.273  16.879  1.00  0.00     0.407 C 
ATOM     61  H   UNL     1      19.636  32.987  17.636  1.00  0.00     0.167 HD
ATOM     62  O   UNL     1      17.154  34.954  17.129  1.00  0.00    -0.225 OA
BRANCH  60  63
ATOM     63  O   UNL     1      18.645  34.187  15.603  1.00  0.00    -0.443 OA
BRANCH  63  64
ATOM     64  C   UNL     1      18.897  32.980  14.945  1.00  0.00     0.294 C 
BRANCH  64  65
ATOM     65  C   UNL     1      17.674  32.139  14.961  1.00  0.00     0.120 A 
ATOM     66  C   UNL     1      16.629  32.102  14.063  1.00  0.00     0.139 A 
ATOM     67  N   UNL     1      17.354  31.234  15.925  1.00  0.00    -0.132 NA
ATOM     68  N   UNL     1      15.711  31.188  14.494  1.00  0.00    -0.238 N 
ATOM     69  N   UNL     1      16.193  30.685  15.631  1.00  0.00    -0.066 NA
BRANCH  68  70
ATOM     70  C   UNL     1      14.503  30.833  13.844  1.00  0.00     0.219 C 
BRANCH  70  71
ATOM     71  C   UNL     1      14.323  29.450  13.339  1.00  0.00     0.051 C 
BRANCH  71  72
ATOM     72  C   UNL     1      13.109  29.093  12.587  1.00  0.00     0.125 C 
BRANCH  72  73
ATOM     73  C   UNL     1      12.222  28.068  13.096  1.00  0.00     0.303 C 
ATOM     74  O   UNL     1      11.239  27.545  12.543  1.00  0.00    -0.252 OA
BRANCH  73  75
ATOM     75  O   UNL     1      12.460  27.549  14.408  1.00  0.00    -0.481 OA
ATOM     76  H   UNL     1      13.406  27.515  14.754  1.00  0.00     0.296 HD
ENDBRANCH  73  75
ENDBRANCH  72  73
ENDBRANCH  71  72
ENDBRANCH  70  71
BRANCH  70  77
ATOM     77  C   UNL     1      13.361  31.148  14.759  1.00  0.00     0.328 C 
ATOM     78  O   UNL     1      12.705  32.197  14.612  1.00  0.00    -0.250 OA
BRANCH  77  79
ATOM     79  O   UNL     1      12.995  30.300  15.788  1.00  0.00    -0.480 OA
ATOM     80  H   UNL     1      13.550  29.478  16.030  1.00  0.00     0.296 HD
ENDBRANCH  77  79
ENDBRANCH  70  77
ENDBRANCH  68  70
ENDBRANCH  64  65
ENDBRANCH  63  64
ENDBRANCH  60  63
ENDBRANCH  58  59
ENDBRANCH  55  58
ENDBRANCH   1  55
TORSDOF 36
