REMARK VINA RESULT:    -6.026     13.599     18.386
REMARK INTER + INTRA:         -23.705
REMARK INTER:                 -15.291
REMARK INTRA:                  -8.414
REMARK UNBOUND:                -6.934
REMARK SMILES CCOCCc1c(-c2ccccc2)nc(N)nc1-n1cc(COC(=O)NC[C@@H](O)C(O)[C@@H]2O[C@@](OC[C@H]3O[C@@H](O[C@H]4[C@H](O)[C@@H](O)[C@H](OCCN=[N+]=[N-])O[C@@H]4CO)[C@H](O)[C@@H](O)[C@H]3O)(C(=O)O)C[C@H](O)[C@H]2NC(C)=O)nn1
REMARK SMILES IDX 30 1 32 2 34 3 66 4 33 5 67 6 69 7 35 8 36 9 37 10 39 11
REMARK SMILES IDX 38 12 57 13 59 14 61 15 40 16 41 17 54 18 53 19 46 20 42 21
REMARK SMILES IDX 44 22 55 23 56 24 47 26 48 27 49 28 50 29 51 30 52 31 43 32
REMARK SMILES IDX 45 34 58 36 60 38 62 40 63 42 64 43 65 44 68 46 70 48 71 49
REMARK SMILES IDX 72 51 73 52 31 53 28 55 29 56 27 58 26 59 24 60 25 62 23 63
REMARK SMILES IDX 22 64 21 65 20 66 74 67 19 68 75 69 18 70 17 71 6 72 15 73
REMARK SMILES IDX 7 74 14 75 5 76 4 77 3 78 2 79 1 80 16 81 8 84 9 85 13 86
REMARK SMILES IDX 10 87 12 88 11 89
REMARK H PARENT 56 25 43 33 45 35 58 37 60 39 62 41 65 45 68 47 70 50 31 54
REMARK H PARENT 29 57 26 61 16 82 16 83
REMARK Flexibility Score: inf
ROOT
ATOM      1  C   UNL     1      14.209  32.630  25.854  1.00  0.00     0.176 C 
ENDROOT
BRANCH   1   2
ATOM      2  C   UNL     1      14.629  31.344  25.208  1.00  0.00     0.178 C 
ATOM      3  C   UNL     1      16.247  30.694  23.647  1.00  0.00     0.272 C 
ATOM      4  C   UNL     1      15.644  29.318  23.943  1.00  0.00     0.113 C 
ATOM      5  O   UNL     1      15.837  31.645  24.509  1.00  0.00    -0.332 OA
ATOM      6  C   UNL     1      14.146  29.335  23.926  1.00  0.00     0.145 C 
ATOM      7  C   UNL     1      13.699  30.759  24.203  1.00  0.00     0.142 C 
BRANCH   3   8
ATOM      8  O   UNL     1      16.005  30.961  22.318  1.00  0.00    -0.338 OA
BRANCH   8   9
ATOM      9  C   UNL     1      16.168  32.264  21.928  1.00  0.00     0.199 C 
BRANCH   9  10
ATOM     10  C   UNL     1      16.169  32.419  20.414  1.00  0.00     0.179 C 
ATOM     11  C   UNL     1      16.995  31.124  18.658  1.00  0.00     0.282 C 
ATOM     12  O   UNL     1      17.171  31.642  19.909  1.00  0.00    -0.341 OA
ATOM     13  C   UNL     1      15.712  30.286  18.715  1.00  0.00     0.202 C 
ATOM     14  C   UNL     1      14.593  31.325  18.756  1.00  0.00     0.179 C 
ATOM     15  C   UNL     1      14.842  32.382  19.774  1.00  0.00     0.177 C 
BRANCH  11  16
ATOM     16  O   UNL     1      18.093  30.381  18.293  1.00  0.00    -0.341 OA
BRANCH  16  17
ATOM     17  C   UNL     1      18.978  30.195  19.342  1.00  0.00     0.184 C 
ATOM     18  C   UNL     1      20.297  30.831  19.061  1.00  0.00     0.178 C 
ATOM     19  O   UNL     1      21.348  29.996  18.851  1.00  0.00    -0.341 OA
ATOM     20  C   UNL     1      21.509  28.920  19.666  1.00  0.00     0.281 C 
ATOM     21  C   UNL     1      19.072  28.752  19.736  1.00  0.00     0.180 C 
ATOM     22  C   UNL     1      20.343  28.526  20.511  1.00  0.00     0.202 C 
BRANCH  18  23
ATOM     23  C   UNL     1      20.621  31.932  20.072  1.00  0.00     0.191 C 
BRANCH  23  24
ATOM     24  O   UNL     1      19.847  31.813  21.214  1.00  0.00    -0.394 OA
ATOM     25  H   UNL     1      18.902  31.746  20.924  1.00  0.00     0.210 HD
ENDBRANCH  23  24
ENDBRANCH  18  23
BRANCH  20  26
ATOM     26  O   UNL     1      22.602  29.170  20.488  1.00  0.00    -0.350 OA
BRANCH  26  27
ATOM     27  C   UNL     1      23.780  28.622  20.044  1.00  0.00     0.169 C 
BRANCH  27  28
ATOM     28  C   UNL     1      23.750  27.119  19.907  1.00  0.00     0.119 C 
BRANCH  28  29
ATOM     29  N   UNL     1      24.852  26.704  19.041  1.00  0.00    -0.092 NA
ATOM     30  N   UNL     1      25.452  25.638  19.226  1.00  0.00     0.001 N 
ATOM     31  N   UNL     1      26.028  24.622  19.613  1.00  0.00    -0.003 NA
ENDBRANCH  28  29
ENDBRANCH  27  28
ENDBRANCH  26  27
ENDBRANCH  20  26
BRANCH  21  32
ATOM     32  O   UNL     1      18.001  28.347  20.537  1.00  0.00    -0.387 OA
ATOM     33  H   UNL     1      18.308  27.820  21.324  1.00  0.00     0.211 HD
ENDBRANCH  21  32
BRANCH  22  34
ATOM     34  O   UNL     1      20.435  27.162  20.782  1.00  0.00    -0.385 OA
ATOM     35  H   UNL     1      20.361  26.610  19.963  1.00  0.00     0.211 HD
ENDBRANCH  22  34
ENDBRANCH  16  17
ENDBRANCH  11  16
BRANCH  13  36
ATOM     36  O   UNL     1      15.557  29.475  17.617  1.00  0.00    -0.385 OA
ATOM     37  H   UNL     1      15.332  28.540  17.876  1.00  0.00     0.211 HD
ENDBRANCH  13  36
BRANCH  14  38
ATOM     38  O   UNL     1      13.336  30.767  18.786  1.00  0.00    -0.387 OA
ATOM     39  H   UNL     1      13.137  30.250  17.947  1.00  0.00     0.211 HD
ENDBRANCH  14  38
BRANCH  15  40
ATOM     40  O   UNL     1      13.858  32.242  20.777  1.00  0.00    -0.387 OA
ATOM     41  H   UNL     1      14.249  31.756  21.548  1.00  0.00     0.211 HD
ENDBRANCH  15  40
ENDBRANCH   9  10
ENDBRANCH   8   9
ENDBRANCH   3   8
BRANCH   3  42
ATOM     42  C   UNL     1      17.715  30.472  23.843  1.00  0.00     0.364 C 
ATOM     43  O   UNL     1      18.305  29.898  22.861  1.00  0.00    -0.246 OA
BRANCH  42  44
ATOM     44  O   UNL     1      18.433  30.829  24.948  1.00  0.00    -0.477 OA
ATOM     45  H   UNL     1      19.357  30.432  25.093  1.00  0.00     0.296 HD
ENDBRANCH  42  44
ENDBRANCH   3  42
BRANCH   6  46
ATOM     46  O   UNL     1      13.746  28.906  22.651  1.00  0.00    -0.391 OA
ATOM     47  H   UNL     1      13.062  29.489  22.268  1.00  0.00     0.211 HD
ENDBRANCH   6  46
BRANCH   7  48
ATOM     48  N   UNL     1      12.301  30.824  24.496  1.00  0.00    -0.348 N 
ATOM     49  C   UNL     1      11.298  31.054  23.519  1.00  0.00     0.217 C 
ATOM     50  H   UNL     1      12.023  30.674  25.490  1.00  0.00     0.163 HD
ATOM     51  C   UNL     1       9.882  31.099  23.936  1.00  0.00     0.114 C 
ATOM     52  O   UNL     1      11.617  31.213  22.322  1.00  0.00    -0.275 OA
ENDBRANCH   7  48
ENDBRANCH   1   2
BRANCH   1  53
ATOM     53  O   UNL     1      15.012  33.643  25.227  1.00  0.00    -0.388 OA
ATOM     54  H   UNL     1      14.394  34.154  24.663  1.00  0.00     0.211 HD
ENDBRANCH   1  53
BRANCH   1  55
ATOM     55  C   UNL     1      14.390  32.788  27.310  1.00  0.00     0.165 C 
BRANCH  55  56
ATOM     56  O   UNL     1      13.277  33.568  27.738  1.00  0.00    -0.388 OA
ATOM     57  H   UNL     1      12.656  33.647  26.986  1.00  0.00     0.211 HD
ENDBRANCH  55  56
BRANCH  55  58
ATOM     58  C   UNL     1      15.621  33.436  27.788  1.00  0.00     0.154 C 
BRANCH  58  59
ATOM     59  N   UNL     1      16.824  32.729  27.579  1.00  0.00    -0.319 N 
ATOM     60  C   UNL     1      17.223  31.554  28.244  1.00  0.00     0.407 C 
ATOM     61  H   UNL     1      17.557  33.069  26.851  1.00  0.00     0.167 HD
ATOM     62  O   UNL     1      16.518  31.009  29.121  1.00  0.00    -0.225 OA
BRANCH  60  63
ATOM     63  O   UNL     1      18.435  30.913  27.968  1.00  0.00    -0.443 OA
BRANCH  63  64
ATOM     64  C   UNL     1      19.485  30.858  28.910  1.00  0.00     0.294 C 
BRANCH  64  65
ATOM     65  C   UNL     1      20.667  30.145  28.370  1.00  0.00     0.121 A 
ATOM     66  C   UNL     1      20.740  28.830  27.993  1.00  0.00     0.146 A 
ATOM     67  N   UNL     1      21.909  30.641  28.164  1.00  0.00    -0.131 NA
ATOM     68  N   UNL     1      22.028  28.547  27.566  1.00  0.00    -0.202 N 
ATOM     69  N   UNL     1      22.670  29.669  27.695  1.00  0.00    -0.060 NA
BRANCH  68  70
ATOM     70  C   UNL     1      22.336  27.240  27.152  1.00  0.00     0.164 A 
ATOM     71  N   UNL     1      22.599  26.305  28.098  1.00  0.00    -0.193 NA
ATOM     72  C   UNL     1      22.313  26.806  25.818  1.00  0.00     0.026 A 
ATOM     73  C   UNL     1      22.829  25.020  27.822  1.00  0.00     0.222 A 
ATOM     74  C   UNL     1      22.541  25.498  25.513  1.00  0.00     0.081 A 
ATOM     75  N   UNL     1      22.799  24.629  26.547  1.00  0.00    -0.213 NA
BRANCH  72  76
ATOM     76  C   UNL     1      22.149  27.859  24.809  1.00  0.00     0.070 C 
BRANCH  76  77
ATOM     77  C   UNL     1      23.424  28.605  24.475  1.00  0.00     0.165 C 
BRANCH  77  78
ATOM     78  O   UNL     1      24.114  28.192  23.376  1.00  0.00    -0.381 OA
BRANCH  78  79
ATOM     79  C   UNL     1      25.380  27.720  23.552  1.00  0.00     0.156 C 
ATOM     80  C   UNL     1      25.875  27.972  24.986  1.00  0.00     0.035 C 
ENDBRANCH  78  79
ENDBRANCH  77  78
ENDBRANCH  76  77
ENDBRANCH  72  76
BRANCH  73  81
ATOM     81  N   UNL     1      23.106  24.072  28.858  1.00  0.00    -0.368 N 
ATOM     82  H   UNL     1      23.183  24.384  29.847  1.00  0.00     0.159 HD
ATOM     83  H   UNL     1      23.235  23.063  28.674  1.00  0.00     0.159 HD
ENDBRANCH  73  81
BRANCH  74  84
ATOM     84  C   UNL     1      22.511  24.967  24.168  1.00  0.00     0.001 A 
ATOM     85  C   UNL     1      21.267  24.783  23.568  1.00  0.00     0.010 A 
ATOM     86  C   UNL     1      23.660  24.666  23.461  1.00  0.00     0.010 A 
ATOM     87  C   UNL     1      21.157  24.303  22.269  1.00  0.00     0.001 A 
ATOM     88  C   UNL     1      23.529  24.192  22.177  1.00  0.00     0.001 A 
ATOM     89  C   UNL     1      22.308  24.009  21.577  1.00  0.00     0.000 A 
ENDBRANCH  74  84
ENDBRANCH  68  70
ENDBRANCH  64  65
ENDBRANCH  63  64
ENDBRANCH  60  63
ENDBRANCH  58  59
ENDBRANCH  55  58
ENDBRANCH   1  55
TORSDOF 36
