REMARK VINA RESULT:    -5.765      2.681      4.180
REMARK INTER + INTRA:         -24.014
REMARK INTER:                 -15.052
REMARK INTRA:                  -8.962
REMARK UNBOUND:                -8.981
REMARK SMILES CC(=O)N[C@@H]1[C@@H](O)C[C@](OC[C@H]2O[C@@H](O[C@H]3[C@H](O)[C@@H](O)[C@H](OCCN=[N+]=[N-])O[C@@H]3CO)[C@H](O)[C@@H](O)[C@H]2O)(C(=O)O)O[C@H]1C(O)[C@H](O)CNC(=O)OCc1cn(-c2cc(C(=O)O)nc(-c3ccccc3)c2)nn1
REMARK SMILES IDX 9 1 8 2 6 3 5 4 42 5 41 6 10 7 11 8 12 9 14 10 13 11 32 12
REMARK SMILES IDX 34 13 36 14 15 15 16 16 29 17 28 18 21 19 17 20 19 21 30 22
REMARK SMILES IDX 31 23 22 25 23 26 24 27 25 28 26 29 27 30 18 31 20 33 33 35
REMARK SMILES IDX 35 37 37 39 38 41 39 42 40 43 7 45 43 47 44 48 45 50 46 51
REMARK SMILES IDX 47 53 48 54 49 55 50 57 51 58 52 59 53 60 54 61 72 62 55 63
REMARK SMILES IDX 71 64 56 65 57 66 70 67 58 68 63 69 62 70 59 71 60 72 61 73
REMARK SMILES IDX 64 75 65 76 69 77 66 78 68 79 67 80 4 81 2 82 1 84 3 85
REMARK H PARENT 31 24 18 32 20 34 33 36 35 38 37 40 40 44 7 46 44 49 46 52
REMARK H PARENT 48 56 61 74 4 83
REMARK Flexibility Score: inf
ROOT
ATOM      1  C   UNL     1      27.600  21.307  11.617  1.00  0.00     0.272 C 
ATOM      2  C   UNL     1      27.229  20.518  10.345  1.00  0.00     0.113 C 
ATOM      3  C   UNL     1      26.047  19.632  10.504  1.00  0.00     0.145 C 
ATOM      4  C   UNL     1      26.016  18.903  11.842  1.00  0.00     0.142 C 
ATOM      5  C   UNL     1      27.365  19.237  12.485  1.00  0.00     0.178 C 
ATOM      6  O   UNL     1      27.312  20.583  12.772  1.00  0.00    -0.332 OA
ENDROOT
BRANCH   1   7
ATOM      7  O   UNL     1      26.830  22.425  11.581  1.00  0.00    -0.338 OA
BRANCH   7   8
ATOM      8  C   UNL     1      26.567  23.099  12.729  1.00  0.00     0.199 C 
BRANCH   8   9
ATOM      9  C   UNL     1      25.048  23.370  12.864  1.00  0.00     0.179 C 
ATOM     10  C   UNL     1      23.045  22.732  11.838  1.00  0.00     0.282 C 
ATOM     11  O   UNL     1      24.415  22.689  11.873  1.00  0.00    -0.341 OA
ATOM     12  C   UNL     1      22.540  23.308  13.147  1.00  0.00     0.202 C 
ATOM     13  C   UNL     1      23.195  22.693  14.359  1.00  0.00     0.179 C 
ATOM     14  C   UNL     1      24.672  22.765  14.207  1.00  0.00     0.177 C 
BRANCH  10  15
ATOM     15  O   UNL     1      22.586  21.443  11.642  1.00  0.00    -0.341 OA
BRANCH  15  16
ATOM     16  C   UNL     1      21.295  21.350  11.150  1.00  0.00     0.184 C 
ATOM     17  C   UNL     1      20.637  20.052  11.443  1.00  0.00     0.178 C 
ATOM     18  O   UNL     1      20.307  19.364  10.287  1.00  0.00    -0.341 OA
ATOM     19  C   UNL     1      21.390  19.234   9.421  1.00  0.00     0.281 C 
ATOM     20  C   UNL     1      21.342  21.709   9.693  1.00  0.00     0.180 C 
ATOM     21  C   UNL     1      21.568  20.579   8.752  1.00  0.00     0.202 C 
BRANCH  17  22
ATOM     22  C   UNL     1      19.343  20.299  12.191  1.00  0.00     0.191 C 
BRANCH  22  23
ATOM     23  O   UNL     1      18.348  19.411  11.825  1.00  0.00    -0.394 OA
ATOM     24  H   UNL     1      18.355  18.635  12.445  1.00  0.00     0.210 HD
ENDBRANCH  22  23
ENDBRANCH  17  22
BRANCH  19  25
ATOM     25  O   UNL     1      21.031  18.295   8.465  1.00  0.00    -0.350 OA
BRANCH  25  26
ATOM     26  C   UNL     1      21.542  17.030   8.760  1.00  0.00     0.169 C 
BRANCH  26  27
ATOM     27  C   UNL     1      22.561  16.618   7.727  1.00  0.00     0.119 C 
BRANCH  27  28
ATOM     28  N   UNL     1      23.873  17.054   8.150  1.00  0.00    -0.092 NA
ATOM     29  N   UNL     1      24.435  17.928   7.505  1.00  0.00     0.001 N 
ATOM     30  N   UNL     1      25.112  18.932   7.229  1.00  0.00    -0.003 NA
ENDBRANCH  27  28
ENDBRANCH  26  27
ENDBRANCH  25  26
ENDBRANCH  19  25
BRANCH  20  31
ATOM     31  O   UNL     1      20.082  22.265   9.368  1.00  0.00    -0.387 OA
ATOM     32  H   UNL     1      19.437  22.110  10.102  1.00  0.00     0.211 HD
ENDBRANCH  20  31
BRANCH  21  33
ATOM     33  O   UNL     1      22.860  20.713   8.202  1.00  0.00    -0.385 OA
ATOM     34  H   UNL     1      22.829  20.761   7.207  1.00  0.00     0.211 HD
ENDBRANCH  21  33
ENDBRANCH  15  16
ENDBRANCH  10  15
BRANCH  12  35
ATOM     35  O   UNL     1      22.681  24.688  13.231  1.00  0.00    -0.385 OA
ATOM     36  H   UNL     1      23.298  24.933  12.485  1.00  0.00     0.211 HD
ENDBRANCH  12  35
BRANCH  13  37
ATOM     37  O   UNL     1      22.719  21.385  14.452  1.00  0.00    -0.387 OA
ATOM     38  H   UNL     1      23.512  20.795  14.537  1.00  0.00     0.211 HD
ENDBRANCH  13  37
BRANCH  14  39
ATOM     39  O   UNL     1      25.150  21.439  14.234  1.00  0.00    -0.387 OA
ATOM     40  H   UNL     1      24.682  20.885  14.880  1.00  0.00     0.211 HD
ENDBRANCH  14  39
ENDBRANCH   8   9
ENDBRANCH   7   8
ENDBRANCH   1   7
BRANCH   1  41
ATOM     41  C   UNL     1      29.066  21.539  11.608  1.00  0.00     0.364 C 
ATOM     42  O   UNL     1      29.732  21.601  10.539  1.00  0.00    -0.246 OA
BRANCH  41  43
ATOM     43  O   UNL     1      29.755  21.700  12.789  1.00  0.00    -0.477 OA
ATOM     44  H   UNL     1      29.540  22.431  13.479  1.00  0.00     0.296 HD
ENDBRANCH  41  43
ENDBRANCH   1  41
BRANCH   3  45
ATOM     45  O   UNL     1      24.850  20.243  10.203  1.00  0.00    -0.391 OA
ATOM     46  H   UNL     1      24.561  19.963   9.312  1.00  0.00     0.211 HD
ENDBRANCH   3  45
BRANCH   5  47
ATOM     47  C   UNL     1      27.739  18.336  13.601  1.00  0.00     0.176 C 
BRANCH  47  48
ATOM     48  O   UNL     1      26.771  18.459  14.624  1.00  0.00    -0.388 OA
ATOM     49  H   UNL     1      26.584  19.436  14.796  1.00  0.00     0.211 HD
ENDBRANCH  47  48
BRANCH  47  50
ATOM     50  C   UNL     1      29.117  18.526  14.171  1.00  0.00     0.165 C 
BRANCH  50  51
ATOM     51  O   UNL     1      29.809  17.332  14.124  1.00  0.00    -0.388 OA
ATOM     52  H   UNL     1      30.719  17.404  14.516  1.00  0.00     0.211 HD
ENDBRANCH  50  51
BRANCH  50  53
ATOM     53  C   UNL     1      28.938  19.024  15.584  1.00  0.00     0.154 C 
BRANCH  53  54
ATOM     54  N   UNL     1      29.180  20.404  15.799  1.00  0.00    -0.319 N 
ATOM     55  C   UNL     1      28.134  21.307  16.121  1.00  0.00     0.407 C 
ATOM     56  H   UNL     1      30.149  20.800  15.726  1.00  0.00     0.167 HD
ATOM     57  O   UNL     1      26.965  20.885  16.200  1.00  0.00    -0.225 OA
BRANCH  55  58
ATOM     58  O   UNL     1      28.400  22.671  16.355  1.00  0.00    -0.443 OA
BRANCH  58  59
ATOM     59  C   UNL     1      27.319  23.566  16.415  1.00  0.00     0.294 C 
BRANCH  59  60
ATOM     60  C   UNL     1      26.808  23.702  17.800  1.00  0.00     0.121 A 
ATOM     61  C   UNL     1      25.672  24.319  18.268  1.00  0.00     0.144 A 
ATOM     62  N   UNL     1      27.414  23.241  18.932  1.00  0.00    -0.131 NA
ATOM     63  N   UNL     1      25.601  24.235  19.614  1.00  0.00    -0.220 N 
ATOM     64  N   UNL     1      26.692  23.564  19.985  1.00  0.00    -0.062 NA
BRANCH  63  65
ATOM     65  C   UNL     1      24.593  24.778  20.448  1.00  0.00     0.071 A 
ATOM     66  C   UNL     1      23.620  25.562  19.846  1.00  0.00     0.064 A 
ATOM     67  C   UNL     1      24.490  24.578  21.809  1.00  0.00     0.057 A 
ATOM     68  C   UNL     1      22.609  26.098  20.623  1.00  0.00     0.151 A 
ATOM     69  C   UNL     1      23.492  25.108  22.565  1.00  0.00     0.073 A 
ATOM     70  N   UNL     1      22.563  25.866  21.950  1.00  0.00    -0.241 NA
BRANCH  68  71
ATOM     71  C   UNL     1      21.572  26.922  20.019  1.00  0.00     0.354 C 
ATOM     72  O   UNL     1      21.668  27.192  18.796  1.00  0.00    -0.245 OA
BRANCH  71  73
ATOM     73  O   UNL     1      20.493  27.423  20.708  1.00  0.00    -0.477 OA
ATOM     74  H   UNL     1      19.787  26.822  21.153  1.00  0.00     0.297 HD
ENDBRANCH  71  73
ENDBRANCH  68  71
BRANCH  69  75
ATOM     75  C   UNL     1      23.399  24.877  24.002  1.00  0.00     0.000 A 
ATOM     76  C   UNL     1      24.587  24.760  24.722  1.00  0.00     0.010 A 
ATOM     77  C   UNL     1      22.221  24.770  24.682  1.00  0.00     0.010 A 
ATOM     78  C   UNL     1      24.595  24.545  26.074  1.00  0.00     0.001 A 
ATOM     79  C   UNL     1      22.241  24.552  26.049  1.00  0.00     0.001 A 
ATOM     80  C   UNL     1      23.399  24.436  26.761  1.00  0.00     0.000 A 
ENDBRANCH  69  75
ENDBRANCH  63  65
ENDBRANCH  59  60
ENDBRANCH  58  59
ENDBRANCH  55  58
ENDBRANCH  53  54
ENDBRANCH  50  53
ENDBRANCH  47  50
ENDBRANCH   5  47
BRANCH   4  81
ATOM     81  N   UNL     1      25.793  17.502  11.688  1.00  0.00    -0.348 N 
ATOM     82  C   UNL     1      24.470  16.990  11.671  1.00  0.00     0.217 C 
ATOM     83  H   UNL     1      26.617  16.866  11.591  1.00  0.00     0.163 HD
ATOM     84  C   UNL     1      24.176  15.542  11.512  1.00  0.00     0.114 C 
ATOM     85  O   UNL     1      23.468  17.773  11.790  1.00  0.00    -0.275 OA
ENDBRANCH   4  81
TORSDOF 33
