REMARK VINA RESULT:    -6.389      3.286      8.670
REMARK INTER + INTRA:         -22.481
REMARK INTER:                 -15.770
REMARK INTRA:                  -6.711
REMARK UNBOUND:                -5.634
REMARK SMILES CC(=O)N[C@@H]1[C@@H](O)C[C@](OC[C@H]2O[C@@H](O[C@H]3[C@H](O)[C@@H](O)[C@H](OCCN=[N+]=[N-])O[C@@H]3CO)[C@H](O)[C@@H](O)[C@H]2O)(C(=O)O)O[C@H]1C(O)[C@H](O)CNC(=O)OCc1cn(Cc2ccccc2OC(C)=O)nn1
REMARK SMILES IDX 43 1 42 2 9 3 8 4 41 5 6 6 5 7 10 8 11 9 12 10 14 11 13 12
REMARK SMILES IDX 32 13 34 14 36 15 15 16 16 17 29 18 28 19 21 20 17 21 19 22
REMARK SMILES IDX 30 23 31 24 22 26 23 27 24 28 25 29 26 30 27 31 18 32 20 34
REMARK SMILES IDX 33 36 35 38 37 40 38 42 39 43 40 44 7 46 4 48 2 49 1 51 3 52
REMARK SMILES IDX 44 53 45 55 46 56 47 58 48 59 49 60 50 62 51 63 52 64 53 65
REMARK SMILES IDX 54 66 68 67 55 68 67 69 56 70 57 71 62 72 58 73 61 74 59 75
REMARK SMILES IDX 60 76 63 77 64 78 66 79 65 80
REMARK H PARENT 31 25 18 33 20 35 33 37 35 39 37 41 40 45 7 47 4 50 44 54
REMARK H PARENT 46 57 48 61
REMARK Flexibility Score: inf
ROOT
ATOM      1  C   UNL     1      23.874  27.255  23.833  1.00  0.00     0.176 C 
ENDROOT
BRANCH   1   2
ATOM      2  C   UNL     1      23.501  26.064  22.964  1.00  0.00     0.178 C 
ATOM      3  C   UNL     1      22.960  25.530  20.760  1.00  0.00     0.272 C 
ATOM      4  C   UNL     1      22.474  24.288  21.498  1.00  0.00     0.113 C 
ATOM      5  O   UNL     1      23.194  26.550  21.713  1.00  0.00    -0.332 OA
ATOM      6  C   UNL     1      21.490  24.777  22.549  1.00  0.00     0.145 C 
ATOM      7  C   UNL     1      22.268  25.440  23.620  1.00  0.00     0.142 C 
BRANCH   3   8
ATOM      8  O   UNL     1      22.039  26.036  19.892  1.00  0.00    -0.338 OA
BRANCH   8   9
ATOM      9  C   UNL     1      22.245  27.272  19.367  1.00  0.00     0.199 C 
BRANCH   9  10
ATOM     10  C   UNL     1      21.834  27.223  17.885  1.00  0.00     0.179 C 
ATOM     11  C   UNL     1      20.925  28.529  16.226  1.00  0.00     0.282 C 
ATOM     12  O   UNL     1      21.440  28.527  17.567  1.00  0.00    -0.341 OA
ATOM     13  C   UNL     1      22.125  28.413  15.354  1.00  0.00     0.202 C 
ATOM     14  C   UNL     1      22.698  27.006  15.598  1.00  0.00     0.179 C 
ATOM     15  C   UNL     1      22.981  26.764  17.043  1.00  0.00     0.177 C 
BRANCH  11  16
ATOM     16  O   UNL     1      20.191  29.688  16.155  1.00  0.00    -0.341 OA
BRANCH  16  17
ATOM     17  C   UNL     1      18.864  29.429  15.765  1.00  0.00     0.184 C 
ATOM     18  C   UNL     1      18.253  30.505  14.947  1.00  0.00     0.178 C 
ATOM     19  O   UNL     1      16.959  30.840  15.359  1.00  0.00    -0.341 OA
ATOM     20  C   UNL     1      16.135  29.746  15.586  1.00  0.00     0.281 C 
ATOM     21  C   UNL     1      18.020  29.437  17.095  1.00  0.00     0.180 C 
ATOM     22  C   UNL     1      16.686  28.863  16.705  1.00  0.00     0.202 C 
BRANCH  18  23
ATOM     23  C   UNL     1      18.340  30.336  13.462  1.00  0.00     0.191 C 
BRANCH  23  24
ATOM     24  O   UNL     1      18.946  29.122  13.175  1.00  0.00    -0.394 OA
ATOM     25  H   UNL     1      19.916  29.234  13.096  1.00  0.00     0.210 HD
ENDBRANCH  23  24
ENDBRANCH  18  23
BRANCH  20  26
ATOM     26  O   UNL     1      16.009  28.980  14.482  1.00  0.00    -0.350 OA
BRANCH  26  27
ATOM     27  C   UNL     1      14.802  28.681  13.967  1.00  0.00     0.169 C 
BRANCH  27  28
ATOM     28  C   UNL     1      14.062  29.728  13.217  1.00  0.00     0.119 C 
BRANCH  28  29
ATOM     29  N   UNL     1      13.025  30.296  14.010  1.00  0.00    -0.092 NA
ATOM     30  N   UNL     1      12.117  29.644  14.476  1.00  0.00     0.001 N 
ATOM     31  N   UNL     1      11.409  28.852  15.105  1.00  0.00    -0.003 NA
ENDBRANCH  28  29
ENDBRANCH  27  28
ENDBRANCH  26  27
ENDBRANCH  20  26
BRANCH  21  32
ATOM     32  O   UNL     1      18.683  28.718  18.059  1.00  0.00    -0.387 OA
ATOM     33  H   UNL     1      18.597  27.729  17.870  1.00  0.00     0.211 HD
ENDBRANCH  21  32
BRANCH  22  34
ATOM     34  O   UNL     1      15.826  28.744  17.774  1.00  0.00    -0.385 OA
ATOM     35  H   UNL     1      16.098  27.925  18.279  1.00  0.00     0.211 HD
ENDBRANCH  22  34
ENDBRANCH  16  17
ENDBRANCH  11  16
BRANCH  13  36
ATOM     36  O   UNL     1      21.837  28.449  13.999  1.00  0.00    -0.385 OA
ATOM     37  H   UNL     1      21.706  29.349  13.634  1.00  0.00     0.211 HD
ENDBRANCH  13  36
BRANCH  14  38
ATOM     38  O   UNL     1      23.823  26.804  14.796  1.00  0.00    -0.387 OA
ATOM     39  H   UNL     1      24.216  25.931  15.085  1.00  0.00     0.211 HD
ENDBRANCH  14  38
BRANCH  15  40
ATOM     40  O   UNL     1      24.177  27.402  17.365  1.00  0.00    -0.387 OA
ATOM     41  H   UNL     1      24.763  26.867  17.932  1.00  0.00     0.211 HD
ENDBRANCH  15  40
ENDBRANCH   9  10
ENDBRANCH   8   9
ENDBRANCH   3   8
BRANCH   3  42
ATOM     42  C   UNL     1      24.250  25.154  20.140  1.00  0.00     0.364 C 
ATOM     43  O   UNL     1      25.328  25.572  20.553  1.00  0.00    -0.246 OA
BRANCH  42  44
ATOM     44  O   UNL     1      24.235  24.290  19.042  1.00  0.00    -0.477 OA
ATOM     45  H   UNL     1      23.372  23.807  18.750  1.00  0.00     0.296 HD
ENDBRANCH  42  44
ENDBRANCH   3  42
BRANCH   6  46
ATOM     46  O   UNL     1      20.709  25.747  21.913  1.00  0.00    -0.391 OA
ATOM     47  H   UNL     1      19.886  25.386  21.506  1.00  0.00     0.211 HD
ENDBRANCH   6  46
BRANCH   7  48
ATOM     48  N   UNL     1      22.635  24.674  24.737  1.00  0.00    -0.348 N 
ATOM     49  C   UNL     1      22.356  25.039  26.084  1.00  0.00     0.217 C 
ATOM     50  H   UNL     1      23.154  23.766  24.563  1.00  0.00     0.163 HD
ATOM     51  C   UNL     1      22.758  24.208  27.231  1.00  0.00     0.114 C 
ATOM     52  O   UNL     1      21.748  26.103  26.257  1.00  0.00    -0.275 OA
ENDBRANCH   7  48
ENDBRANCH   1   2
BRANCH   1  53
ATOM     53  O   UNL     1      24.988  26.878  24.562  1.00  0.00    -0.388 OA
ATOM     54  H   UNL     1      24.834  26.779  25.525  1.00  0.00     0.211 HD
ENDBRANCH   1  53
BRANCH   1  55
ATOM     55  C   UNL     1      24.015  28.533  23.076  1.00  0.00     0.165 C 
BRANCH  55  56
ATOM     56  O   UNL     1      25.296  29.035  23.322  1.00  0.00    -0.388 OA
ATOM     57  H   UNL     1      25.857  28.398  23.789  1.00  0.00     0.211 HD
ENDBRANCH  55  56
BRANCH  55  58
ATOM     58  C   UNL     1      22.957  29.550  23.430  1.00  0.00     0.154 C 
BRANCH  58  59
ATOM     59  N   UNL     1      22.043  29.847  22.377  1.00  0.00    -0.319 N 
ATOM     60  C   UNL     1      20.767  29.243  22.230  1.00  0.00     0.407 C 
ATOM     61  H   UNL     1      22.312  30.563  21.648  1.00  0.00     0.167 HD
ATOM     62  O   UNL     1      20.424  28.386  23.081  1.00  0.00    -0.225 OA
BRANCH  60  63
ATOM     63  O   UNL     1      19.895  29.540  21.210  1.00  0.00    -0.443 OA
BRANCH  63  64
ATOM     64  C   UNL     1      18.684  30.265  21.421  1.00  0.00     0.294 C 
BRANCH  64  65
ATOM     65  C   UNL     1      17.504  29.431  21.151  1.00  0.00     0.120 A 
ATOM     66  C   UNL     1      16.229  29.751  21.557  1.00  0.00     0.138 A 
ATOM     67  N   UNL     1      17.400  28.267  20.499  1.00  0.00    -0.132 NA
ATOM     68  N   UNL     1      15.394  28.792  21.151  1.00  0.00    -0.248 N 
ATOM     69  N   UNL     1      16.152  27.890  20.500  1.00  0.00    -0.067 NA
BRANCH  68  70
ATOM     70  C   UNL     1      13.962  28.658  21.336  1.00  0.00     0.185 C 
BRANCH  70  71
ATOM     71  C   UNL     1      13.269  29.940  21.175  1.00  0.00     0.016 A 
ATOM     72  C   UNL     1      12.585  30.522  22.186  1.00  0.00     0.135 A 
ATOM     73  C   UNL     1      13.357  30.552  19.921  1.00  0.00     0.009 A 
ATOM     74  C   UNL     1      11.963  31.751  21.960  1.00  0.00     0.047 A 
ATOM     75  C   UNL     1      12.741  31.759  19.710  1.00  0.00     0.001 A 
ATOM     76  C   UNL     1      12.041  32.368  20.726  1.00  0.00     0.004 A 
BRANCH  72  77
ATOM     77  O   UNL     1      12.468  29.957  23.439  1.00  0.00    -0.426 OA
BRANCH  77  78
ATOM     78  C   UNL     1      13.161  30.558  24.495  1.00  0.00     0.308 C 
ATOM     79  O   UNL     1      12.563  31.394  25.207  1.00  0.00    -0.252 OA
ATOM     80  C   UNL     1      14.561  30.203  24.747  1.00  0.00     0.139 C 
ENDBRANCH  77  78
ENDBRANCH  72  77
ENDBRANCH  70  71
ENDBRANCH  68  70
ENDBRANCH  64  65
ENDBRANCH  63  64
ENDBRANCH  60  63
ENDBRANCH  58  59
ENDBRANCH  55  58
ENDBRANCH   1  55
TORSDOF 33
