REMARK VINA RESULT:    -5.280      5.464     13.244
REMARK INTER + INTRA:         -22.895
REMARK INTER:                 -16.490
REMARK INTRA:                  -6.405
REMARK UNBOUND:                -8.356
REMARK SMILES CC(=O)N[C@@H]1[C@@H](O)C[C@](OC[C@H]2O[C@@H](O[C@H]3[C@H](O)[C@@H](O)[C@H](OCCN=[N+]=[N-])O[C@@H]3CO)[C@H](O)[C@@H](O)[C@H]2O)(C(=O)O)O[C@H]1C(O)[C@H](O)CNC(=O)OCc1cn([C@@H](CCC(=O)O)C(=O)O)nn1
REMARK SMILES IDX 43 1 42 2 9 3 8 4 41 5 6 6 5 7 10 8 11 9 12 10 14 11 13 12
REMARK SMILES IDX 32 13 34 14 36 15 15 16 16 17 29 18 28 19 21 20 17 21 19 22
REMARK SMILES IDX 30 23 31 24 22 26 23 27 24 28 25 29 26 30 27 31 18 32 20 34
REMARK SMILES IDX 33 36 35 38 37 40 38 42 39 43 40 44 7 46 4 48 2 49 1 51 3 52
REMARK SMILES IDX 44 53 45 55 46 56 47 58 48 59 49 60 50 62 51 63 52 64 53 65
REMARK SMILES IDX 54 66 66 67 55 68 65 69 56 70 57 71 58 72 59 73 60 74 61 75
REMARK SMILES IDX 62 77 63 78 64 79
REMARK H PARENT 31 25 18 33 20 35 33 37 35 39 37 41 40 45 7 47 4 50 44 54
REMARK H PARENT 46 57 48 61 61 76 64 80
REMARK Flexibility Score: inf
ROOT
ATOM      1  C   UNL     1      23.306  27.674  23.081  1.00  0.00     0.176 C 
ENDROOT
BRANCH   1   2
ATOM      2  C   UNL     1      23.446  26.153  23.017  1.00  0.00     0.178 C 
ATOM      3  C   UNL     1      23.552  24.578  21.270  1.00  0.00     0.272 C 
ATOM      4  C   UNL     1      22.353  23.833  21.701  1.00  0.00     0.113 C 
ATOM      5  O   UNL     1      23.305  25.915  21.650  1.00  0.00    -0.332 OA
ATOM      6  C   UNL     1      21.552  24.584  22.729  1.00  0.00     0.145 C 
ATOM      7  C   UNL     1      22.309  25.434  23.685  1.00  0.00     0.142 C 
BRANCH   3   8
ATOM      8  O   UNL     1      23.677  24.595  19.896  1.00  0.00    -0.338 OA
BRANCH   8   9
ATOM      9  C   UNL     1      23.712  25.667  19.147  1.00  0.00     0.199 C 
BRANCH   9  10
ATOM     10  C   UNL     1      24.719  25.900  18.056  1.00  0.00     0.179 C 
ATOM     11  C   UNL     1      26.441  24.570  17.213  1.00  0.00     0.282 C 
ATOM     12  O   UNL     1      25.897  25.245  18.275  1.00  0.00    -0.341 OA
ATOM     13  C   UNL     1      25.447  23.530  16.744  1.00  0.00     0.202 C 
ATOM     14  C   UNL     1      24.236  24.230  16.215  1.00  0.00     0.179 C 
ATOM     15  C   UNL     1      24.103  25.633  16.688  1.00  0.00     0.177 C 
BRANCH  11  16
ATOM     16  O   UNL     1      27.594  23.913  17.650  1.00  0.00    -0.341 OA
BRANCH  16  17
ATOM     17  C   UNL     1      27.765  23.877  19.011  1.00  0.00     0.184 C 
ATOM     18  C   UNL     1      29.208  24.180  19.405  1.00  0.00     0.178 C 
ATOM     19  O   UNL     1      29.737  23.078  20.073  1.00  0.00    -0.341 OA
ATOM     20  C   UNL     1      29.911  22.001  19.159  1.00  0.00     0.281 C 
ATOM     21  C   UNL     1      27.470  22.461  19.463  1.00  0.00     0.180 C 
ATOM     22  C   UNL     1      28.527  21.557  18.793  1.00  0.00     0.202 C 
BRANCH  18  23
ATOM     23  C   UNL     1      29.229  25.349  20.375  1.00  0.00     0.191 C 
BRANCH  23  24
ATOM     24  O   UNL     1      28.147  26.190  20.197  1.00  0.00    -0.394 OA
ATOM     25  H   UNL     1      28.386  26.999  19.673  1.00  0.00     0.210 HD
ENDBRANCH  23  24
ENDBRANCH  18  23
BRANCH  20  26
ATOM     26  O   UNL     1      30.698  21.075  19.779  1.00  0.00    -0.350 OA
BRANCH  26  27
ATOM     27  C   UNL     1      30.296  19.774  19.656  1.00  0.00     0.169 C 
BRANCH  27  28
ATOM     28  C   UNL     1      29.286  19.335  20.697  1.00  0.00     0.119 C 
BRANCH  28  29
ATOM     29  N   UNL     1      29.558  19.909  22.000  1.00  0.00    -0.092 NA
ATOM     30  N   UNL     1      30.352  19.433  22.805  1.00  0.00     0.001 N 
ATOM     31  N   UNL     1      31.280  18.996  23.450  1.00  0.00    -0.003 NA
ENDBRANCH  28  29
ENDBRANCH  27  28
ENDBRANCH  26  27
ENDBRANCH  20  26
BRANCH  21  32
ATOM     32  O   UNL     1      27.514  22.317  20.844  1.00  0.00    -0.387 OA
ATOM     33  H   UNL     1      28.386  21.923  21.163  1.00  0.00     0.211 HD
ENDBRANCH  21  32
BRANCH  22  34
ATOM     34  O   UNL     1      28.366  21.822  17.410  1.00  0.00    -0.385 OA
ATOM     35  H   UNL     1      27.960  21.015  17.002  1.00  0.00     0.211 HD
ENDBRANCH  22  34
ENDBRANCH  16  17
ENDBRANCH  11  16
BRANCH  13  36
ATOM     36  O   UNL     1      26.014  22.715  15.763  1.00  0.00    -0.385 OA
ATOM     37  H   UNL     1      26.389  23.346  15.069  1.00  0.00     0.211 HD
ENDBRANCH  13  36
BRANCH  14  38
ATOM     38  O   UNL     1      23.060  23.518  16.466  1.00  0.00    -0.387 OA
ATOM     39  H   UNL     1      23.285  22.546  16.568  1.00  0.00     0.211 HD
ENDBRANCH  14  38
BRANCH  15  40
ATOM     40  O   UNL     1      22.735  25.904  16.764  1.00  0.00    -0.387 OA
ATOM     41  H   UNL     1      22.489  26.229  17.659  1.00  0.00     0.211 HD
ENDBRANCH  15  40
ENDBRANCH   9  10
ENDBRANCH   8   9
ENDBRANCH   3   8
BRANCH   3  42
ATOM     42  C   UNL     1      24.845  24.187  21.817  1.00  0.00     0.364 C 
ATOM     43  O   UNL     1      25.864  24.913  21.527  1.00  0.00    -0.246 OA
BRANCH  42  44
ATOM     44  O   UNL     1      25.148  23.110  22.628  1.00  0.00    -0.477 OA
ATOM     45  H   UNL     1      24.585  22.292  22.659  1.00  0.00     0.296 HD
ENDBRANCH  42  44
ENDBRANCH   3  42
BRANCH   6  46
ATOM     46  O   UNL     1      20.701  25.469  22.010  1.00  0.00    -0.391 OA
ATOM     47  H   UNL     1      20.705  25.255  21.042  1.00  0.00     0.211 HD
ENDBRANCH   6  46
BRANCH   7  48
ATOM     48  N   UNL     1      22.601  24.641  24.828  1.00  0.00    -0.348 N 
ATOM     49  C   UNL     1      22.605  25.132  26.157  1.00  0.00     0.217 C 
ATOM     50  H   UNL     1      22.811  23.628  24.744  1.00  0.00     0.163 HD
ATOM     51  C   UNL     1      22.929  24.235  27.323  1.00  0.00     0.114 C 
ATOM     52  O   UNL     1      22.343  26.310  26.389  1.00  0.00    -0.275 OA
ENDBRANCH   7  48
ENDBRANCH   1   2
BRANCH   1  53
ATOM     53  O   UNL     1      22.055  27.999  23.591  1.00  0.00    -0.388 OA
ATOM     54  H   UNL     1      21.432  28.217  22.847  1.00  0.00     0.211 HD
ENDBRANCH   1  53
BRANCH   1  55
ATOM     55  C   UNL     1      23.595  28.420  21.864  1.00  0.00     0.165 C 
BRANCH  55  56
ATOM     56  O   UNL     1      24.821  29.125  22.055  1.00  0.00    -0.388 OA
ATOM     57  H   UNL     1      25.556  28.505  21.836  1.00  0.00     0.211 HD
ENDBRANCH  55  56
BRANCH  55  58
ATOM     58  C   UNL     1      22.617  29.468  21.425  1.00  0.00     0.154 C 
BRANCH  58  59
ATOM     59  N   UNL     1      21.751  29.031  20.356  1.00  0.00    -0.319 N 
ATOM     60  C   UNL     1      20.458  28.467  20.565  1.00  0.00     0.407 C 
ATOM     61  H   UNL     1      22.076  29.115  19.380  1.00  0.00     0.167 HD
ATOM     62  O   UNL     1      20.009  28.324  21.701  1.00  0.00    -0.225 OA
BRANCH  60  63
ATOM     63  O   UNL     1      19.732  28.087  19.464  1.00  0.00    -0.443 OA
BRANCH  63  64
ATOM     64  C   UNL     1      18.730  28.870  18.883  1.00  0.00     0.294 C 
BRANCH  64  65
ATOM     65  C   UNL     1      17.498  28.794  19.706  1.00  0.00     0.120 A 
ATOM     66  C   UNL     1      16.848  29.795  20.398  1.00  0.00     0.139 A 
ATOM     67  N   UNL     1      16.780  27.665  19.946  1.00  0.00    -0.132 NA
ATOM     68  N   UNL     1      15.765  29.258  21.032  1.00  0.00    -0.238 N 
ATOM     69  N   UNL     1      15.763  27.959  20.730  1.00  0.00    -0.066 NA
BRANCH  68  70
ATOM     70  C   UNL     1      14.823  29.955  21.829  1.00  0.00     0.219 C 
BRANCH  70  71
ATOM     71  C   UNL     1      13.454  29.405  21.992  1.00  0.00     0.051 C 
BRANCH  71  72
ATOM     72  C   UNL     1      12.399  30.229  22.603  1.00  0.00     0.125 C 
BRANCH  72  73
ATOM     73  C   UNL     1      11.803  29.822  23.858  1.00  0.00     0.303 C 
ATOM     74  O   UNL     1      10.610  29.869  24.206  1.00  0.00    -0.252 OA
BRANCH  73  75
ATOM     75  O   UNL     1      12.654  29.283  24.875  1.00  0.00    -0.481 OA
ATOM     76  H   UNL     1      13.191  28.455  24.672  1.00  0.00     0.296 HD
ENDBRANCH  73  75
ENDBRANCH  72  73
ENDBRANCH  71  72
ENDBRANCH  70  71
BRANCH  70  77
ATOM     77  C   UNL     1      15.410  30.157  23.191  1.00  0.00     0.328 C 
ATOM     78  O   UNL     1      15.084  31.143  23.879  1.00  0.00    -0.250 OA
BRANCH  77  79
ATOM     79  O   UNL     1      16.324  29.271  23.731  1.00  0.00    -0.480 OA
ATOM     80  H   UNL     1      17.289  29.225  23.399  1.00  0.00     0.296 HD
ENDBRANCH  77  79
ENDBRANCH  70  77
ENDBRANCH  68  70
ENDBRANCH  64  65
ENDBRANCH  63  64
ENDBRANCH  60  63
ENDBRANCH  58  59
ENDBRANCH  55  58
ENDBRANCH   1  55
TORSDOF 36
