REMARK VINA RESULT:    -5.984      3.183     10.706
REMARK INTER + INTRA:         -20.945
REMARK INTER:                 -15.229
REMARK INTRA:                  -5.717
REMARK UNBOUND:                -5.342
REMARK SMILES CC(=O)N[C@@H]1[C@@H](O)C[C@](OC[C@H]2O[C@@H](O[C@H]3[C@H](O)[C@@H](O)[C@H](OCCN=[N+]=[N-])O[C@@H]3CO)[C@H](O)[C@@H](O)[C@H]2O)(C(=O)O)O[C@H]1C(O)[C@H](O)CNC(=O)OCc1cn(CCC(=O)O)nn1
REMARK SMILES IDX 43 1 42 2 9 3 8 4 41 5 6 6 5 7 10 8 11 9 12 10 14 11 13 12
REMARK SMILES IDX 32 13 34 14 36 15 15 16 16 17 29 18 28 19 21 20 17 21 19 22
REMARK SMILES IDX 30 23 31 24 22 26 23 27 24 28 25 29 26 30 27 31 18 32 20 34
REMARK SMILES IDX 33 36 35 38 37 40 38 42 39 43 40 44 7 46 4 48 2 49 1 51 3 52
REMARK SMILES IDX 44 53 45 55 46 56 47 58 48 59 49 60 50 62 51 63 52 64 53 65
REMARK SMILES IDX 54 66 62 67 55 68 61 69 56 70 57 71 58 72 59 73 60 74
REMARK H PARENT 31 25 18 33 20 35 33 37 35 39 37 41 40 45 7 47 4 50 44 54
REMARK H PARENT 46 57 48 61 60 75
REMARK Flexibility Score: inf
ROOT
ATOM      1  C   UNL     1       9.080  23.166  35.902  1.00  0.00     0.176 C 
ENDROOT
BRANCH   1   2
ATOM      2  C   UNL     1       8.099  24.315  35.878  1.00  0.00     0.178 C 
ATOM      3  C   UNL     1       5.826  24.789  36.210  1.00  0.00     0.272 C 
ATOM      4  C   UNL     1       6.476  26.152  36.058  1.00  0.00     0.113 C 
ATOM      5  O   UNL     1       6.814  23.918  35.613  1.00  0.00    -0.332 OA
ATOM      6  C   UNL     1       7.245  26.256  34.725  1.00  0.00     0.145 C 
ATOM      7  C   UNL     1       8.459  25.339  34.810  1.00  0.00     0.142 C 
BRANCH   3   8
ATOM      8  O   UNL     1       4.691  24.716  35.490  1.00  0.00    -0.338 OA
BRANCH   8   9
ATOM      9  C   UNL     1       4.032  23.666  35.086  1.00  0.00     0.199 C 
BRANCH   9  10
ATOM     10  C   UNL     1       3.333  23.489  33.807  1.00  0.00     0.179 C 
ATOM     11  C   UNL     1       2.568  24.344  31.817  1.00  0.00     0.282 C 
ATOM     12  O   UNL     1       3.107  24.603  33.045  1.00  0.00    -0.341 OA
ATOM     13  C   UNL     1       2.280  22.901  31.515  1.00  0.00     0.202 C 
ATOM     14  C   UNL     1       3.441  21.999  31.887  1.00  0.00     0.179 C 
ATOM     15  C   UNL     1       4.328  22.649  32.925  1.00  0.00     0.177 C 
BRANCH  11  16
ATOM     16  O   UNL     1       3.339  24.822  30.758  1.00  0.00    -0.341 OA
BRANCH  16  17
ATOM     17  C   UNL     1       2.603  25.061  29.600  1.00  0.00     0.184 C 
ATOM     18  C   UNL     1       3.366  24.540  28.433  1.00  0.00     0.178 C 
ATOM     19  O   UNL     1       3.814  25.540  27.554  1.00  0.00    -0.341 OA
ATOM     20  C   UNL     1       4.498  26.460  28.375  1.00  0.00     0.281 C 
ATOM     21  C   UNL     1       2.315  26.533  29.548  1.00  0.00     0.180 C 
ATOM     22  C   UNL     1       3.428  27.348  28.967  1.00  0.00     0.202 C 
BRANCH  18  23
ATOM     23  C   UNL     1       2.539  23.549  27.629  1.00  0.00     0.191 C 
BRANCH  23  24
ATOM     24  O   UNL     1       2.744  22.255  28.100  1.00  0.00    -0.394 OA
ATOM     25  H   UNL     1       2.300  21.626  27.484  1.00  0.00     0.210 HD
ENDBRANCH  23  24
ENDBRANCH  18  23
BRANCH  20  26
ATOM     26  O   UNL     1       5.441  27.172  27.673  1.00  0.00    -0.350 OA
BRANCH  26  27
ATOM     27  C   UNL     1       4.973  27.408  26.383  1.00  0.00     0.169 C 
BRANCH  27  28
ATOM     28  C   UNL     1       6.087  27.120  25.386  1.00  0.00     0.119 C 
BRANCH  28  29
ATOM     29  N   UNL     1       7.331  27.242  26.116  1.00  0.00    -0.092 NA
ATOM     30  N   UNL     1       8.382  26.985  25.532  1.00  0.00     0.001 N 
ATOM     31  N   UNL     1       9.573  26.883  25.166  1.00  0.00    -0.003 NA
ENDBRANCH  28  29
ENDBRANCH  27  28
ENDBRANCH  26  27
ENDBRANCH  20  26
BRANCH  21  32
ATOM     32  O   UNL     1       1.182  26.707  28.760  1.00  0.00    -0.387 OA
ATOM     33  H   UNL     1       1.255  26.121  27.982  1.00  0.00     0.211 HD
ENDBRANCH  21  32
BRANCH  22  34
ATOM     34  O   UNL     1       3.966  28.214  29.922  1.00  0.00    -0.385 OA
ATOM     35  H   UNL     1       3.870  29.159  29.623  1.00  0.00     0.211 HD
ENDBRANCH  22  34
ENDBRANCH  16  17
ENDBRANCH  11  16
BRANCH  13  36
ATOM     36  O   UNL     1       1.072  22.450  32.067  1.00  0.00    -0.385 OA
ATOM     37  H   UNL     1       0.460  22.202  31.357  1.00  0.00     0.211 HD
ENDBRANCH  13  36
BRANCH  14  38
ATOM     38  O   UNL     1       4.127  21.605  30.760  1.00  0.00    -0.387 OA
ATOM     39  H   UNL     1       3.976  22.226  30.019  1.00  0.00     0.211 HD
ENDBRANCH  14  38
BRANCH  15  40
ATOM     40  O   UNL     1       5.197  23.565  32.384  1.00  0.00    -0.387 OA
ATOM     41  H   UNL     1       5.595  23.305  31.521  1.00  0.00     0.211 HD
ENDBRANCH  15  40
ENDBRANCH   9  10
ENDBRANCH   8   9
ENDBRANCH   3   8
BRANCH   3  42
ATOM     42  C   UNL     1       5.695  24.342  37.600  1.00  0.00     0.364 C 
ATOM     43  O   UNL     1       5.418  25.168  38.504  1.00  0.00    -0.246 OA
BRANCH  42  44
ATOM     44  O   UNL     1       5.869  23.027  37.949  1.00  0.00    -0.477 OA
ATOM     45  H   UNL     1       6.745  22.551  38.023  1.00  0.00     0.296 HD
ENDBRANCH  42  44
ENDBRANCH   3  42
BRANCH   6  46
ATOM     46  O   UNL     1       6.409  25.782  33.738  1.00  0.00    -0.391 OA
ATOM     47  H   UNL     1       6.488  24.784  33.719  1.00  0.00     0.211 HD
ENDBRANCH   6  46
BRANCH   7  48
ATOM     48  N   UNL     1       9.631  26.080  35.141  1.00  0.00    -0.348 N 
ATOM     49  C   UNL     1      10.729  26.091  34.242  1.00  0.00     0.217 C 
ATOM     50  H   UNL     1       9.725  26.624  36.026  1.00  0.00     0.163 HD
ATOM     51  C   UNL     1      11.986  26.833  34.508  1.00  0.00     0.114 C 
ATOM     52  O   UNL     1      10.680  25.452  33.150  1.00  0.00    -0.275 OA
ENDBRANCH   7  48
ENDBRANCH   1   2
BRANCH   1  53
ATOM     53  O   UNL     1       9.759  23.151  34.683  1.00  0.00    -0.388 OA
ATOM     54  H   UNL     1       9.211  22.761  33.972  1.00  0.00     0.211 HD
ENDBRANCH   1  53
BRANCH   1  55
ATOM     55  C   UNL     1      10.085  23.225  37.008  1.00  0.00     0.165 C 
BRANCH  55  56
ATOM     56  O   UNL     1      10.613  21.944  37.200  1.00  0.00    -0.388 OA
ATOM     57  H   UNL     1      11.384  22.011  37.812  1.00  0.00     0.211 HD
ENDBRANCH  55  56
BRANCH  55  58
ATOM     58  C   UNL     1       9.315  23.591  38.282  1.00  0.00     0.154 C 
BRANCH  58  59
ATOM     59  N   UNL     1       8.990  22.414  39.039  1.00  0.00    -0.319 N 
ATOM     60  C   UNL     1       9.584  22.065  40.283  1.00  0.00     0.407 C 
ATOM     61  H   UNL     1       8.256  21.730  38.683  1.00  0.00     0.167 HD
ATOM     62  O   UNL     1      10.456  22.841  40.751  1.00  0.00    -0.225 OA
BRANCH  60  63
ATOM     63  O   UNL     1       9.238  20.919  40.976  1.00  0.00    -0.443 OA
BRANCH  63  64
ATOM     64  C   UNL     1       8.170  20.965  41.889  1.00  0.00     0.294 C 
BRANCH  64  65
ATOM     65  C   UNL     1       6.887  20.700  41.212  1.00  0.00     0.120 A 
ATOM     66  C   UNL     1       6.286  19.449  41.191  1.00  0.00     0.138 A 
ATOM     67  N   UNL     1       6.089  21.565  40.539  1.00  0.00    -0.132 NA
ATOM     68  N   UNL     1       5.133  19.609  40.499  1.00  0.00    -0.252 N 
ATOM     69  N   UNL     1       5.046  20.878  40.125  1.00  0.00    -0.067 NA
BRANCH  68  70
ATOM     70  C   UNL     1       4.153  18.582  40.217  1.00  0.00     0.158 C 
BRANCH  70  71
ATOM     71  C   UNL     1       3.453  18.774  38.891  1.00  0.00     0.146 C 
BRANCH  71  72
ATOM     72  C   UNL     1       4.331  18.262  37.829  1.00  0.00     0.305 C 
ATOM     73  O   UNL     1       4.053  18.491  36.632  1.00  0.00    -0.252 OA
BRANCH  72  74
ATOM     74  O   UNL     1       5.475  17.520  38.116  1.00  0.00    -0.481 OA
ATOM     75  H   UNL     1       5.639  17.069  39.011  1.00  0.00     0.296 HD
ENDBRANCH  72  74
ENDBRANCH  71  72
ENDBRANCH  70  71
ENDBRANCH  68  70
ENDBRANCH  64  65
ENDBRANCH  63  64
ENDBRANCH  60  63
ENDBRANCH  58  59
ENDBRANCH  55  58
ENDBRANCH   1  55
TORSDOF 33
