REMARK VINA RESULT:    -6.075      8.893     14.370
REMARK INTER + INTRA:         -21.171
REMARK INTER:                 -16.233
REMARK INTRA:                  -4.939
REMARK UNBOUND:                -5.863
REMARK SMILES CC(=O)N[C@@H]1[C@@H](O)C[C@](OC[C@H]2O[C@@H](O[C@H]3[C@H](O)[C@@H](O)[C@H](OCCN=[N+]=[N-])O[C@@H]3CO)[C@H](O)[C@@H](O)[C@H]2O)(C(=O)O)O[C@H]1C(O)[C@H](O)CNC(=O)OCc1cn(-c2ncccc2C#N)nn1
REMARK SMILES IDX 9 1 8 2 6 3 5 4 42 5 41 6 10 7 11 8 12 9 14 10 13 11 32 12
REMARK SMILES IDX 34 13 36 14 15 15 16 16 29 17 28 18 21 19 17 20 19 21 30 22
REMARK SMILES IDX 31 23 22 25 23 26 24 27 25 28 26 29 27 30 18 31 20 33 33 35
REMARK SMILES IDX 35 37 37 39 38 41 39 42 40 43 7 45 43 47 44 48 45 50 46 51
REMARK SMILES IDX 47 53 48 54 49 55 50 57 51 58 52 59 53 60 54 61 65 62 55 63
REMARK SMILES IDX 64 64 56 65 57 66 61 67 58 68 60 69 59 70 62 71 63 72 4 73
REMARK SMILES IDX 2 74 1 76 3 77
REMARK H PARENT 31 24 18 32 20 34 33 36 35 38 37 40 40 44 7 46 44 49 46 52
REMARK H PARENT 48 56 4 75
REMARK Flexibility Score: inf
ROOT
ATOM      1  C   UNL     1      21.423  21.890  12.208  1.00  0.00     0.272 C 
ATOM      2  C   UNL     1      20.044  21.407  12.360  1.00  0.00     0.113 C 
ATOM      3  C   UNL     1      19.676  20.349  11.396  1.00  0.00     0.145 C 
ATOM      4  C   UNL     1      20.781  19.471  10.909  1.00  0.00     0.142 C 
ATOM      5  C   UNL     1      22.134  19.701  11.521  1.00  0.00     0.178 C 
ATOM      6  O   UNL     1      22.366  20.924  11.941  1.00  0.00    -0.332 OA
ENDROOT
BRANCH   1   7
ATOM      7  O   UNL     1      21.998  22.653  13.143  1.00  0.00    -0.338 OA
BRANCH   7   8
ATOM      8  C   UNL     1      23.159  22.698  13.719  1.00  0.00     0.199 C 
BRANCH   8   9
ATOM      9  C   UNL     1      23.198  23.974  14.566  1.00  0.00     0.179 C 
ATOM     10  C   UNL     1      24.327  25.079  16.192  1.00  0.00     0.282 C 
ATOM     11  O   UNL     1      23.950  23.779  15.692  1.00  0.00    -0.341 OA
ATOM     12  C   UNL     1      25.360  25.672  15.304  1.00  0.00     0.202 C 
ATOM     13  C   UNL     1      24.898  25.660  13.843  1.00  0.00     0.179 C 
ATOM     14  C   UNL     1      23.485  25.215  13.805  1.00  0.00     0.177 C 
BRANCH  10  15
ATOM     15  O   UNL     1      24.734  24.992  17.478  1.00  0.00    -0.341 OA
BRANCH  15  16
ATOM     16  C   UNL     1      24.354  26.021  18.292  1.00  0.00     0.184 C 
ATOM     17  C   UNL     1      25.231  26.024  19.579  1.00  0.00     0.178 C 
ATOM     18  O   UNL     1      24.424  25.648  20.650  1.00  0.00    -0.341 OA
ATOM     19  C   UNL     1      23.790  24.424  20.387  1.00  0.00     0.281 C 
ATOM     20  C   UNL     1      22.910  25.988  18.721  1.00  0.00     0.180 C 
ATOM     21  C   UNL     1      22.629  24.678  19.467  1.00  0.00     0.202 C 
BRANCH  17  22
ATOM     22  C   UNL     1      25.818  27.388  19.751  1.00  0.00     0.191 C 
BRANCH  22  23
ATOM     23  O   UNL     1      25.045  28.188  20.612  1.00  0.00    -0.394 OA
ATOM     24  H   UNL     1      24.286  27.688  20.997  1.00  0.00     0.210 HD
ENDBRANCH  22  23
ENDBRANCH  17  22
BRANCH  19  25
ATOM     25  O   UNL     1      23.410  23.907  21.604  1.00  0.00    -0.350 OA
BRANCH  25  26
ATOM     26  C   UNL     1      22.856  24.898  22.435  1.00  0.00     0.169 C 
BRANCH  26  27
ATOM     27  C   UNL     1      23.252  24.658  23.878  1.00  0.00     0.119 C 
BRANCH  27  28
ATOM     28  N   UNL     1      21.998  24.579  24.639  1.00  0.00    -0.092 NA
ATOM     29  N   UNL     1      21.199  25.535  24.459  1.00  0.00     0.001 N 
ATOM     30  N   UNL     1      20.542  26.575  24.615  1.00  0.00    -0.003 NA
ENDBRANCH  27  28
ENDBRANCH  26  27
ENDBRANCH  25  26
ENDBRANCH  19  25
BRANCH  20  31
ATOM     31  O   UNL     1      22.558  27.056  19.513  1.00  0.00    -0.387 OA
ATOM     32  H   UNL     1      21.782  26.953  20.087  1.00  0.00     0.211 HD
ENDBRANCH  20  31
BRANCH  21  33
ATOM     33  O   UNL     1      22.447  23.646  18.551  1.00  0.00    -0.385 OA
ATOM     34  H   UNL     1      23.337  23.220  18.416  1.00  0.00     0.211 HD
ENDBRANCH  21  33
ENDBRANCH  15  16
ENDBRANCH  10  15
BRANCH  12  35
ATOM     35  O   UNL     1      25.641  26.975  15.673  1.00  0.00    -0.385 OA
ATOM     36  H   UNL     1      25.652  27.003  16.686  1.00  0.00     0.211 HD
ENDBRANCH  12  35
BRANCH  13  37
ATOM     37  O   UNL     1      25.738  24.794  13.104  1.00  0.00    -0.387 OA
ATOM     38  H   UNL     1      25.254  23.948  12.893  1.00  0.00     0.211 HD
ENDBRANCH  13  37
BRANCH  14  39
ATOM     39  O   UNL     1      22.964  25.109  12.512  1.00  0.00    -0.387 OA
ATOM     40  H   UNL     1      22.136  24.530  12.520  1.00  0.00     0.211 HD
ENDBRANCH  14  39
ENDBRANCH   8   9
ENDBRANCH   7   8
ENDBRANCH   1   7
BRANCH   1  41
ATOM     41  C   UNL     1      21.404  22.764  10.954  1.00  0.00     0.364 C 
ATOM     42  O   UNL     1      20.772  23.800  10.837  1.00  0.00    -0.246 OA
BRANCH  41  43
ATOM     43  O   UNL     1      22.164  22.361   9.837  1.00  0.00    -0.477 OA
ATOM     44  H   UNL     1      21.816  21.713   9.148  1.00  0.00     0.296 HD
ENDBRANCH  41  43
ENDBRANCH   1  41
BRANCH   3  45
ATOM     45  O   UNL     1      18.593  19.591  11.882  1.00  0.00    -0.391 OA
ATOM     46  H   UNL     1      18.503  18.831  11.218  1.00  0.00     0.211 HD
ENDBRANCH   3  45
BRANCH   5  47
ATOM     47  C   UNL     1      22.458  18.615  12.586  1.00  0.00     0.176 C 
BRANCH  47  48
ATOM     48  O   UNL     1      21.477  18.775  13.610  1.00  0.00    -0.388 OA
ATOM     49  H   UNL     1      20.653  18.316  13.375  1.00  0.00     0.211 HD
ENDBRANCH  47  48
BRANCH  47  50
ATOM     50  C   UNL     1      23.744  18.709  13.227  1.00  0.00     0.165 C 
BRANCH  50  51
ATOM     51  O   UNL     1      23.847  19.566  14.351  1.00  0.00    -0.388 OA
ATOM     52  H   UNL     1      23.206  20.335  14.229  1.00  0.00     0.211 HD
ENDBRANCH  50  51
BRANCH  50  53
ATOM     53  C   UNL     1      24.861  19.166  12.344  1.00  0.00     0.154 C 
BRANCH  53  54
ATOM     54  N   UNL     1      26.198  19.085  12.782  1.00  0.00    -0.319 N 
ATOM     55  C   UNL     1      26.982  20.032  13.439  1.00  0.00     0.407 C 
ATOM     56  H   UNL     1      26.722  18.148  12.580  1.00  0.00     0.167 HD
ATOM     57  O   UNL     1      26.457  21.139  13.715  1.00  0.00    -0.225 OA
BRANCH  55  58
ATOM     58  O   UNL     1      28.315  19.723  13.776  1.00  0.00    -0.443 OA
BRANCH  58  59
ATOM     59  C   UNL     1      28.556  18.908  14.886  1.00  0.00     0.294 C 
BRANCH  59  60
ATOM     60  C   UNL     1      28.875  19.666  16.081  1.00  0.00     0.121 A 
ATOM     61  C   UNL     1      28.024  19.991  17.068  1.00  0.00     0.146 A 
ATOM     62  N   UNL     1      30.111  20.251  16.393  1.00  0.00    -0.131 NA
ATOM     63  N   UNL     1      28.641  20.740  17.972  1.00  0.00    -0.201 N 
ATOM     64  N   UNL     1      29.853  20.851  17.517  1.00  0.00    -0.060 NA
BRANCH  63  65
ATOM     65  C   UNL     1      28.189  21.270  19.201  1.00  0.00     0.173 A 
ATOM     66  N   UNL     1      27.650  22.516  19.140  1.00  0.00    -0.236 NA
ATOM     67  C   UNL     1      28.417  20.622  20.422  1.00  0.00     0.097 A 
ATOM     68  C   UNL     1      27.323  23.166  20.388  1.00  0.00     0.113 A 
ATOM     69  C   UNL     1      28.087  21.308  21.570  1.00  0.00     0.025 A 
ATOM     70  C   UNL     1      27.564  22.531  21.509  1.00  0.00     0.022 A 
BRANCH  67  71
ATOM     71  C   UNL     1      28.878  19.278  20.559  1.00  0.00     0.103 C 
ATOM     72  N   UNL     1      29.250  18.132  20.675  1.00  0.00    -0.192 NA
ENDBRANCH  67  71
ENDBRANCH  63  65
ENDBRANCH  59  60
ENDBRANCH  58  59
ENDBRANCH  55  58
ENDBRANCH  53  54
ENDBRANCH  50  53
ENDBRANCH  47  50
ENDBRANCH   5  47
BRANCH   4  73
ATOM     73  N   UNL     1      20.700  19.496   9.465  1.00  0.00    -0.348 N 
ATOM     74  C   UNL     1      19.652  19.052   8.654  1.00  0.00     0.217 C 
ATOM     75  H   UNL     1      21.550  19.893   8.923  1.00  0.00     0.163 HD
ATOM     76  C   UNL     1      19.724  19.206   7.146  1.00  0.00     0.114 C 
ATOM     77  O   UNL     1      18.602  18.512   9.067  1.00  0.00    -0.275 OA
ENDBRANCH   4  73
TORSDOF 31
