REMARK VINA RESULT:    -5.977     22.331     27.108
REMARK INTER + INTRA:         -24.566
REMARK INTER:                 -15.032
REMARK INTRA:                  -9.534
REMARK UNBOUND:                -8.981
REMARK SMILES CC(=O)N[C@@H]1[C@@H](O)C[C@](OC[C@H]2O[C@@H](O[C@H]3[C@H](O)[C@@H](O)[C@H](OCCN=[N+]=[N-])O[C@@H]3CO)[C@H](O)[C@@H](O)[C@H]2O)(C(=O)O)O[C@H]1C(O)[C@H](O)CNC(=O)OCc1cn(-c2cc(C(=O)O)nc(-c3ccccc3)c2)nn1
REMARK SMILES IDX 9 1 8 2 6 3 5 4 42 5 41 6 10 7 11 8 12 9 14 10 13 11 32 12
REMARK SMILES IDX 34 13 36 14 15 15 16 16 29 17 28 18 21 19 17 20 19 21 30 22
REMARK SMILES IDX 31 23 22 25 23 26 24 27 25 28 26 29 27 30 18 31 20 33 33 35
REMARK SMILES IDX 35 37 37 39 38 41 39 42 40 43 7 45 43 47 44 48 45 50 46 51
REMARK SMILES IDX 47 53 48 54 49 55 50 57 51 58 52 59 53 60 54 61 72 62 55 63
REMARK SMILES IDX 71 64 56 65 57 66 70 67 58 68 63 69 62 70 59 71 60 72 61 73
REMARK SMILES IDX 64 75 65 76 69 77 66 78 68 79 67 80 4 81 2 82 1 84 3 85
REMARK H PARENT 31 24 18 32 20 34 33 36 35 38 37 40 40 44 7 46 44 49 46 52
REMARK H PARENT 48 56 61 74 4 83
REMARK Flexibility Score: inf
ROOT
ATOM      1  C   UNL     1       8.833  23.878  35.909  1.00  0.00     0.272 C 
ATOM      2  C   UNL     1       9.988  22.893  36.181  1.00  0.00     0.113 C 
ATOM      3  C   UNL     1      11.002  23.398  37.142  1.00  0.00     0.145 C 
ATOM      4  C   UNL     1      11.339  24.871  36.945  1.00  0.00     0.142 C 
ATOM      5  C   UNL     1      10.602  25.258  35.660  1.00  0.00     0.178 C 
ATOM      6  O   UNL     1       9.262  25.202  35.974  1.00  0.00    -0.332 OA
ENDROOT
BRANCH   1   7
ATOM      7  O   UNL     1       7.928  23.646  36.894  1.00  0.00    -0.338 OA
BRANCH   7   8
ATOM      8  C   UNL     1       7.477  24.679  37.650  1.00  0.00     0.199 C 
BRANCH   8   9
ATOM      9  C   UNL     1       5.963  24.907  37.410  1.00  0.00     0.179 C 
ATOM     10  C   UNL     1       4.328  24.372  35.826  1.00  0.00     0.282 C 
ATOM     11  O   UNL     1       5.643  24.346  36.216  1.00  0.00    -0.341 OA
ATOM     12  C   UNL     1       3.474  24.771  37.014  1.00  0.00     0.202 C 
ATOM     13  C   UNL     1       3.820  24.018  38.275  1.00  0.00     0.179 C 
ATOM     14  C   UNL     1       5.281  24.132  38.527  1.00  0.00     0.177 C 
BRANCH  10  15
ATOM     15  O   UNL     1       3.999  23.110  35.366  1.00  0.00    -0.341 OA
BRANCH  15  16
ATOM     16  C   UNL     1       2.964  23.074  34.446  1.00  0.00     0.184 C 
ATOM     17  C   UNL     1       2.551  21.700  34.066  1.00  0.00     0.178 C 
ATOM     18  O   UNL     1       2.737  21.456  32.717  1.00  0.00    -0.341 OA
ATOM     19  C   UNL     1       4.030  21.764  32.296  1.00  0.00     0.281 C 
ATOM     20  C   UNL     1       3.361  23.946  33.290  1.00  0.00     0.180 C 
ATOM     21  C   UNL     1       4.098  23.271  32.189  1.00  0.00     0.202 C 
BRANCH  17  22
ATOM     22  C   UNL     1       1.072  21.523  34.344  1.00  0.00     0.191 C 
BRANCH  22  23
ATOM     23  O   UNL     1       0.282  22.145  33.395  1.00  0.00    -0.394 OA
ATOM     24  H   UNL     1       0.847  22.423  32.627  1.00  0.00     0.210 HD
ENDBRANCH  22  23
ENDBRANCH  17  22
BRANCH  19  25
ATOM     25  O   UNL     1       4.185  21.211  31.034  1.00  0.00    -0.350 OA
BRANCH  25  26
ATOM     26  C   UNL     1       3.092  20.420  30.672  1.00  0.00     0.169 C 
BRANCH  26  27
ATOM     27  C   UNL     1       2.583  20.815  29.309  1.00  0.00     0.119 C 
BRANCH  27  28
ATOM     28  N   UNL     1       2.237  22.219  29.317  1.00  0.00    -0.092 NA
ATOM     29  N   UNL     1       1.244  22.573  29.937  1.00  0.00     0.001 N 
ATOM     30  N   UNL     1       0.487  23.245  30.658  1.00  0.00    -0.003 NA
ENDBRANCH  27  28
ENDBRANCH  26  27
ENDBRANCH  25  26
ENDBRANCH  19  25
BRANCH  20  31
ATOM     31  O   UNL     1       2.165  24.453  32.731  1.00  0.00    -0.387 OA
ATOM     32  H   UNL     1       2.333  24.811  31.823  1.00  0.00     0.211 HD
ENDBRANCH  20  31
BRANCH  21  33
ATOM     33  O   UNL     1       5.433  23.727  32.204  1.00  0.00    -0.385 OA
ATOM     34  H   UNL     1       5.840  23.691  31.295  1.00  0.00     0.211 HD
ENDBRANCH  21  33
ENDBRANCH  15  16
ENDBRANCH  10  15
BRANCH  12  35
ATOM     35  O   UNL     1       3.521  26.131  37.293  1.00  0.00    -0.385 OA
ATOM     36  H   UNL     1       4.264  26.236  37.953  1.00  0.00     0.211 HD
ENDBRANCH  12  35
BRANCH  13  37
ATOM     37  O   UNL     1       3.400  22.702  38.085  1.00  0.00    -0.387 OA
ATOM     38  H   UNL     1       3.945  22.330  37.345  1.00  0.00     0.211 HD
ENDBRANCH  13  37
BRANCH  14  39
ATOM     39  O   UNL     1       5.799  22.821  38.523  1.00  0.00    -0.387 OA
ATOM     40  H   UNL     1       5.455  22.284  37.791  1.00  0.00     0.211 HD
ENDBRANCH  14  39
ENDBRANCH   8   9
ENDBRANCH   7   8
ENDBRANCH   1   7
BRANCH   1  41
ATOM     41  C   UNL     1       8.345  23.650  34.526  1.00  0.00     0.364 C 
ATOM     42  O   UNL     1       7.782  24.555  33.852  1.00  0.00    -0.246 OA
BRANCH  41  43
ATOM     43  O   UNL     1       8.497  22.421  33.925  1.00  0.00    -0.477 OA
ATOM     44  H   UNL     1       9.333  21.833  34.034  1.00  0.00     0.296 HD
ENDBRANCH  41  43
ENDBRANCH   1  41
BRANCH   3  45
ATOM     45  O   UNL     1      10.725  23.086  38.455  1.00  0.00    -0.391 OA
ATOM     46  H   UNL     1      10.899  22.134  38.603  1.00  0.00     0.211 HD
ENDBRANCH   3  45
BRANCH   5  47
ATOM     47  C   UNL     1      11.086  26.516  35.045  1.00  0.00     0.176 C 
BRANCH  47  48
ATOM     48  O   UNL     1      10.650  27.602  35.837  1.00  0.00    -0.388 OA
ATOM     49  H   UNL     1      10.570  27.308  36.799  1.00  0.00     0.211 HD
ENDBRANCH  47  48
BRANCH  47  50
ATOM     50  C   UNL     1      10.702  26.741  33.609  1.00  0.00     0.165 C 
BRANCH  50  51
ATOM     51  O   UNL     1      11.811  27.128  32.885  1.00  0.00    -0.388 OA
ATOM     52  H   UNL     1      12.651  27.068  33.413  1.00  0.00     0.211 HD
ENDBRANCH  50  51
BRANCH  50  53
ATOM     53  C   UNL     1       9.624  27.797  33.607  1.00  0.00     0.154 C 
BRANCH  53  54
ATOM     54  N   UNL     1       8.286  27.330  33.651  1.00  0.00    -0.319 N 
ATOM     55  C   UNL     1       7.391  27.715  34.682  1.00  0.00     0.407 C 
ATOM     56  H   UNL     1       7.917  26.681  32.913  1.00  0.00     0.167 HD
ATOM     57  O   UNL     1       7.792  28.468  35.589  1.00  0.00    -0.225 OA
BRANCH  55  58
ATOM     58  O   UNL     1       6.059  27.258  34.693  1.00  0.00    -0.443 OA
BRANCH  58  59
ATOM     59  C   UNL     1       5.044  28.137  34.278  1.00  0.00     0.294 C 
BRANCH  59  60
ATOM     60  C   UNL     1       4.445  27.701  32.995  1.00  0.00     0.121 A 
ATOM     61  C   UNL     1       5.027  27.523  31.761  1.00  0.00     0.144 A 
ATOM     62  N   UNL     1       3.131  27.407  32.775  1.00  0.00    -0.131 NA
ATOM     63  N   UNL     1       4.107  27.143  30.848  1.00  0.00    -0.220 N 
ATOM     64  N   UNL     1       2.953  27.083  31.512  1.00  0.00    -0.062 NA
BRANCH  63  65
ATOM     65  C   UNL     1       4.329  26.897  29.470  1.00  0.00     0.071 A 
ATOM     66  C   UNL     1       3.693  25.801  28.908  1.00  0.00     0.064 A 
ATOM     67  C   UNL     1       5.114  27.667  28.638  1.00  0.00     0.057 A 
ATOM     68  C   UNL     1       3.870  25.534  27.563  1.00  0.00     0.151 A 
ATOM     69  C   UNL     1       5.283  27.399  27.317  1.00  0.00     0.073 A 
ATOM     70  N   UNL     1       4.652  26.327  26.800  1.00  0.00    -0.241 NA
BRANCH  68  71
ATOM     71  C   UNL     1       3.213  24.393  26.942  1.00  0.00     0.354 C 
ATOM     72  O   UNL     1       3.935  23.512  26.410  1.00  0.00    -0.245 OA
BRANCH  71  73
ATOM     73  O   UNL     1       1.850  24.221  26.902  1.00  0.00    -0.477 OA
ATOM     74  H   UNL     1       1.391  23.544  26.279  1.00  0.00     0.297 HD
ENDBRANCH  71  73
ENDBRANCH  68  71
BRANCH  69  75
ATOM     75  C   UNL     1       6.113  28.232  26.454  1.00  0.00     0.000 A 
ATOM     76  C   UNL     1       6.095  29.609  26.664  1.00  0.00     0.010 A 
ATOM     77  C   UNL     1       6.903  27.743  25.455  1.00  0.00     0.010 A 
ATOM     78  C   UNL     1       6.844  30.468  25.904  1.00  0.00     0.001 A 
ATOM     79  C   UNL     1       7.655  28.620  24.691  1.00  0.00     0.001 A 
ATOM     80  C   UNL     1       7.645  29.969  24.891  1.00  0.00     0.000 A 
ENDBRANCH  69  75
ENDBRANCH  63  65
ENDBRANCH  59  60
ENDBRANCH  58  59
ENDBRANCH  55  58
ENDBRANCH  53  54
ENDBRANCH  50  53
ENDBRANCH  47  50
ENDBRANCH   5  47
BRANCH   4  81
ATOM     81  N   UNL     1      12.746  25.099  36.882  1.00  0.00    -0.348 N 
ATOM     82  C   UNL     1      13.381  25.906  37.861  1.00  0.00     0.217 C 
ATOM     83  H   UNL     1      13.295  24.663  36.106  1.00  0.00     0.163 HD
ATOM     84  C   UNL     1      14.842  26.177  37.847  1.00  0.00     0.114 C 
ATOM     85  O   UNL     1      12.704  26.434  38.806  1.00  0.00    -0.275 OA
ENDBRANCH   4  81
TORSDOF 33
