REMARK VINA RESULT:    -5.350      6.071     12.789
REMARK INTER + INTRA:         -21.066
REMARK INTER:                 -14.866
REMARK INTRA:                  -6.200
REMARK UNBOUND:                -7.585
REMARK SMILES COc1ccc(-n2cc(COC(=O)NC[C@@H](O)C(O)[C@@H]3O[C@@](OC[C@H]4O[C@@H](O[C@H]5[C@H](O)[C@@H](O)[C@H](OCCN=[N+]=[N-])O[C@@H]5CO)[C@H](O)[C@@H](O)[C@H]4O)(C(=O)O)C[C@H](O)[C@H]3NC(C)=O)nn2)cc1
REMARK SMILES IDX 22 1 54 2 55 3 57 4 20 5 21 6 23 7 24 8 25 9 27 10 26 11
REMARK SMILES IDX 45 12 47 13 49 14 28 15 29 16 42 17 41 18 34 19 30 20 32 21
REMARK SMILES IDX 43 22 44 23 35 25 36 26 37 27 38 28 39 29 40 30 31 31 33 33
REMARK SMILES IDX 46 35 48 37 50 39 51 41 52 42 53 43 56 45 18 47 19 48 16 50
REMARK SMILES IDX 17 51 15 53 14 54 12 55 13 57 11 58 10 59 9 60 8 61 62 62
REMARK SMILES IDX 7 63 63 64 6 65 5 66 64 67 4 68 65 69 3 70 2 71 1 72 58 73
REMARK SMILES IDX 59 74 60 76 61 77
REMARK H PARENT 44 24 31 32 33 34 46 36 48 38 50 40 53 44 56 46 19 49 17 52
REMARK H PARENT 14 56 58 75
REMARK Flexibility Score: inf
ROOT
ATOM      1  C   UNL     1      22.926  25.363  22.398  1.00  0.00     0.272 C 
ATOM      2  C   UNL     1      23.837  24.276  22.832  1.00  0.00     0.113 C 
ATOM      3  C   UNL     1      25.090  24.101  22.067  1.00  0.00     0.145 C 
ATOM      4  C   UNL     1      24.884  24.718  20.669  1.00  0.00     0.142 C 
ATOM      5  C   UNL     1      23.477  24.440  20.275  1.00  0.00     0.178 C 
ATOM      6  O   UNL     1      22.665  25.296  21.017  1.00  0.00    -0.332 OA
ENDROOT
BRANCH   1   7
ATOM      7  O   UNL     1      23.035  26.607  22.741  1.00  0.00    -0.338 OA
BRANCH   7   8
ATOM      8  C   UNL     1      23.131  27.785  22.249  1.00  0.00     0.199 C 
BRANCH   8   9
ATOM      9  C   UNL     1      21.974  28.723  22.056  1.00  0.00     0.179 C 
ATOM     10  C   UNL     1      19.897  29.062  21.164  1.00  0.00     0.282 C 
ATOM     11  O   UNL     1      20.903  28.132  21.477  1.00  0.00    -0.341 OA
ATOM     12  C   UNL     1      19.366  29.801  22.350  1.00  0.00     0.202 C 
ATOM     13  C   UNL     1      20.229  29.791  23.557  1.00  0.00     0.179 C 
ATOM     14  C   UNL     1      21.653  29.495  23.313  1.00  0.00     0.177 C 
BRANCH  10  15
ATOM     15  O   UNL     1      18.861  28.352  20.565  1.00  0.00    -0.341 OA
BRANCH  15  16
ATOM     16  C   UNL     1      18.264  29.033  19.540  1.00  0.00     0.184 C 
ATOM     17  C   UNL     1      16.808  28.765  19.438  1.00  0.00     0.178 C 
ATOM     18  O   UNL     1      16.254  29.412  18.302  1.00  0.00    -0.341 OA
ATOM     19  C   UNL     1      16.761  28.697  17.185  1.00  0.00     0.281 C 
ATOM     20  C   UNL     1      18.954  28.616  18.229  1.00  0.00     0.180 C 
ATOM     21  C   UNL     1      18.202  29.197  17.061  1.00  0.00     0.202 C 
BRANCH  17  22
ATOM     22  C   UNL     1      16.061  29.214  20.667  1.00  0.00     0.191 C 
BRANCH  22  23
ATOM     23  O   UNL     1      16.424  30.516  20.966  1.00  0.00    -0.394 OA
ATOM     24  H   UNL     1      15.706  31.164  20.792  1.00  0.00     0.210 HD
ENDBRANCH  22  23
ENDBRANCH  17  22
BRANCH  19  25
ATOM     25  O   UNL     1      16.037  28.940  16.070  1.00  0.00    -0.350 OA
BRANCH  25  26
ATOM     26  C   UNL     1      15.273  30.062  15.986  1.00  0.00     0.169 C 
BRANCH  26  27
ATOM     27  C   UNL     1      13.808  29.885  15.771  1.00  0.00     0.119 C 
BRANCH  27  28
ATOM     28  N   UNL     1      12.957  30.777  16.500  1.00  0.00    -0.092 NA
ATOM     29  N   UNL     1      13.145  31.009  17.689  1.00  0.00     0.001 N 
ATOM     30  N   UNL     1      13.377  31.058  18.901  1.00  0.00    -0.003 NA
ENDBRANCH  27  28
ENDBRANCH  26  27
ENDBRANCH  25  26
ENDBRANCH  19  25
BRANCH  20  31
ATOM     31  O   UNL     1      20.269  29.040  18.266  1.00  0.00    -0.387 OA
ATOM     32  H   UNL     1      20.401  29.653  17.477  1.00  0.00     0.211 HD
ENDBRANCH  20  31
BRANCH  21  33
ATOM     33  O   UNL     1      18.715  28.724  15.874  1.00  0.00    -0.385 OA
ATOM     34  H   UNL     1      18.422  29.276  15.107  1.00  0.00     0.211 HD
ENDBRANCH  21  33
ENDBRANCH  15  16
ENDBRANCH  10  15
BRANCH  12  35
ATOM     35  O   UNL     1      19.112  31.149  22.046  1.00  0.00    -0.385 OA
ATOM     36  H   UNL     1      18.148  31.339  22.031  1.00  0.00     0.211 HD
ENDBRANCH  12  35
BRANCH  13  37
ATOM     37  O   UNL     1      19.654  28.994  24.553  1.00  0.00    -0.387 OA
ATOM     38  H   UNL     1      20.299  28.684  25.221  1.00  0.00     0.211 HD
ENDBRANCH  13  37
BRANCH  14  39
ATOM     39  O   UNL     1      22.184  28.876  24.447  1.00  0.00    -0.387 OA
ATOM     40  H   UNL     1      22.944  28.320  24.141  1.00  0.00     0.211 HD
ENDBRANCH  14  39
ENDBRANCH   8   9
ENDBRANCH   7   8
ENDBRANCH   1   7
BRANCH   1  41
ATOM     41  C   UNL     1      21.548  24.886  22.959  1.00  0.00     0.364 C 
ATOM     42  O   UNL     1      21.489  24.264  24.022  1.00  0.00    -0.246 OA
BRANCH  41  43
ATOM     43  O   UNL     1      20.446  25.202  22.204  1.00  0.00    -0.477 OA
ATOM     44  H   UNL     1      20.109  24.584  21.452  1.00  0.00     0.296 HD
ENDBRANCH  41  43
ENDBRANCH   1  41
BRANCH   3  45
ATOM     45  O   UNL     1      26.243  24.527  22.659  1.00  0.00    -0.391 OA
ATOM     46  H   UNL     1      26.181  25.361  23.177  1.00  0.00     0.211 HD
ENDBRANCH   3  45
BRANCH   5  47
ATOM     47  C   UNL     1      23.172  24.793  18.800  1.00  0.00     0.176 C 
BRANCH  47  48
ATOM     48  O   UNL     1      22.314  23.891  18.251  1.00  0.00    -0.388 OA
ATOM     49  H   UNL     1      22.003  24.220  17.376  1.00  0.00     0.211 HD
ENDBRANCH  47  48
BRANCH  47  50
ATOM     50  C   UNL     1      23.049  26.213  18.582  1.00  0.00     0.165 C 
BRANCH  50  51
ATOM     51  O   UNL     1      21.806  26.798  18.950  1.00  0.00    -0.388 OA
ATOM     52  H   UNL     1      21.962  27.763  18.948  1.00  0.00     0.211 HD
ENDBRANCH  50  51
BRANCH  50  53
ATOM     53  C   UNL     1      23.424  26.904  17.338  1.00  0.00     0.154 C 
BRANCH  53  54
ATOM     54  N   UNL     1      23.976  26.174  16.288  1.00  0.00    -0.319 N 
ATOM     55  C   UNL     1      25.336  26.071  15.959  1.00  0.00     0.407 C 
ATOM     56  H   UNL     1      23.303  25.625  15.651  1.00  0.00     0.167 HD
ATOM     57  O   UNL     1      26.220  26.637  16.623  1.00  0.00    -0.225 OA
BRANCH  55  58
ATOM     58  O   UNL     1      25.716  25.298  14.837  1.00  0.00    -0.443 OA
BRANCH  58  59
ATOM     59  C   UNL     1      25.141  24.022  14.709  1.00  0.00     0.294 C 
BRANCH  59  60
ATOM     60  C   UNL     1      26.094  22.992  15.186  1.00  0.00     0.121 A 
ATOM     61  C   UNL     1      26.298  22.496  16.459  1.00  0.00     0.144 A 
ATOM     62  N   UNL     1      26.950  22.329  14.385  1.00  0.00    -0.131 NA
ATOM     63  N   UNL     1      27.257  21.566  16.380  1.00  0.00    -0.220 N 
ATOM     64  N   UNL     1      27.640  21.483  15.102  1.00  0.00    -0.062 NA
BRANCH  63  65
ATOM     65  C   UNL     1      27.853  20.737  17.366  1.00  0.00     0.067 A 
ATOM     66  C   UNL     1      27.924  21.054  18.696  1.00  0.00     0.032 A 
ATOM     67  C   UNL     1      28.416  19.525  16.970  1.00  0.00     0.032 A 
ATOM     68  C   UNL     1      28.532  20.202  19.606  1.00  0.00     0.048 A 
ATOM     69  C   UNL     1      29.022  18.677  17.876  1.00  0.00     0.048 A 
ATOM     70  C   UNL     1      29.092  18.998  19.215  1.00  0.00     0.119 A 
BRANCH  70  71
ATOM     71  O   UNL     1      29.707  18.143  20.150  1.00  0.00    -0.497 OA
ATOM     72  C   UNL     1      30.923  18.610  20.754  1.00  0.00     0.278 C 
ENDBRANCH  70  71
ENDBRANCH  63  65
ENDBRANCH  59  60
ENDBRANCH  58  59
ENDBRANCH  55  58
ENDBRANCH  53  54
ENDBRANCH  50  53
ENDBRANCH  47  50
ENDBRANCH   5  47
BRANCH   4  73
ATOM     73  N   UNL     1      25.931  24.249  19.805  1.00  0.00    -0.348 N 
ATOM     74  C   UNL     1      27.109  25.011  19.596  1.00  0.00     0.217 C 
ATOM     75  H   UNL     1      25.838  23.325  19.348  1.00  0.00     0.163 HD
ATOM     76  C   UNL     1      28.177  24.504  18.695  1.00  0.00     0.114 C 
ATOM     77  O   UNL     1      27.306  26.126  20.148  1.00  0.00    -0.275 OA
ENDBRANCH   4  73
TORSDOF 31
