REMARK VINA RESULT:    -6.608      6.785     15.928
REMARK INTER + INTRA:         -25.225
REMARK INTER:                 -15.983
REMARK INTRA:                  -9.242
REMARK UNBOUND:                -7.995
REMARK SMILES CC(=O)N[C@@H]1[C@@H](O)C[C@](OC[C@H]2O[C@@H](O[C@H]3[C@H](O)[C@@H](O)[C@H](OCCN=[N+]=[N-])O[C@@H]3CO)[C@H](O)[C@@H](O)[C@H]2O)(C(=O)O)O[C@H]1C(O)[C@H](O)CNC(=O)OCc1cn(-c2ccc(-c3c4ccc(=O)cc-4oc4cc(O)ccc34)c(C(=O)[O-])c2)nn1
REMARK SMILES IDX 9 1 8 2 6 3 5 4 42 5 41 6 10 7 11 8 12 9 14 10 13 11 32 12
REMARK SMILES IDX 34 13 36 14 15 15 16 16 29 17 28 18 21 19 17 20 19 21 30 22
REMARK SMILES IDX 31 23 22 25 23 26 24 27 25 28 26 29 27 30 18 31 20 33 33 35
REMARK SMILES IDX 35 37 37 39 38 41 39 42 40 43 7 45 43 47 44 48 45 50 46 51
REMARK SMILES IDX 47 53 48 54 49 55 50 57 51 58 52 59 53 60 54 61 82 62 55 63
REMARK SMILES IDX 81 64 56 65 80 66 57 67 76 68 58 69 59 70 77 71 78 72 79 73
REMARK SMILES IDX 60 74 75 75 61 76 74 77 69 78 67 79 62 80 73 81 70 82 68 83
REMARK SMILES IDX 66 84 63 85 71 86 64 87 65 88 72 89 4 91 2 92 1 94 3 95
REMARK H PARENT 31 24 18 32 20 34 33 36 35 38 37 40 40 44 7 46 44 49 46 52
REMARK H PARENT 48 56 72 90 4 93
REMARK Flexibility Score: inf
ROOT
ATOM      1  C   UNL     1      14.991  30.189  18.796  1.00  0.00     0.272 C 
ATOM      2  C   UNL     1      15.291  29.044  17.860  1.00  0.00     0.113 C 
ATOM      3  C   UNL     1      16.718  28.576  17.933  1.00  0.00     0.145 C 
ATOM      4  C   UNL     1      17.521  29.644  18.631  1.00  0.00     0.142 C 
ATOM      5  C   UNL     1      17.081  30.962  18.051  1.00  0.00     0.178 C 
ATOM      6  O   UNL     1      15.843  31.292  18.543  1.00  0.00    -0.332 OA
ENDROOT
BRANCH   1   7
ATOM      7  O   UNL     1      15.016  29.895  20.130  1.00  0.00    -0.338 OA
BRANCH   7   8
ATOM      8  C   UNL     1      14.089  29.000  20.531  1.00  0.00     0.199 C 
BRANCH   8   9
ATOM      9  C   UNL     1      13.609  29.280  21.963  1.00  0.00     0.179 C 
ATOM     10  C   UNL     1      14.386  29.876  24.051  1.00  0.00     0.282 C 
ATOM     11  O   UNL     1      14.603  29.221  22.870  1.00  0.00    -0.341 OA
ATOM     12  C   UNL     1      12.971  29.997  24.461  1.00  0.00     0.202 C 
ATOM     13  C   UNL     1      12.084  30.540  23.365  1.00  0.00     0.179 C 
ATOM     14  C   UNL     1      12.831  30.541  22.040  1.00  0.00     0.177 C 
BRANCH  10  15
ATOM     15  O   UNL     1      15.129  31.055  23.998  1.00  0.00    -0.341 OA
BRANCH  15  16
ATOM     16  C   UNL     1      16.468  30.864  24.098  1.00  0.00     0.184 C 
ATOM     17  C   UNL     1      17.074  31.593  25.257  1.00  0.00     0.178 C 
ATOM     18  O   UNL     1      18.324  31.042  25.576  1.00  0.00    -0.341 OA
ATOM     19  C   UNL     1      19.066  30.780  24.431  1.00  0.00     0.281 C 
ATOM     20  C   UNL     1      17.241  31.384  22.872  1.00  0.00     0.180 C 
ATOM     21  C   UNL     1      18.675  31.641  23.283  1.00  0.00     0.202 C 
BRANCH  17  22
ATOM     22  C   UNL     1      16.190  31.488  26.461  1.00  0.00     0.191 C 
BRANCH  22  23
ATOM     23  O   UNL     1      16.923  30.928  27.510  1.00  0.00    -0.394 OA
ATOM     24  H   UNL     1      17.728  31.480  27.620  1.00  0.00     0.210 HD
ENDBRANCH  22  23
ENDBRANCH  17  22
BRANCH  19  25
ATOM     25  O   UNL     1      19.029  29.440  24.106  1.00  0.00    -0.350 OA
BRANCH  25  26
ATOM     26  C   UNL     1      20.191  28.745  24.419  1.00  0.00     0.169 C 
BRANCH  26  27
ATOM     27  C   UNL     1      21.160  28.995  23.278  1.00  0.00     0.119 C 
BRANCH  27  28
ATOM     28  N   UNL     1      21.880  27.804  22.915  1.00  0.00    -0.092 NA
ATOM     29  N   UNL     1      21.238  26.779  22.652  1.00  0.00     0.001 N 
ATOM     30  N   UNL     1      20.812  25.754  22.119  1.00  0.00    -0.003 NA
ENDBRANCH  27  28
ENDBRANCH  26  27
ENDBRANCH  25  26
ENDBRANCH  19  25
BRANCH  20  31
ATOM     31  O   UNL     1      17.249  30.344  21.947  1.00  0.00    -0.387 OA
ATOM     32  H   UNL     1      16.716  29.566  22.218  1.00  0.00     0.211 HD
ENDBRANCH  20  31
BRANCH  21  33
ATOM     33  O   UNL     1      18.945  32.992  23.507  1.00  0.00    -0.385 OA
ATOM     34  H   UNL     1      19.758  33.002  24.101  1.00  0.00     0.211 HD
ENDBRANCH  21  33
ENDBRANCH  15  16
ENDBRANCH  10  15
BRANCH  12  35
ATOM     35  O   UNL     1      12.470  28.741  24.889  1.00  0.00    -0.385 OA
ATOM     36  H   UNL     1      12.927  28.023  24.357  1.00  0.00     0.211 HD
ENDBRANCH  12  35
BRANCH  13  37
ATOM     37  O   UNL     1      11.548  31.777  23.681  1.00  0.00    -0.387 OA
ATOM     38  H   UNL     1      12.194  32.248  24.258  1.00  0.00     0.211 HD
ENDBRANCH  13  37
BRANCH  14  39
ATOM     39  O   UNL     1      13.593  31.700  21.987  1.00  0.00    -0.387 OA
ATOM     40  H   UNL     1      13.796  31.842  21.016  1.00  0.00     0.211 HD
ENDBRANCH  14  39
ENDBRANCH   8   9
ENDBRANCH   7   8
ENDBRANCH   1   7
BRANCH   1  41
ATOM     41  C   UNL     1      13.640  30.708  18.341  1.00  0.00     0.364 C 
ATOM     42  O   UNL     1      13.005  30.230  17.384  1.00  0.00    -0.246 OA
BRANCH  41  43
ATOM     43  O   UNL     1      13.049  31.777  19.009  1.00  0.00    -0.477 OA
ATOM     44  H   UNL     1      13.074  31.838  20.017  1.00  0.00     0.296 HD
ENDBRANCH  41  43
ENDBRANCH   1  41
BRANCH   3  45
ATOM     45  O   UNL     1      16.764  27.338  18.544  1.00  0.00    -0.391 OA
ATOM     46  H   UNL     1      15.859  26.943  18.489  1.00  0.00     0.211 HD
ENDBRANCH   3  45
BRANCH   5  47
ATOM     47  C   UNL     1      18.025  32.085  18.492  1.00  0.00     0.176 C 
BRANCH  47  48
ATOM     48  O   UNL     1      18.442  31.798  19.815  1.00  0.00    -0.388 OA
ATOM     49  H   UNL     1      19.130  31.114  19.850  1.00  0.00     0.211 HD
ENDBRANCH  47  48
BRANCH  47  50
ATOM     50  C   UNL     1      17.306  33.391  18.566  1.00  0.00     0.165 C 
BRANCH  50  51
ATOM     51  O   UNL     1      18.086  34.399  17.996  1.00  0.00    -0.388 OA
ATOM     52  H   UNL     1      17.496  35.163  17.770  1.00  0.00     0.211 HD
ENDBRANCH  50  51
BRANCH  50  53
ATOM     53  C   UNL     1      16.823  33.787  19.917  1.00  0.00     0.154 C 
BRANCH  53  54
ATOM     54  N   UNL     1      15.393  33.623  20.056  1.00  0.00    -0.319 N 
ATOM     55  C   UNL     1      14.474  34.692  20.174  1.00  0.00     0.407 C 
ATOM     56  H   UNL     1      14.948  32.655  20.076  1.00  0.00     0.167 HD
ATOM     57  O   UNL     1      14.882  35.869  20.161  1.00  0.00    -0.225 OA
BRANCH  55  58
ATOM     58  O   UNL     1      13.105  34.495  20.309  1.00  0.00    -0.443 OA
BRANCH  58  59
ATOM     59  C   UNL     1      12.153  35.148  19.461  1.00  0.00     0.294 C 
BRANCH  59  60
ATOM     60  C   UNL     1      10.821  34.866  20.053  1.00  0.00     0.121 A 
ATOM     61  C   UNL     1      10.487  33.828  20.879  1.00  0.00     0.144 A 
ATOM     62  N   UNL     1       9.677  35.589  19.886  1.00  0.00    -0.131 NA
ATOM     63  N   UNL     1       9.180  33.921  21.201  1.00  0.00    -0.220 N 
ATOM     64  N   UNL     1       8.718  35.004  20.580  1.00  0.00    -0.062 NA
BRANCH  63  65
ATOM     65  C   UNL     1       8.467  33.027  22.041  1.00  0.00     0.067 A 
ATOM     66  C   UNL     1       7.566  32.117  21.543  1.00  0.00     0.039 A 
ATOM     67  C   UNL     1       8.691  33.073  23.395  1.00  0.00     0.029 A 
ATOM     68  C   UNL     1       6.904  31.269  22.400  1.00  0.00     0.007 A 
ATOM     69  C   UNL     1       8.026  32.222  24.251  1.00  0.00     0.012 A 
ATOM     70  C   UNL     1       7.120  31.303  23.775  1.00  0.00    -0.008 A 
BRANCH  68  71
ATOM     71  C   UNL     1       5.938  30.286  21.903  1.00  0.00     0.072 C 
ATOM     72  O   UNL     1       6.238  29.079  21.747  1.00  0.00    -0.545 OA
ATOM     73  O   UNL     1       4.663  30.694  21.597  1.00  0.00    -0.545 OA
ENDBRANCH  68  71
BRANCH  70  74
ATOM     74  C   UNL     1       6.417  30.400  24.669  1.00  0.00     0.004 A 
ATOM     75  C   UNL     1       7.029  29.231  25.048  1.00  0.00     0.026 A 
ATOM     76  C   UNL     1       5.160  30.675  25.145  1.00  0.00     0.026 A 
ATOM     77  C   UNL     1       8.286  28.874  24.620  1.00  0.00     0.016 A 
ATOM     78  C   UNL     1       6.341  28.376  25.901  1.00  0.00     0.139 A 
ATOM     79  C   UNL     1       4.469  29.733  26.051  1.00  0.00     0.139 A 
ATOM     80  C   UNL     1       4.487  31.822  24.810  1.00  0.00     0.016 A 
ATOM     81  C   UNL     1       8.893  27.694  25.008  1.00  0.00     0.047 A 
ATOM     82  C   UNL     1       6.950  27.206  26.282  1.00  0.00     0.093 A 
ATOM     83  O   UNL     1       5.132  28.647  26.354  1.00  0.00    -0.456 OA
ATOM     84  C   UNL     1       3.212  30.012  26.525  1.00  0.00     0.099 A 
ATOM     85  C   UNL     1       3.219  32.090  25.296  1.00  0.00     0.053 A 
ATOM     86  C   UNL     1       8.218  26.840  25.854  1.00  0.00     0.119 A 
ATOM     87  C   UNL     1       2.605  31.184  26.142  1.00  0.00     0.182 A 
ATOM     88  O   UNL     1       1.451  31.485  26.550  1.00  0.00    -0.290 OA
BRANCH  86  89
ATOM     89  O   UNL     1       8.834  25.659  26.239  1.00  0.00    -0.508 OA
ATOM     90  H   UNL     1       8.920  24.938  25.527  1.00  0.00     0.293 HD
ENDBRANCH  86  89
ENDBRANCH  70  74
ENDBRANCH  63  65
ENDBRANCH  59  60
ENDBRANCH  58  59
ENDBRANCH  55  58
ENDBRANCH  53  54
ENDBRANCH  50  53
ENDBRANCH  47  50
ENDBRANCH   5  47
BRANCH   4  91
ATOM     91  N   UNL     1      18.948  29.440  18.501  1.00  0.00    -0.348 N 
ATOM     92  C   UNL     1      19.619  28.710  19.502  1.00  0.00     0.217 C 
ATOM     93  H   UNL     1      19.508  29.807  17.701  1.00  0.00     0.163 HD
ATOM     94  C   UNL     1      21.078  28.442  19.472  1.00  0.00     0.114 C 
ATOM     95  O   UNL     1      18.990  28.233  20.509  1.00  0.00    -0.275 OA
ENDBRANCH   4  91
TORSDOF 33
