REMARK VINA RESULT:    -5.588      3.419     10.819
REMARK INTER + INTRA:         -21.174
REMARK INTER:                 -16.675
REMARK INTRA:                  -4.498
REMARK UNBOUND:                -7.419
REMARK SMILES CC(=O)N[C@@H]1[C@@H](O)C[C@](OC[C@H]2O[C@@H](O[C@H]3[C@H](O)[C@@H](O)[C@H](OCCN=[N+]=[N-])O[C@@H]3CO)[C@H](O)[C@@H](O)[C@H]2O)(C(=O)O)O[C@H]1C(O)[C@H](O)CNC(=O)OCc1cn(-c2ccc(C)cc2)nn1
REMARK SMILES IDX 9 1 8 2 6 3 5 4 42 5 41 6 10 7 11 8 12 9 14 10 13 11 32 12
REMARK SMILES IDX 34 13 36 14 15 15 16 16 29 17 28 18 21 19 17 20 19 21 30 22
REMARK SMILES IDX 31 23 22 25 23 26 24 27 25 28 26 29 27 30 18 31 20 33 33 35
REMARK SMILES IDX 35 37 37 39 38 41 39 42 40 43 7 45 43 47 44 48 45 50 46 51
REMARK SMILES IDX 47 53 48 54 49 55 50 57 51 58 52 59 53 60 54 61 64 62 55 63
REMARK SMILES IDX 63 64 56 65 57 66 62 67 58 68 61 69 59 70 60 71 4 72 2 73
REMARK SMILES IDX 1 75 3 76
REMARK H PARENT 31 24 18 32 20 34 33 36 35 38 37 40 40 44 7 46 44 49 46 52
REMARK H PARENT 48 56 4 74
REMARK Flexibility Score: inf
ROOT
ATOM      1  C   UNL     1      29.100  20.218  18.280  1.00  0.00     0.272 C 
ATOM      2  C   UNL     1      28.685  18.989  19.081  1.00  0.00     0.113 C 
ATOM      3  C   UNL     1      29.522  18.808  20.290  1.00  0.00     0.145 C 
ATOM      4  C   UNL     1      30.017  20.059  20.922  1.00  0.00     0.142 C 
ATOM      5  C   UNL     1      29.474  21.362  20.344  1.00  0.00     0.178 C 
ATOM      6  O   UNL     1      29.330  21.291  18.999  1.00  0.00    -0.332 OA
ENDROOT
BRANCH   1   7
ATOM      7  O   UNL     1      27.958  20.487  17.463  1.00  0.00    -0.338 OA
BRANCH   7   8
ATOM      8  C   UNL     1      27.713  21.861  17.496  1.00  0.00     0.199 C 
BRANCH   8   9
ATOM      9  C   UNL     1      27.612  22.453  16.141  1.00  0.00     0.179 C 
ATOM     10  C   UNL     1      26.334  22.559  14.241  1.00  0.00     0.282 C 
ATOM     11  O   UNL     1      26.352  22.212  15.588  1.00  0.00    -0.341 OA
ATOM     12  C   UNL     1      26.408  24.031  14.088  1.00  0.00     0.202 C 
ATOM     13  C   UNL     1      26.835  24.676  15.377  1.00  0.00     0.179 C 
ATOM     14  C   UNL     1      27.938  23.921  16.090  1.00  0.00     0.177 C 
BRANCH  10  15
ATOM     15  O   UNL     1      25.157  22.090  13.663  1.00  0.00    -0.341 OA
BRANCH  15  16
ATOM     16  C   UNL     1      24.927  20.752  13.985  1.00  0.00     0.184 C 
ATOM     17  C   UNL     1      25.210  19.787  12.868  1.00  0.00     0.178 C 
ATOM     18  O   UNL     1      24.037  19.124  12.490  1.00  0.00    -0.341 OA
ATOM     19  C   UNL     1      23.147  20.043  11.963  1.00  0.00     0.281 C 
ATOM     20  C   UNL     1      23.453  20.658  14.315  1.00  0.00     0.180 C 
ATOM     21  C   UNL     1      22.717  21.039  13.022  1.00  0.00     0.202 C 
BRANCH  17  22
ATOM     22  C   UNL     1      26.138  18.664  13.360  1.00  0.00     0.191 C 
BRANCH  22  23
ATOM     23  O   UNL     1      25.396  17.628  13.921  1.00  0.00    -0.394 OA
ATOM     24  H   UNL     1      25.151  17.010  13.169  1.00  0.00     0.210 HD
ENDBRANCH  22  23
ENDBRANCH  17  22
BRANCH  19  25
ATOM     25  O   UNL     1      22.032  19.443  11.397  1.00  0.00    -0.350 OA
BRANCH  25  26
ATOM     26  C   UNL     1      20.846  19.828  11.969  1.00  0.00     0.169 C 
BRANCH  26  27
ATOM     27  C   UNL     1      19.762  20.210  11.002  1.00  0.00     0.119 C 
BRANCH  27  28
ATOM     28  N   UNL     1      20.216  21.182  10.038  1.00  0.00    -0.092 NA
ATOM     29  N   UNL     1      20.179  20.927   8.847  1.00  0.00     0.001 N 
ATOM     30  N   UNL     1      20.063  20.720   7.638  1.00  0.00    -0.003 NA
ENDBRANCH  27  28
ENDBRANCH  26  27
ENDBRANCH  25  26
ENDBRANCH  19  25
BRANCH  20  31
ATOM     31  O   UNL     1      23.069  19.388  14.719  1.00  0.00    -0.387 OA
ATOM     32  H   UNL     1      23.889  18.841  14.773  1.00  0.00     0.211 HD
ENDBRANCH  20  31
BRANCH  21  33
ATOM     33  O   UNL     1      23.264  22.286  12.654  1.00  0.00    -0.385 OA
ATOM     34  H   UNL     1      23.992  22.569  13.252  1.00  0.00     0.211 HD
ENDBRANCH  21  33
ENDBRANCH  15  16
ENDBRANCH  10  15
BRANCH  12  35
ATOM     35  O   UNL     1      27.263  24.412  13.037  1.00  0.00    -0.385 OA
ATOM     36  H   UNL     1      26.672  24.387  12.215  1.00  0.00     0.211 HD
ENDBRANCH  12  35
BRANCH  13  37
ATOM     37  O   UNL     1      25.729  24.922  16.152  1.00  0.00    -0.387 OA
ATOM     38  H   UNL     1      25.919  24.956  17.143  1.00  0.00     0.211 HD
ENDBRANCH  13  37
BRANCH  14  39
ATOM     39  O   UNL     1      28.033  24.386  17.388  1.00  0.00    -0.387 OA
ATOM     40  H   UNL     1      28.873  24.170  17.843  1.00  0.00     0.211 HD
ENDBRANCH  14  39
ENDBRANCH   8   9
ENDBRANCH   7   8
ENDBRANCH   1   7
BRANCH   1  41
ATOM     41  C   UNL     1      30.226  19.768  17.438  1.00  0.00     0.364 C 
ATOM     42  O   UNL     1      30.094  19.000  16.457  1.00  0.00    -0.246 OA
BRANCH  41  43
ATOM     43  O   UNL     1      31.511  20.240  17.764  1.00  0.00    -0.477 OA
ATOM     44  H   UNL     1      32.050  20.720  17.042  1.00  0.00     0.296 HD
ENDBRANCH  41  43
ENDBRANCH   1  41
BRANCH   3  45
ATOM     45  O   UNL     1      28.885  17.947  21.212  1.00  0.00    -0.391 OA
ATOM     46  H   UNL     1      29.588  17.260  21.450  1.00  0.00     0.211 HD
ENDBRANCH   3  45
BRANCH   5  47
ATOM     47  C   UNL     1      28.196  21.723  21.074  1.00  0.00     0.176 C 
BRANCH  47  48
ATOM     48  O   UNL     1      28.173  21.327  22.403  1.00  0.00    -0.388 OA
ATOM     49  H   UNL     1      27.334  21.702  22.781  1.00  0.00     0.211 HD
ENDBRANCH  47  48
BRANCH  47  50
ATOM     50  C   UNL     1      27.565  23.013  20.850  1.00  0.00     0.165 C 
BRANCH  50  51
ATOM     51  O   UNL     1      28.377  24.010  20.269  1.00  0.00    -0.388 OA
ATOM     52  H   UNL     1      29.306  23.675  20.167  1.00  0.00     0.211 HD
ENDBRANCH  50  51
BRANCH  50  53
ATOM     53  C   UNL     1      26.735  23.676  21.892  1.00  0.00     0.154 C 
BRANCH  53  54
ATOM     54  N   UNL     1      25.333  23.763  21.578  1.00  0.00    -0.319 N 
ATOM     55  C   UNL     1      24.844  24.726  20.647  1.00  0.00     0.407 C 
ATOM     56  H   UNL     1      24.650  23.115  22.033  1.00  0.00     0.167 HD
ATOM     57  O   UNL     1      25.661  25.496  20.086  1.00  0.00    -0.225 OA
BRANCH  55  58
ATOM     58  O   UNL     1      23.493  24.801  20.384  1.00  0.00    -0.443 OA
BRANCH  58  59
ATOM     59  C   UNL     1      22.541  24.011  21.008  1.00  0.00     0.294 C 
BRANCH  59  60
ATOM     60  C   UNL     1      21.985  24.668  22.193  1.00  0.00     0.121 A 
ATOM     61  C   UNL     1      22.522  24.631  23.493  1.00  0.00     0.144 A 
ATOM     62  N   UNL     1      20.893  25.412  22.302  1.00  0.00    -0.131 NA
ATOM     63  N   UNL     1      21.731  25.346  24.292  1.00  0.00    -0.220 N 
ATOM     64  N   UNL     1      20.748  25.810  23.551  1.00  0.00    -0.062 NA
BRANCH  63  65
ATOM     65  C   UNL     1      21.964  25.529  25.700  1.00  0.00     0.066 A 
ATOM     66  C   UNL     1      21.483  26.651  26.338  1.00  0.00     0.029 A 
ATOM     67  C   UNL     1      22.649  24.600  26.456  1.00  0.00     0.029 A 
ATOM     68  C   UNL     1      21.691  26.831  27.708  1.00  0.00     0.005 A 
ATOM     69  C   UNL     1      22.857  24.779  27.828  1.00  0.00     0.005 A 
ATOM     70  C   UNL     1      22.375  25.902  28.459  1.00  0.00    -0.051 A 
ATOM     71  C   UNL     1      22.587  26.089  29.931  1.00  0.00     0.044 C 
ENDBRANCH  63  65
ENDBRANCH  59  60
ENDBRANCH  58  59
ENDBRANCH  55  58
ENDBRANCH  53  54
ENDBRANCH  50  53
ENDBRANCH  47  50
ENDBRANCH   5  47
BRANCH   4  72
ATOM     72  N   UNL     1      31.459  20.081  21.073  1.00  0.00    -0.348 N 
ATOM     73  C   UNL     1      32.155  19.435  22.140  1.00  0.00     0.217 C 
ATOM     74  H   UNL     1      32.059  20.588  20.392  1.00  0.00     0.163 HD
ATOM     75  C   UNL     1      33.644  19.497  22.255  1.00  0.00     0.114 C 
ATOM     76  O   UNL     1      31.428  18.822  22.962  1.00  0.00    -0.275 OA
ENDBRANCH   4  72
TORSDOF 30
