REMARK VINA RESULT:    -5.698      2.146      3.239
REMARK INTER + INTRA:         -21.061
REMARK INTER:                 -14.821
REMARK INTRA:                  -6.239
REMARK UNBOUND:                -7.035
REMARK SMILES CC(=O)N[C@@H]1[C@@H](O)C[C@](OC[C@H]2O[C@@H](O[C@H]3[C@H](O)[C@@H](O)[C@H](OCCN=[N+]=[N-])O[C@@H]3CO)[C@H](O)[C@@H](O)[C@H]2O)(C(=O)O)O[C@H]1C(O)[C@H](O)CNC(=O)OCc1cn([C@@H]2C[C@H]3CC[C@@H](C2)N3C)nn1
REMARK SMILES IDX 9 1 8 2 6 3 5 4 42 5 41 6 10 7 11 8 12 9 14 10 13 11 32 12
REMARK SMILES IDX 34 13 36 14 15 15 16 16 29 17 28 18 21 19 17 20 19 21 30 22
REMARK SMILES IDX 31 23 22 25 23 26 24 27 25 28 26 29 27 30 18 31 20 33 33 35
REMARK SMILES IDX 35 37 37 39 38 41 39 42 40 43 7 45 43 47 44 48 45 50 46 51
REMARK SMILES IDX 47 53 48 54 49 55 50 57 51 58 52 59 53 60 54 61 66 62 55 63
REMARK SMILES IDX 65 64 56 65 62 66 57 67 61 68 58 69 63 70 60 71 59 72 64 73
REMARK SMILES IDX 4 74 2 75 1 77 3 78
REMARK H PARENT 31 24 18 32 20 34 33 36 35 38 37 40 40 44 7 46 44 49 46 52
REMARK H PARENT 48 56 4 76
REMARK Flexibility Score: inf
ROOT
ATOM      1  C   UNL     1      23.664  25.051  21.076  1.00  0.00     0.272 C 
ATOM      2  C   UNL     1      22.700  24.124  21.701  1.00  0.00     0.113 C 
ATOM      3  C   UNL     1      21.722  24.853  22.611  1.00  0.00     0.145 C 
ATOM      4  C   UNL     1      22.515  25.704  23.631  1.00  0.00     0.142 C 
ATOM      5  C   UNL     1      23.655  26.389  22.991  1.00  0.00     0.178 C 
ATOM      6  O   UNL     1      23.480  26.351  21.623  1.00  0.00    -0.332 OA
ENDROOT
BRANCH   1   7
ATOM      7  O   UNL     1      23.785  25.165  19.738  1.00  0.00    -0.338 OA
BRANCH   7   8
ATOM      8  C   UNL     1      24.580  24.587  18.897  1.00  0.00     0.199 C 
BRANCH   8   9
ATOM      9  C   UNL     1      24.018  24.232  17.528  1.00  0.00     0.179 C 
ATOM     10  C   UNL     1      22.287  25.519  16.593  1.00  0.00     0.282 C 
ATOM     11  O   UNL     1      22.666  24.603  17.531  1.00  0.00    -0.341 OA
ATOM     12  C   UNL     1      22.624  25.134  15.192  1.00  0.00     0.202 C 
ATOM     13  C   UNL     1      24.075  24.809  15.128  1.00  0.00     0.179 C 
ATOM     14  C   UNL     1      24.782  24.909  16.435  1.00  0.00     0.177 C 
BRANCH  10  15
ATOM     15  O   UNL     1      22.624  26.822  16.919  1.00  0.00    -0.341 OA
BRANCH  15  16
ATOM     16  C   UNL     1      21.545  27.649  17.153  1.00  0.00     0.184 C 
ATOM     17  C   UNL     1      21.667  28.942  16.449  1.00  0.00     0.178 C 
ATOM     18  O   UNL     1      20.504  29.711  16.550  1.00  0.00    -0.341 OA
ATOM     19  C   UNL     1      19.632  29.265  17.544  1.00  0.00     0.281 C 
ATOM     20  C   UNL     1      21.545  28.038  18.670  1.00  0.00     0.180 C 
ATOM     21  C   UNL     1      20.324  28.883  18.837  1.00  0.00     0.202 C 
BRANCH  17  22
ATOM     22  C   UNL     1      22.133  28.914  15.035  1.00  0.00     0.191 C 
BRANCH  22  23
ATOM     23  O   UNL     1      23.458  28.490  14.965  1.00  0.00    -0.394 OA
ATOM     24  H   UNL     1      24.047  29.283  14.942  1.00  0.00     0.210 HD
ENDBRANCH  22  23
ENDBRANCH  17  22
BRANCH  19  25
ATOM     25  O   UNL     1      18.741  28.339  17.080  1.00  0.00    -0.350 OA
BRANCH  25  26
ATOM     26  C   UNL     1      17.629  28.054  17.791  1.00  0.00     0.169 C 
BRANCH  26  27
ATOM     27  C   UNL     1      16.465  28.940  17.546  1.00  0.00     0.119 C 
BRANCH  27  28
ATOM     28  N   UNL     1      16.321  29.417  16.214  1.00  0.00    -0.092 NA
ATOM     29  N   UNL     1      15.578  28.899  15.374  1.00  0.00     0.001 N 
ATOM     30  N   UNL     1      15.303  28.367  14.293  1.00  0.00    -0.003 NA
ENDBRANCH  27  28
ENDBRANCH  26  27
ENDBRANCH  25  26
ENDBRANCH  19  25
BRANCH  20  31
ATOM     31  O   UNL     1      21.457  26.924  19.465  1.00  0.00    -0.387 OA
ATOM     32  H   UNL     1      21.083  27.158  20.356  1.00  0.00     0.211 HD
ENDBRANCH  20  31
BRANCH  21  33
ATOM     33  O   UNL     1      20.627  30.054  19.539  1.00  0.00    -0.385 OA
ATOM     34  H   UNL     1      19.986  30.736  19.290  1.00  0.00     0.211 HD
ENDBRANCH  21  33
ENDBRANCH  15  16
ENDBRANCH  10  15
BRANCH  12  35
ATOM     35  O   UNL     1      21.865  24.003  14.827  1.00  0.00    -0.385 OA
ATOM     36  H   UNL     1      21.385  23.695  15.640  1.00  0.00     0.211 HD
ENDBRANCH  12  35
BRANCH  13  37
ATOM     37  O   UNL     1      24.739  25.648  14.202  1.00  0.00    -0.387 OA
ATOM     38  H   UNL     1      24.532  26.594  14.391  1.00  0.00     0.211 HD
ENDBRANCH  13  37
BRANCH  14  39
ATOM     39  O   UNL     1      25.100  26.246  16.706  1.00  0.00    -0.387 OA
ATOM     40  H   UNL     1      24.259  26.656  17.062  1.00  0.00     0.211 HD
ENDBRANCH  14  39
ENDBRANCH   8   9
ENDBRANCH   7   8
ENDBRANCH   1   7
BRANCH   1  41
ATOM     41  C   UNL     1      25.047  24.621  21.523  1.00  0.00     0.364 C 
ATOM     42  O   UNL     1      25.317  23.525  22.042  1.00  0.00    -0.246 OA
BRANCH  41  43
ATOM     43  O   UNL     1      26.127  25.493  21.353  1.00  0.00    -0.477 OA
ATOM     44  H   UNL     1      26.818  25.319  20.614  1.00  0.00     0.296 HD
ENDBRANCH  41  43
ENDBRANCH   1  41
BRANCH   3  45
ATOM     45  O   UNL     1      20.772  25.595  21.947  1.00  0.00    -0.391 OA
ATOM     46  H   UNL     1      20.386  25.025  21.215  1.00  0.00     0.211 HD
ENDBRANCH   3  45
BRANCH   5  47
ATOM     47  C   UNL     1      23.594  27.940  23.258  1.00  0.00     0.176 C 
BRANCH  47  48
ATOM     48  O   UNL     1      23.127  28.003  24.641  1.00  0.00    -0.388 OA
ATOM     49  H   UNL     1      23.140  27.048  24.954  1.00  0.00     0.211 HD
ENDBRANCH  47  48
BRANCH  47  50
ATOM     50  C   UNL     1      22.475  28.599  22.522  1.00  0.00     0.165 C 
BRANCH  50  51
ATOM     51  O   UNL     1      22.918  29.117  21.326  1.00  0.00    -0.388 OA
ATOM     52  H   UNL     1      23.862  29.002  21.133  1.00  0.00     0.211 HD
ENDBRANCH  50  51
BRANCH  50  53
ATOM     53  C   UNL     1      21.629  29.520  23.317  1.00  0.00     0.154 C 
BRANCH  53  54
ATOM     54  N   UNL     1      20.586  30.115  22.481  1.00  0.00    -0.319 N 
ATOM     55  C   UNL     1      19.242  30.078  22.865  1.00  0.00     0.407 C 
ATOM     56  H   UNL     1      20.875  30.565  21.600  1.00  0.00     0.167 HD
ATOM     57  O   UNL     1      18.938  29.516  23.958  1.00  0.00    -0.225 OA
BRANCH  55  58
ATOM     58  O   UNL     1      18.220  30.632  22.101  1.00  0.00    -0.443 OA
BRANCH  58  59
ATOM     59  C   UNL     1      17.500  29.837  21.166  1.00  0.00     0.294 C 
BRANCH  59  60
ATOM     60  C   UNL     1      16.153  29.506  21.724  1.00  0.00     0.120 A 
ATOM     61  C   UNL     1      15.633  29.897  22.940  1.00  0.00     0.138 A 
ATOM     62  N   UNL     1      15.207  28.768  21.152  1.00  0.00    -0.132 NA
ATOM     63  N   UNL     1      14.398  29.394  23.077  1.00  0.00    -0.249 N 
ATOM     64  N   UNL     1      14.170  28.699  21.948  1.00  0.00    -0.067 NA
BRANCH  63  65
ATOM     65  C   UNL     1      13.449  29.514  24.158  1.00  0.00     0.112 C 
ATOM     66  C   UNL     1      13.640  30.744  24.996  1.00  0.00     0.046 C 
ATOM     67  C   UNL     1      12.048  29.629  23.539  1.00  0.00     0.046 C 
ATOM     68  C   UNL     1      13.258  31.980  24.226  1.00  0.00     0.058 C 
ATOM     69  C   UNL     1      11.958  30.897  22.712  1.00  0.00     0.058 C 
ATOM     70  N   UNL     1      13.219  31.612  22.817  1.00  0.00    -0.300 NA
ATOM     71  C   UNL     1      11.844  32.414  24.512  1.00  0.00     0.021 C 
ATOM     72  C   UNL     1      11.014  31.878  23.379  1.00  0.00     0.021 C 
ATOM     73  C   UNL     1      13.231  32.817  22.046  1.00  0.00     0.105 C 
ENDBRANCH  63  65
ENDBRANCH  59  60
ENDBRANCH  58  59
ENDBRANCH  55  58
ENDBRANCH  53  54
ENDBRANCH  50  53
ENDBRANCH  47  50
ENDBRANCH   5  47
BRANCH   4  74
ATOM     74  N   UNL     1      22.854  24.816  24.750  1.00  0.00    -0.348 N 
ATOM     75  C   UNL     1      22.438  25.138  26.098  1.00  0.00     0.217 C 
ATOM     76  H   UNL     1      23.393  23.935  24.659  1.00  0.00     0.163 HD
ATOM     77  C   UNL     1      22.735  24.307  27.267  1.00  0.00     0.114 C 
ATOM     78  O   UNL     1      21.787  26.195  26.238  1.00  0.00    -0.275 OA
ENDBRANCH   4  74
TORSDOF 30
