REMARK VINA RESULT:    -5.209      3.417      4.100
REMARK INTER + INTRA:         -21.176
REMARK INTER:                 -15.056
REMARK INTRA:                  -6.119
REMARK UNBOUND:                -8.354
REMARK SMILES CC(=O)N[C@@H]1[C@@H](O)C[C@](OC[C@H]2O[C@@H](O[C@H]3[C@H](O)[C@@H](O)[C@H](OCCN=[N+]=[N-])O[C@@H]3CO)[C@H](O)[C@@H](O)[C@H]2O)(C(=O)O)O[C@H]1C(O)[C@H](O)CNC(=O)OCc1cn(-c2cccc(Cl)c2)nn1
REMARK SMILES IDX 9 1 8 2 6 3 5 4 42 5 41 6 10 7 11 8 12 9 14 10 13 11 32 12
REMARK SMILES IDX 34 13 36 14 15 15 16 16 29 17 28 18 21 19 17 20 19 21 30 22
REMARK SMILES IDX 31 23 22 25 23 26 24 27 25 28 26 29 27 30 18 31 20 33 33 35
REMARK SMILES IDX 35 37 37 39 38 41 39 42 40 43 7 45 43 47 44 48 45 50 46 51
REMARK SMILES IDX 47 53 48 54 49 55 50 57 51 58 52 59 53 60 54 61 64 62 55 63
REMARK SMILES IDX 63 64 56 65 57 66 62 67 58 68 60 69 59 70 61 71 4 72 2 73
REMARK SMILES IDX 1 75 3 76
REMARK H PARENT 31 24 18 32 20 34 33 36 35 38 37 40 40 44 7 46 44 49 46 52
REMARK H PARENT 48 56 4 74
REMARK Flexibility Score: inf
ROOT
ATOM      1  C   UNL     1      22.452  26.316  23.300  1.00  0.00     0.272 C 
ATOM      2  C   UNL     1      22.688  24.905  22.990  1.00  0.00     0.113 C 
ATOM      3  C   UNL     1      22.935  24.511  21.572  1.00  0.00     0.145 C 
ATOM      4  C   UNL     1      22.847  25.664  20.605  1.00  0.00     0.142 C 
ATOM      5  C   UNL     1      21.735  26.565  21.167  1.00  0.00     0.178 C 
ATOM      6  O   UNL     1      22.311  27.198  22.227  1.00  0.00    -0.332 OA
ENDROOT
BRANCH   1   7
ATOM      7  O   UNL     1      23.239  26.959  24.205  1.00  0.00    -0.338 OA
BRANCH   7   8
ATOM      8  C   UNL     1      24.119  26.357  25.002  1.00  0.00     0.199 C 
BRANCH   8   9
ATOM      9  C   UNL     1      23.876  26.279  26.473  1.00  0.00     0.179 C 
ATOM     10  C   UNL     1      22.464  27.037  28.135  1.00  0.00     0.282 C 
ATOM     11  O   UNL     1      22.661  26.942  26.746  1.00  0.00    -0.341 OA
ATOM     12  C   UNL     1      22.376  25.658  28.715  1.00  0.00     0.202 C 
ATOM     13  C   UNL     1      23.445  24.689  28.321  1.00  0.00     0.179 C 
ATOM     14  C   UNL     1      23.652  24.790  26.826  1.00  0.00     0.177 C 
BRANCH  10  15
ATOM     15  O   UNL     1      21.229  27.614  28.271  1.00  0.00    -0.341 OA
BRANCH  15  16
ATOM     16  C   UNL     1      21.177  28.971  28.586  1.00  0.00     0.184 C 
ATOM     17  C   UNL     1      20.595  29.281  29.885  1.00  0.00     0.178 C 
ATOM     18  O   UNL     1      19.671  30.299  29.867  1.00  0.00    -0.341 OA
ATOM     19  C   UNL     1      18.888  30.364  28.718  1.00  0.00     0.281 C 
ATOM     20  C   UNL     1      20.710  29.656  27.349  1.00  0.00     0.180 C 
ATOM     21  C   UNL     1      19.860  30.851  27.648  1.00  0.00     0.202 C 
BRANCH  17  22
ATOM     22  C   UNL     1      21.677  29.757  30.869  1.00  0.00     0.191 C 
BRANCH  22  23
ATOM     23  O   UNL     1      22.702  28.778  30.853  1.00  0.00    -0.394 OA
ATOM     24  H   UNL     1      23.567  29.225  30.887  1.00  0.00     0.210 HD
ENDBRANCH  22  23
ENDBRANCH  17  22
BRANCH  19  25
ATOM     25  O   UNL     1      17.904  31.290  28.915  1.00  0.00    -0.350 OA
BRANCH  25  26
ATOM     26  C   UNL     1      16.644  30.803  29.153  1.00  0.00     0.169 C 
BRANCH  26  27
ATOM     27  C   UNL     1      16.282  30.645  30.607  1.00  0.00     0.119 C 
BRANCH  27  28
ATOM     28  N   UNL     1      16.006  29.217  30.827  1.00  0.00    -0.092 NA
ATOM     29  N   UNL     1      16.965  28.529  31.237  1.00  0.00     0.001 N 
ATOM     30  N   UNL     1      17.701  27.889  32.010  1.00  0.00    -0.003 NA
ENDBRANCH  27  28
ENDBRANCH  26  27
ENDBRANCH  25  26
ENDBRANCH  19  25
BRANCH  20  31
ATOM     31  O   UNL     1      21.807  30.001  26.536  1.00  0.00    -0.387 OA
ATOM     32  H   UNL     1      21.426  30.198  25.644  1.00  0.00     0.211 HD
ENDBRANCH  20  31
BRANCH  21  33
ATOM     33  O   UNL     1      19.149  31.178  26.488  1.00  0.00    -0.385 OA
ATOM     34  H   UNL     1      18.789  30.393  26.044  1.00  0.00     0.211 HD
ENDBRANCH  21  33
ENDBRANCH  15  16
ENDBRANCH  10  15
BRANCH  12  35
ATOM     35  O   UNL     1      22.400  25.691  30.118  1.00  0.00    -0.385 OA
ATOM     36  H   UNL     1      22.354  24.789  30.506  1.00  0.00     0.211 HD
ENDBRANCH  12  35
BRANCH  13  37
ATOM     37  O   UNL     1      22.987  23.397  28.589  1.00  0.00    -0.387 OA
ATOM     38  H   UNL     1      22.059  23.242  28.344  1.00  0.00     0.211 HD
ENDBRANCH  13  37
BRANCH  14  39
ATOM     39  O   UNL     1      22.392  24.507  26.248  1.00  0.00    -0.387 OA
ATOM     40  H   UNL     1      22.220  25.020  25.443  1.00  0.00     0.211 HD
ENDBRANCH  14  39
ENDBRANCH   8   9
ENDBRANCH   7   8
ENDBRANCH   1   7
BRANCH   1  41
ATOM     41  C   UNL     1      21.061  26.374  23.949  1.00  0.00     0.364 C 
ATOM     42  O   UNL     1      20.542  27.435  24.338  1.00  0.00    -0.246 OA
BRANCH  41  43
ATOM     43  O   UNL     1      20.341  25.184  24.110  1.00  0.00    -0.477 OA
ATOM     44  H   UNL     1      19.687  25.122  24.900  1.00  0.00     0.296 HD
ENDBRANCH  41  43
ENDBRANCH   1  41
BRANCH   3  45
ATOM     45  O   UNL     1      24.140  23.860  21.374  1.00  0.00    -0.391 OA
ATOM     46  H   UNL     1      24.039  22.880  21.360  1.00  0.00     0.211 HD
ENDBRANCH   3  45
BRANCH   5  47
ATOM     47  C   UNL     1      21.170  27.480  20.094  1.00  0.00     0.176 C 
BRANCH  47  48
ATOM     48  O   UNL     1      19.832  27.700  20.517  1.00  0.00    -0.388 OA
ATOM     49  H   UNL     1      19.351  26.825  20.423  1.00  0.00     0.211 HD
ENDBRANCH  47  48
BRANCH  47  50
ATOM     50  C   UNL     1      21.855  28.827  20.192  1.00  0.00     0.165 C 
BRANCH  50  51
ATOM     51  O   UNL     1      21.229  29.601  21.155  1.00  0.00    -0.388 OA
ATOM     52  H   UNL     1      20.852  29.077  21.896  1.00  0.00     0.211 HD
ENDBRANCH  50  51
BRANCH  50  53
ATOM     53  C   UNL     1      21.702  29.558  18.854  1.00  0.00     0.154 C 
BRANCH  53  54
ATOM     54  N   UNL     1      20.618  29.031  18.073  1.00  0.00    -0.319 N 
ATOM     55  C   UNL     1      19.567  29.773  17.513  1.00  0.00     0.407 C 
ATOM     56  H   UNL     1      20.604  27.975  17.901  1.00  0.00     0.167 HD
ATOM     57  O   UNL     1      19.533  31.018  17.656  1.00  0.00    -0.225 OA
BRANCH  55  58
ATOM     58  O   UNL     1      18.521  29.150  16.774  1.00  0.00    -0.443 OA
BRANCH  58  59
ATOM     59  C   UNL     1      17.186  29.372  17.140  1.00  0.00     0.294 C 
BRANCH  59  60
ATOM     60  C   UNL     1      16.839  28.872  18.496  1.00  0.00     0.121 A 
ATOM     61  C   UNL     1      16.292  29.604  19.556  1.00  0.00     0.144 A 
ATOM     62  N   UNL     1      16.981  27.638  19.007  1.00  0.00    -0.131 NA
ATOM     63  N   UNL     1      16.134  28.805  20.626  1.00  0.00    -0.220 N 
ATOM     64  N   UNL     1      16.555  27.616  20.281  1.00  0.00    -0.062 NA
BRANCH  63  65
ATOM     65  C   UNL     1      15.609  29.263  21.864  1.00  0.00     0.068 A 
ATOM     66  C   UNL     1      16.384  29.762  22.886  1.00  0.00     0.028 A 
ATOM     67  C   UNL     1      14.225  29.222  22.105  1.00  0.00     0.049 A 
ATOM     68  C   UNL     1      15.821  30.199  24.081  1.00  0.00     0.004 A 
ATOM     69  C   UNL     1      13.672  29.653  23.286  1.00  0.00     0.043 A 
ATOM     70  C   UNL     1      14.461  30.150  24.297  1.00  0.00     0.020 A 
ATOM     71  Cl  UNL     1      11.938  29.596  23.569  1.00  0.00    -0.084 Cl
ENDBRANCH  63  65
ENDBRANCH  59  60
ENDBRANCH  58  59
ENDBRANCH  55  58
ENDBRANCH  53  54
ENDBRANCH  50  53
ENDBRANCH  47  50
ENDBRANCH   5  47
BRANCH   4  72
ATOM     72  N   UNL     1      22.620  25.255  19.258  1.00  0.00    -0.348 N 
ATOM     73  C   UNL     1      23.713  25.027  18.349  1.00  0.00     0.217 C 
ATOM     74  H   UNL     1      21.677  25.086  18.833  1.00  0.00     0.163 HD
ATOM     75  C   UNL     1      23.505  24.603  16.956  1.00  0.00     0.114 C 
ATOM     76  O   UNL     1      24.875  25.199  18.771  1.00  0.00    -0.275 OA
ENDBRANCH   4  72
TORSDOF 30
