REMARK VINA RESULT:    -5.434      4.058      7.312
REMARK INTER + INTRA:         -22.128
REMARK INTER:                 -13.528
REMARK INTRA:                  -8.599
REMARK UNBOUND:                -8.275
REMARK SMILES CC(=O)N[C@@H]1[C@@H](O)C[C@](OC[C@H]2O[C@@H](O[C@H]3[C@H](O)[C@@H](O)[C@H](OCCN=[N+]=[N-])O[C@@H]3CO)[C@H](O)[C@@H](O)[C@H]2O)(C(=O)O)O[C@H]1C(O)[C@H](O)CNC(=O)OCc1cn(C(C)(C)C(=O)O)nn1
REMARK SMILES IDX 9 1 8 2 6 3 5 4 42 5 41 6 10 7 11 8 12 9 14 10 13 11 32 12
REMARK SMILES IDX 34 13 36 14 15 15 16 16 29 17 28 18 21 19 17 20 19 21 30 22
REMARK SMILES IDX 31 23 22 25 23 26 24 27 25 28 26 29 27 30 18 31 20 33 33 35
REMARK SMILES IDX 35 37 37 39 38 41 39 42 40 43 7 45 43 47 44 48 45 50 46 51
REMARK SMILES IDX 47 53 48 54 49 55 50 57 51 58 52 59 53 60 54 61 63 62 55 63
REMARK SMILES IDX 62 64 56 65 57 66 58 67 59 68 60 69 61 70 4 72 2 73 1 75
REMARK SMILES IDX 3 76
REMARK H PARENT 31 24 18 32 20 34 33 36 35 38 37 40 40 44 7 46 44 49 46 52
REMARK H PARENT 48 56 61 71 4 74
REMARK Flexibility Score: inf
ROOT
ATOM      1  C   UNL     1      23.277  25.551  23.051  1.00  0.00     0.272 C 
ATOM      2  C   UNL     1      23.614  24.232  22.489  1.00  0.00     0.113 C 
ATOM      3  C   UNL     1      24.511  24.262  21.284  1.00  0.00     0.145 C 
ATOM      4  C   UNL     1      24.352  25.564  20.559  1.00  0.00     0.142 C 
ATOM      5  C   UNL     1      22.904  26.012  20.830  1.00  0.00     0.178 C 
ATOM      6  O   UNL     1      22.871  26.507  22.113  1.00  0.00    -0.332 OA
ENDROOT
BRANCH   1   7
ATOM      7  O   UNL     1      24.251  26.114  23.817  1.00  0.00    -0.338 OA
BRANCH   7   8
ATOM      8  C   UNL     1      24.835  25.361  24.787  1.00  0.00     0.199 C 
BRANCH   8   9
ATOM      9  C   UNL     1      24.913  26.112  26.098  1.00  0.00     0.179 C 
ATOM     10  C   UNL     1      24.224  28.087  27.075  1.00  0.00     0.282 C 
ATOM     11  O   UNL     1      24.009  27.166  25.985  1.00  0.00    -0.341 OA
ATOM     12  C   UNL     1      23.750  27.396  28.296  1.00  0.00     0.202 C 
ATOM     13  C   UNL     1      23.437  25.924  28.038  1.00  0.00     0.179 C 
ATOM     14  C   UNL     1      24.557  25.256  27.255  1.00  0.00     0.177 C 
BRANCH  10  15
ATOM     15  O   UNL     1      23.579  29.215  26.667  1.00  0.00    -0.341 OA
BRANCH  15  16
ATOM     16  C   UNL     1      22.603  29.021  25.706  1.00  0.00     0.184 C 
ATOM     17  C   UNL     1      22.539  30.214  24.804  1.00  0.00     0.178 C 
ATOM     18  O   UNL     1      21.299  30.300  24.153  1.00  0.00    -0.341 OA
ATOM     19  C   UNL     1      20.276  30.699  25.000  1.00  0.00     0.281 C 
ATOM     20  C   UNL     1      21.230  28.874  26.363  1.00  0.00     0.180 C 
ATOM     21  C   UNL     1      20.540  30.214  26.409  1.00  0.00     0.202 C 
BRANCH  17  22
ATOM     22  C   UNL     1      23.563  30.112  23.662  1.00  0.00     0.191 C 
BRANCH  22  23
ATOM     23  O   UNL     1      24.019  28.810  23.633  1.00  0.00    -0.394 OA
ATOM     24  H   UNL     1      23.419  28.277  23.032  1.00  0.00     0.210 HD
ENDBRANCH  22  23
ENDBRANCH  17  22
BRANCH  19  25
ATOM     25  O   UNL     1      19.105  30.143  24.485  1.00  0.00    -0.350 OA
BRANCH  25  26
ATOM     26  C   UNL     1      18.314  31.013  23.781  1.00  0.00     0.169 C 
BRANCH  26  27
ATOM     27  C   UNL     1      18.382  30.562  22.315  1.00  0.00     0.119 C 
BRANCH  27  28
ATOM     28  N   UNL     1      17.817  31.542  21.418  1.00  0.00    -0.092 NA
ATOM     29  N   UNL     1      18.131  31.489  20.219  1.00  0.00     0.001 N 
ATOM     30  N   UNL     1      18.637  31.569  19.107  1.00  0.00    -0.003 NA
ENDBRANCH  27  28
ENDBRANCH  26  27
ENDBRANCH  25  26
ENDBRANCH  19  25
BRANCH  20  31
ATOM     31  O   UNL     1      20.445  28.016  25.599  1.00  0.00    -0.387 OA
ATOM     32  H   UNL     1      19.637  27.702  26.075  1.00  0.00     0.211 HD
ENDBRANCH  20  31
BRANCH  21  33
ATOM     33  O   UNL     1      21.352  31.093  27.115  1.00  0.00    -0.385 OA
ATOM     34  H   UNL     1      21.096  31.191  28.063  1.00  0.00     0.211 HD
ENDBRANCH  21  33
ENDBRANCH  15  16
ENDBRANCH  10  15
BRANCH  12  35
ATOM     35  O   UNL     1      24.810  27.372  29.229  1.00  0.00    -0.385 OA
ATOM     36  H   UNL     1      24.524  27.301  30.152  1.00  0.00     0.211 HD
ENDBRANCH  12  35
BRANCH  13  37
ATOM     37  O   UNL     1      22.219  25.795  27.397  1.00  0.00    -0.387 OA
ATOM     38  H   UNL     1      21.532  26.357  27.839  1.00  0.00     0.211 HD
ENDBRANCH  13  37
BRANCH  14  39
ATOM     39  O   UNL     1      24.080  24.022  26.843  1.00  0.00    -0.387 OA
ATOM     40  H   UNL     1      24.581  23.319  27.347  1.00  0.00     0.211 HD
ENDBRANCH  14  39
ENDBRANCH   8   9
ENDBRANCH   7   8
ENDBRANCH   1   7
BRANCH   1  41
ATOM     41  C   UNL     1      22.011  25.353  23.893  1.00  0.00     0.364 C 
ATOM     42  O   UNL     1      21.033  26.118  23.749  1.00  0.00    -0.246 OA
BRANCH  41  43
ATOM     43  O   UNL     1      21.924  24.335  24.822  1.00  0.00    -0.477 OA
ATOM     44  H   UNL     1      22.721  23.870  25.225  1.00  0.00     0.296 HD
ENDBRANCH  41  43
ENDBRANCH   1  41
BRANCH   3  45
ATOM     45  O   UNL     1      25.822  24.127  21.690  1.00  0.00    -0.391 OA
ATOM     46  H   UNL     1      26.189  24.964  22.077  1.00  0.00     0.211 HD
ENDBRANCH   3  45
BRANCH   5  47
ATOM     47  C   UNL     1      22.455  27.051  19.842  1.00  0.00     0.176 C 
BRANCH  47  48
ATOM     48  O   UNL     1      21.885  26.426  18.736  1.00  0.00    -0.388 OA
ATOM     49  H   UNL     1      20.897  26.595  18.704  1.00  0.00     0.211 HD
ENDBRANCH  47  48
BRANCH  47  50
ATOM     50  C   UNL     1      21.406  27.939  20.470  1.00  0.00     0.165 C 
BRANCH  50  51
ATOM     51  O   UNL     1      20.456  27.178  21.164  1.00  0.00    -0.388 OA
ATOM     52  H   UNL     1      20.857  26.891  22.015  1.00  0.00     0.211 HD
ENDBRANCH  50  51
BRANCH  50  53
ATOM     53  C   UNL     1      20.684  28.795  19.464  1.00  0.00     0.154 C 
BRANCH  53  54
ATOM     54  N   UNL     1      19.323  28.357  19.275  1.00  0.00    -0.319 N 
ATOM     55  C   UNL     1      18.800  28.094  17.986  1.00  0.00     0.407 C 
ATOM     56  H   UNL     1      18.699  28.226  20.095  1.00  0.00     0.167 HD
ATOM     57  O   UNL     1      19.491  28.226  16.944  1.00  0.00    -0.225 OA
BRANCH  55  58
ATOM     58  O   UNL     1      17.473  27.672  17.814  1.00  0.00    -0.443 OA
BRANCH  58  59
ATOM     59  C   UNL     1      16.422  28.631  17.964  1.00  0.00     0.294 C 
BRANCH  59  60
ATOM     60  C   UNL     1      15.981  28.723  19.355  1.00  0.00     0.120 A 
ATOM     61  C   UNL     1      15.110  29.644  19.876  1.00  0.00     0.139 A 
ATOM     62  N   UNL     1      16.354  27.925  20.359  1.00  0.00    -0.132 NA
ATOM     63  N   UNL     1      14.967  29.391  21.192  1.00  0.00    -0.235 N 
ATOM     64  N   UNL     1      15.745  28.332  21.441  1.00  0.00    -0.066 NA
BRANCH  63  65
ATOM     65  C   UNL     1      14.161  30.077  22.180  1.00  0.00     0.155 C 
ATOM     66  C   UNL     1      14.714  29.849  23.555  1.00  0.00     0.049 C 
ATOM     67  C   UNL     1      12.726  29.561  22.159  1.00  0.00     0.049 C 
BRANCH  65  68
ATOM     68  C   UNL     1      14.128  31.513  21.822  1.00  0.00     0.331 C 
ATOM     69  O   UNL     1      13.130  31.973  21.247  1.00  0.00    -0.250 OA
BRANCH  68  70
ATOM     70  O   UNL     1      15.215  32.309  22.139  1.00  0.00    -0.479 OA
ATOM     71  H   UNL     1      15.923  32.566  21.460  1.00  0.00     0.296 HD
ENDBRANCH  68  70
ENDBRANCH  65  68
ENDBRANCH  63  65
ENDBRANCH  59  60
ENDBRANCH  58  59
ENDBRANCH  55  58
ENDBRANCH  53  54
ENDBRANCH  50  53
ENDBRANCH  47  50
ENDBRANCH   5  47
BRANCH   4  72
ATOM     72  N   UNL     1      24.463  25.424  19.130  1.00  0.00    -0.348 N 
ATOM     73  C   UNL     1      25.699  25.394  18.425  1.00  0.00     0.217 C 
ATOM     74  H   UNL     1      23.588  25.335  18.576  1.00  0.00     0.163 HD
ATOM     75  C   UNL     1      25.725  25.246  16.937  1.00  0.00     0.114 C 
ATOM     76  O   UNL     1      26.777  25.495  19.068  1.00  0.00    -0.275 OA
ENDBRANCH   4  72
TORSDOF 32
