REMARK VINA RESULT:    -5.707      1.753      2.793
REMARK INTER + INTRA:         -21.810
REMARK INTER:                 -14.150
REMARK INTRA:                  -7.660
REMARK UNBOUND:                -6.761
REMARK SMILES CC(=O)N[C@@H]1[C@@H](O)C[C@](OC[C@H]2O[C@@H](O[C@H]3[C@H](O)[C@@H](O)[C@H](OCCN=[N+]=[N-])O[C@@H]3CO)[C@H](O)[C@@H](O)[C@H]2O)(C(=O)O)O[C@H]1C(O)[C@H](O)CNC(=O)OCc1cn(CCNS(C)(=O)=O)nn1
REMARK SMILES IDX 43 1 42 2 9 3 8 4 41 5 6 6 5 7 10 8 11 9 12 10 14 11 13 12
REMARK SMILES IDX 32 13 34 14 36 15 15 16 16 17 29 18 28 19 21 20 17 21 19 22
REMARK SMILES IDX 30 23 31 24 22 26 23 27 24 28 25 29 26 30 27 31 18 32 20 34
REMARK SMILES IDX 33 36 35 38 37 40 38 42 39 43 40 44 7 46 4 48 2 49 1 51 3 52
REMARK SMILES IDX 44 53 45 55 46 56 47 58 48 59 49 60 50 62 51 63 52 64 53 65
REMARK SMILES IDX 54 66 64 67 55 68 63 69 56 70 57 71 58 72 59 74 61 75 62 76
REMARK SMILES IDX 60 77
REMARK H PARENT 31 25 18 33 20 35 33 37 35 39 37 41 40 45 7 47 4 50 44 54
REMARK H PARENT 46 57 48 61 58 73
REMARK Flexibility Score: inf
ROOT
ATOM      1  C   UNL     1      13.409  29.369  20.973  1.00  0.00     0.176 C 
ENDROOT
BRANCH   1   2
ATOM      2  C   UNL     1      14.350  29.439  19.756  1.00  0.00     0.178 C 
ATOM      3  C   UNL     1      16.660  29.465  19.375  1.00  0.00     0.272 C 
ATOM      4  C   UNL     1      16.676  30.810  18.768  1.00  0.00     0.113 C 
ATOM      5  O   UNL     1      15.600  29.299  20.257  1.00  0.00    -0.332 OA
ATOM      6  C   UNL     1      15.353  31.524  18.738  1.00  0.00     0.145 C 
ATOM      7  C   UNL     1      14.142  30.705  19.023  1.00  0.00     0.142 C 
BRANCH   3   8
ATOM      8  O   UNL     1      17.785  29.117  20.130  1.00  0.00    -0.338 OA
BRANCH   8   9
ATOM      9  C   UNL     1      18.903  29.863  19.796  1.00  0.00     0.199 C 
BRANCH   9  10
ATOM     10  C   UNL     1      20.140  29.060  20.003  1.00  0.00     0.179 C 
ATOM     11  C   UNL     1      21.195  27.476  21.306  1.00  0.00     0.282 C 
ATOM     12  O   UNL     1      19.971  28.072  20.958  1.00  0.00    -0.341 OA
ATOM     13  C   UNL     1      21.815  26.776  20.147  1.00  0.00     0.202 C 
ATOM     14  C   UNL     1      22.102  27.822  19.092  1.00  0.00     0.179 C 
ATOM     15  C   UNL     1      20.863  28.594  18.784  1.00  0.00     0.177 C 
BRANCH  11  16
ATOM     16  O   UNL     1      20.941  26.631  22.344  1.00  0.00    -0.341 OA
BRANCH  16  17
ATOM     17  C   UNL     1      21.806  26.672  23.384  1.00  0.00     0.184 C 
ATOM     18  C   UNL     1      21.510  25.950  24.638  1.00  0.00     0.178 C 
ATOM     19  O   UNL     1      22.189  26.583  25.680  1.00  0.00    -0.341 OA
ATOM     20  C   UNL     1      21.598  27.755  26.051  1.00  0.00     0.281 C 
ATOM     21  C   UNL     1      22.181  28.136  23.744  1.00  0.00     0.180 C 
ATOM     22  C   UNL     1      21.174  28.513  24.810  1.00  0.00     0.202 C 
BRANCH  18  23
ATOM     23  C   UNL     1      22.101  24.545  24.599  1.00  0.00     0.191 C 
BRANCH  23  24
ATOM     24  O   UNL     1      23.186  24.462  25.503  1.00  0.00    -0.394 OA
ATOM     25  H   UNL     1      23.985  24.912  25.154  1.00  0.00     0.210 HD
ENDBRANCH  23  24
ENDBRANCH  18  23
BRANCH  20  26
ATOM     26  O   UNL     1      22.448  28.532  26.852  1.00  0.00    -0.350 OA
BRANCH  26  27
ATOM     27  C   UNL     1      23.161  27.819  27.782  1.00  0.00     0.169 C 
BRANCH  27  28
ATOM     28  C   UNL     1      22.389  27.804  29.063  1.00  0.00     0.119 C 
BRANCH  28  29
ATOM     29  N   UNL     1      21.796  26.500  29.332  1.00  0.00    -0.092 NA
ATOM     30  N   UNL     1      22.364  25.543  28.777  1.00  0.00     0.001 N 
ATOM     31  N   UNL     1      22.658  24.441  28.328  1.00  0.00    -0.003 NA
ENDBRANCH  28  29
ENDBRANCH  27  28
ENDBRANCH  26  27
ENDBRANCH  20  26
BRANCH  21  32
ATOM     32  O   UNL     1      23.450  28.166  24.329  1.00  0.00    -0.387 OA
ATOM     33  H   UNL     1      23.348  28.138  25.317  1.00  0.00     0.211 HD
ENDBRANCH  21  32
BRANCH  22  34
ATOM     34  O   UNL     1      19.866  28.271  24.458  1.00  0.00    -0.385 OA
ATOM     35  H   UNL     1      19.221  28.936  24.809  1.00  0.00     0.211 HD
ENDBRANCH  22  34
ENDBRANCH  16  17
ENDBRANCH  11  16
BRANCH  13  36
ATOM     36  O   UNL     1      23.069  26.248  20.490  1.00  0.00    -0.385 OA
ATOM     37  H   UNL     1      23.798  26.640  19.944  1.00  0.00     0.211 HD
ENDBRANCH  13  36
BRANCH  14  38
ATOM     38  O   UNL     1      22.744  27.299  17.997  1.00  0.00    -0.387 OA
ATOM     39  H   UNL     1      23.295  26.487  18.230  1.00  0.00     0.211 HD
ENDBRANCH  14  38
BRANCH  15  40
ATOM     40  O   UNL     1      20.006  27.784  18.046  1.00  0.00    -0.387 OA
ATOM     41  H   UNL     1      19.250  28.283  17.644  1.00  0.00     0.211 HD
ENDBRANCH  15  40
ENDBRANCH   9  10
ENDBRANCH   8   9
ENDBRANCH   3   8
BRANCH   3  42
ATOM     42  C   UNL     1      16.580  28.410  18.336  1.00  0.00     0.364 C 
ATOM     43  O   UNL     1      16.999  27.224  18.547  1.00  0.00    -0.246 OA
BRANCH  42  44
ATOM     44  O   UNL     1      16.059  28.602  17.072  1.00  0.00    -0.477 OA
ATOM     45  H   UNL     1      16.057  27.885  16.352  1.00  0.00     0.296 HD
ENDBRANCH  42  44
ENDBRANCH   3  42
BRANCH   6  46
ATOM     46  O   UNL     1      15.367  32.640  19.563  1.00  0.00    -0.391 OA
ATOM     47  H   UNL     1      14.536  32.822  20.044  1.00  0.00     0.211 HD
ENDBRANCH   6  46
BRANCH   7  48
ATOM     48  N   UNL     1      13.475  30.430  17.740  1.00  0.00    -0.348 N 
ATOM     49  C   UNL     1      12.411  31.151  17.191  1.00  0.00     0.217 C 
ATOM     50  H   UNL     1      13.850  29.618  17.134  1.00  0.00     0.163 HD
ATOM     51  C   UNL     1      11.801  30.762  15.870  1.00  0.00     0.114 C 
ATOM     52  O   UNL     1      11.913  32.152  17.773  1.00  0.00    -0.275 OA
ENDBRANCH   7  48
ENDBRANCH   1   2
BRANCH   1  53
ATOM     53  O   UNL     1      13.994  28.533  21.940  1.00  0.00    -0.388 OA
ATOM     54  H   UNL     1      14.937  28.774  21.994  1.00  0.00     0.211 HD
ENDBRANCH   1  53
BRANCH   1  55
ATOM     55  C   UNL     1      13.236  30.719  21.565  1.00  0.00     0.165 C 
BRANCH  55  56
ATOM     56  O   UNL     1      14.370  31.311  22.064  1.00  0.00    -0.388 OA
ATOM     57  H   UNL     1      14.374  32.300  21.975  1.00  0.00     0.211 HD
ENDBRANCH  55  56
BRANCH  55  58
ATOM     58  C   UNL     1      12.080  30.871  22.506  1.00  0.00     0.154 C 
BRANCH  58  59
ATOM     59  N   UNL     1      12.385  30.385  23.825  1.00  0.00    -0.319 N 
ATOM     60  C   UNL     1      12.783  31.357  24.821  1.00  0.00     0.407 C 
ATOM     61  H   UNL     1      12.339  29.394  24.107  1.00  0.00     0.167 HD
ATOM     62  O   UNL     1      12.809  32.560  24.456  1.00  0.00    -0.225 OA
BRANCH  60  63
ATOM     63  O   UNL     1      13.114  30.966  26.092  1.00  0.00    -0.443 OA
BRANCH  63  64
ATOM     64  C   UNL     1      14.449  31.041  26.534  1.00  0.00     0.294 C 
BRANCH  64  65
ATOM     65  C   UNL     1      15.387  30.720  25.443  1.00  0.00     0.120 A 
ATOM     66  C   UNL     1      16.549  31.395  25.106  1.00  0.00     0.138 A 
ATOM     67  N   UNL     1      15.315  29.702  24.597  1.00  0.00    -0.132 NA
ATOM     68  N   UNL     1      17.143  30.778  24.083  1.00  0.00    -0.251 N 
ATOM     69  N   UNL     1      16.372  29.734  23.775  1.00  0.00    -0.067 NA
BRANCH  68  70
ATOM     70  C   UNL     1      18.379  31.176  23.430  1.00  0.00     0.162 C 
BRANCH  70  71
ATOM     71  C   UNL     1      18.060  31.997  22.182  1.00  0.00     0.122 C 
BRANCH  71  72
ATOM     72  N   UNL     1      16.843  32.737  22.356  1.00  0.00    -0.214 NA
ATOM     73  H   UNL     1      16.613  32.780  23.385  1.00  0.00     0.141 HD
BRANCH  72  74
ATOM     74  S   UNL     1      16.961  34.362  21.804  1.00  0.00     0.208 S 
ATOM     75  O   UNL     1      17.694  34.406  20.474  1.00  0.00    -0.213 OA
ATOM     76  O   UNL     1      15.538  34.838  21.581  1.00  0.00    -0.213 OA
ATOM     77  C   UNL     1      17.764  35.384  22.999  1.00  0.00     0.176 C 
ENDBRANCH  72  74
ENDBRANCH  71  72
ENDBRANCH  70  71
ENDBRANCH  68  70
ENDBRANCH  64  65
ENDBRANCH  63  64
ENDBRANCH  60  63
ENDBRANCH  58  59
ENDBRANCH  55  58
ENDBRANCH   1  55
TORSDOF 33
