REMARK VINA RESULT:    -5.897     13.564     21.013
REMARK INTER + INTRA:         -22.695
REMARK INTER:                 -16.477
REMARK INTRA:                  -6.218
REMARK UNBOUND:                -6.283
REMARK SMILES CC(=O)N[C@@H]1[C@@H](O)C[C@](OC[C@H]2O[C@@H](O[C@H]3[C@H](O)[C@@H](O)[C@H](OCCN=[N+]=[N-])O[C@@H]3CO)[C@H](O)[C@@H](O)[C@H]2O)(C(=O)O)O[C@H]1C(O)[C@H](O)CNC(=O)OCc1cn(C[C@H](CC(=O)O)CC(C)C)nn1
REMARK SMILES IDX 43 1 42 2 9 3 8 4 41 5 6 6 5 7 10 8 11 9 12 10 14 11 13 12
REMARK SMILES IDX 32 13 34 14 36 15 15 16 16 17 29 18 28 19 21 20 17 21 19 22
REMARK SMILES IDX 30 23 31 24 22 26 23 27 24 28 25 29 26 30 27 31 18 32 20 34
REMARK SMILES IDX 33 36 35 38 37 40 38 42 39 43 40 44 7 46 4 48 2 49 1 51 3 52
REMARK SMILES IDX 44 53 45 55 46 56 47 58 48 59 49 60 50 62 51 63 52 64 53 65
REMARK SMILES IDX 54 66 67 67 55 68 66 69 56 70 57 71 58 72 59 73 60 74 61 75
REMARK SMILES IDX 62 77 63 78 64 79 65 80
REMARK H PARENT 31 25 18 33 20 35 33 37 35 39 37 41 40 45 7 47 4 50 44 54
REMARK H PARENT 46 57 48 61 61 76
REMARK Flexibility Score: inf
ROOT
ATOM      1  C   UNL     1      21.850  27.834  23.386  1.00  0.00     0.176 C 
ENDROOT
BRANCH   1   2
ATOM      2  C   UNL     1      22.750  26.696  23.778  1.00  0.00     0.178 C 
ATOM      3  C   UNL     1      23.783  25.359  22.059  1.00  0.00     0.272 C 
ATOM      4  C   UNL     1      22.742  24.310  22.219  1.00  0.00     0.113 C 
ATOM      5  O   UNL     1      23.562  26.482  22.711  1.00  0.00    -0.332 OA
ATOM      6  C   UNL     1      21.557  24.638  23.033  1.00  0.00     0.145 C 
ATOM      7  C   UNL     1      21.888  25.560  24.208  1.00  0.00     0.142 C 
BRANCH   3   8
ATOM      8  O   UNL     1      23.938  25.658  20.678  1.00  0.00    -0.338 OA
BRANCH   8   9
ATOM      9  C   UNL     1      23.720  24.610  19.840  1.00  0.00     0.199 C 
BRANCH   9  10
ATOM     10  C   UNL     1      23.228  25.121  18.467  1.00  0.00     0.179 C 
ATOM     11  C   UNL     1      21.943  26.794  17.500  1.00  0.00     0.282 C 
ATOM     12  O   UNL     1      22.734  26.406  18.570  1.00  0.00    -0.341 OA
ATOM     13  C   UNL     1      22.540  26.127  16.250  1.00  0.00     0.202 C 
ATOM     14  C   UNL     1      24.048  26.055  16.368  1.00  0.00     0.179 C 
ATOM     15  C   UNL     1      24.429  25.179  17.513  1.00  0.00     0.177 C 
BRANCH  11  16
ATOM     16  O   UNL     1      22.107  28.142  17.296  1.00  0.00    -0.341 OA
BRANCH  16  17
ATOM     17  C   UNL     1      20.973  28.863  17.032  1.00  0.00     0.184 C 
ATOM     18  C   UNL     1      19.782  28.486  17.863  1.00  0.00     0.178 C 
ATOM     19  O   UNL     1      18.731  27.956  17.175  1.00  0.00    -0.341 OA
ATOM     20  C   UNL     1      18.243  28.734  16.142  1.00  0.00     0.281 C 
ATOM     21  C   UNL     1      20.612  28.620  15.581  1.00  0.00     0.180 C 
ATOM     22  C   UNL     1      19.297  29.360  15.298  1.00  0.00     0.202 C 
BRANCH  18  23
ATOM     23  C   UNL     1      19.401  29.695  18.700  1.00  0.00     0.191 C 
BRANCH  23  24
ATOM     24  O   UNL     1      20.423  30.639  18.721  1.00  0.00    -0.394 OA
ATOM     25  H   UNL     1      21.220  30.322  19.228  1.00  0.00     0.210 HD
ENDBRANCH  23  24
ENDBRANCH  18  23
BRANCH  20  26
ATOM     26  O   UNL     1      17.331  29.628  16.682  1.00  0.00    -0.350 OA
BRANCH  26  27
ATOM     27  C   UNL     1      16.014  29.233  16.516  1.00  0.00     0.169 C 
BRANCH  27  28
ATOM     28  C   UNL     1      15.601  29.654  15.112  1.00  0.00     0.119 C 
BRANCH  28  29
ATOM     29  N   UNL     1      15.138  28.440  14.454  1.00  0.00    -0.092 NA
ATOM     30  N   UNL     1      13.982  28.373  14.108  1.00  0.00     0.001 N 
ATOM     31  N   UNL     1      12.850  27.979  13.797  1.00  0.00    -0.003 NA
ENDBRANCH  28  29
ENDBRANCH  27  28
ENDBRANCH  26  27
ENDBRANCH  20  26
BRANCH  21  32
ATOM     32  O   UNL     1      21.632  29.056  14.755  1.00  0.00    -0.387 OA
ATOM     33  H   UNL     1      21.534  30.056  14.674  1.00  0.00     0.211 HD
ENDBRANCH  21  32
BRANCH  22  34
ATOM     34  O   UNL     1      19.073  29.175  13.918  1.00  0.00    -0.385 OA
ATOM     35  H   UNL     1      19.519  28.340  13.662  1.00  0.00     0.211 HD
ENDBRANCH  22  34
ENDBRANCH  16  17
ENDBRANCH  11  16
BRANCH  13  36
ATOM     36  O   UNL     1      21.944  24.929  15.948  1.00  0.00    -0.385 OA
ATOM     37  H   UNL     1      22.519  24.150  16.041  1.00  0.00     0.211 HD
ENDBRANCH  13  36
BRANCH  14  38
ATOM     38  O   UNL     1      24.467  27.373  16.643  1.00  0.00    -0.387 OA
ATOM     39  H   UNL     1      25.410  27.422  16.862  1.00  0.00     0.211 HD
ENDBRANCH  14  38
BRANCH  15  40
ATOM     40  O   UNL     1      25.520  25.789  18.166  1.00  0.00    -0.387 OA
ATOM     41  H   UNL     1      25.620  26.713  17.888  1.00  0.00     0.211 HD
ENDBRANCH  15  40
ENDBRANCH   9  10
ENDBRANCH   8   9
ENDBRANCH   3   8
BRANCH   3  42
ATOM     42  C   UNL     1      25.140  24.781  22.417  1.00  0.00     0.364 C 
ATOM     43  O   UNL     1      26.172  25.429  22.203  1.00  0.00    -0.246 OA
BRANCH  42  44
ATOM     44  O   UNL     1      25.238  23.541  22.977  1.00  0.00    -0.477 OA
ATOM     45  H   UNL     1      24.696  22.739  22.657  1.00  0.00     0.296 HD
ENDBRANCH  42  44
ENDBRANCH   3  42
BRANCH   6  46
ATOM     46  O   UNL     1      20.456  25.127  22.364  1.00  0.00    -0.391 OA
ATOM     47  H   UNL     1      20.029  24.356  21.914  1.00  0.00     0.211 HD
ENDBRANCH   6  46
BRANCH   7  48
ATOM     48  N   UNL     1      22.431  24.702  25.227  1.00  0.00    -0.348 N 
ATOM     49  C   UNL     1      22.391  25.162  26.597  1.00  0.00     0.217 C 
ATOM     50  H   UNL     1      22.864  23.765  25.074  1.00  0.00     0.163 HD
ATOM     51  C   UNL     1      22.954  24.259  27.660  1.00  0.00     0.114 C 
ATOM     52  O   UNL     1      21.908  26.275  26.917  1.00  0.00    -0.275 OA
ENDBRANCH   7  48
ENDBRANCH   1   2
BRANCH   1  53
ATOM     53  O   UNL     1      22.531  28.628  22.416  1.00  0.00    -0.388 OA
ATOM     54  H   UNL     1      23.147  28.048  21.898  1.00  0.00     0.211 HD
ENDBRANCH   1  53
BRANCH   1  55
ATOM     55  C   UNL     1      21.489  28.830  24.465  1.00  0.00     0.165 C 
BRANCH  55  56
ATOM     56  O   UNL     1      20.037  28.664  24.512  1.00  0.00    -0.388 OA
ATOM     57  H   UNL     1      19.795  28.777  23.537  1.00  0.00     0.211 HD
ENDBRANCH  55  56
BRANCH  55  58
ATOM     58  C   UNL     1      21.635  30.245  24.023  1.00  0.00     0.154 C 
BRANCH  58  59
ATOM     59  N   UNL     1      20.397  30.833  23.653  1.00  0.00    -0.319 N 
ATOM     60  C   UNL     1      20.255  31.202  22.263  1.00  0.00     0.407 C 
ATOM     61  H   UNL     1      19.577  31.039  24.251  1.00  0.00     0.167 HD
ATOM     62  O   UNL     1      21.206  30.988  21.460  1.00  0.00    -0.225 OA
BRANCH  60  63
ATOM     63  O   UNL     1      19.123  31.792  21.747  1.00  0.00    -0.443 OA
BRANCH  63  64
ATOM     64  C   UNL     1      18.050  32.317  22.501  1.00  0.00     0.294 C 
BRANCH  64  65
ATOM     65  C   UNL     1      17.130  31.264  23.018  1.00  0.00     0.120 A 
ATOM     66  C   UNL     1      15.789  31.362  23.308  1.00  0.00     0.138 A 
ATOM     67  N   UNL     1      17.492  30.006  23.285  1.00  0.00    -0.132 NA
ATOM     68  N   UNL     1      15.359  30.141  23.754  1.00  0.00    -0.252 N 
ATOM     69  N   UNL     1      16.419  29.369  23.719  1.00  0.00    -0.067 NA
BRANCH  68  70
ATOM     70  C   UNL     1      14.055  29.796  24.186  1.00  0.00     0.150 C 
BRANCH  70  71
ATOM     71  C   UNL     1      13.009  29.819  23.154  1.00  0.00     0.022 C 
BRANCH  71  72
ATOM     72  C   UNL     1      11.599  29.833  23.615  1.00  0.00     0.128 C 
BRANCH  72  73
ATOM     73  C   UNL     1      10.932  31.139  23.685  1.00  0.00     0.303 C 
ATOM     74  O   UNL     1      11.542  32.164  23.282  1.00  0.00    -0.252 OA
BRANCH  73  75
ATOM     75  O   UNL     1       9.645  31.320  24.175  1.00  0.00    -0.481 OA
ATOM     76  H   UNL     1       9.023  30.532  24.274  1.00  0.00     0.296 HD
ENDBRANCH  73  75
ENDBRANCH  72  73
ENDBRANCH  71  72
BRANCH  71  77
ATOM     77  C   UNL     1      13.241  28.883  22.001  1.00  0.00     0.009 C 
BRANCH  77  78
ATOM     78  C   UNL     1      13.596  29.425  20.691  1.00  0.00    -0.017 C 
ATOM     79  C   UNL     1      13.425  30.880  20.441  1.00  0.00     0.007 C 
ATOM     80  C   UNL     1      14.973  29.023  20.197  1.00  0.00     0.007 C 
ENDBRANCH  77  78
ENDBRANCH  71  77
ENDBRANCH  70  71
ENDBRANCH  68  70
ENDBRANCH  64  65
ENDBRANCH  63  64
ENDBRANCH  60  63
ENDBRANCH  58  59
ENDBRANCH  55  58
ENDBRANCH   1  55
TORSDOF 36
