REMARK VINA RESULT:    -6.211      2.908      9.092
REMARK INTER + INTRA:         -23.567
REMARK INTER:                 -16.101
REMARK INTRA:                  -7.466
REMARK UNBOUND:                -6.283
REMARK SMILES CC(=O)N[C@@H]1[C@@H](O)C[C@](OC[C@H]2O[C@@H](O[C@H]3[C@H](O)[C@@H](O)[C@H](OCCN=[N+]=[N-])O[C@@H]3CO)[C@H](O)[C@@H](O)[C@H]2O)(C(=O)O)O[C@H]1C(O)[C@H](O)CNC(=O)OCc1cn(C[C@H](CC(=O)O)CC(C)C)nn1
REMARK SMILES IDX 43 1 42 2 9 3 8 4 41 5 6 6 5 7 10 8 11 9 12 10 14 11 13 12
REMARK SMILES IDX 32 13 34 14 36 15 15 16 16 17 29 18 28 19 21 20 17 21 19 22
REMARK SMILES IDX 30 23 31 24 22 26 23 27 24 28 25 29 26 30 27 31 18 32 20 34
REMARK SMILES IDX 33 36 35 38 37 40 38 42 39 43 40 44 7 46 4 48 2 49 1 51 3 52
REMARK SMILES IDX 44 53 45 55 46 56 47 58 48 59 49 60 50 62 51 63 52 64 53 65
REMARK SMILES IDX 54 66 67 67 55 68 66 69 56 70 57 71 58 72 59 73 60 74 61 75
REMARK SMILES IDX 62 77 63 78 64 79 65 80
REMARK H PARENT 31 25 18 33 20 35 33 37 35 39 37 41 40 45 7 47 4 50 44 54
REMARK H PARENT 46 57 48 61 61 76
REMARK Flexibility Score: inf
ROOT
ATOM      1  C   UNL     1       4.746  26.104  33.176  1.00  0.00     0.176 C 
ENDROOT
BRANCH   1   2
ATOM      2  C   UNL     1       5.540  24.883  33.545  1.00  0.00     0.178 C 
ATOM      3  C   UNL     1       4.890  22.737  32.661  1.00  0.00     0.272 C 
ATOM      4  C   UNL     1       4.188  22.402  33.927  1.00  0.00     0.113 C 
ATOM      5  O   UNL     1       5.312  23.980  32.556  1.00  0.00    -0.332 OA
ATOM      6  C   UNL     1       3.987  23.487  34.907  1.00  0.00     0.145 C 
ATOM      7  C   UNL     1       5.147  24.484  34.926  1.00  0.00     0.142 C 
BRANCH   3   8
ATOM      8  O   UNL     1       4.033  22.455  31.561  1.00  0.00    -0.338 OA
BRANCH   8   9
ATOM      9  C   UNL     1       2.765  22.101  31.903  1.00  0.00     0.199 C 
BRANCH   9  10
ATOM     10  C   UNL     1       1.844  22.160  30.664  1.00  0.00     0.179 C 
ATOM     11  C   UNL     1       1.307  23.512  28.856  1.00  0.00     0.282 C 
ATOM     12  O   UNL     1       2.265  23.138  29.786  1.00  0.00    -0.341 OA
ATOM     13  C   UNL     1       0.509  22.243  28.516  1.00  0.00     0.202 C 
ATOM     14  C   UNL     1       1.418  21.032  28.542  1.00  0.00     0.179 C 
ATOM     15  C   UNL     1       1.946  20.820  29.921  1.00  0.00     0.177 C 
BRANCH  11  16
ATOM     16  O   UNL     1       1.939  23.858  27.687  1.00  0.00    -0.341 OA
BRANCH  16  17
ATOM     17  C   UNL     1       2.926  24.803  27.781  1.00  0.00     0.184 C 
ATOM     18  C   UNL     1       2.432  26.218  27.863  1.00  0.00     0.178 C 
ATOM     19  O   UNL     1       2.771  27.018  26.812  1.00  0.00    -0.341 OA
ATOM     20  C   UNL     1       4.122  27.102  26.539  1.00  0.00     0.281 C 
ATOM     21  C   UNL     1       3.779  24.689  26.535  1.00  0.00     0.180 C 
ATOM     22  C   UNL     1       4.839  25.798  26.593  1.00  0.00     0.202 C 
BRANCH  18  23
ATOM     23  C   UNL     1       2.863  26.780  29.206  1.00  0.00     0.191 C 
BRANCH  23  24
ATOM     24  O   UNL     1       3.677  25.884  29.893  1.00  0.00    -0.394 OA
ATOM     25  H   UNL     1       4.588  26.253  30.060  1.00  0.00     0.210 HD
ENDBRANCH  23  24
ENDBRANCH  18  23
BRANCH  20  26
ATOM     26  O   UNL     1       4.658  28.087  27.354  1.00  0.00    -0.350 OA
BRANCH  26  27
ATOM     27  C   UNL     1       5.829  28.633  26.855  1.00  0.00     0.169 C 
BRANCH  27  28
ATOM     28  C   UNL     1       5.483  29.272  25.517  1.00  0.00     0.119 C 
BRANCH  28  29
ATOM     29  N   UNL     1       6.708  29.234  24.731  1.00  0.00    -0.092 NA
ATOM     30  N   UNL     1       7.204  28.161  24.482  1.00  0.00     0.001 N 
ATOM     31  N   UNL     1       7.990  27.242  24.217  1.00  0.00    -0.003 NA
ENDBRANCH  28  29
ENDBRANCH  27  28
ENDBRANCH  26  27
ENDBRANCH  20  26
BRANCH  21  32
ATOM     32  O   UNL     1       4.356  23.434  26.463  1.00  0.00    -0.387 OA
ATOM     33  H   UNL     1       4.602  23.283  25.497  1.00  0.00     0.211 HD
ENDBRANCH  21  32
BRANCH  22  34
ATOM     34  O   UNL     1       5.653  25.575  25.463  1.00  0.00    -0.385 OA
ATOM     35  H   UNL     1       5.360  24.730  25.058  1.00  0.00     0.211 HD
ENDBRANCH  22  34
ENDBRANCH  16  17
ENDBRANCH  11  16
BRANCH  13  36
ATOM     36  O   UNL     1      -0.626  22.107  29.276  1.00  0.00    -0.385 OA
ATOM     37  H   UNL     1      -0.557  21.466  30.004  1.00  0.00     0.211 HD
ENDBRANCH  13  36
BRANCH  14  38
ATOM     38  O   UNL     1       2.493  21.351  27.687  1.00  0.00    -0.387 OA
ATOM     39  H   UNL     1       2.642  22.307  27.622  1.00  0.00     0.211 HD
ENDBRANCH  14  38
BRANCH  15  40
ATOM     40  O   UNL     1       3.302  20.450  29.802  1.00  0.00    -0.387 OA
ATOM     41  H   UNL     1       3.530  20.255  28.879  1.00  0.00     0.211 HD
ENDBRANCH  15  40
ENDBRANCH   9  10
ENDBRANCH   8   9
ENDBRANCH   3   8
BRANCH   3  42
ATOM     42  C   UNL     1       6.027  21.757  32.440  1.00  0.00     0.364 C 
ATOM     43  O   UNL     1       6.978  21.712  33.230  1.00  0.00    -0.246 OA
BRANCH  42  44
ATOM     44  O   UNL     1       6.014  20.913  31.367  1.00  0.00    -0.477 OA
ATOM     45  H   UNL     1       6.238  21.211  30.419  1.00  0.00     0.296 HD
ENDBRANCH  42  44
ENDBRANCH   3  42
BRANCH   6  46
ATOM     46  O   UNL     1       2.794  24.174  34.842  1.00  0.00    -0.391 OA
ATOM     47  H   UNL     1       2.085  23.502  34.685  1.00  0.00     0.211 HD
ENDBRANCH   6  46
BRANCH   7  48
ATOM     48  N   UNL     1       6.172  23.865  35.723  1.00  0.00    -0.348 N 
ATOM     49  C   UNL     1       6.638  24.567  36.897  1.00  0.00     0.217 C 
ATOM     50  H   UNL     1       6.624  22.944  35.533  1.00  0.00     0.163 HD
ATOM     51  C   UNL     1       7.705  23.913  37.732  1.00  0.00     0.114 C 
ATOM     52  O   UNL     1       6.185  25.688  37.233  1.00  0.00    -0.275 OA
ENDBRANCH   7  48
ENDBRANCH   1   2
BRANCH   1  53
ATOM     53  O   UNL     1       5.519  26.879  32.260  1.00  0.00    -0.388 OA
ATOM     54  H   UNL     1       4.909  27.455  31.729  1.00  0.00     0.211 HD
ENDBRANCH   1  53
BRANCH   1  55
ATOM     55  C   UNL     1       4.431  27.082  34.286  1.00  0.00     0.165 C 
BRANCH  55  56
ATOM     56  O   UNL     1       2.969  27.070  34.250  1.00  0.00    -0.388 OA
ATOM     57  H   UNL     1       2.770  26.187  34.700  1.00  0.00     0.211 HD
ENDBRANCH  55  56
BRANCH  55  58
ATOM     58  C   UNL     1       4.748  28.492  33.925  1.00  0.00     0.154 C 
BRANCH  58  59
ATOM     59  N   UNL     1       5.831  29.019  34.677  1.00  0.00    -0.319 N 
ATOM     60  C   UNL     1       6.907  29.612  33.918  1.00  0.00     0.407 C 
ATOM     61  H   UNL     1       5.956  29.030  35.705  1.00  0.00     0.167 HD
ATOM     62  O   UNL     1       6.840  29.640  32.656  1.00  0.00    -0.225 OA
BRANCH  60  63
ATOM     63  O   UNL     1       8.033  30.156  34.495  1.00  0.00    -0.443 OA
BRANCH  63  64
ATOM     64  C   UNL     1       9.354  30.020  34.012  1.00  0.00     0.294 C 
BRANCH  64  65
ATOM     65  C   UNL     1       9.847  28.614  34.046  1.00  0.00     0.120 A 
ATOM     66  C   UNL     1       9.840  27.726  35.096  1.00  0.00     0.138 A 
ATOM     67  N   UNL     1      10.392  27.978  33.005  1.00  0.00    -0.132 NA
ATOM     68  N   UNL     1      10.392  26.550  34.664  1.00  0.00    -0.252 N 
ATOM     69  N   UNL     1      10.704  26.758  33.406  1.00  0.00    -0.067 NA
BRANCH  68  70
ATOM     70  C   UNL     1      10.606  25.373  35.422  1.00  0.00     0.150 C 
BRANCH  70  71
ATOM     71  C   UNL     1      12.004  24.940  35.554  1.00  0.00     0.022 C 
BRANCH  71  72
ATOM     72  C   UNL     1      12.245  23.530  35.947  1.00  0.00     0.128 C 
BRANCH  72  73
ATOM     73  C   UNL     1      11.203  22.870  36.743  1.00  0.00     0.303 C 
ATOM     74  O   UNL     1      11.105  23.136  37.970  1.00  0.00    -0.252 OA
BRANCH  73  75
ATOM     75  O   UNL     1      10.300  21.954  36.221  1.00  0.00    -0.481 OA
ATOM     76  H   UNL     1      10.252  21.797  35.224  1.00  0.00     0.296 HD
ENDBRANCH  73  75
ENDBRANCH  72  73
ENDBRANCH  71  72
BRANCH  71  77
ATOM     77  C   UNL     1      12.899  25.911  36.271  1.00  0.00     0.009 C 
BRANCH  77  78
ATOM     78  C   UNL     1      14.014  26.529  35.557  1.00  0.00    -0.017 C 
ATOM     79  C   UNL     1      13.845  27.897  35.000  1.00  0.00     0.007 C 
ATOM     80  C   UNL     1      15.337  26.484  36.298  1.00  0.00     0.007 C 
ENDBRANCH  77  78
ENDBRANCH  71  77
ENDBRANCH  70  71
ENDBRANCH  68  70
ENDBRANCH  64  65
ENDBRANCH  63  64
ENDBRANCH  60  63
ENDBRANCH  58  59
ENDBRANCH  55  58
ENDBRANCH   1  55
TORSDOF 36
