REMARK VINA RESULT:    -5.614     10.047     13.835
REMARK INTER + INTRA:         -21.364
REMARK INTER:                 -13.773
REMARK INTRA:                  -7.591
REMARK UNBOUND:                -7.546
REMARK SMILES CC(=O)N[C@@H]1[C@@H](O)C[C@](OC[C@H]2O[C@@H](O[C@H]3[C@H](O)[C@@H](O)[C@H](OCCN=[N+]=[N-])O[C@@H]3CO)[C@H](O)[C@@H](O)[C@H]2O)(C(=O)O)O[C@H]1C(O)[C@H](O)CNC(=O)OCc1cn(-c2ccc3[nH]ncc3c2)nn1
REMARK SMILES IDX 9 1 8 2 6 3 5 4 42 5 41 6 10 7 11 8 12 9 14 10 13 11 32 12
REMARK SMILES IDX 34 13 36 14 15 15 16 16 29 17 28 18 21 19 17 20 19 21 30 22
REMARK SMILES IDX 31 23 22 25 23 26 24 27 25 28 26 29 27 30 18 31 20 33 33 35
REMARK SMILES IDX 35 37 37 39 38 41 39 42 40 43 7 45 43 47 44 48 45 50 46 51
REMARK SMILES IDX 47 53 48 54 49 55 50 57 51 58 52 59 53 60 54 61 66 62 55 63
REMARK SMILES IDX 65 64 56 65 57 66 64 67 58 68 63 69 59 70 62 71 60 72 61 73
REMARK SMILES IDX 4 75 2 76 1 78 3 79
REMARK H PARENT 31 24 18 32 20 34 33 36 35 38 37 40 40 44 7 46 44 49 46 52
REMARK H PARENT 48 56 60 74 4 77
REMARK Flexibility Score: inf
ROOT
ATOM      1  C   UNL     1      24.110  21.354  13.062  1.00  0.00     0.272 C 
ATOM      2  C   UNL     1      23.197  22.367  13.653  1.00  0.00     0.113 C 
ATOM      3  C   UNL     1      23.548  22.822  15.046  1.00  0.00     0.145 C 
ATOM      4  C   UNL     1      24.984  23.396  14.919  1.00  0.00     0.142 C 
ATOM      5  C   UNL     1      25.787  22.296  14.342  1.00  0.00     0.178 C 
ATOM      6  O   UNL     1      25.431  21.786  13.142  1.00  0.00    -0.332 OA
ENDROOT
BRANCH   1   7
ATOM      7  O   UNL     1      23.778  21.205  11.698  1.00  0.00    -0.338 OA
BRANCH   7   8
ATOM      8  C   UNL     1      22.764  21.988  11.255  1.00  0.00     0.199 C 
BRANCH   8   9
ATOM      9  C   UNL     1      21.810  21.219  10.313  1.00  0.00     0.179 C 
ATOM     10  C   UNL     1      20.773  19.194  10.750  1.00  0.00     0.282 C 
ATOM     11  O   UNL     1      21.966  19.872  10.445  1.00  0.00    -0.341 OA
ATOM     12  C   UNL     1      20.328  19.708  12.081  1.00  0.00     0.202 C 
ATOM     13  C   UNL     1      19.839  21.145  11.850  1.00  0.00     0.179 C 
ATOM     14  C   UNL     1      20.388  21.686  10.557  1.00  0.00     0.177 C 
BRANCH  10  15
ATOM     15  O   UNL     1      20.987  17.830  10.679  1.00  0.00    -0.341 OA
BRANCH  15  16
ATOM     16  C   UNL     1      22.282  17.583  10.242  1.00  0.00     0.184 C 
ATOM     17  C   UNL     1      22.382  16.641   9.080  1.00  0.00     0.178 C 
ATOM     18  O   UNL     1      23.651  16.520   8.656  1.00  0.00    -0.341 OA
ATOM     19  C   UNL     1      24.702  16.868   9.443  1.00  0.00     0.281 C 
ATOM     20  C   UNL     1      23.063  16.855  11.352  1.00  0.00     0.180 C 
ATOM     21  C   UNL     1      24.486  16.797  10.916  1.00  0.00     0.202 C 
BRANCH  17  22
ATOM     22  C   UNL     1      21.491  17.000   7.909  1.00  0.00     0.191 C 
BRANCH  22  23
ATOM     23  O   UNL     1      21.814  18.231   7.367  1.00  0.00    -0.394 OA
ATOM     24  H   UNL     1      22.551  18.050   6.708  1.00  0.00     0.210 HD
ENDBRANCH  22  23
ENDBRANCH  17  22
BRANCH  19  25
ATOM     25  O   UNL     1      25.102  18.127   9.069  1.00  0.00    -0.350 OA
BRANCH  25  26
ATOM     26  C   UNL     1      26.431  18.360   8.997  1.00  0.00     0.169 C 
BRANCH  26  27
ATOM     27  C   UNL     1      26.971  19.217  10.097  1.00  0.00     0.119 C 
BRANCH  27  28
ATOM     28  N   UNL     1      27.809  18.550  11.047  1.00  0.00    -0.092 NA
ATOM     29  N   UNL     1      28.116  17.376  10.974  1.00  0.00     0.001 N 
ATOM     30  N   UNL     1      28.141  16.132  11.113  1.00  0.00    -0.003 NA
ENDBRANCH  27  28
ENDBRANCH  26  27
ENDBRANCH  25  26
ENDBRANCH  19  25
BRANCH  20  31
ATOM     31  O   UNL     1      22.905  17.461  12.569  1.00  0.00    -0.387 OA
ATOM     32  H   UNL     1      22.001  17.347  12.961  1.00  0.00     0.211 HD
ENDBRANCH  20  31
BRANCH  21  33
ATOM     33  O   UNL     1      25.041  15.623  11.458  1.00  0.00    -0.385 OA
ATOM     34  H   UNL     1      25.371  15.016  10.748  1.00  0.00     0.211 HD
ENDBRANCH  21  33
ENDBRANCH  15  16
ENDBRANCH  10  15
BRANCH  12  35
ATOM     35  O   UNL     1      19.375  18.961  12.727  1.00  0.00    -0.385 OA
ATOM     36  H   UNL     1      19.663  18.005  12.847  1.00  0.00     0.211 HD
ENDBRANCH  12  35
BRANCH  13  37
ATOM     37  O   UNL     1      20.062  21.949  12.948  1.00  0.00    -0.387 OA
ATOM     38  H   UNL     1      20.837  22.546  12.721  1.00  0.00     0.211 HD
ENDBRANCH  13  37
BRANCH  14  39
ATOM     39  O   UNL     1      20.437  23.095  10.704  1.00  0.00    -0.387 OA
ATOM     40  H   UNL     1      20.491  23.558   9.855  1.00  0.00     0.211 HD
ENDBRANCH  14  39
ENDBRANCH   8   9
ENDBRANCH   7   8
ENDBRANCH   1   7
BRANCH   1  41
ATOM     41  C   UNL     1      24.084  20.030  13.741  1.00  0.00     0.364 C 
ATOM     42  O   UNL     1      25.112  19.290  13.592  1.00  0.00    -0.246 OA
BRANCH  41  43
ATOM     43  O   UNL     1      23.084  19.513  14.504  1.00  0.00    -0.477 OA
ATOM     44  H   UNL     1      22.718  18.566  14.392  1.00  0.00     0.296 HD
ENDBRANCH  41  43
ENDBRANCH   1  41
BRANCH   3  45
ATOM     45  O   UNL     1      22.668  23.822  15.412  1.00  0.00    -0.391 OA
ATOM     46  H   UNL     1      21.747  23.662  15.044  1.00  0.00     0.211 HD
ENDBRANCH   3  45
BRANCH   5  47
ATOM     47  C   UNL     1      27.258  22.547  14.490  1.00  0.00     0.176 C 
BRANCH  47  48
ATOM     48  O   UNL     1      27.639  21.688  15.585  1.00  0.00    -0.388 OA
ATOM     49  H   UNL     1      27.279  20.788  15.453  1.00  0.00     0.211 HD
ENDBRANCH  47  48
BRANCH  47  50
ATOM     50  C   UNL     1      28.119  22.088  13.338  1.00  0.00     0.165 C 
BRANCH  50  51
ATOM     51  O   UNL     1      27.811  20.709  13.174  1.00  0.00    -0.388 OA
ATOM     52  H   UNL     1      27.734  20.457  12.238  1.00  0.00     0.211 HD
ENDBRANCH  50  51
BRANCH  50  53
ATOM     53  C   UNL     1      29.581  22.230  13.526  1.00  0.00     0.154 C 
BRANCH  53  54
ATOM     54  N   UNL     1      30.311  21.092  13.960  1.00  0.00    -0.319 N 
ATOM     55  C   UNL     1      30.915  20.099  13.153  1.00  0.00     0.407 C 
ATOM     56  H   UNL     1      30.442  20.938  15.011  1.00  0.00     0.167 HD
ATOM     57  O   UNL     1      30.864  20.152  11.920  1.00  0.00    -0.225 OA
BRANCH  55  58
ATOM     58  O   UNL     1      31.585  19.034  13.747  1.00  0.00    -0.443 OA
BRANCH  58  59
ATOM     59  C   UNL     1      31.002  18.029  14.519  1.00  0.00     0.294 C 
BRANCH  59  60
ATOM     60  C   UNL     1      29.992  18.491  15.480  1.00  0.00     0.121 A 
ATOM     61  C   UNL     1      30.216  18.875  16.783  1.00  0.00     0.144 A 
ATOM     62  N   UNL     1      28.667  18.608  15.252  1.00  0.00    -0.131 NA
ATOM     63  N   UNL     1      29.019  19.203  17.275  1.00  0.00    -0.220 N 
ATOM     64  N   UNL     1      28.103  19.037  16.339  1.00  0.00    -0.062 NA
BRANCH  63  65
ATOM     65  C   UNL     1      28.785  19.658  18.608  1.00  0.00     0.067 A 
ATOM     66  C   UNL     1      28.997  18.832  19.689  1.00  0.00     0.030 A 
ATOM     67  C   UNL     1      28.336  20.939  18.835  1.00  0.00     0.040 A 
ATOM     68  C   UNL     1      28.767  19.271  20.969  1.00  0.00     0.030 A 
ATOM     69  C   UNL     1      28.108  21.369  20.140  1.00  0.00     0.022 A 
ATOM     70  C   UNL     1      28.317  20.549  21.236  1.00  0.00     0.065 A 
ATOM     71  C   UNL     1      27.669  22.582  20.615  1.00  0.00     0.143 A 
ATOM     72  N   UNL     1      28.010  21.255  22.338  1.00  0.00    -0.278 N 
ATOM     73  N   UNL     1      27.631  22.451  21.952  1.00  0.00    -0.183 NA
ATOM     74  H   UNL     1      28.074  20.884  23.318  1.00  0.00     0.190 HD
ENDBRANCH  63  65
ENDBRANCH  59  60
ENDBRANCH  58  59
ENDBRANCH  55  58
ENDBRANCH  53  54
ENDBRANCH  50  53
ENDBRANCH  47  50
ENDBRANCH   5  47
BRANCH   4  75
ATOM     75  N   UNL     1      25.368  23.589  16.321  1.00  0.00    -0.348 N 
ATOM     76  C   UNL     1      25.667  24.878  16.771  1.00  0.00     0.217 C 
ATOM     77  H   UNL     1      25.427  22.801  16.986  1.00  0.00     0.163 HD
ATOM     78  C   UNL     1      26.074  25.159  18.187  1.00  0.00     0.114 C 
ATOM     79  O   UNL     1      25.591  25.858  15.960  1.00  0.00    -0.275 OA
ENDBRANCH   4  75
TORSDOF 30
