REMARK VINA RESULT:    -5.964     14.969     20.235
REMARK INTER + INTRA:         -22.880
REMARK INTER:                 -13.125
REMARK INTRA:                  -9.755
REMARK UNBOUND:                -6.283
REMARK SMILES CC(=O)N[C@@H]1[C@@H](O)C[C@](OC[C@H]2O[C@@H](O[C@H]3[C@H](O)[C@@H](O)[C@H](OCCN=[N+]=[N-])O[C@@H]3CO)[C@H](O)[C@@H](O)[C@H]2O)(C(=O)O)O[C@H]1C(O)[C@H](O)CNC(=O)OCc1cn(C[C@H](CC(=O)O)CC(C)C)nn1
REMARK SMILES IDX 43 1 42 2 9 3 8 4 41 5 6 6 5 7 10 8 11 9 12 10 14 11 13 12
REMARK SMILES IDX 32 13 34 14 36 15 15 16 16 17 29 18 28 19 21 20 17 21 19 22
REMARK SMILES IDX 30 23 31 24 22 26 23 27 24 28 25 29 26 30 27 31 18 32 20 34
REMARK SMILES IDX 33 36 35 38 37 40 38 42 39 43 40 44 7 46 4 48 2 49 1 51 3 52
REMARK SMILES IDX 44 53 45 55 46 56 47 58 48 59 49 60 50 62 51 63 52 64 53 65
REMARK SMILES IDX 54 66 67 67 55 68 66 69 56 70 57 71 58 72 59 73 60 74 61 75
REMARK SMILES IDX 62 77 63 78 64 79 65 80
REMARK H PARENT 31 25 18 33 20 35 33 37 35 39 37 41 40 45 7 47 4 50 44 54
REMARK H PARENT 46 57 48 61 61 76
REMARK Flexibility Score: inf
ROOT
ATOM      1  C   UNL     1      17.599  30.963  24.089  1.00  0.00     0.176 C 
ENDROOT
BRANCH   1   2
ATOM      2  C   UNL     1      18.823  30.725  23.251  1.00  0.00     0.178 C 
ATOM      3  C   UNL     1      20.449  29.096  23.969  1.00  0.00     0.272 C 
ATOM      4  C   UNL     1      21.307  30.169  24.536  1.00  0.00     0.113 C 
ATOM      5  O   UNL     1      19.253  29.476  23.570  1.00  0.00    -0.332 OA
ATOM      6  C   UNL     1      20.729  31.522  24.647  1.00  0.00     0.145 C 
ATOM      7  C   UNL     1      19.771  31.847  23.499  1.00  0.00     0.142 C 
BRANCH   3   8
ATOM      8  O   UNL     1      20.299  28.059  24.930  1.00  0.00    -0.338 OA
BRANCH   8   9
ATOM      9  C   UNL     1      21.139  28.144  25.996  1.00  0.00     0.199 C 
BRANCH   9  10
ATOM     10  C   UNL     1      21.906  26.815  26.176  1.00  0.00     0.179 C 
ATOM     11  C   UNL     1      22.760  25.026  24.969  1.00  0.00     0.282 C 
ATOM     12  O   UNL     1      22.397  26.364  24.967  1.00  0.00    -0.341 OA
ATOM     13  C   UNL     1      23.321  24.726  26.368  1.00  0.00     0.202 C 
ATOM     14  C   UNL     1      24.062  25.933  26.902  1.00  0.00     0.179 C 
ATOM     15  C   UNL     1      23.117  27.073  27.083  1.00  0.00     0.177 C 
BRANCH  11  16
ATOM     16  O   UNL     1      23.821  24.855  24.115  1.00  0.00    -0.341 OA
BRANCH  16  17
ATOM     17  C   UNL     1      23.617  25.204  22.807  1.00  0.00     0.184 C 
ATOM     18  C   UNL     1      23.780  24.081  21.826  1.00  0.00     0.178 C 
ATOM     19  O   UNL     1      24.811  24.218  20.944  1.00  0.00    -0.341 OA
ATOM     20  C   UNL     1      24.803  25.379  20.195  1.00  0.00     0.281 C 
ATOM     21  C   UNL     1      24.640  26.266  22.459  1.00  0.00     0.180 C 
ATOM     22  C   UNL     1      24.472  26.606  20.971  1.00  0.00     0.202 C 
BRANCH  18  23
ATOM     23  C   UNL     1      22.439  23.861  21.148  1.00  0.00     0.191 C 
BRANCH  23  24
ATOM     24  O   UNL     1      21.433  24.600  21.764  1.00  0.00    -0.394 OA
ATOM     25  H   UNL     1      20.551  24.483  21.315  1.00  0.00     0.210 HD
ENDBRANCH  23  24
ENDBRANCH  18  23
BRANCH  20  26
ATOM     26  O   UNL     1      23.996  25.162  19.089  1.00  0.00    -0.350 OA
BRANCH  26  27
ATOM     27  C   UNL     1      24.688  24.672  17.994  1.00  0.00     0.169 C 
BRANCH  27  28
ATOM     28  C   UNL     1      25.791  25.675  17.685  1.00  0.00     0.119 C 
BRANCH  28  29
ATOM     29  N   UNL     1      25.136  26.792  17.021  1.00  0.00    -0.092 NA
ATOM     30  N   UNL     1      25.229  27.893  17.511  1.00  0.00     0.001 N 
ATOM     31  N   UNL     1      25.033  29.065  17.859  1.00  0.00    -0.003 NA
ENDBRANCH  28  29
ENDBRANCH  27  28
ENDBRANCH  26  27
ENDBRANCH  20  26
BRANCH  21  32
ATOM     32  O   UNL     1      24.465  27.380  23.260  1.00  0.00    -0.387 OA
ATOM     33  H   UNL     1      25.378  27.785  23.397  1.00  0.00     0.211 HD
ENDBRANCH  21  32
BRANCH  22  34
ATOM     34  O   UNL     1      25.379  27.660  20.740  1.00  0.00    -0.385 OA
ATOM     35  H   UNL     1      26.254  27.254  20.562  1.00  0.00     0.211 HD
ENDBRANCH  22  34
ENDBRANCH  16  17
ENDBRANCH  11  16
BRANCH  13  36
ATOM     36  O   UNL     1      22.375  24.224  27.226  1.00  0.00    -0.385 OA
ATOM     37  H   UNL     1      21.980  23.379  26.952  1.00  0.00     0.211 HD
ENDBRANCH  13  36
BRANCH  14  38
ATOM     38  O   UNL     1      24.999  26.271  25.904  1.00  0.00    -0.387 OA
ATOM     39  H   UNL     1      24.870  27.171  25.566  1.00  0.00     0.211 HD
ENDBRANCH  14  38
BRANCH  15  40
ATOM     40  O   UNL     1      23.782  28.243  26.658  1.00  0.00    -0.387 OA
ATOM     41  H   UNL     1      24.685  28.044  26.365  1.00  0.00     0.211 HD
ENDBRANCH  15  40
ENDBRANCH   9  10
ENDBRANCH   8   9
ENDBRANCH   3   8
BRANCH   3  42
ATOM     42  C   UNL     1      21.196  28.392  22.851  1.00  0.00     0.364 C 
ATOM     43  O   UNL     1      22.149  28.945  22.288  1.00  0.00    -0.246 OA
BRANCH  42  44
ATOM     44  O   UNL     1      20.826  27.140  22.454  1.00  0.00    -0.477 OA
ATOM     45  H   UNL     1      20.862  26.828  21.484  1.00  0.00     0.296 HD
ENDBRANCH  42  44
ENDBRANCH   3  42
BRANCH   6  46
ATOM     46  O   UNL     1      20.136  31.852  25.846  1.00  0.00    -0.391 OA
ATOM     47  H   UNL     1      20.689  32.566  26.251  1.00  0.00     0.211 HD
ENDBRANCH   6  46
BRANCH   7  48
ATOM     48  N   UNL     1      20.610  32.224  22.394  1.00  0.00    -0.348 N 
ATOM     49  C   UNL     1      20.104  33.203  21.458  1.00  0.00     0.217 C 
ATOM     50  H   UNL     1      21.564  31.853  22.193  1.00  0.00     0.163 HD
ATOM     51  C   UNL     1      20.987  33.600  20.307  1.00  0.00     0.114 C 
ATOM     52  O   UNL     1      18.967  33.721  21.577  1.00  0.00    -0.275 OA
ENDBRANCH   7  48
ENDBRANCH   1   2
BRANCH   1  53
ATOM     53  O   UNL     1      16.868  29.740  24.171  1.00  0.00    -0.388 OA
ATOM     54  H   UNL     1      16.367  29.719  25.027  1.00  0.00     0.211 HD
ENDBRANCH   1  53
BRANCH   1  55
ATOM     55  C   UNL     1      16.581  31.946  23.557  1.00  0.00     0.165 C 
BRANCH  55  56
ATOM     56  O   UNL     1      16.663  32.996  24.571  1.00  0.00    -0.388 OA
ATOM     57  H   UNL     1      16.870  33.804  23.999  1.00  0.00     0.211 HD
ENDBRANCH  55  56
BRANCH  55  58
ATOM     58  C   UNL     1      15.178  31.467  23.705  1.00  0.00     0.154 C 
BRANCH  58  59
ATOM     59  N   UNL     1      14.632  30.989  22.486  1.00  0.00    -0.319 N 
ATOM     60  C   UNL     1      14.202  29.609  22.475  1.00  0.00     0.407 C 
ATOM     61  H   UNL     1      14.504  31.498  21.593  1.00  0.00     0.167 HD
ATOM     62  O   UNL     1      14.321  28.910  23.521  1.00  0.00    -0.225 OA
BRANCH  60  63
ATOM     63  O   UNL     1      13.662  28.991  21.370  1.00  0.00    -0.443 OA
BRANCH  63  64
ATOM     64  C   UNL     1      14.214  28.998  20.070  1.00  0.00     0.294 C 
BRANCH  64  65
ATOM     65  C   UNL     1      15.701  28.893  20.066  1.00  0.00     0.120 A 
ATOM     66  C   UNL     1      16.632  29.878  19.834  1.00  0.00     0.138 A 
ATOM     67  N   UNL     1      16.380  27.767  20.305  1.00  0.00    -0.132 NA
ATOM     68  N   UNL     1      17.877  29.320  19.936  1.00  0.00    -0.252 N 
ATOM     69  N   UNL     1      17.667  28.056  20.219  1.00  0.00    -0.067 NA
BRANCH  68  70
ATOM     70  C   UNL     1      19.125  29.964  19.748  1.00  0.00     0.150 C 
BRANCH  70  71
ATOM     71  C   UNL     1      19.909  29.517  18.588  1.00  0.00     0.022 C 
BRANCH  71  72
ATOM     72  C   UNL     1      21.293  29.046  18.844  1.00  0.00     0.128 C 
BRANCH  72  73
ATOM     73  C   UNL     1      21.525  27.597  18.794  1.00  0.00     0.303 C 
ATOM     74  O   UNL     1      21.200  26.887  19.782  1.00  0.00    -0.252 OA
BRANCH  73  75
ATOM     75  O   UNL     1      22.092  26.946  17.706  1.00  0.00    -0.481 OA
ATOM     76  H   UNL     1      22.899  26.352  17.832  1.00  0.00     0.296 HD
ENDBRANCH  73  75
ENDBRANCH  72  73
ENDBRANCH  71  72
BRANCH  71  77
ATOM     77  C   UNL     1      19.804  30.401  17.378  1.00  0.00     0.009 C 
BRANCH  77  78
ATOM     78  C   UNL     1      18.662  30.260  16.478  1.00  0.00    -0.017 C 
ATOM     79  C   UNL     1      18.722  30.885  15.131  1.00  0.00     0.007 C 
ATOM     80  C   UNL     1      18.165  28.836  16.311  1.00  0.00     0.007 C 
ENDBRANCH  77  78
ENDBRANCH  71  77
ENDBRANCH  70  71
ENDBRANCH  68  70
ENDBRANCH  64  65
ENDBRANCH  63  64
ENDBRANCH  60  63
ENDBRANCH  58  59
ENDBRANCH  55  58
ENDBRANCH   1  55
TORSDOF 36
