REMARK VINA RESULT:    -5.420     22.497     26.686
REMARK INTER + INTRA:         -21.284
REMARK INTER:                 -14.663
REMARK INTRA:                  -6.621
REMARK UNBOUND:                -7.468
REMARK SMILES CC(=O)N[C@@H]1[C@@H](O)C[C@](OC[C@H]2O[C@@H](O[C@H]3[C@H](O)[C@@H](O)[C@H](OCCN=[N+]=[N-])O[C@@H]3CO)[C@H](O)[C@@H](O)[C@H]2O)(C(=O)O)O[C@H]1C(O)[C@H](O)CNC(=O)OCc1cn(CC(=O)O)nn1
REMARK SMILES IDX 9 1 8 2 6 3 5 4 42 5 41 6 10 7 11 8 12 9 14 10 13 11 32 12
REMARK SMILES IDX 34 13 36 14 15 15 16 16 29 17 28 18 21 19 17 20 19 21 30 22
REMARK SMILES IDX 31 23 22 25 23 26 24 27 25 28 26 29 27 30 18 31 20 33 33 35
REMARK SMILES IDX 35 37 37 39 38 41 39 42 40 43 7 45 43 47 44 48 45 50 46 51
REMARK SMILES IDX 47 53 48 54 49 55 50 57 51 58 52 59 53 60 54 61 61 62 55 63
REMARK SMILES IDX 60 64 56 65 57 66 58 67 59 68 4 70 2 71 1 73 3 74
REMARK H PARENT 31 24 18 32 20 34 33 36 35 38 37 40 40 44 7 46 44 49 46 52
REMARK H PARENT 48 56 59 69 4 72
REMARK Flexibility Score: inf
ROOT
ATOM      1  C   UNL     1      28.561  19.868  16.462  1.00  0.00     0.272 C 
ATOM      2  C   UNL     1      29.914  19.595  15.871  1.00  0.00     0.113 C 
ATOM      3  C   UNL     1      30.811  18.719  16.642  1.00  0.00     0.145 C 
ATOM      4  C   UNL     1      30.448  18.512  18.108  1.00  0.00     0.142 C 
ATOM      5  C   UNL     1      29.611  19.688  18.504  1.00  0.00     0.178 C 
ATOM      6  O   UNL     1      28.418  19.486  17.760  1.00  0.00    -0.332 OA
ENDROOT
BRANCH   1   7
ATOM      7  O   UNL     1      27.532  19.268  15.705  1.00  0.00    -0.338 OA
BRANCH   7   8
ATOM      8  C   UNL     1      27.817  19.101  14.384  1.00  0.00     0.199 C 
BRANCH   8   9
ATOM      9  C   UNL     1      26.540  19.308  13.555  1.00  0.00     0.179 C 
ATOM     10  C   UNL     1      24.934  20.963  13.620  1.00  0.00     0.282 C 
ATOM     11  O   UNL     1      25.512  19.839  14.291  1.00  0.00    -0.341 OA
ATOM     12  C   UNL     1      26.009  21.988  13.614  1.00  0.00     0.202 C 
ATOM     13  C   UNL     1      26.995  21.558  12.514  1.00  0.00     0.179 C 
ATOM     14  C   UNL     1      26.865  20.076  12.290  1.00  0.00     0.177 C 
BRANCH  10  15
ATOM     15  O   UNL     1      23.770  21.270  14.259  1.00  0.00    -0.341 OA
BRANCH  15  16
ATOM     16  C   UNL     1      22.629  21.085  13.478  1.00  0.00     0.184 C 
ATOM     17  C   UNL     1      22.929  20.038  12.446  1.00  0.00     0.178 C 
ATOM     18  O   UNL     1      22.199  20.240  11.306  1.00  0.00    -0.341 OA
ATOM     19  C   UNL     1      20.918  20.704  11.460  1.00  0.00     0.281 C 
ATOM     20  C   UNL     1      22.239  22.361  12.763  1.00  0.00     0.180 C 
ATOM     21  C   UNL     1      20.894  22.088  12.086  1.00  0.00     0.202 C 
BRANCH  17  22
ATOM     22  C   UNL     1      22.613  18.668  13.016  1.00  0.00     0.191 C 
BRANCH  22  23
ATOM     23  O   UNL     1      22.646  18.811  14.406  1.00  0.00    -0.394 OA
ATOM     24  H   UNL     1      23.495  18.479  14.773  1.00  0.00     0.210 HD
ENDBRANCH  22  23
ENDBRANCH  17  22
BRANCH  19  25
ATOM     25  O   UNL     1      20.146  19.803  12.142  1.00  0.00    -0.350 OA
BRANCH  25  26
ATOM     26  C   UNL     1      19.010  19.410  11.481  1.00  0.00     0.169 C 
BRANCH  26  27
ATOM     27  C   UNL     1      19.210  18.291  10.493  1.00  0.00     0.119 C 
BRANCH  27  28
ATOM     28  N   UNL     1      18.622  18.623   9.194  1.00  0.00    -0.092 NA
ATOM     29  N   UNL     1      19.401  19.143   8.370  1.00  0.00     0.001 N 
ATOM     30  N   UNL     1      19.756  19.960   7.498  1.00  0.00    -0.003 NA
ENDBRANCH  27  28
ENDBRANCH  26  27
ENDBRANCH  25  26
ENDBRANCH  19  25
BRANCH  20  31
ATOM     31  O   UNL     1      22.059  23.430  13.605  1.00  0.00    -0.387 OA
ATOM     32  H   UNL     1      22.434  24.272  13.302  1.00  0.00     0.211 HD
ENDBRANCH  20  31
BRANCH  21  33
ATOM     33  O   UNL     1      20.621  23.031  11.114  1.00  0.00    -0.385 OA
ATOM     34  H   UNL     1      19.650  23.219  11.045  1.00  0.00     0.211 HD
ENDBRANCH  21  33
ENDBRANCH  15  16
ENDBRANCH  10  15
BRANCH  12  35
ATOM     35  O   UNL     1      25.630  23.293  13.498  1.00  0.00    -0.385 OA
ATOM     36  H   UNL     1      24.803  23.454  13.981  1.00  0.00     0.211 HD
ENDBRANCH  12  35
BRANCH  13  37
ATOM     37  O   UNL     1      28.265  21.883  12.965  1.00  0.00    -0.387 OA
ATOM     38  H   UNL     1      28.756  21.098  13.336  1.00  0.00     0.211 HD
ENDBRANCH  13  37
BRANCH  14  39
ATOM     39  O   UNL     1      28.108  19.638  11.832  1.00  0.00    -0.387 OA
ATOM     40  H   UNL     1      28.855  20.149  12.222  1.00  0.00     0.211 HD
ENDBRANCH  14  39
ENDBRANCH   8   9
ENDBRANCH   7   8
ENDBRANCH   1   7
BRANCH   1  41
ATOM     41  C   UNL     1      28.304  21.323  16.368  1.00  0.00     0.364 C 
ATOM     42  O   UNL     1      27.284  21.841  16.861  1.00  0.00    -0.246 OA
BRANCH  41  43
ATOM     43  O   UNL     1      29.186  22.178  15.728  1.00  0.00    -0.477 OA
ATOM     44  H   UNL     1      28.881  23.032  15.243  1.00  0.00     0.296 HD
ENDBRANCH  41  43
ENDBRANCH   1  41
BRANCH   3  45
ATOM     45  O   UNL     1      31.120  17.510  16.010  1.00  0.00    -0.391 OA
ATOM     46  H   UNL     1      32.005  17.489  15.609  1.00  0.00     0.211 HD
ENDBRANCH   3  45
BRANCH   5  47
ATOM     47  C   UNL     1      29.257  19.826  19.946  1.00  0.00     0.176 C 
BRANCH  47  48
ATOM     48  O   UNL     1      28.643  18.574  20.281  1.00  0.00    -0.388 OA
ATOM     49  H   UNL     1      27.657  18.708  20.375  1.00  0.00     0.211 HD
ENDBRANCH  47  48
BRANCH  47  50
ATOM     50  C   UNL     1      28.257  20.922  20.240  1.00  0.00     0.165 C 
BRANCH  50  51
ATOM     51  O   UNL     1      28.605  22.071  19.483  1.00  0.00    -0.388 OA
ATOM     52  H   UNL     1      27.765  22.485  19.187  1.00  0.00     0.211 HD
ENDBRANCH  50  51
BRANCH  50  53
ATOM     53  C   UNL     1      28.183  21.286  21.671  1.00  0.00     0.154 C 
BRANCH  53  54
ATOM     54  N   UNL     1      27.077  22.149  21.968  1.00  0.00    -0.319 N 
ATOM     55  C   UNL     1      27.055  23.561  21.914  1.00  0.00     0.407 C 
ATOM     56  H   UNL     1      26.125  21.729  22.270  1.00  0.00     0.167 HD
ATOM     57  O   UNL     1      28.053  24.212  21.599  1.00  0.00    -0.225 OA
BRANCH  55  58
ATOM     58  O   UNL     1      25.905  24.298  22.218  1.00  0.00    -0.443 OA
BRANCH  58  59
ATOM     59  C   UNL     1      24.617  23.717  22.113  1.00  0.00     0.294 C 
BRANCH  59  60
ATOM     60  C   UNL     1      23.950  24.143  20.843  1.00  0.00     0.120 A 
ATOM     61  C   UNL     1      24.570  24.672  19.720  1.00  0.00     0.139 A 
ATOM     62  N   UNL     1      22.644  24.098  20.544  1.00  0.00    -0.132 NA
ATOM     63  N   UNL     1      23.623  24.923  18.798  1.00  0.00    -0.241 N 
ATOM     64  N   UNL     1      22.460  24.567  19.322  1.00  0.00    -0.066 NA
BRANCH  63  65
ATOM     65  C   UNL     1      23.805  25.483  17.455  1.00  0.00     0.268 C 
BRANCH  65  66
ATOM     66  C   UNL     1      24.356  24.424  16.590  1.00  0.00     0.325 C 
ATOM     67  O   UNL     1      23.603  23.592  16.062  1.00  0.00    -0.250 OA
BRANCH  66  68
ATOM     68  O   UNL     1      25.716  24.360  16.370  1.00  0.00    -0.480 OA
ATOM     69  H   UNL     1      26.117  24.053  15.508  1.00  0.00     0.296 HD
ENDBRANCH  66  68
ENDBRANCH  65  66
ENDBRANCH  63  65
ENDBRANCH  59  60
ENDBRANCH  58  59
ENDBRANCH  55  58
ENDBRANCH  53  54
ENDBRANCH  50  53
ENDBRANCH  47  50
ENDBRANCH   5  47
BRANCH   4  70
ATOM     70  N   UNL     1      31.600  18.223  18.890  1.00  0.00    -0.348 N 
ATOM     71  C   UNL     1      31.999  16.878  19.206  1.00  0.00     0.217 C 
ATOM     72  H   UNL     1      32.209  18.984  19.250  1.00  0.00     0.163 HD
ATOM     73  C   UNL     1      33.215  16.670  20.026  1.00  0.00     0.114 C 
ATOM     74  O   UNL     1      31.336  15.895  18.800  1.00  0.00    -0.275 OA
ENDBRANCH   4  70
TORSDOF 32
