REMARK VINA RESULT:    -5.946      2.439      4.206
REMARK INTER + INTRA:         -23.132
REMARK INTER:                 -14.991
REMARK INTRA:                  -8.141
REMARK UNBOUND:                -8.149
REMARK SMILES CC(=O)N[C@@H]1[C@@H](O)C[C@](OC[C@H]2O[C@@H](O[C@H]3[C@H](O)[C@@H](O)[C@H](OCCN=[N+]=[N-])O[C@@H]3CO)[C@H](O)[C@@H](O)[C@H]2O)(C(=O)O)O[C@H]1C(O)[C@H](O)CNC(=O)OCc1cn(Cc2ccc3c(c2)OCO3)nn1
REMARK SMILES IDX 9 1 8 2 6 3 5 4 42 5 41 6 10 7 11 8 12 9 14 10 13 11 32 12
REMARK SMILES IDX 34 13 36 14 15 15 16 16 29 17 28 18 21 19 17 20 19 21 30 22
REMARK SMILES IDX 31 23 22 25 23 26 24 27 25 28 26 29 27 30 18 31 20 33 33 35
REMARK SMILES IDX 35 37 37 39 38 41 39 42 40 43 7 45 43 47 44 48 45 50 46 51
REMARK SMILES IDX 47 53 48 54 49 55 50 57 51 58 52 59 53 60 54 61 67 62 55 63
REMARK SMILES IDX 66 64 56 65 57 66 58 67 62 68 59 69 61 70 60 71 63 72 65 73
REMARK SMILES IDX 64 74 4 75 2 76 1 78 3 79
REMARK H PARENT 31 24 18 32 20 34 33 36 35 38 37 40 40 44 7 46 44 49 46 52
REMARK H PARENT 48 56 4 77
REMARK Flexibility Score: inf
ROOT
ATOM      1  C   UNL     1      14.782  31.889  24.728  1.00  0.00     0.272 C 
ATOM      2  C   UNL     1      13.527  32.569  25.238  1.00  0.00     0.113 C 
ATOM      3  C   UNL     1      13.906  33.776  26.043  1.00  0.00     0.145 C 
ATOM      4  C   UNL     1      14.714  33.248  27.257  1.00  0.00     0.142 C 
ATOM      5  C   UNL     1      15.831  32.426  26.721  1.00  0.00     0.178 C 
ATOM      6  O   UNL     1      15.907  32.396  25.330  1.00  0.00    -0.332 OA
ENDROOT
BRANCH   1   7
ATOM      7  O   UNL     1      14.858  31.982  23.329  1.00  0.00    -0.338 OA
BRANCH   7   8
ATOM      8  C   UNL     1      13.706  32.246  22.669  1.00  0.00     0.199 C 
BRANCH   8   9
ATOM      9  C   UNL     1      13.735  31.510  21.320  1.00  0.00     0.179 C 
ATOM     10  C   UNL     1      15.161  30.555  19.788  1.00  0.00     0.282 C 
ATOM     11  O   UNL     1      15.030  31.403  20.888  1.00  0.00    -0.341 OA
ATOM     12  C   UNL     1      14.822  29.131  20.239  1.00  0.00     0.202 C 
ATOM     13  C   UNL     1      13.838  29.069  21.350  1.00  0.00     0.179 C 
ATOM     14  C   UNL     1      12.938  30.257  21.346  1.00  0.00     0.177 C 
BRANCH  10  15
ATOM     15  O   UNL     1      16.437  30.545  19.385  1.00  0.00    -0.341 OA
BRANCH  15  16
ATOM     16  C   UNL     1      17.418  29.984  20.145  1.00  0.00     0.184 C 
ATOM     17  C   UNL     1      18.269  30.974  20.890  1.00  0.00     0.178 C 
ATOM     18  O   UNL     1      19.559  30.991  20.473  1.00  0.00    -0.341 OA
ATOM     19  C   UNL     1      20.272  29.783  20.619  1.00  0.00     0.281 C 
ATOM     20  C   UNL     1      18.275  29.105  19.272  1.00  0.00     0.180 C 
ATOM     21  C   UNL     1      19.449  28.625  20.100  1.00  0.00     0.202 C 
BRANCH  17  22
ATOM     22  C   UNL     1      18.206  30.665  22.365  1.00  0.00     0.191 C 
BRANCH  22  23
ATOM     23  O   UNL     1      17.093  29.829  22.646  1.00  0.00    -0.394 OA
ATOM     24  H   UNL     1      16.441  30.264  23.243  1.00  0.00     0.210 HD
ENDBRANCH  22  23
ENDBRANCH  17  22
BRANCH  19  25
ATOM     25  O   UNL     1      20.741  29.629  21.884  1.00  0.00    -0.350 OA
BRANCH  25  26
ATOM     26  C   UNL     1      22.035  29.607  22.195  1.00  0.00     0.169 C 
BRANCH  26  27
ATOM     27  C   UNL     1      22.477  28.560  23.168  1.00  0.00     0.119 C 
BRANCH  27  28
ATOM     28  N   UNL     1      21.464  27.987  23.980  1.00  0.00    -0.092 NA
ATOM     29  N   UNL     1      20.736  28.625  24.736  1.00  0.00     0.001 N 
ATOM     30  N   UNL     1      20.394  29.329  25.702  1.00  0.00    -0.003 NA
ENDBRANCH  27  28
ENDBRANCH  26  27
ENDBRANCH  25  26
ENDBRANCH  19  25
BRANCH  20  31
ATOM     31  O   UNL     1      17.514  28.002  18.893  1.00  0.00    -0.387 OA
ATOM     32  H   UNL     1      17.931  27.152  19.191  1.00  0.00     0.211 HD
ENDBRANCH  20  31
BRANCH  21  33
ATOM     33  O   UNL     1      20.214  27.823  19.257  1.00  0.00    -0.385 OA
ATOM     34  H   UNL     1      20.546  28.356  18.487  1.00  0.00     0.211 HD
ENDBRANCH  21  33
ENDBRANCH  15  16
ENDBRANCH  10  15
BRANCH  12  35
ATOM     35  O   UNL     1      14.395  28.372  19.151  1.00  0.00    -0.385 OA
ATOM     36  H   UNL     1      13.944  28.930  18.497  1.00  0.00     0.211 HD
ENDBRANCH  12  35
BRANCH  13  37
ATOM     37  O   UNL     1      14.414  28.855  22.592  1.00  0.00    -0.387 OA
ATOM     38  H   UNL     1      15.381  28.673  22.467  1.00  0.00     0.211 HD
ENDBRANCH  13  37
BRANCH  14  39
ATOM     39  O   UNL     1      12.132  30.185  22.492  1.00  0.00    -0.387 OA
ATOM     40  H   UNL     1      12.706  30.281  23.276  1.00  0.00     0.211 HD
ENDBRANCH  14  39
ENDBRANCH   8   9
ENDBRANCH   7   8
ENDBRANCH   1   7
BRANCH   1  41
ATOM     41  C   UNL     1      14.687  30.442  24.997  1.00  0.00     0.364 C 
ATOM     42  O   UNL     1      15.671  29.691  25.026  1.00  0.00    -0.246 OA
BRANCH  41  43
ATOM     43  O   UNL     1      13.453  29.831  25.237  1.00  0.00    -0.477 OA
ATOM     44  H   UNL     1      12.739  29.794  24.491  1.00  0.00     0.296 HD
ENDBRANCH  41  43
ENDBRANCH   1  41
BRANCH   3  45
ATOM     45  O   UNL     1      14.714  34.690  25.433  1.00  0.00    -0.391 OA
ATOM     46  H   UNL     1      15.643  34.704  25.774  1.00  0.00     0.211 HD
ENDBRANCH   3  45
BRANCH   5  47
ATOM     47  C   UNL     1      17.191  33.041  27.130  1.00  0.00     0.176 C 
BRANCH  47  48
ATOM     48  O   UNL     1      17.094  33.866  28.209  1.00  0.00    -0.388 OA
ATOM     49  H   UNL     1      17.219  33.352  29.041  1.00  0.00     0.211 HD
ENDBRANCH  47  48
BRANCH  47  50
ATOM     50  C   UNL     1      18.321  32.110  27.173  1.00  0.00     0.165 C 
BRANCH  50  51
ATOM     51  O   UNL     1      18.222  31.005  26.317  1.00  0.00    -0.388 OA
ATOM     52  H   UNL     1      19.080  30.852  25.841  1.00  0.00     0.211 HD
ENDBRANCH  50  51
BRANCH  50  53
ATOM     53  C   UNL     1      18.722  31.591  28.527  1.00  0.00     0.154 C 
BRANCH  53  54
ATOM     54  N   UNL     1      19.710  30.519  28.310  1.00  0.00    -0.319 N 
ATOM     55  C   UNL     1      19.938  29.501  29.279  1.00  0.00     0.407 C 
ATOM     56  H   UNL     1      20.237  30.525  27.430  1.00  0.00     0.167 HD
ATOM     57  O   UNL     1      19.256  29.553  30.337  1.00  0.00    -0.225 OA
BRANCH  55  58
ATOM     58  O   UNL     1      20.851  28.490  29.104  1.00  0.00    -0.443 OA
BRANCH  58  59
ATOM     59  C   UNL     1      22.204  28.771  28.832  1.00  0.00     0.294 C 
BRANCH  59  60
ATOM     60  C   UNL     1      22.710  27.766  27.868  1.00  0.00     0.120 A 
ATOM     61  C   UNL     1      22.189  26.508  27.585  1.00  0.00     0.138 A 
ATOM     62  N   UNL     1      23.794  27.871  27.074  1.00  0.00    -0.132 NA
ATOM     63  N   UNL     1      22.958  25.916  26.652  1.00  0.00    -0.248 N 
ATOM     64  N   UNL     1      23.918  26.757  26.363  1.00  0.00    -0.067 NA
BRANCH  63  65
ATOM     65  C   UNL     1      22.742  24.614  26.096  1.00  0.00     0.181 C 
BRANCH  65  66
ATOM     66  C   UNL     1      22.492  24.609  24.636  1.00  0.00    -0.023 A 
ATOM     67  C   UNL     1      21.217  24.631  24.161  1.00  0.00     0.010 A 
ATOM     68  C   UNL     1      23.566  24.579  23.739  1.00  0.00     0.056 A 
ATOM     69  C   UNL     1      21.008  24.623  22.805  1.00  0.00     0.051 A 
ATOM     70  C   UNL     1      23.371  24.570  22.385  1.00  0.00     0.166 A 
ATOM     71  C   UNL     1      22.064  24.593  21.934  1.00  0.00     0.165 A 
ATOM     72  O   UNL     1      24.173  24.543  21.260  1.00  0.00    -0.454 OA
ATOM     73  O   UNL     1      22.066  24.580  20.533  1.00  0.00    -0.454 OA
ATOM     74  C   UNL     1      23.378  24.921  20.139  1.00  0.00     0.468 C 
ENDBRANCH  65  66
ENDBRANCH  63  65
ENDBRANCH  59  60
ENDBRANCH  58  59
ENDBRANCH  55  58
ENDBRANCH  53  54
ENDBRANCH  50  53
ENDBRANCH  47  50
ENDBRANCH   5  47
BRANCH   4  75
ATOM     75  N   UNL     1      13.745  32.548  28.051  1.00  0.00    -0.348 N 
ATOM     76  C   UNL     1      14.020  32.359  29.447  1.00  0.00     0.217 C 
ATOM     77  H   UNL     1      12.843  32.150  27.734  1.00  0.00     0.163 HD
ATOM     78  C   UNL     1      13.024  31.626  30.301  1.00  0.00     0.114 C 
ATOM     79  O   UNL     1      15.080  32.802  29.949  1.00  0.00    -0.275 OA
ENDBRANCH   4  75
TORSDOF 31
