REMARK VINA RESULT:    -5.728      6.967     10.253
REMARK INTER + INTRA:         -22.582
REMARK INTER:                 -15.231
REMARK INTRA:                  -7.351
REMARK UNBOUND:                -8.149
REMARK SMILES CC(=O)N[C@@H]1[C@@H](O)C[C@](OC[C@H]2O[C@@H](O[C@H]3[C@H](O)[C@@H](O)[C@H](OCCN=[N+]=[N-])O[C@@H]3CO)[C@H](O)[C@@H](O)[C@H]2O)(C(=O)O)O[C@H]1C(O)[C@H](O)CNC(=O)OCc1cn(Cc2ccc3c(c2)OCO3)nn1
REMARK SMILES IDX 9 1 8 2 6 3 5 4 42 5 41 6 10 7 11 8 12 9 14 10 13 11 32 12
REMARK SMILES IDX 34 13 36 14 15 15 16 16 29 17 28 18 21 19 17 20 19 21 30 22
REMARK SMILES IDX 31 23 22 25 23 26 24 27 25 28 26 29 27 30 18 31 20 33 33 35
REMARK SMILES IDX 35 37 37 39 38 41 39 42 40 43 7 45 43 47 44 48 45 50 46 51
REMARK SMILES IDX 47 53 48 54 49 55 50 57 51 58 52 59 53 60 54 61 67 62 55 63
REMARK SMILES IDX 66 64 56 65 57 66 58 67 62 68 59 69 61 70 60 71 63 72 65 73
REMARK SMILES IDX 64 74 4 75 2 76 1 78 3 79
REMARK H PARENT 31 24 18 32 20 34 33 36 35 38 37 40 40 44 7 46 44 49 46 52
REMARK H PARENT 48 56 4 77
REMARK Flexibility Score: inf
ROOT
ATOM      1  C   UNL     1      13.103  29.634  14.101  1.00  0.00     0.272 C 
ATOM      2  C   UNL     1      12.967  30.607  15.255  1.00  0.00     0.113 C 
ATOM      3  C   UNL     1      14.308  31.197  15.570  1.00  0.00     0.145 C 
ATOM      4  C   UNL     1      15.205  30.013  16.020  1.00  0.00     0.142 C 
ATOM      5  C   UNL     1      15.162  28.992  14.940  1.00  0.00     0.178 C 
ATOM      6  O   UNL     1      14.421  29.368  13.822  1.00  0.00    -0.332 OA
ENDROOT
BRANCH   1   7
ATOM      7  O   UNL     1      12.423  30.115  12.970  1.00  0.00    -0.338 OA
BRANCH   7   8
ATOM      8  C   UNL     1      11.226  30.710  13.182  1.00  0.00     0.199 C 
BRANCH   8   9
ATOM      9  C   UNL     1      10.448  30.730  11.857  1.00  0.00     0.179 C 
ATOM     10  C   UNL     1      10.722  30.869   9.577  1.00  0.00     0.282 C 
ATOM     11  O   UNL     1      11.300  31.049  10.833  1.00  0.00    -0.341 OA
ATOM     12  C   UNL     1      10.476  29.371   9.374  1.00  0.00     0.202 C 
ATOM     13  C   UNL     1      10.216  28.627  10.633  1.00  0.00     0.179 C 
ATOM     14  C   UNL     1       9.618  29.511  11.674  1.00  0.00     0.177 C 
BRANCH  10  15
ATOM     15  O   UNL     1      11.586  31.255   8.631  1.00  0.00    -0.341 OA
BRANCH  15  16
ATOM     16  C   UNL     1      12.655  30.485   8.288  1.00  0.00     0.184 C 
ATOM     17  C   UNL     1      13.853  30.650   9.182  1.00  0.00     0.178 C 
ATOM     18  O   UNL     1      14.921  31.195   8.550  1.00  0.00    -0.341 OA
ATOM     19  C   UNL     1      15.435  30.463   7.461  1.00  0.00     0.281 C 
ATOM     20  C   UNL     1      13.026  30.766   6.856  1.00  0.00     0.180 C 
ATOM     21  C   UNL     1      14.311  30.024   6.550  1.00  0.00     0.202 C 
BRANCH  17  22
ATOM     22  C   UNL     1      14.223  29.308   9.761  1.00  0.00     0.191 C 
BRANCH  22  23
ATOM     23  O   UNL     1      14.750  29.463  11.070  1.00  0.00    -0.394 OA
ATOM     24  H   UNL     1      15.734  29.498  11.074  1.00  0.00     0.210 HD
ENDBRANCH  22  23
ENDBRANCH  17  22
BRANCH  19  25
ATOM     25  O   UNL     1      16.259  29.464   7.874  1.00  0.00    -0.350 OA
BRANCH  25  26
ATOM     26  C   UNL     1      17.523  29.654   8.243  1.00  0.00     0.169 C 
BRANCH  26  27
ATOM     27  C   UNL     1      17.918  29.130   9.588  1.00  0.00     0.119 C 
BRANCH  27  28
ATOM     28  N   UNL     1      17.769  30.024  10.681  1.00  0.00    -0.092 NA
ATOM     29  N   UNL     1      17.620  31.238  10.570  1.00  0.00     0.001 N 
ATOM     30  N   UNL     1      17.888  32.423  10.303  1.00  0.00    -0.003 NA
ENDBRANCH  27  28
ENDBRANCH  26  27
ENDBRANCH  25  26
ENDBRANCH  19  25
BRANCH  20  31
ATOM     31  O   UNL     1      12.014  30.263   6.042  1.00  0.00    -0.387 OA
ATOM     32  H   UNL     1      11.142  30.695   6.235  1.00  0.00     0.211 HD
ENDBRANCH  20  31
BRANCH  21  33
ATOM     33  O   UNL     1      14.618  30.313   5.223  1.00  0.00    -0.385 OA
ATOM     34  H   UNL     1      14.972  29.503   4.769  1.00  0.00     0.211 HD
ENDBRANCH  21  33
ENDBRANCH  15  16
ENDBRANCH  10  15
BRANCH  12  35
ATOM     35  O   UNL     1       9.446  29.173   8.456  1.00  0.00    -0.385 OA
ATOM     36  H   UNL     1       9.103  28.266   8.513  1.00  0.00     0.211 HD
ENDBRANCH  12  35
BRANCH  13  37
ATOM     37  O   UNL     1      11.319  27.935  11.109  1.00  0.00    -0.387 OA
ATOM     38  H   UNL     1      11.094  26.971  11.155  1.00  0.00     0.211 HD
ENDBRANCH  13  37
BRANCH  14  39
ATOM     39  O   UNL     1       9.525  28.771  12.861  1.00  0.00    -0.387 OA
ATOM     40  H   UNL     1       8.691  28.263  12.840  1.00  0.00     0.211 HD
ENDBRANCH  14  39
ENDBRANCH   8   9
ENDBRANCH   7   8
ENDBRANCH   1   7
BRANCH   1  41
ATOM     41  C   UNL     1      12.407  28.380  14.443  1.00  0.00     0.364 C 
ATOM     42  O   UNL     1      12.293  27.430  13.658  1.00  0.00    -0.246 OA
BRANCH  41  43
ATOM     43  O   UNL     1      11.828  28.197  15.703  1.00  0.00    -0.477 OA
ATOM     44  H   UNL     1      11.897  28.940  16.418  1.00  0.00     0.296 HD
ENDBRANCH  41  43
ENDBRANCH   1  41
BRANCH   3  45
ATOM     45  O   UNL     1      14.974  31.792  14.539  1.00  0.00    -0.391 OA
ATOM     46  H   UNL     1      14.397  32.045  13.774  1.00  0.00     0.211 HD
ENDBRANCH   3  45
BRANCH   5  47
ATOM     47  C   UNL     1      16.580  28.771  14.358  1.00  0.00     0.176 C 
BRANCH  47  48
ATOM     48  O   UNL     1      16.560  28.408  13.045  1.00  0.00    -0.388 OA
ATOM     49  H   UNL     1      16.310  27.458  12.960  1.00  0.00     0.211 HD
ENDBRANCH  47  48
BRANCH  47  50
ATOM     50  C   UNL     1      17.571  29.797  14.692  1.00  0.00     0.165 C 
BRANCH  50  51
ATOM     51  O   UNL     1      17.651  30.870  13.794  1.00  0.00    -0.388 OA
ATOM     52  H   UNL     1      17.997  31.681  14.249  1.00  0.00     0.211 HD
ENDBRANCH  50  51
BRANCH  50  53
ATOM     53  C   UNL     1      18.976  29.325  14.950  1.00  0.00     0.154 C 
BRANCH  53  54
ATOM     54  N   UNL     1      19.020  28.818  16.332  1.00  0.00    -0.319 N 
ATOM     55  C   UNL     1      20.250  28.502  16.977  1.00  0.00     0.407 C 
ATOM     56  H   UNL     1      18.129  28.696  16.827  1.00  0.00     0.167 HD
ATOM     57  O   UNL     1      21.306  28.676  16.314  1.00  0.00    -0.225 OA
BRANCH  55  58
ATOM     58  O   UNL     1      20.323  28.028  18.265  1.00  0.00    -0.443 OA
BRANCH  58  59
ATOM     59  C   UNL     1      21.519  28.108  19.002  1.00  0.00     0.294 C 
BRANCH  59  60
ATOM     60  C   UNL     1      21.423  27.186  20.158  1.00  0.00     0.120 A 
ATOM     61  C   UNL     1      22.183  26.051  20.418  1.00  0.00     0.138 A 
ATOM     62  N   UNL     1      20.563  27.263  21.194  1.00  0.00    -0.132 NA
ATOM     63  N   UNL     1      21.765  25.499  21.573  1.00  0.00    -0.248 N 
ATOM     64  N   UNL     1      20.789  26.248  22.018  1.00  0.00    -0.067 NA
BRANCH  63  65
ATOM     65  C   UNL     1      22.306  24.319  22.178  1.00  0.00     0.181 C 
BRANCH  65  66
ATOM     66  C   UNL     1      22.970  24.553  23.482  1.00  0.00    -0.023 A 
ATOM     67  C   UNL     1      24.314  24.753  23.539  1.00  0.00     0.010 A 
ATOM     68  C   UNL     1      22.216  24.567  24.661  1.00  0.00     0.056 A 
ATOM     69  C   UNL     1      24.908  24.965  24.757  1.00  0.00     0.051 A 
ATOM     70  C   UNL     1      22.796  24.776  25.882  1.00  0.00     0.166 A 
ATOM     71  C   UNL     1      24.165  24.976  25.906  1.00  0.00     0.165 A 
ATOM     72  O   UNL     1      22.367  24.850  27.193  1.00  0.00    -0.454 OA
ATOM     73  O   UNL     1      24.572  25.171  27.232  1.00  0.00    -0.454 OA
ATOM     74  C   UNL     1      23.400  25.456  27.966  1.00  0.00     0.468 C 
ENDBRANCH  65  66
ENDBRANCH  63  65
ENDBRANCH  59  60
ENDBRANCH  58  59
ENDBRANCH  55  58
ENDBRANCH  53  54
ENDBRANCH  50  53
ENDBRANCH  47  50
ENDBRANCH   5  47
BRANCH   4  75
ATOM     75  N   UNL     1      14.657  29.612  17.284  1.00  0.00    -0.348 N 
ATOM     76  C   UNL     1      15.564  29.184  18.311  1.00  0.00     0.217 C 
ATOM     77  H   UNL     1      13.658  29.595  17.558  1.00  0.00     0.163 HD
ATOM     78  C   UNL     1      15.016  28.755  19.644  1.00  0.00     0.114 C 
ATOM     79  O   UNL     1      16.799  29.168  18.099  1.00  0.00    -0.275 OA
ENDBRANCH   4  75
TORSDOF 31
