REMARK VINA RESULT:    -5.866     16.197     21.043
REMARK INTER + INTRA:         -21.475
REMARK INTER:                 -13.094
REMARK INTRA:                  -8.381
REMARK UNBOUND:                -7.035
REMARK SMILES CC(=O)N[C@@H]1[C@@H](O)C[C@](OC[C@H]2O[C@@H](O[C@H]3[C@H](O)[C@@H](O)[C@H](OCCN=[N+]=[N-])O[C@@H]3CO)[C@H](O)[C@@H](O)[C@H]2O)(C(=O)O)O[C@H]1C(O)[C@H](O)CNC(=O)OCc1cn([C@@H]2C[C@H]3CC[C@@H](C2)N3C)nn1
REMARK SMILES IDX 9 1 8 2 6 3 5 4 42 5 41 6 10 7 11 8 12 9 14 10 13 11 32 12
REMARK SMILES IDX 34 13 36 14 15 15 16 16 29 17 28 18 21 19 17 20 19 21 30 22
REMARK SMILES IDX 31 23 22 25 23 26 24 27 25 28 26 29 27 30 18 31 20 33 33 35
REMARK SMILES IDX 35 37 37 39 38 41 39 42 40 43 7 45 43 47 44 48 45 50 46 51
REMARK SMILES IDX 47 53 48 54 49 55 50 57 51 58 52 59 53 60 54 61 66 62 55 63
REMARK SMILES IDX 65 64 56 65 62 66 57 67 61 68 58 69 63 70 60 71 59 72 64 73
REMARK SMILES IDX 4 74 2 75 1 77 3 78
REMARK H PARENT 31 24 18 32 20 34 33 36 35 38 37 40 40 44 7 46 44 49 46 52
REMARK H PARENT 48 56 4 76
REMARK Flexibility Score: inf
ROOT
ATOM      1  C   UNL     1       1.771  21.928  28.362  1.00  0.00     0.272 C 
ATOM      2  C   UNL     1       2.031  22.056  26.915  1.00  0.00     0.113 C 
ATOM      3  C   UNL     1       2.700  23.380  26.574  1.00  0.00     0.145 C 
ATOM      4  C   UNL     1       1.859  24.539  27.158  1.00  0.00     0.142 C 
ATOM      5  C   UNL     1       1.380  24.226  28.519  1.00  0.00     0.178 C 
ATOM      6  O   UNL     1       2.101  23.154  29.003  1.00  0.00    -0.332 OA
ENDROOT
BRANCH   1   7
ATOM      7  O   UNL     1       2.276  20.915  29.095  1.00  0.00    -0.338 OA
BRANCH   7   8
ATOM      8  C   UNL     1       3.350  20.826  29.810  1.00  0.00     0.199 C 
BRANCH   8   9
ATOM      9  C   UNL     1       3.251  20.093  31.139  1.00  0.00     0.179 C 
ATOM     10  C   UNL     1       4.098  21.078  33.098  1.00  0.00     0.282 C 
ATOM     11  O   UNL     1       4.363  20.475  31.903  1.00  0.00    -0.341 OA
ATOM     12  C   UNL     1       3.210  20.287  33.999  1.00  0.00     0.202 C 
ATOM     13  C   UNL     1       1.976  19.928  33.247  1.00  0.00     0.179 C 
ATOM     14  C   UNL     1       1.962  20.398  31.835  1.00  0.00     0.177 C 
BRANCH  10  15
ATOM     15  O   UNL     1       3.745  22.411  32.983  1.00  0.00    -0.341 OA
BRANCH  15  16
ATOM     16  C   UNL     1       4.434  23.259  33.825  1.00  0.00     0.184 C 
ATOM     17  C   UNL     1       3.540  24.209  34.519  1.00  0.00     0.178 C 
ATOM     18  O   UNL     1       4.213  24.954  35.492  1.00  0.00    -0.341 OA
ATOM     19  C   UNL     1       5.602  24.894  35.370  1.00  0.00     0.281 C 
ATOM     20  C   UNL     1       5.359  24.173  32.952  1.00  0.00     0.180 C 
ATOM     21  C   UNL     1       6.096  25.013  33.944  1.00  0.00     0.202 C 
BRANCH  17  22
ATOM     22  C   UNL     1       2.271  23.672  35.082  1.00  0.00     0.191 C 
BRANCH  22  23
ATOM     23  O   UNL     1       1.361  23.399  34.063  1.00  0.00    -0.394 OA
ATOM     24  H   UNL     1       0.795  24.197  33.916  1.00  0.00     0.210 HD
ENDBRANCH  22  23
ENDBRANCH  17  22
BRANCH  19  25
ATOM     25  O   UNL     1       6.143  23.856  36.076  1.00  0.00    -0.350 OA
BRANCH  25  26
ATOM     26  C   UNL     1       6.872  24.100  37.186  1.00  0.00     0.169 C 
BRANCH  26  27
ATOM     27  C   UNL     1       8.338  24.204  36.983  1.00  0.00     0.119 C 
BRANCH  27  28
ATOM     28  N   UNL     1       8.855  23.515  35.852  1.00  0.00    -0.092 NA
ATOM     29  N   UNL     1       9.544  24.048  34.976  1.00  0.00     0.001 N 
ATOM     30  N   UNL     1       9.834  24.379  33.822  1.00  0.00    -0.003 NA
ENDBRANCH  27  28
ENDBRANCH  26  27
ENDBRANCH  25  26
ENDBRANCH  19  25
BRANCH  20  31
ATOM     31  O   UNL     1       6.244  23.423  32.220  1.00  0.00    -0.387 OA
ATOM     32  H   UNL     1       5.851  23.178  31.340  1.00  0.00     0.211 HD
ENDBRANCH  20  31
BRANCH  21  33
ATOM     33  O   UNL     1       6.059  26.361  33.573  1.00  0.00    -0.385 OA
ATOM     34  H   UNL     1       6.360  26.435  32.656  1.00  0.00     0.211 HD
ENDBRANCH  21  33
ENDBRANCH  15  16
ENDBRANCH  10  15
BRANCH  12  35
ATOM     35  O   UNL     1       3.883  19.114  34.400  1.00  0.00    -0.385 OA
ATOM     36  H   UNL     1       3.598  18.386  33.786  1.00  0.00     0.211 HD
ENDBRANCH  12  35
BRANCH  13  37
ATOM     37  O   UNL     1       0.826  20.440  33.894  1.00  0.00    -0.387 OA
ATOM     38  H   UNL     1       0.897  20.305  34.870  1.00  0.00     0.211 HD
ENDBRANCH  13  37
BRANCH  14  39
ATOM     39  O   UNL     1       1.594  21.748  31.782  1.00  0.00    -0.387 OA
ATOM     40  H   UNL     1       2.438  22.264  31.934  1.00  0.00     0.211 HD
ENDBRANCH  14  39
ENDBRANCH   8   9
ENDBRANCH   7   8
ENDBRANCH   1   7
BRANCH   1  41
ATOM     41  C   UNL     1       0.273  21.778  28.533  1.00  0.00     0.364 C 
ATOM     42  O   UNL     1      -0.308  21.655  29.623  1.00  0.00    -0.246 OA
BRANCH  41  43
ATOM     43  O   UNL     1      -0.551  21.772  27.403  1.00  0.00    -0.477 OA
ATOM     44  H   UNL     1      -1.337  21.113  27.342  1.00  0.00     0.296 HD
ENDBRANCH  41  43
ENDBRANCH   1  41
BRANCH   3  45
ATOM     45  O   UNL     1       4.022  23.462  26.949  1.00  0.00    -0.391 OA
ATOM     46  H   UNL     1       4.578  23.036  26.228  1.00  0.00     0.211 HD
ENDBRANCH   3  45
BRANCH   5  47
ATOM     47  C   UNL     1       1.804  25.355  29.533  1.00  0.00     0.176 C 
BRANCH  47  48
ATOM     48  O   UNL     1       3.242  25.131  29.668  1.00  0.00    -0.388 OA
ATOM     49  H   UNL     1       3.509  25.685  30.462  1.00  0.00     0.211 HD
ENDBRANCH  47  48
BRANCH  47  50
ATOM     50  C   UNL     1       1.316  25.088  30.917  1.00  0.00     0.165 C 
BRANCH  50  51
ATOM     51  O   UNL     1       0.275  24.188  30.901  1.00  0.00    -0.388 OA
ATOM     52  H   UNL     1      -0.598  24.548  30.679  1.00  0.00     0.211 HD
ENDBRANCH  50  51
BRANCH  50  53
ATOM     53  C   UNL     1       1.086  26.281  31.766  1.00  0.00     0.154 C 
BRANCH  53  54
ATOM     54  N   UNL     1       1.864  27.420  31.278  1.00  0.00    -0.319 N 
ATOM     55  C   UNL     1       3.020  27.845  31.941  1.00  0.00     0.407 C 
ATOM     56  H   UNL     1       1.535  27.898  30.426  1.00  0.00     0.167 HD
ATOM     57  O   UNL     1       3.385  27.222  32.982  1.00  0.00    -0.225 OA
BRANCH  55  58
ATOM     58  O   UNL     1       3.789  28.920  31.511  1.00  0.00    -0.443 OA
BRANCH  58  59
ATOM     59  C   UNL     1       3.612  29.464  30.209  1.00  0.00     0.294 C 
BRANCH  59  60
ATOM     60  C   UNL     1       4.141  28.506  29.189  1.00  0.00     0.120 A 
ATOM     61  C   UNL     1       3.815  28.447  27.850  1.00  0.00     0.138 A 
ATOM     62  N   UNL     1       5.021  27.530  29.386  1.00  0.00    -0.132 NA
ATOM     63  N   UNL     1       4.496  27.448  27.272  1.00  0.00    -0.249 N 
ATOM     64  N   UNL     1       5.232  26.902  28.257  1.00  0.00    -0.067 NA
BRANCH  63  65
ATOM     65  C   UNL     1       4.503  26.984  25.905  1.00  0.00     0.112 C 
ATOM     66  C   UNL     1       4.073  28.023  24.912  1.00  0.00     0.046 C 
ATOM     67  C   UNL     1       5.951  26.617  25.544  1.00  0.00     0.046 C 
ATOM     68  C   UNL     1       5.113  29.104  24.785  1.00  0.00     0.058 C 
ATOM     69  C   UNL     1       6.822  27.856  25.608  1.00  0.00     0.058 C 
ATOM     70  N   UNL     1       5.987  28.996  25.946  1.00  0.00    -0.300 NA
ATOM     71  C   UNL     1       6.044  28.865  23.625  1.00  0.00     0.021 C 
ATOM     72  C   UNL     1       7.277  28.235  24.212  1.00  0.00     0.021 C 
ATOM     73  C   UNL     1       6.735  30.212  26.049  1.00  0.00     0.105 C 
ENDBRANCH  63  65
ENDBRANCH  59  60
ENDBRANCH  58  59
ENDBRANCH  55  58
ENDBRANCH  53  54
ENDBRANCH  50  53
ENDBRANCH  47  50
ENDBRANCH   5  47
BRANCH   4  74
ATOM     74  N   UNL     1       0.815  24.843  26.172  1.00  0.00    -0.348 N 
ATOM     75  C   UNL     1       0.425  26.212  25.910  1.00  0.00     0.217 C 
ATOM     76  H   UNL     1       0.305  24.131  25.617  1.00  0.00     0.163 HD
ATOM     77  C   UNL     1      -0.606  26.599  24.944  1.00  0.00     0.114 C 
ATOM     78  O   UNL     1       1.023  27.092  26.564  1.00  0.00    -0.275 OA
ENDBRANCH   4  74
TORSDOF 30
