REMARK VINA RESULT:    -5.065      3.431      9.522
REMARK INTER + INTRA:         -21.474
REMARK INTER:                 -15.148
REMARK INTRA:                  -6.326
REMARK UNBOUND:                -8.118
REMARK SMILES CC(=O)N[C@@H]1[C@@H](O)C[C@](OC[C@H]2O[C@@H](O[C@H]3[C@H](O)[C@@H](O)[C@H](OCCN=[N+]=[N-])O[C@@H]3CO)[C@H](O)[C@@H](O)[C@H]2O)(C(=O)O)O[C@H]1C(O)[C@H](O)CNC(=O)OCc1cn(CCOC(C)=O)nn1
REMARK SMILES IDX 43 1 42 2 9 3 8 4 41 5 6 6 5 7 10 8 11 9 12 10 14 11 13 12
REMARK SMILES IDX 32 13 34 14 36 15 15 16 16 17 29 18 28 19 21 20 17 21 19 22
REMARK SMILES IDX 30 23 31 24 22 26 23 27 24 28 25 29 26 30 27 31 18 32 20 34
REMARK SMILES IDX 33 36 35 38 37 40 38 42 39 43 40 44 7 46 4 48 2 49 1 51 3 52
REMARK SMILES IDX 44 53 45 55 46 56 47 58 48 59 49 60 50 62 51 63 52 64 53 65
REMARK SMILES IDX 54 66 63 67 55 68 62 69 56 70 57 71 58 72 59 73 61 74 60 75
REMARK H PARENT 31 25 18 33 20 35 33 37 35 39 37 41 40 45 7 47 4 50 44 54
REMARK H PARENT 46 57 48 61
REMARK Flexibility Score: inf
ROOT
ATOM      1  C   UNL     1       3.428  20.426  30.849  1.00  0.00     0.176 C 
ENDROOT
BRANCH   1   2
ATOM      2  C   UNL     1       3.307  21.372  32.016  1.00  0.00     0.178 C 
ATOM      3  C   UNL     1       4.575  23.078  33.034  1.00  0.00     0.272 C 
ATOM      4  C   UNL     1       3.305  23.158  33.846  1.00  0.00     0.113 C 
ATOM      5  O   UNL     1       4.426  22.224  31.908  1.00  0.00    -0.332 OA
ATOM      6  C   UNL     1       2.832  21.833  34.327  1.00  0.00     0.145 C 
ATOM      7  C   UNL     1       3.416  20.751  33.374  1.00  0.00     0.142 C 
BRANCH   3   8
ATOM      8  O   UNL     1       5.666  22.688  33.647  1.00  0.00    -0.338 OA
BRANCH   8   9
ATOM      9  C   UNL     1       6.927  22.733  33.321  1.00  0.00     0.199 C 
BRANCH   9  10
ATOM     10  C   UNL     1       8.045  23.141  34.182  1.00  0.00     0.179 C 
ATOM     11  C   UNL     1       9.970  24.404  34.079  1.00  0.00     0.282 C 
ATOM     12  O   UNL     1       8.669  24.294  33.567  1.00  0.00    -0.341 OA
ATOM     13  C   UNL     1      10.079  24.164  35.526  1.00  0.00     0.202 C 
ATOM     14  C   UNL     1       8.817  24.014  36.300  1.00  0.00     0.179 C 
ATOM     15  C   UNL     1       7.579  23.770  35.509  1.00  0.00     0.177 C 
BRANCH  11  16
ATOM     16  O   UNL     1      10.480  25.603  33.610  1.00  0.00    -0.341 OA
BRANCH  16  17
ATOM     17  C   UNL     1      11.017  26.391  34.595  1.00  0.00     0.184 C 
ATOM     18  C   UNL     1      10.529  27.813  34.437  1.00  0.00     0.178 C 
ATOM     19  O   UNL     1      11.099  28.524  35.502  1.00  0.00    -0.341 OA
ATOM     20  C   UNL     1      12.411  28.778  35.234  1.00  0.00     0.281 C 
ATOM     21  C   UNL     1      12.537  26.365  34.581  1.00  0.00     0.180 C 
ATOM     22  C   UNL     1      13.124  27.728  34.414  1.00  0.00     0.202 C 
BRANCH  18  23
ATOM     23  C   UNL     1       9.019  27.863  34.580  1.00  0.00     0.191 C 
BRANCH  23  24
ATOM     24  O   UNL     1       8.663  27.593  35.888  1.00  0.00    -0.394 OA
ATOM     25  H   UNL     1       7.860  28.164  36.078  1.00  0.00     0.210 HD
ENDBRANCH  23  24
ENDBRANCH  18  23
BRANCH  20  26
ATOM     26  O   UNL     1      13.059  28.982  36.459  1.00  0.00    -0.350 OA
BRANCH  26  27
ATOM     27  C   UNL     1      14.387  29.352  36.275  1.00  0.00     0.169 C 
BRANCH  27  28
ATOM     28  C   UNL     1      15.127  28.860  37.524  1.00  0.00     0.119 C 
BRANCH  28  29
ATOM     29  N   UNL     1      16.274  28.082  37.090  1.00  0.00    -0.092 NA
ATOM     30  N   UNL     1      16.190  27.205  36.221  1.00  0.00     0.001 N 
ATOM     31  N   UNL     1      16.046  26.100  35.666  1.00  0.00    -0.003 NA
ENDBRANCH  28  29
ENDBRANCH  27  28
ENDBRANCH  26  27
ENDBRANCH  20  26
BRANCH  21  32
ATOM     32  O   UNL     1      13.080  25.713  35.682  1.00  0.00    -0.387 OA
ATOM     33  H   UNL     1      13.532  24.862  35.459  1.00  0.00     0.211 HD
ENDBRANCH  21  32
BRANCH  22  34
ATOM     34  O   UNL     1      13.235  28.058  33.078  1.00  0.00    -0.385 OA
ATOM     35  H   UNL     1      13.955  27.492  32.674  1.00  0.00     0.211 HD
ENDBRANCH  22  34
ENDBRANCH  16  17
ENDBRANCH  11  16
BRANCH  13  36
ATOM     36  O   UNL     1      10.987  23.111  35.819  1.00  0.00    -0.385 OA
ATOM     37  H   UNL     1      10.543  22.237  35.812  1.00  0.00     0.211 HD
ENDBRANCH  13  36
BRANCH  14  38
ATOM     38  O   UNL     1       8.583  25.122  37.129  1.00  0.00    -0.387 OA
ATOM     39  H   UNL     1       8.598  25.944  36.554  1.00  0.00     0.211 HD
ENDBRANCH  14  38
BRANCH  15  40
ATOM     40  O   UNL     1       7.034  25.046  35.197  1.00  0.00    -0.387 OA
ATOM     41  H   UNL     1       6.734  25.500  36.010  1.00  0.00     0.211 HD
ENDBRANCH  15  40
ENDBRANCH   9  10
ENDBRANCH   8   9
ENDBRANCH   3   8
BRANCH   3  42
ATOM     42  C   UNL     1       4.686  24.403  32.363  1.00  0.00     0.364 C 
ATOM     43  O   UNL     1       5.165  25.441  32.857  1.00  0.00    -0.246 OA
BRANCH  42  44
ATOM     44  O   UNL     1       4.219  24.555  31.039  1.00  0.00    -0.477 OA
ATOM     45  H   UNL     1       3.250  24.355  30.843  1.00  0.00     0.296 HD
ENDBRANCH  42  44
ENDBRANCH   3  42
BRANCH   6  46
ATOM     46  O   UNL     1       3.124  21.536  35.638  1.00  0.00    -0.391 OA
ATOM     47  H   UNL     1       3.467  20.616  35.769  1.00  0.00     0.211 HD
ENDBRANCH   6  46
BRANCH   7  48
ATOM     48  N   UNL     1       2.738  19.519  33.597  1.00  0.00    -0.348 N 
ATOM     49  C   UNL     1       3.118  18.624  34.630  1.00  0.00     0.217 C 
ATOM     50  H   UNL     1       1.927  19.272  33.007  1.00  0.00     0.163 HD
ATOM     51  C   UNL     1       2.401  17.331  34.858  1.00  0.00     0.114 C 
ATOM     52  O   UNL     1       4.084  18.879  35.412  1.00  0.00    -0.275 OA
ENDBRANCH   7  48
ENDBRANCH   1   2
BRANCH   1  53
ATOM     53  O   UNL     1       4.809  20.497  30.478  1.00  0.00    -0.388 OA
ATOM     54  H   UNL     1       4.891  20.748  29.535  1.00  0.00     0.211 HD
ENDBRANCH   1  53
BRANCH   1  55
ATOM     55  C   UNL     1       2.706  20.985  29.647  1.00  0.00     0.165 C 
BRANCH  55  56
ATOM     56  O   UNL     1       3.433  22.072  29.138  1.00  0.00    -0.388 OA
ATOM     57  H   UNL     1       3.972  22.446  29.865  1.00  0.00     0.211 HD
ENDBRANCH  55  56
BRANCH  55  58
ATOM     58  C   UNL     1       1.283  21.355  29.931  1.00  0.00     0.154 C 
BRANCH  58  59
ATOM     59  N   UNL     1       0.697  22.296  29.029  1.00  0.00    -0.319 N 
ATOM     60  C   UNL     1       0.784  23.692  29.195  1.00  0.00     0.407 C 
ATOM     61  H   UNL     1       0.154  21.981  28.166  1.00  0.00     0.167 HD
ATOM     62  O   UNL     1       1.394  24.223  30.146  1.00  0.00    -0.225 OA
BRANCH  60  63
ATOM     63  O   UNL     1       0.180  24.583  28.294  1.00  0.00    -0.443 OA
BRANCH  63  64
ATOM     64  C   UNL     1       0.454  24.569  26.923  1.00  0.00     0.294 C 
BRANCH  64  65
ATOM     65  C   UNL     1       1.916  24.494  26.649  1.00  0.00     0.120 A 
ATOM     66  C   UNL     1       2.676  25.572  26.230  1.00  0.00     0.138 A 
ATOM     67  N   UNL     1       2.760  23.471  26.741  1.00  0.00    -0.132 NA
ATOM     68  N   UNL     1       3.936  25.147  26.090  1.00  0.00    -0.249 N 
ATOM     69  N   UNL     1       3.964  23.866  26.407  1.00  0.00    -0.067 NA
BRANCH  68  70
ATOM     70  C   UNL     1       5.096  25.936  25.650  1.00  0.00     0.187 C 
BRANCH  70  71
ATOM     71  C   UNL     1       4.758  27.410  25.691  1.00  0.00     0.256 C 
BRANCH  71  72
ATOM     72  O   UNL     1       5.571  28.028  26.683  1.00  0.00    -0.464 OA
BRANCH  72  73
ATOM     73  C   UNL     1       4.992  28.611  27.806  1.00  0.00     0.302 C 
ATOM     74  O   UNL     1       4.031  28.016  28.348  1.00  0.00    -0.253 OA
ATOM     75  C   UNL     1       5.478  29.911  28.375  1.00  0.00     0.139 C 
ENDBRANCH  72  73
ENDBRANCH  71  72
ENDBRANCH  70  71
ENDBRANCH  68  70
ENDBRANCH  64  65
ENDBRANCH  63  64
ENDBRANCH  60  63
ENDBRANCH  58  59
ENDBRANCH  55  58
ENDBRANCH   1  55
TORSDOF 33
