REMARK VINA RESULT:    -4.837     15.281     20.244
REMARK INTER + INTRA:         -20.872
REMARK INTER:                 -12.882
REMARK INTRA:                  -7.990
REMARK UNBOUND:                -8.118
REMARK SMILES CC(=O)N[C@@H]1[C@@H](O)C[C@](OC[C@H]2O[C@@H](O[C@H]3[C@H](O)[C@@H](O)[C@H](OCCN=[N+]=[N-])O[C@@H]3CO)[C@H](O)[C@@H](O)[C@H]2O)(C(=O)O)O[C@H]1C(O)[C@H](O)CNC(=O)OCc1cn(CCOC(C)=O)nn1
REMARK SMILES IDX 43 1 42 2 9 3 8 4 41 5 6 6 5 7 10 8 11 9 12 10 14 11 13 12
REMARK SMILES IDX 32 13 34 14 36 15 15 16 16 17 29 18 28 19 21 20 17 21 19 22
REMARK SMILES IDX 30 23 31 24 22 26 23 27 24 28 25 29 26 30 27 31 18 32 20 34
REMARK SMILES IDX 33 36 35 38 37 40 38 42 39 43 40 44 7 46 4 48 2 49 1 51 3 52
REMARK SMILES IDX 44 53 45 55 46 56 47 58 48 59 49 60 50 62 51 63 52 64 53 65
REMARK SMILES IDX 54 66 63 67 55 68 62 69 56 70 57 71 58 72 59 73 61 74 60 75
REMARK H PARENT 31 25 18 33 20 35 33 37 35 39 37 41 40 45 7 47 4 50 44 54
REMARK H PARENT 46 57 48 61
REMARK Flexibility Score: inf
ROOT
ATOM      1  C   UNL     1      21.795  26.857  21.139  1.00  0.00     0.176 C 
ENDROOT
BRANCH   1   2
ATOM      2  C   UNL     1      23.002  26.959  22.036  1.00  0.00     0.178 C 
ATOM      3  C   UNL     1      24.358  25.528  23.328  1.00  0.00     0.272 C 
ATOM      4  C   UNL     1      25.099  26.833  23.495  1.00  0.00     0.113 C 
ATOM      5  O   UNL     1      23.340  25.624  22.340  1.00  0.00    -0.332 OA
ATOM      6  C   UNL     1      24.210  27.970  23.852  1.00  0.00     0.145 C 
ATOM      7  C   UNL     1      22.777  27.619  23.361  1.00  0.00     0.142 C 
BRANCH   3   8
ATOM      8  O   UNL     1      23.789  25.011  24.390  1.00  0.00    -0.338 OA
BRANCH   8   9
ATOM      9  C   UNL     1      24.263  24.377  25.425  1.00  0.00     0.199 C 
BRANCH   9  10
ATOM     10  C   UNL     1      23.984  24.666  26.839  1.00  0.00     0.179 C 
ATOM     11  C   UNL     1      24.900  25.826  28.607  1.00  0.00     0.282 C 
ATOM     12  O   UNL     1      24.774  25.821  27.210  1.00  0.00    -0.341 OA
ATOM     13  C   UNL     1      23.665  25.487  29.332  1.00  0.00     0.202 C 
ATOM     14  C   UNL     1      22.411  25.355  28.540  1.00  0.00     0.179 C 
ATOM     15  C   UNL     1      22.568  25.231  27.065  1.00  0.00     0.177 C 
BRANCH  11  16
ATOM     16  O   UNL     1      25.507  27.023  28.946  1.00  0.00    -0.341 OA
BRANCH  16  17
ATOM     17  C   UNL     1      25.357  28.000  27.997  1.00  0.00     0.184 C 
ATOM     18  C   UNL     1      26.679  28.693  27.761  1.00  0.00     0.178 C 
ATOM     19  O   UNL     1      26.431  29.641  26.758  1.00  0.00    -0.341 OA
ATOM     20  C   UNL     1      25.784  30.715  27.292  1.00  0.00     0.281 C 
ATOM     21  C   UNL     1      24.304  29.023  28.393  1.00  0.00     0.180 C 
ATOM     22  C   UNL     1      24.856  30.410  28.444  1.00  0.00     0.202 C 
BRANCH  18  23
ATOM     23  C   UNL     1      27.701  27.699  27.240  1.00  0.00     0.191 C 
BRANCH  23  24
ATOM     24  O   UNL     1      28.277  27.022  28.299  1.00  0.00    -0.394 OA
ATOM     25  H   UNL     1      29.000  27.623  28.649  1.00  0.00     0.210 HD
ENDBRANCH  23  24
ENDBRANCH  18  23
BRANCH  20  26
ATOM     26  O   UNL     1      25.098  31.354  26.251  1.00  0.00    -0.350 OA
BRANCH  26  27
ATOM     27  C   UNL     1      24.037  32.112  26.733  1.00  0.00     0.169 C 
BRANCH  27  28
ATOM     28  C   UNL     1      22.981  32.093  25.623  1.00  0.00     0.119 C 
BRANCH  28  29
ATOM     29  N   UNL     1      23.512  31.325  24.510  1.00  0.00    -0.092 NA
ATOM     30  N   UNL     1      23.238  31.588  23.332  1.00  0.00     0.001 N 
ATOM     31  N   UNL     1      22.677  31.592  22.220  1.00  0.00    -0.003 NA
ENDBRANCH  28  29
ENDBRANCH  27  28
ENDBRANCH  26  27
ENDBRANCH  20  26
BRANCH  21  32
ATOM     32  O   UNL     1      23.163  28.963  27.604  1.00  0.00    -0.387 OA
ATOM     33  H   UNL     1      22.345  28.716  28.103  1.00  0.00     0.211 HD
ENDBRANCH  21  32
BRANCH  22  34
ATOM     34  O   UNL     1      25.410  30.677  29.680  1.00  0.00    -0.385 OA
ATOM     35  H   UNL     1      26.277  31.156  29.538  1.00  0.00     0.211 HD
ENDBRANCH  22  34
ENDBRANCH  16  17
ENDBRANCH  11  16
BRANCH  13  36
ATOM     36  O   UNL     1      23.847  24.369  30.189  1.00  0.00    -0.385 OA
ATOM     37  H   UNL     1      23.626  24.584  31.119  1.00  0.00     0.211 HD
ENDBRANCH  13  36
BRANCH  14  38
ATOM     38  O   UNL     1      21.529  26.418  28.788  1.00  0.00    -0.387 OA
ATOM     39  H   UNL     1      20.623  26.150  28.454  1.00  0.00     0.211 HD
ENDBRANCH  14  38
BRANCH  15  40
ATOM     40  O   UNL     1      22.559  26.553  26.540  1.00  0.00    -0.387 OA
ATOM     41  H   UNL     1      23.276  26.668  25.884  1.00  0.00     0.211 HD
ENDBRANCH  15  40
ENDBRANCH   9  10
ENDBRANCH   8   9
ENDBRANCH   3   8
BRANCH   3  42
ATOM     42  C   UNL     1      25.322  24.622  22.643  1.00  0.00     0.364 C 
ATOM     43  O   UNL     1      26.446  24.937  22.208  1.00  0.00    -0.246 OA
BRANCH  42  44
ATOM     44  O   UNL     1      24.981  23.268  22.439  1.00  0.00    -0.477 OA
ATOM     45  H   UNL     1      25.357  22.791  21.633  1.00  0.00     0.296 HD
ENDBRANCH  42  44
ENDBRANCH   3  42
BRANCH   6  46
ATOM     46  O   UNL     1      24.198  28.321  25.181  1.00  0.00    -0.391 OA
ATOM     47  H   UNL     1      25.073  28.200  25.631  1.00  0.00     0.211 HD
ENDBRANCH   6  46
BRANCH   7  48
ATOM     48  N   UNL     1      21.974  28.795  23.389  1.00  0.00    -0.348 N 
ATOM     49  C   UNL     1      20.777  28.875  24.148  1.00  0.00     0.217 C 
ATOM     50  H   UNL     1      22.278  29.629  22.862  1.00  0.00     0.163 HD
ATOM     51  C   UNL     1      19.939  30.114  24.171  1.00  0.00     0.114 C 
ATOM     52  O   UNL     1      20.362  27.899  24.843  1.00  0.00    -0.275 OA
ENDBRANCH   7  48
ENDBRANCH   1   2
BRANCH   1  53
ATOM     53  O   UNL     1      21.887  25.547  20.571  1.00  0.00    -0.388 OA
ATOM     54  H   UNL     1      22.826  25.280  20.492  1.00  0.00     0.211 HD
ENDBRANCH   1  53
BRANCH   1  55
ATOM     55  C   UNL     1      21.950  27.774  19.949  1.00  0.00     0.165 C 
BRANCH  55  56
ATOM     56  O   UNL     1      22.692  28.902  20.333  1.00  0.00    -0.388 OA
ATOM     57  H   UNL     1      22.934  29.398  19.524  1.00  0.00     0.211 HD
ENDBRANCH  55  56
BRANCH  55  58
ATOM     58  C   UNL     1      20.645  28.158  19.325  1.00  0.00     0.154 C 
BRANCH  58  59
ATOM     59  N   UNL     1      19.611  28.541  20.235  1.00  0.00    -0.319 N 
ATOM     60  C   UNL     1      18.239  28.481  19.926  1.00  0.00     0.407 C 
ATOM     61  H   UNL     1      19.835  28.897  21.216  1.00  0.00     0.167 HD
ATOM     62  O   UNL     1      17.811  28.074  18.825  1.00  0.00    -0.225 OA
BRANCH  60  63
ATOM     63  O   UNL     1      17.256  28.881  20.844  1.00  0.00    -0.443 OA
BRANCH  63  64
ATOM     64  C   UNL     1      17.105  30.210  21.255  1.00  0.00     0.294 C 
BRANCH  64  65
ATOM     65  C   UNL     1      16.474  30.307  22.600  1.00  0.00     0.120 A 
ATOM     66  C   UNL     1      15.676  31.365  23.001  1.00  0.00     0.138 A 
ATOM     67  N   UNL     1      16.515  29.474  23.636  1.00  0.00    -0.132 NA
ATOM     68  N   UNL     1      15.279  31.120  24.253  1.00  0.00    -0.249 N 
ATOM     69  N   UNL     1      15.801  29.963  24.620  1.00  0.00    -0.067 NA
BRANCH  68  70
ATOM     70  C   UNL     1      14.429  31.970  25.099  1.00  0.00     0.187 C 
BRANCH  70  71
ATOM     71  C   UNL     1      13.013  31.966  24.569  1.00  0.00     0.256 C 
BRANCH  71  72
ATOM     72  O   UNL     1      12.358  30.796  25.049  1.00  0.00    -0.464 OA
BRANCH  72  73
ATOM     73  C   UNL     1      11.841  29.861  24.157  1.00  0.00     0.302 C 
ATOM     74  O   UNL     1      12.295  29.849  22.988  1.00  0.00    -0.253 OA
ATOM     75  C   UNL     1      10.774  28.884  24.550  1.00  0.00     0.139 C 
ENDBRANCH  72  73
ENDBRANCH  71  72
ENDBRANCH  70  71
ENDBRANCH  68  70
ENDBRANCH  64  65
ENDBRANCH  63  64
ENDBRANCH  60  63
ENDBRANCH  58  59
ENDBRANCH  55  58
ENDBRANCH   1  55
TORSDOF 33
