REMARK VINA RESULT:    -5.362     14.931     19.945
REMARK INTER + INTRA:         -21.463
REMARK INTER:                 -12.609
REMARK INTRA:                  -8.854
REMARK UNBOUND:                -7.010
REMARK SMILES CC(=O)N[C@@H]1[C@@H](O)C[C@](OC[C@H]2O[C@@H](O[C@H]3[C@H](O)[C@@H](O)[C@H](OCCN=[N+]=[N-])O[C@@H]3CO)[C@H](O)[C@@H](O)[C@H]2O)(C(=O)O)O[C@H]1C(O)[C@H](O)CNC(=O)OCc1cn([C@@H](CC(=O)O)C(=O)O)nn1
REMARK SMILES IDX 43 1 42 2 9 3 8 4 41 5 6 6 5 7 10 8 11 9 12 10 14 11 13 12
REMARK SMILES IDX 32 13 34 14 36 15 15 16 16 17 29 18 28 19 21 20 17 21 19 22
REMARK SMILES IDX 30 23 31 24 22 26 23 27 24 28 25 29 26 30 27 31 18 32 20 34
REMARK SMILES IDX 33 36 35 38 37 40 38 42 39 43 40 44 7 46 4 48 2 49 1 51 3 52
REMARK SMILES IDX 44 53 45 55 46 56 47 58 48 59 49 60 50 62 51 63 52 64 53 65
REMARK SMILES IDX 54 66 65 67 55 68 64 69 56 70 57 71 58 72 59 73 60 74 61 76
REMARK SMILES IDX 62 77 63 78
REMARK H PARENT 31 25 18 33 20 35 33 37 35 39 37 41 40 45 7 47 4 50 44 54
REMARK H PARENT 46 57 48 61 60 75 63 79
REMARK Flexibility Score: inf
ROOT
ATOM      1  C   UNL     1       3.914  22.828  36.584  1.00  0.00     0.176 C 
ENDROOT
BRANCH   1   2
ATOM      2  C   UNL     1       4.299  23.892  35.571  1.00  0.00     0.178 C 
ATOM      3  C   UNL     1       6.124  24.577  34.256  1.00  0.00     0.272 C 
ATOM      4  C   UNL     1       5.209  25.809  34.267  1.00  0.00     0.113 C 
ATOM      5  O   UNL     1       5.611  23.719  35.255  1.00  0.00    -0.332 OA
ATOM      6  C   UNL     1       5.045  26.176  35.735  1.00  0.00     0.145 C 
ATOM      7  C   UNL     1       3.941  25.220  36.214  1.00  0.00     0.142 C 
BRANCH   3   8
ATOM      8  O   UNL     1       7.319  24.888  34.466  1.00  0.00    -0.338 OA
BRANCH   8   9
ATOM      9  C   UNL     1       8.506  25.189  34.684  1.00  0.00     0.199 C 
BRANCH   9  10
ATOM     10  C   UNL     1       9.526  24.053  34.754  1.00  0.00     0.179 C 
ATOM     11  C   UNL     1      11.272  25.014  35.905  1.00  0.00     0.282 C 
ATOM     12  O   UNL     1      10.826  24.431  34.755  1.00  0.00    -0.341 OA
ATOM     13  C   UNL     1      11.050  24.174  37.102  1.00  0.00     0.202 C 
ATOM     14  C   UNL     1      10.569  22.810  36.582  1.00  0.00     0.179 C 
ATOM     15  C   UNL     1       9.249  23.102  35.895  1.00  0.00     0.177 C 
BRANCH  11  16
ATOM     16  O   UNL     1      11.011  26.369  36.040  1.00  0.00    -0.341 OA
BRANCH  16  17
ATOM     17  C   UNL     1      12.031  27.177  35.595  1.00  0.00     0.184 C 
ATOM     18  C   UNL     1      12.292  28.312  36.518  1.00  0.00     0.178 C 
ATOM     19  O   UNL     1      13.362  29.084  36.083  1.00  0.00    -0.341 OA
ATOM     20  C   UNL     1      13.426  29.236  34.694  1.00  0.00     0.281 C 
ATOM     21  C   UNL     1      11.580  27.715  34.239  1.00  0.00     0.180 C 
ATOM     22  C   UNL     1      12.025  29.135  34.098  1.00  0.00     0.202 C 
BRANCH  18  23
ATOM     23  C   UNL     1      12.730  27.723  37.857  1.00  0.00     0.191 C 
BRANCH  23  24
ATOM     24  O   UNL     1      13.657  26.689  37.610  1.00  0.00    -0.394 OA
ATOM     25  H   UNL     1      13.096  25.919  37.298  1.00  0.00     0.210 HD
ENDBRANCH  23  24
ENDBRANCH  18  23
BRANCH  20  26
ATOM     26  O   UNL     1      14.167  28.180  34.195  1.00  0.00    -0.350 OA
BRANCH  26  27
ATOM     27  C   UNL     1      15.448  28.449  33.825  1.00  0.00     0.169 C 
BRANCH  27  28
ATOM     28  C   UNL     1      16.410  27.536  34.522  1.00  0.00     0.119 C 
BRANCH  28  29
ATOM     29  N   UNL     1      17.054  28.291  35.599  1.00  0.00    -0.092 NA
ATOM     30  N   UNL     1      16.666  28.077  36.766  1.00  0.00     0.001 N 
ATOM     31  N   UNL     1      16.261  28.385  37.902  1.00  0.00    -0.003 NA
ENDBRANCH  28  29
ENDBRANCH  27  28
ENDBRANCH  26  27
ENDBRANCH  20  26
BRANCH  21  32
ATOM     32  O   UNL     1      12.130  26.946  33.221  1.00  0.00    -0.387 OA
ATOM     33  H   UNL     1      12.528  27.537  32.519  1.00  0.00     0.211 HD
ENDBRANCH  21  32
BRANCH  22  34
ATOM     34  O   UNL     1      11.168  30.061  34.696  1.00  0.00    -0.385 OA
ATOM     35  H   UNL     1      10.302  29.558  34.821  1.00  0.00     0.211 HD
ENDBRANCH  22  34
ENDBRANCH  16  17
ENDBRANCH  11  16
BRANCH  13  36
ATOM     36  O   UNL     1      12.213  23.906  37.826  1.00  0.00    -0.385 OA
ATOM     37  H   UNL     1      12.753  23.255  37.290  1.00  0.00     0.211 HD
ENDBRANCH  13  36
BRANCH  14  38
ATOM     38  O   UNL     1      10.433  21.876  37.579  1.00  0.00    -0.387 OA
ATOM     39  H   UNL     1       9.912  21.079  37.280  1.00  0.00     0.211 HD
ENDBRANCH  14  38
BRANCH  15  40
ATOM     40  O   UNL     1       8.364  23.623  36.812  1.00  0.00    -0.387 OA
ATOM     41  H   UNL     1       8.771  24.187  37.491  1.00  0.00     0.211 HD
ENDBRANCH  15  40
ENDBRANCH   9  10
ENDBRANCH   8   9
ENDBRANCH   3   8
BRANCH   3  42
ATOM     42  C   UNL     1       5.826  23.922  32.910  1.00  0.00     0.364 C 
ATOM     43  O   UNL     1       6.118  22.732  32.724  1.00  0.00    -0.246 OA
BRANCH  42  44
ATOM     44  O   UNL     1       5.233  24.634  31.885  1.00  0.00    -0.477 OA
ATOM     45  H   UNL     1       4.518  25.355  32.055  1.00  0.00     0.296 HD
ENDBRANCH  42  44
ENDBRANCH   3  42
BRANCH   6  46
ATOM     46  O   UNL     1       6.176  25.748  36.464  1.00  0.00    -0.391 OA
ATOM     47  H   UNL     1       6.143  24.803  36.687  1.00  0.00     0.211 HD
ENDBRANCH   6  46
BRANCH   7  48
ATOM     48  N   UNL     1       2.697  25.774  35.732  1.00  0.00    -0.348 N 
ATOM     49  C   UNL     1       1.564  25.853  36.598  1.00  0.00     0.217 C 
ATOM     50  H   UNL     1       2.573  26.130  34.757  1.00  0.00     0.163 HD
ATOM     51  C   UNL     1       0.299  26.437  36.036  1.00  0.00     0.114 C 
ATOM     52  O   UNL     1       1.608  25.451  37.791  1.00  0.00    -0.275 OA
ENDBRANCH   7  48
ENDBRANCH   1   2
BRANCH   1  53
ATOM     53  O   UNL     1       2.538  22.647  36.641  1.00  0.00    -0.388 OA
ATOM     54  H   UNL     1       2.208  22.593  37.582  1.00  0.00     0.211 HD
ENDBRANCH   1  53
BRANCH   1  55
ATOM     55  C   UNL     1       4.480  22.997  37.944  1.00  0.00     0.165 C 
BRANCH  55  56
ATOM     56  O   UNL     1       5.843  23.177  38.018  1.00  0.00    -0.388 OA
ATOM     57  H   UNL     1       6.188  23.328  38.938  1.00  0.00     0.211 HD
ENDBRANCH  55  56
BRANCH  55  58
ATOM     58  C   UNL     1       3.945  21.978  38.890  1.00  0.00     0.154 C 
BRANCH  58  59
ATOM     59  N   UNL     1       4.092  20.610  38.500  1.00  0.00    -0.319 N 
ATOM     60  C   UNL     1       2.947  19.782  38.416  1.00  0.00     0.407 C 
ATOM     61  H   UNL     1       5.013  20.212  38.274  1.00  0.00     0.167 HD
ATOM     62  O   UNL     1       1.810  20.306  38.684  1.00  0.00    -0.225 OA
BRANCH  60  63
ATOM     63  O   UNL     1       2.934  18.441  38.074  1.00  0.00    -0.443 OA
BRANCH  63  64
ATOM     64  C   UNL     1       2.191  18.011  36.922  1.00  0.00     0.294 C 
BRANCH  64  65
ATOM     65  C   UNL     1       2.620  18.818  35.755  1.00  0.00     0.120 A 
ATOM     66  C   UNL     1       1.869  19.469  34.802  1.00  0.00     0.139 A 
ATOM     67  N   UNL     1       3.924  19.055  35.388  1.00  0.00    -0.132 NA
ATOM     68  N   UNL     1       2.710  20.065  33.908  1.00  0.00    -0.237 N 
ATOM     69  N   UNL     1       3.917  19.785  34.307  1.00  0.00    -0.066 NA
BRANCH  68  70
ATOM     70  C   UNL     1       2.323  20.834  32.747  1.00  0.00     0.229 C 
BRANCH  70  71
ATOM     71  C   UNL     1       2.633  22.294  33.023  1.00  0.00     0.161 C 
BRANCH  71  72
ATOM     72  C   UNL     1       1.401  23.094  33.162  1.00  0.00     0.306 C 
ATOM     73  O   UNL     1       0.796  23.534  32.152  1.00  0.00    -0.252 OA
BRANCH  72  74
ATOM     74  O   UNL     1       0.889  23.376  34.409  1.00  0.00    -0.481 OA
ATOM     75  H   UNL     1      -0.027  22.988  34.665  1.00  0.00     0.296 HD
ENDBRANCH  72  74
ENDBRANCH  71  72
ENDBRANCH  70  71
BRANCH  70  76
ATOM     76  C   UNL     1       3.104  20.376  31.584  1.00  0.00     0.329 C 
ATOM     77  O   UNL     1       3.702  21.225  30.884  1.00  0.00    -0.250 OA
BRANCH  76  78
ATOM     78  O   UNL     1       3.212  19.040  31.223  1.00  0.00    -0.480 OA
ATOM     79  H   UNL     1       4.082  18.556  31.425  1.00  0.00     0.296 HD
ENDBRANCH  76  78
ENDBRANCH  70  76
ENDBRANCH  68  70
ENDBRANCH  64  65
ENDBRANCH  63  64
ENDBRANCH  60  63
ENDBRANCH  58  59
ENDBRANCH  55  58
ENDBRANCH   1  55
TORSDOF 35
