REMARK VINA RESULT:    -6.208      2.544      7.321
REMARK INTER + INTRA:         -20.836
REMARK INTER:                 -12.024
REMARK INTRA:                  -8.812
REMARK UNBOUND:                -4.828
REMARK SMILES CC(=O)N[C@@H]1[C@@H](O)C[C@](OC[C@H]2O[C@@H](O[C@H]3[C@H](O)[C@@H](O)[C@H](OCCN=[N+]=[N-])O[C@@H]3CO)[C@H](O)[C@@H](O)[C@H]2O)(C(=O)O)O[C@H]1C(O)[C@H](O)CNC(=O)OCc1cn(CCN2CCCC2)nn1
REMARK SMILES IDX 9 1 8 2 6 3 5 4 42 5 41 6 10 7 11 8 12 9 14 10 13 11 32 12
REMARK SMILES IDX 34 13 36 14 15 15 16 16 29 17 28 18 21 19 17 20 19 21 30 22
REMARK SMILES IDX 31 23 22 25 23 26 24 27 25 28 26 29 27 30 18 31 20 33 33 35
REMARK SMILES IDX 35 37 37 39 38 41 39 42 40 43 7 45 43 47 44 48 45 50 46 51
REMARK SMILES IDX 47 53 48 54 49 55 50 57 51 58 52 59 53 60 54 61 64 62 55 63
REMARK SMILES IDX 63 64 56 65 57 66 58 67 59 68 62 69 60 70 61 71 4 72 2 73
REMARK SMILES IDX 1 75 3 76
REMARK H PARENT 31 24 18 32 20 34 33 36 35 38 37 40 40 44 7 46 44 49 46 52
REMARK H PARENT 48 56 4 74
REMARK Flexibility Score: inf
ROOT
ATOM      1  C   UNL     1      22.790  25.507  21.325  1.00  0.00     0.272 C 
ATOM      2  C   UNL     1      21.673  24.996  22.179  1.00  0.00     0.113 C 
ATOM      3  C   UNL     1      21.091  26.122  23.044  1.00  0.00     0.145 C 
ATOM      4  C   UNL     1      22.241  26.535  24.006  1.00  0.00     0.142 C 
ATOM      5  C   UNL     1      23.408  26.873  23.154  1.00  0.00     0.178 C 
ATOM      6  O   UNL     1      23.092  26.792  21.794  1.00  0.00    -0.332 OA
ENDROOT
BRANCH   1   7
ATOM      7  O   UNL     1      22.376  25.746  20.012  1.00  0.00    -0.338 OA
BRANCH   7   8
ATOM      8  C   UNL     1      22.676  26.939  19.462  1.00  0.00     0.199 C 
BRANCH   8   9
ATOM      9  C   UNL     1      21.467  27.630  18.838  1.00  0.00     0.179 C 
ATOM     10  C   UNL     1      19.427  28.563  19.316  1.00  0.00     0.282 C 
ATOM     11  O   UNL     1      20.704  28.335  19.753  1.00  0.00    -0.341 OA
ATOM     12  C   UNL     1      19.418  28.885  17.860  1.00  0.00     0.202 C 
ATOM     13  C   UNL     1      20.756  29.491  17.478  1.00  0.00     0.179 C 
ATOM     14  C   UNL     1      21.887  28.500  17.670  1.00  0.00     0.177 C 
BRANCH  10  15
ATOM     15  O   UNL     1      18.677  29.391  20.097  1.00  0.00    -0.341 OA
BRANCH  15  16
ATOM     16  C   UNL     1      17.404  29.669  19.834  1.00  0.00     0.184 C 
ATOM     17  C   UNL     1      16.942  31.098  20.030  1.00  0.00     0.178 C 
ATOM     18  O   UNL     1      15.819  31.275  19.215  1.00  0.00    -0.341 OA
ATOM     19  C   UNL     1      14.750  30.628  19.899  1.00  0.00     0.281 C 
ATOM     20  C   UNL     1      16.369  28.819  20.551  1.00  0.00     0.180 C 
ATOM     21  C   UNL     1      15.060  29.145  19.859  1.00  0.00     0.202 C 
BRANCH  17  22
ATOM     22  C   UNL     1      17.982  32.130  19.752  1.00  0.00     0.191 C 
BRANCH  22  23
ATOM     23  O   UNL     1      18.367  32.005  18.421  1.00  0.00    -0.394 OA
ATOM     24  H   UNL     1      18.252  32.876  17.949  1.00  0.00     0.210 HD
ENDBRANCH  22  23
ENDBRANCH  17  22
BRANCH  19  25
ATOM     25  O   UNL     1      13.647  30.844  19.136  1.00  0.00    -0.350 OA
BRANCH  25  26
ATOM     26  C   UNL     1      13.699  31.703  18.094  1.00  0.00     0.169 C 
BRANCH  26  27
ATOM     27  C   UNL     1      13.295  31.203  16.752  1.00  0.00     0.119 C 
BRANCH  27  28
ATOM     28  N   UNL     1      13.813  29.899  16.415  1.00  0.00    -0.092 NA
ATOM     29  N   UNL     1      15.018  29.750  16.268  1.00  0.00     0.001 N 
ATOM     30  N   UNL     1      16.253  29.716  16.232  1.00  0.00    -0.003 NA
ENDBRANCH  27  28
ENDBRANCH  26  27
ENDBRANCH  25  26
ENDBRANCH  19  25
BRANCH  20  31
ATOM     31  O   UNL     1      16.595  27.466  20.347  1.00  0.00    -0.387 OA
ATOM     32  H   UNL     1      17.413  27.126  20.758  1.00  0.00     0.211 HD
ENDBRANCH  20  31
BRANCH  21  33
ATOM     33  O   UNL     1      14.011  28.367  20.287  1.00  0.00    -0.385 OA
ATOM     34  H   UNL     1      13.363  28.792  20.874  1.00  0.00     0.211 HD
ENDBRANCH  21  33
ENDBRANCH  15  16
ENDBRANCH  10  15
BRANCH  12  35
ATOM     35  O   UNL     1      19.236  27.762  17.044  1.00  0.00    -0.385 OA
ATOM     36  H   UNL     1      20.101  27.504  16.611  1.00  0.00     0.211 HD
ENDBRANCH  12  35
BRANCH  13  37
ATOM     37  O   UNL     1      21.032  30.586  18.302  1.00  0.00    -0.387 OA
ATOM     38  H   UNL     1      20.280  30.714  18.963  1.00  0.00     0.211 HD
ENDBRANCH  13  37
BRANCH  14  39
ATOM     39  O   UNL     1      23.025  29.248  17.965  1.00  0.00    -0.387 OA
ATOM     40  H   UNL     1      22.758  30.201  17.810  1.00  0.00     0.211 HD
ENDBRANCH  14  39
ENDBRANCH   8   9
ENDBRANCH   7   8
ENDBRANCH   1   7
BRANCH   1  41
ATOM     41  C   UNL     1      24.012  24.661  21.351  1.00  0.00     0.364 C 
ATOM     42  O   UNL     1      24.164  23.876  22.336  1.00  0.00    -0.246 OA
BRANCH  41  43
ATOM     43  O   UNL     1      25.002  24.646  20.405  1.00  0.00    -0.477 OA
ATOM     44  H   UNL     1      24.976  24.253  19.493  1.00  0.00     0.296 HD
ENDBRANCH  41  43
ENDBRANCH   1  41
BRANCH   3  45
ATOM     45  O   UNL     1      20.797  27.232  22.292  1.00  0.00    -0.391 OA
ATOM     46  H   UNL     1      20.628  27.022  21.334  1.00  0.00     0.211 HD
ENDBRANCH   3  45
BRANCH   5  47
ATOM     47  C   UNL     1      23.807  28.318  23.340  1.00  0.00     0.176 C 
BRANCH  47  48
ATOM     48  O   UNL     1      24.155  28.656  24.634  1.00  0.00    -0.388 OA
ATOM     49  H   UNL     1      24.761  29.424  24.724  1.00  0.00     0.211 HD
ENDBRANCH  47  48
BRANCH  47  50
ATOM     50  C   UNL     1      24.717  28.939  22.354  1.00  0.00     0.165 C 
BRANCH  50  51
ATOM     51  O   UNL     1      25.854  28.236  22.030  1.00  0.00    -0.388 OA
ATOM     52  H   UNL     1      25.952  27.990  21.083  1.00  0.00     0.211 HD
ENDBRANCH  50  51
BRANCH  50  53
ATOM     53  C   UNL     1      24.808  30.430  22.361  1.00  0.00     0.154 C 
BRANCH  53  54
ATOM     54  N   UNL     1      23.558  31.082  22.482  1.00  0.00    -0.319 N 
ATOM     55  C   UNL     1      22.713  31.356  21.351  1.00  0.00     0.407 C 
ATOM     56  H   UNL     1      23.206  31.385  23.423  1.00  0.00     0.167 HD
ATOM     57  O   UNL     1      23.014  31.041  20.185  1.00  0.00    -0.225 OA
BRANCH  55  58
ATOM     58  O   UNL     1      21.488  31.999  21.531  1.00  0.00    -0.443 OA
BRANCH  58  59
ATOM     59  C   UNL     1      20.997  32.249  22.852  1.00  0.00     0.294 C 
BRANCH  59  60
ATOM     60  C   UNL     1      19.858  31.364  23.165  1.00  0.00     0.120 A 
ATOM     61  C   UNL     1      18.519  31.592  23.305  1.00  0.00     0.138 A 
ATOM     62  N   UNL     1      19.999  30.024  23.384  1.00  0.00    -0.132 NA
ATOM     63  N   UNL     1      17.898  30.448  23.591  1.00  0.00    -0.251 N 
ATOM     64  N   UNL     1      18.845  29.487  23.635  1.00  0.00    -0.067 NA
BRANCH  63  65
ATOM     65  C   UNL     1      16.515  30.180  23.826  1.00  0.00     0.161 C 
BRANCH  65  66
ATOM     66  C   UNL     1      15.604  31.307  23.509  1.00  0.00     0.108 C 
BRANCH  66  67
ATOM     67  N   UNL     1      14.222  31.159  23.698  1.00  0.00    -0.301 NA
ATOM     68  C   UNL     1      13.307  31.989  23.022  1.00  0.00     0.084 C 
ATOM     69  C   UNL     1      13.736  29.814  23.771  1.00  0.00     0.084 C 
ATOM     70  C   UNL     1      12.227  31.102  22.422  1.00  0.00     0.017 C 
ATOM     71  C   UNL     1      12.389  29.782  23.120  1.00  0.00     0.017 C 
ENDBRANCH  66  67
ENDBRANCH  65  66
ENDBRANCH  63  65
ENDBRANCH  59  60
ENDBRANCH  58  59
ENDBRANCH  55  58
ENDBRANCH  53  54
ENDBRANCH  50  53
ENDBRANCH  47  50
ENDBRANCH   5  47
BRANCH   4  72
ATOM     72  N   UNL     1      22.439  25.406  24.895  1.00  0.00    -0.348 N 
ATOM     73  C   UNL     1      22.849  25.528  26.253  1.00  0.00     0.217 C 
ATOM     74  H   UNL     1      22.281  24.438  24.558  1.00  0.00     0.163 HD
ATOM     75  C   UNL     1      23.033  24.286  27.082  1.00  0.00     0.114 C 
ATOM     76  O   UNL     1      23.047  26.648  26.727  1.00  0.00    -0.275 OA
ENDBRANCH   4  72
TORSDOF 32
