REMARK VINA RESULT:    -6.315      6.229     12.785
REMARK INTER + INTRA:         -23.077
REMARK INTER:                 -18.051
REMARK INTRA:                  -5.026
REMARK UNBOUND:                -6.425
REMARK SMILES CC(=O)N[C@@H]1[C@@H](O)C[C@](OC[C@H]2O[C@@H](O[C@H]3[C@H](O)[C@@H](O)[C@H](OCCN=[N+]=[N-])O[C@@H]3CO)[C@H](O)[C@@H](O)[C@H]2O)(C(=O)O)O[C@H]1C(O)[C@H](O)CNC(=O)OCc1cn(-c2ccc(S(=O)(=O)Nc3nccs3)cc2)nn1
REMARK SMILES IDX 43 1 42 2 9 3 8 4 41 5 6 6 5 7 10 8 11 9 12 10 14 11 13 12
REMARK SMILES IDX 32 13 34 14 36 15 15 16 16 17 29 18 28 19 21 20 17 21 19 22
REMARK SMILES IDX 30 23 31 24 22 26 23 27 24 28 25 29 26 30 27 31 18 32 20 34
REMARK SMILES IDX 33 36 35 38 37 40 38 42 39 43 40 44 7 46 4 48 2 49 1 51 3 52
REMARK SMILES IDX 44 53 45 55 46 56 47 58 48 59 49 60 50 62 51 63 52 64 53 65
REMARK SMILES IDX 54 66 72 67 55 68 71 69 56 70 57 71 70 72 58 73 69 74 59 75
REMARK SMILES IDX 60 76 61 77 62 78 63 79 64 81 65 82 68 83 66 84 67 85
REMARK H PARENT 31 25 18 33 20 35 33 37 35 39 37 41 40 45 7 47 4 50 44 54
REMARK H PARENT 46 57 48 61 63 80
REMARK Flexibility Score: inf
ROOT
ATOM      1  C   UNL     1      16.128  28.624  19.121  1.00  0.00     0.176 C 
ENDROOT
BRANCH   1   2
ATOM      2  C   UNL     1      17.257  29.281  19.841  1.00  0.00     0.178 C 
ATOM      3  C   UNL     1      19.476  28.705  20.296  1.00  0.00     0.272 C 
ATOM      4  C   UNL     1      19.364  30.122  20.900  1.00  0.00     0.113 C 
ATOM      5  O   UNL     1      18.238  28.246  19.944  1.00  0.00    -0.332 OA
ATOM      6  C   UNL     1      18.238  30.267  21.850  1.00  0.00     0.145 C 
ATOM      7  C   UNL     1      16.966  29.634  21.279  1.00  0.00     0.142 C 
BRANCH   3   8
ATOM      8  O   UNL     1      20.013  27.844  21.219  1.00  0.00    -0.338 OA
BRANCH   8   9
ATOM      9  C   UNL     1      21.264  28.181  21.671  1.00  0.00     0.199 C 
BRANCH   9  10
ATOM     10  C   UNL     1      21.858  27.156  22.610  1.00  0.00     0.179 C 
ATOM     11  C   UNL     1      21.757  26.095  24.571  1.00  0.00     0.282 C 
ATOM     12  O   UNL     1      20.967  26.749  23.596  1.00  0.00    -0.341 OA
ATOM     13  C   UNL     1      22.025  24.709  24.036  1.00  0.00     0.202 C 
ATOM     14  C   UNL     1      21.709  24.659  22.538  1.00  0.00     0.179 C 
ATOM     15  C   UNL     1      22.262  25.898  21.858  1.00  0.00     0.177 C 
BRANCH  11  16
ATOM     16  O   UNL     1      21.159  26.037  25.783  1.00  0.00    -0.341 OA
BRANCH  16  17
ATOM     17  C   UNL     1      21.587  26.967  26.713  1.00  0.00     0.184 C 
ATOM     18  C   UNL     1      22.420  28.085  26.230  1.00  0.00     0.178 C 
ATOM     19  O   UNL     1      23.263  28.495  27.301  1.00  0.00    -0.341 OA
ATOM     20  C   UNL     1      24.320  27.590  27.472  1.00  0.00     0.281 C 
ATOM     21  C   UNL     1      22.246  26.284  27.905  1.00  0.00     0.180 C 
ATOM     22  C   UNL     1      23.765  26.205  27.747  1.00  0.00     0.202 C 
BRANCH  18  23
ATOM     23  C   UNL     1      21.650  29.362  25.895  1.00  0.00     0.191 C 
BRANCH  23  24
ATOM     24  O   UNL     1      20.398  29.154  25.401  1.00  0.00    -0.394 OA
ATOM     25  H   UNL     1      20.335  29.496  24.480  1.00  0.00     0.210 HD
ENDBRANCH  23  24
ENDBRANCH  18  23
BRANCH  20  26
ATOM     26  O   UNL     1      25.085  28.028  28.529  1.00  0.00    -0.350 OA
BRANCH  26  27
ATOM     27  C   UNL     1      26.203  27.282  28.801  1.00  0.00     0.169 C 
BRANCH  27  28
ATOM     28  C   UNL     1      26.339  26.900  30.255  1.00  0.00     0.119 C 
BRANCH  28  29
ATOM     29  N   UNL     1      27.388  25.917  30.344  1.00  0.00    -0.092 NA
ATOM     30  N   UNL     1      27.537  25.284  31.386  1.00  0.00     0.001 N 
ATOM     31  N   UNL     1      28.019  24.915  32.459  1.00  0.00    -0.003 NA
ENDBRANCH  28  29
ENDBRANCH  27  28
ENDBRANCH  26  27
ENDBRANCH  20  26
BRANCH  21  32
ATOM     32  O   UNL     1      22.005  26.993  29.081  1.00  0.00    -0.387 OA
ATOM     33  H   UNL     1      22.584  27.787  29.146  1.00  0.00     0.211 HD
ENDBRANCH  21  32
BRANCH  22  34
ATOM     34  O   UNL     1      24.127  25.271  26.785  1.00  0.00    -0.385 OA
ATOM     35  H   UNL     1      23.464  25.330  26.063  1.00  0.00     0.211 HD
ENDBRANCH  22  34
ENDBRANCH  16  17
ENDBRANCH  11  16
BRANCH  13  36
ATOM     36  O   UNL     1      23.402  24.374  24.092  1.00  0.00    -0.385 OA
ATOM     37  H   UNL     1      23.537  23.435  24.286  1.00  0.00     0.211 HD
ENDBRANCH  13  36
BRANCH  14  38
ATOM     38  O   UNL     1      20.348  24.491  22.330  1.00  0.00    -0.387 OA
ATOM     39  H   UNL     1      19.899  24.078  23.113  1.00  0.00     0.211 HD
ENDBRANCH  14  38
BRANCH  15  40
ATOM     40  O   UNL     1      21.797  25.908  20.552  1.00  0.00    -0.387 OA
ATOM     41  H   UNL     1      20.837  25.801  20.460  1.00  0.00     0.211 HD
ENDBRANCH  15  40
ENDBRANCH   9  10
ENDBRANCH   8   9
ENDBRANCH   3   8
BRANCH   3  42
ATOM     42  C   UNL     1      20.343  28.852  19.125  1.00  0.00     0.364 C 
ATOM     43  O   UNL     1      20.731  29.991  18.710  1.00  0.00    -0.246 OA
BRANCH  42  44
ATOM     44  O   UNL     1      20.801  27.772  18.391  1.00  0.00    -0.477 OA
ATOM     45  H   UNL     1      20.151  27.016  18.139  1.00  0.00     0.296 HD
ENDBRANCH  42  44
ENDBRANCH   3  42
BRANCH   6  46
ATOM     46  O   UNL     1      18.517  29.757  23.118  1.00  0.00    -0.391 OA
ATOM     47  H   UNL     1      17.772  29.968  23.729  1.00  0.00     0.211 HD
ENDBRANCH   6  46
BRANCH   7  48
ATOM     48  N   UNL     1      15.854  30.487  21.500  1.00  0.00    -0.348 N 
ATOM     49  C   UNL     1      14.636  29.956  22.011  1.00  0.00     0.217 C 
ATOM     50  H   UNL     1      15.889  31.506  21.304  1.00  0.00     0.163 HD
ATOM     51  C   UNL     1      13.437  30.770  22.270  1.00  0.00     0.114 C 
ATOM     52  O   UNL     1      14.566  28.704  22.263  1.00  0.00    -0.275 OA
ENDBRANCH   7  48
ENDBRANCH   1   2
BRANCH   1  53
ATOM     53  O   UNL     1      16.291  27.207  19.235  1.00  0.00    -0.388 OA
ATOM     54  H   UNL     1      17.217  26.981  19.437  1.00  0.00     0.211 HD
ENDBRANCH   1  53
BRANCH   1  55
ATOM     55  C   UNL     1      15.957  28.971  17.670  1.00  0.00     0.165 C 
BRANCH  55  56
ATOM     56  O   UNL     1      17.206  29.590  17.322  1.00  0.00    -0.388 OA
ATOM     57  H   UNL     1      17.941  29.093  17.766  1.00  0.00     0.211 HD
ENDBRANCH  55  56
BRANCH  55  58
ATOM     58  C   UNL     1      14.952  30.100  17.474  1.00  0.00     0.154 C 
BRANCH  58  59
ATOM     59  N   UNL     1      13.890  29.578  16.655  1.00  0.00    -0.319 N 
ATOM     60  C   UNL     1      13.853  29.710  15.242  1.00  0.00     0.407 C 
ATOM     61  H   UNL     1      13.067  29.053  17.099  1.00  0.00     0.167 HD
ATOM     62  O   UNL     1      14.767  30.280  14.635  1.00  0.00    -0.225 OA
BRANCH  60  63
ATOM     63  O   UNL     1      12.792  29.208  14.497  1.00  0.00    -0.443 OA
BRANCH  63  64
ATOM     64  C   UNL     1      12.849  28.778  13.165  1.00  0.00     0.294 C 
BRANCH  64  65
ATOM     65  C   UNL     1      11.547  28.474  12.549  1.00  0.00     0.121 A 
ATOM     66  C   UNL     1      11.330  27.665  11.430  1.00  0.00     0.144 A 
ATOM     67  N   UNL     1      10.329  28.879  12.907  1.00  0.00    -0.131 NA
ATOM     68  N   UNL     1      10.002  27.607  11.151  1.00  0.00    -0.220 N 
ATOM     69  N   UNL     1       9.419  28.357  12.068  1.00  0.00    -0.062 NA
BRANCH  68  70
ATOM     70  C   UNL     1       9.414  26.862  10.071  1.00  0.00     0.066 A 
ATOM     71  C   UNL     1      10.021  26.732   8.855  1.00  0.00     0.030 A 
ATOM     72  C   UNL     1       8.182  26.269  10.281  1.00  0.00     0.030 A 
ATOM     73  C   UNL     1       9.403  26.010   7.835  1.00  0.00     0.024 A 
ATOM     74  C   UNL     1       7.533  25.547   9.308  1.00  0.00     0.024 A 
ATOM     75  C   UNL     1       8.178  25.436   8.084  1.00  0.00     0.088 A 
BRANCH  75  76
ATOM     76  S   UNL     1       7.375  24.530   6.825  1.00  0.00     0.263 S 
ATOM     77  O   UNL     1       7.627  23.058   7.087  1.00  0.00    -0.201 OA
ATOM     78  O   UNL     1       8.055  24.881   5.532  1.00  0.00    -0.201 OA
BRANCH  76  79
ATOM     79  N   UNL     1       5.715  24.908   6.802  1.00  0.00    -0.255 N 
ATOM     80  H   UNL     1       5.078  24.360   7.406  1.00  0.00     0.182 HD
BRANCH  79  81
ATOM     81  C   UNL     1       5.250  25.926   5.986  1.00  0.00     0.196 A 
ATOM     82  N   UNL     1       4.547  26.091   4.934  1.00  0.00    -0.228 NA
ATOM     83  S   UNL     1       5.665  27.700   6.347  1.00  0.00    -0.105 S 
ATOM     84  C   UNL     1       4.271  27.211   4.375  1.00  0.00     0.125 A 
ATOM     85  C   UNL     1       4.750  28.373   4.917  1.00  0.00     0.089 A 
ENDBRANCH  79  81
ENDBRANCH  76  79
ENDBRANCH  75  76
ENDBRANCH  68  70
ENDBRANCH  64  65
ENDBRANCH  63  64
ENDBRANCH  60  63
ENDBRANCH  58  59
ENDBRANCH  55  58
ENDBRANCH   1  55
TORSDOF 33
