REMARK VINA RESULT:    -4.342     13.547     18.577
REMARK INTER + INTRA:         -21.781
REMARK INTER:                 -13.745
REMARK INTRA:                  -8.036
REMARK UNBOUND:               -10.839
REMARK SMILES CC(=O)N[C@@H]1[C@@H](O)C[C@](OC[C@H]2O[C@@H](O[C@H]3[C@H](O)[C@@H](O)[C@H](OCCN=[N+]=[N-])O[C@@H]3CO)[C@H](O)[C@@H](O)[C@H]2O)(C(=O)O)O[C@H]1C(O)[C@H](O)CNC(=O)OCc1cn(-c2ccccc2C(C)C)nn1
REMARK SMILES IDX 9 1 8 2 6 3 5 4 42 5 41 6 10 7 11 8 12 9 14 10 13 11 32 12
REMARK SMILES IDX 34 13 36 14 15 15 16 16 29 17 28 18 21 19 17 20 19 21 30 22
REMARK SMILES IDX 31 23 22 25 23 26 24 27 25 28 26 29 27 30 18 31 20 33 33 35
REMARK SMILES IDX 35 37 37 39 38 41 39 42 40 43 7 45 43 47 44 48 45 50 46 51
REMARK SMILES IDX 47 53 48 54 49 55 50 57 51 58 52 59 53 60 54 61 66 62 55 63
REMARK SMILES IDX 65 64 56 65 61 66 57 67 60 68 58 69 59 70 62 71 63 72 64 73
REMARK SMILES IDX 4 74 2 75 1 77 3 78
REMARK H PARENT 31 24 18 32 20 34 33 36 35 38 37 40 40 44 7 46 44 49 46 52
REMARK H PARENT 48 56 4 76
REMARK Flexibility Score: inf
ROOT
ATOM      1  C   UNL     1      22.813  24.982  23.308  1.00  0.00     0.272 C 
ATOM      2  C   UNL     1      23.278  24.251  22.069  1.00  0.00     0.113 C 
ATOM      3  C   UNL     1      24.565  24.915  21.602  1.00  0.00     0.145 C 
ATOM      4  C   UNL     1      24.181  26.315  21.092  1.00  0.00     0.142 C 
ATOM      5  C   UNL     1      23.360  26.961  22.143  1.00  0.00     0.178 C 
ATOM      6  O   UNL     1      23.472  26.248  23.328  1.00  0.00    -0.332 OA
ENDROOT
BRANCH   1   7
ATOM      7  O   UNL     1      23.235  24.392  24.442  1.00  0.00    -0.338 OA
BRANCH   7   8
ATOM      8  C   UNL     1      24.281  24.575  25.171  1.00  0.00     0.199 C 
BRANCH   8   9
ATOM      9  C   UNL     1      24.267  25.130  26.558  1.00  0.00     0.179 C 
ATOM     10  C   UNL     1      23.973  27.010  27.802  1.00  0.00     0.282 C 
ATOM     11  O   UNL     1      24.288  26.502  26.603  1.00  0.00    -0.341 OA
ATOM     12  C   UNL     1      24.029  26.051  28.983  1.00  0.00     0.202 C 
ATOM     13  C   UNL     1      23.199  24.819  28.739  1.00  0.00     0.179 C 
ATOM     14  C   UNL     1      22.967  24.677  27.264  1.00  0.00     0.177 C 
BRANCH  10  15
ATOM     15  O   UNL     1      22.827  27.736  27.912  1.00  0.00    -0.341 OA
BRANCH  15  16
ATOM     16  C   UNL     1      22.614  28.797  27.068  1.00  0.00     0.184 C 
ATOM     17  C   UNL     1      23.245  30.068  27.531  1.00  0.00     0.178 C 
ATOM     18  O   UNL     1      22.370  31.083  27.702  1.00  0.00    -0.341 OA
ATOM     19  C   UNL     1      21.545  31.455  26.687  1.00  0.00     0.281 C 
ATOM     20  C   UNL     1      21.217  29.004  26.646  1.00  0.00     0.180 C 
ATOM     21  C   UNL     1      21.163  30.267  25.803  1.00  0.00     0.202 C 
BRANCH  17  22
ATOM     22  C   UNL     1      24.371  30.561  26.609  1.00  0.00     0.191 C 
BRANCH  22  23
ATOM     23  O   UNL     1      25.021  29.414  26.098  1.00  0.00    -0.394 OA
ATOM     24  H   UNL     1      25.627  29.750  25.365  1.00  0.00     0.210 HD
ENDBRANCH  22  23
ENDBRANCH  17  22
BRANCH  19  25
ATOM     25  O   UNL     1      22.148  32.390  25.888  1.00  0.00    -0.350 OA
BRANCH  25  26
ATOM     26  C   UNL     1      21.477  33.541  25.621  1.00  0.00     0.169 C 
BRANCH  26  27
ATOM     27  C   UNL     1      21.222  33.894  24.203  1.00  0.00     0.119 C 
BRANCH  27  28
ATOM     28  N   UNL     1      20.256  33.039  23.601  1.00  0.00    -0.092 NA
ATOM     29  N   UNL     1      20.242  32.637  22.455  1.00  0.00     0.001 N 
ATOM     30  N   UNL     1      20.454  32.202  21.329  1.00  0.00    -0.003 NA
ENDBRANCH  27  28
ENDBRANCH  26  27
ENDBRANCH  25  26
ENDBRANCH  19  25
BRANCH  20  31
ATOM     31  O   UNL     1      20.696  27.986  25.850  1.00  0.00    -0.387 OA
ATOM     32  H   UNL     1      21.282  27.202  25.932  1.00  0.00     0.211 HD
ENDBRANCH  20  31
BRANCH  21  33
ATOM     33  O   UNL     1      19.869  30.488  25.327  1.00  0.00    -0.385 OA
ATOM     34  H   UNL     1      19.321  29.715  25.618  1.00  0.00     0.211 HD
ENDBRANCH  21  33
ENDBRANCH  15  16
ENDBRANCH  10  15
BRANCH  12  35
ATOM     35  O   UNL     1      25.356  25.722  29.201  1.00  0.00    -0.385 OA
ATOM     36  H   UNL     1      25.879  26.551  29.439  1.00  0.00     0.211 HD
ENDBRANCH  12  35
BRANCH  13  37
ATOM     37  O   UNL     1      21.990  24.935  29.439  1.00  0.00    -0.387 OA
ATOM     38  H   UNL     1      21.304  25.184  28.772  1.00  0.00     0.211 HD
ENDBRANCH  13  37
BRANCH  14  39
ATOM     39  O   UNL     1      21.967  25.538  26.862  1.00  0.00    -0.387 OA
ATOM     40  H   UNL     1      21.494  25.120  26.099  1.00  0.00     0.211 HD
ENDBRANCH  14  39
ENDBRANCH   8   9
ENDBRANCH   7   8
ENDBRANCH   1   7
BRANCH   1  41
ATOM     41  C   UNL     1      21.367  25.230  23.284  1.00  0.00     0.364 C 
ATOM     42  O   UNL     1      20.863  25.757  24.340  1.00  0.00    -0.246 OA
BRANCH  41  43
ATOM     43  O   UNL     1      20.467  24.972  22.284  1.00  0.00    -0.477 OA
ATOM     44  H   UNL     1      19.765  24.255  22.276  1.00  0.00     0.296 HD
ENDBRANCH  41  43
ENDBRANCH   1  41
BRANCH   3  45
ATOM     45  O   UNL     1      25.398  25.151  22.701  1.00  0.00    -0.391 OA
ATOM     46  H   UNL     1      25.876  26.000  22.526  1.00  0.00     0.211 HD
ENDBRANCH   3  45
BRANCH   5  47
ATOM     47  C   UNL     1      23.693  28.377  22.505  1.00  0.00     0.176 C 
BRANCH  47  48
ATOM     48  O   UNL     1      23.816  28.330  23.938  1.00  0.00    -0.388 OA
ATOM     49  H   UNL     1      22.871  28.104  24.211  1.00  0.00     0.211 HD
ENDBRANCH  47  48
BRANCH  47  50
ATOM     50  C   UNL     1      22.643  29.408  22.234  1.00  0.00     0.165 C 
BRANCH  50  51
ATOM     51  O   UNL     1      22.913  30.637  22.771  1.00  0.00    -0.388 OA
ATOM     52  H   UNL     1      23.896  30.762  22.722  1.00  0.00     0.211 HD
ENDBRANCH  50  51
BRANCH  50  53
ATOM     53  C   UNL     1      21.256  28.894  22.330  1.00  0.00     0.154 C 
BRANCH  53  54
ATOM     54  N   UNL     1      20.448  29.057  21.137  1.00  0.00    -0.319 N 
ATOM     55  C   UNL     1      20.272  28.002  20.210  1.00  0.00     0.407 C 
ATOM     56  H   UNL     1      19.962  29.952  20.911  1.00  0.00     0.167 HD
ATOM     57  O   UNL     1      20.792  26.870  20.337  1.00  0.00    -0.225 OA
BRANCH  55  58
ATOM     58  O   UNL     1      19.482  28.134  19.042  1.00  0.00    -0.443 OA
BRANCH  58  59
ATOM     59  C   UNL     1      18.719  29.284  18.845  1.00  0.00     0.294 C 
BRANCH  59  60
ATOM     60  C   UNL     1      17.491  29.188  19.683  1.00  0.00     0.121 A 
ATOM     61  C   UNL     1      16.634  30.168  20.132  1.00  0.00     0.144 A 
ATOM     62  N   UNL     1      16.957  28.030  20.187  1.00  0.00    -0.131 NA
ATOM     63  N   UNL     1      15.639  29.643  20.865  1.00  0.00    -0.220 N 
ATOM     64  N   UNL     1      15.874  28.323  20.875  1.00  0.00    -0.062 NA
BRANCH  63  65
ATOM     65  C   UNL     1      14.545  30.289  21.507  1.00  0.00     0.070 A 
ATOM     66  C   UNL     1      14.711  30.799  22.775  1.00  0.00    -0.020 A 
ATOM     67  C   UNL     1      13.303  30.428  20.929  1.00  0.00     0.029 A 
ATOM     68  C   UNL     1      13.671  31.421  23.437  1.00  0.00     0.006 A 
ATOM     69  C   UNL     1      12.251  31.049  21.576  1.00  0.00     0.002 A 
ATOM     70  C   UNL     1      12.436  31.552  22.848  1.00  0.00     0.000 A 
BRANCH  66  71
ATOM     71  C   UNL     1      16.031  30.680  23.428  1.00  0.00     0.015 C 
ATOM     72  C   UNL     1      15.804  30.363  24.898  1.00  0.00     0.012 C 
ATOM     73  C   UNL     1      16.760  32.031  23.350  1.00  0.00     0.012 C 
ENDBRANCH  66  71
ENDBRANCH  63  65
ENDBRANCH  59  60
ENDBRANCH  58  59
ENDBRANCH  55  58
ENDBRANCH  53  54
ENDBRANCH  50  53
ENDBRANCH  47  50
ENDBRANCH   5  47
BRANCH   4  74
ATOM     74  N   UNL     1      23.465  26.128  19.850  1.00  0.00    -0.348 N 
ATOM     75  C   UNL     1      23.711  26.832  18.661  1.00  0.00     0.217 C 
ATOM     76  H   UNL     1      22.686  25.403  19.835  1.00  0.00     0.163 HD
ATOM     77  C   UNL     1      22.874  26.522  17.453  1.00  0.00     0.114 C 
ATOM     78  O   UNL     1      24.599  27.692  18.603  1.00  0.00    -0.275 OA
ENDBRANCH   4  74
TORSDOF 31
