REMARK VINA RESULT:    -5.544      8.500     12.965
REMARK INTER + INTRA:         -21.555
REMARK INTER:                 -15.474
REMARK INTRA:                  -6.081
REMARK UNBOUND:                -7.585
REMARK SMILES COc1ccc(-n2cc(COC(=O)NC[C@@H](O)C(O)[C@@H]3O[C@@](OC[C@H]4O[C@@H](O[C@H]5[C@H](O)[C@@H](O)[C@H](OCCN=[N+]=[N-])O[C@@H]5CO)[C@H](O)[C@@H](O)[C@H]4O)(C(=O)O)C[C@H](O)[C@H]3NC(C)=O)nn2)cc1
REMARK SMILES IDX 22 1 54 2 55 3 57 4 20 5 21 6 23 7 24 8 25 9 27 10 26 11
REMARK SMILES IDX 45 12 47 13 49 14 28 15 29 16 42 17 41 18 34 19 30 20 32 21
REMARK SMILES IDX 43 22 44 23 35 25 36 26 37 27 38 28 39 29 40 30 31 31 33 33
REMARK SMILES IDX 46 35 48 37 50 39 51 41 52 42 53 43 56 45 18 47 19 48 16 50
REMARK SMILES IDX 17 51 15 53 14 54 12 55 13 57 11 58 10 59 9 60 8 61 62 62
REMARK SMILES IDX 7 63 63 64 6 65 5 66 64 67 4 68 65 69 3 70 2 71 1 72 58 73
REMARK SMILES IDX 59 74 60 76 61 77
REMARK H PARENT 44 24 31 32 33 34 46 36 48 38 50 40 53 44 56 46 19 49 17 52
REMARK H PARENT 14 56 58 75
REMARK Flexibility Score: inf
ROOT
ATOM      1  C   UNL     1      25.129  26.541  19.550  1.00  0.00     0.272 C 
ATOM      2  C   UNL     1      25.768  27.506  20.478  1.00  0.00     0.113 C 
ATOM      3  C   UNL     1      24.871  28.391  21.251  1.00  0.00     0.145 C 
ATOM      4  C   UNL     1      23.529  28.486  20.498  1.00  0.00     0.142 C 
ATOM      5  C   UNL     1      23.846  28.480  19.044  1.00  0.00     0.178 C 
ATOM      6  O   UNL     1      24.200  27.176  18.705  1.00  0.00    -0.332 OA
ENDROOT
BRANCH   1   7
ATOM      7  O   UNL     1      24.660  25.382  19.887  1.00  0.00    -0.338 OA
BRANCH   7   8
ATOM      8  C   UNL     1      24.717  24.501  20.814  1.00  0.00     0.199 C 
BRANCH   8   9
ATOM      9  C   UNL     1      23.747  24.401  21.956  1.00  0.00     0.179 C 
ATOM     10  C   UNL     1      23.106  25.169  24.011  1.00  0.00     0.282 C 
ATOM     11  O   UNL     1      23.916  25.374  22.881  1.00  0.00    -0.341 OA
ATOM     12  C   UNL     1      21.641  25.142  23.708  1.00  0.00     0.202 C 
ATOM     13  C   UNL     1      21.279  24.891  22.292  1.00  0.00     0.179 C 
ATOM     14  C   UNL     1      22.324  24.241  21.478  1.00  0.00     0.177 C 
BRANCH  10  15
ATOM     15  O   UNL     1      23.371  26.210  24.895  1.00  0.00    -0.341 OA
BRANCH  15  16
ATOM     16  C   UNL     1      24.302  25.886  25.844  1.00  0.00     0.184 C 
ATOM     17  C   UNL     1      23.722  25.770  27.206  1.00  0.00     0.178 C 
ATOM     18  O   UNL     1      24.741  25.533  28.167  1.00  0.00    -0.341 OA
ATOM     19  C   UNL     1      25.455  26.757  28.259  1.00  0.00     0.281 C 
ATOM     20  C   UNL     1      25.383  26.982  25.840  1.00  0.00     0.180 C 
ATOM     21  C   UNL     1      26.321  26.763  26.997  1.00  0.00     0.202 C 
BRANCH  17  22
ATOM     22  C   UNL     1      22.702  24.666  27.295  1.00  0.00     0.191 C 
BRANCH  22  23
ATOM     23  O   UNL     1      23.073  23.787  28.298  1.00  0.00    -0.394 OA
ATOM     24  H   UNL     1      23.490  24.235  29.067  1.00  0.00     0.210 HD
ENDBRANCH  22  23
ENDBRANCH  17  22
BRANCH  19  25
ATOM     25  O   UNL     1      26.195  26.817  29.388  1.00  0.00    -0.350 OA
BRANCH  25  26
ATOM     26  C   UNL     1      26.852  25.711  29.829  1.00  0.00     0.169 C 
BRANCH  26  27
ATOM     27  C   UNL     1      26.755  25.385  31.282  1.00  0.00     0.119 C 
BRANCH  27  28
ATOM     28  N   UNL     1      28.000  25.248  31.976  1.00  0.00    -0.092 NA
ATOM     29  N   UNL     1      28.038  25.040  33.184  1.00  0.00     0.001 N 
ATOM     30  N   UNL     1      27.931  24.954  34.411  1.00  0.00    -0.003 NA
ENDBRANCH  27  28
ENDBRANCH  26  27
ENDBRANCH  25  26
ENDBRANCH  19  25
BRANCH  20  31
ATOM     31  O   UNL     1      26.039  26.953  24.623  1.00  0.00    -0.387 OA
ATOM     32  H   UNL     1      25.410  27.350  23.943  1.00  0.00     0.211 HD
ENDBRANCH  20  31
BRANCH  21  33
ATOM     33  O   UNL     1      27.213  27.807  27.099  1.00  0.00    -0.385 OA
ATOM     34  H   UNL     1      27.290  28.127  28.032  1.00  0.00     0.211 HD
ENDBRANCH  21  33
ENDBRANCH  15  16
ENDBRANCH  10  15
BRANCH  12  35
ATOM     35  O   UNL     1      20.975  24.170  24.474  1.00  0.00    -0.385 OA
ATOM     36  H   UNL     1      20.129  23.898  24.052  1.00  0.00     0.211 HD
ENDBRANCH  12  35
BRANCH  13  37
ATOM     37  O   UNL     1      20.764  26.057  21.713  1.00  0.00    -0.387 OA
ATOM     38  H   UNL     1      21.244  26.867  21.980  1.00  0.00     0.211 HD
ENDBRANCH  13  37
BRANCH  14  39
ATOM     39  O   UNL     1      22.177  24.647  20.149  1.00  0.00    -0.387 OA
ATOM     40  H   UNL     1      21.502  24.049  19.740  1.00  0.00     0.211 HD
ENDBRANCH  14  39
ENDBRANCH   8   9
ENDBRANCH   7   8
ENDBRANCH   1   7
BRANCH   1  41
ATOM     41  C   UNL     1      26.275  26.255  18.527  1.00  0.00     0.364 C 
ATOM     42  O   UNL     1      27.431  26.078  18.919  1.00  0.00    -0.246 OA
BRANCH  41  43
ATOM     43  O   UNL     1      25.910  26.215  17.205  1.00  0.00    -0.477 OA
ATOM     44  H   UNL     1      26.566  26.473  16.453  1.00  0.00     0.296 HD
ENDBRANCH  41  43
ENDBRANCH   1  41
BRANCH   3  45
ATOM     45  O   UNL     1      24.705  28.103  22.575  1.00  0.00    -0.391 OA
ATOM     46  H   UNL     1      24.202  27.283  22.779  1.00  0.00     0.211 HD
ENDBRANCH   3  45
BRANCH   5  47
ATOM     47  C   UNL     1      22.625  28.800  18.150  1.00  0.00     0.176 C 
BRANCH  47  48
ATOM     48  O   UNL     1      22.453  30.144  18.024  1.00  0.00    -0.388 OA
ATOM     49  H   UNL     1      21.493  30.346  17.932  1.00  0.00     0.211 HD
ENDBRANCH  47  48
BRANCH  47  50
ATOM     50  C   UNL     1      22.501  27.894  17.035  1.00  0.00     0.165 C 
BRANCH  50  51
ATOM     51  O   UNL     1      23.596  27.863  16.129  1.00  0.00    -0.388 OA
ATOM     52  H   UNL     1      24.255  28.486  16.495  1.00  0.00     0.211 HD
ENDBRANCH  50  51
BRANCH  50  53
ATOM     53  C   UNL     1      21.311  27.786  16.174  1.00  0.00     0.154 C 
BRANCH  53  54
ATOM     54  N   UNL     1      20.088  28.268  16.632  1.00  0.00    -0.319 N 
ATOM     55  C   UNL     1      19.560  29.552  16.430  1.00  0.00     0.407 C 
ATOM     56  H   UNL     1      19.468  27.598  17.204  1.00  0.00     0.167 HD
ATOM     57  O   UNL     1      20.161  30.415  15.770  1.00  0.00    -0.225 OA
BRANCH  55  58
ATOM     58  O   UNL     1      18.304  29.876  16.991  1.00  0.00    -0.443 OA
BRANCH  58  59
ATOM     59  C   UNL     1      17.292  28.904  16.913  1.00  0.00     0.294 C 
BRANCH  59  60
ATOM     60  C   UNL     1      16.736  28.648  18.263  1.00  0.00     0.121 A 
ATOM     61  C   UNL     1      15.919  29.439  19.048  1.00  0.00     0.144 A 
ATOM     62  N   UNL     1      16.949  27.518  18.965  1.00  0.00    -0.131 NA
ATOM     63  N   UNL     1      15.673  28.766  20.178  1.00  0.00    -0.220 N 
ATOM     64  N   UNL     1      16.314  27.595  20.103  1.00  0.00    -0.062 NA
BRANCH  63  65
ATOM     65  C   UNL     1      14.898  29.091  21.322  1.00  0.00     0.067 A 
ATOM     66  C   UNL     1      13.529  29.123  21.339  1.00  0.00     0.032 A 
ATOM     67  C   UNL     1      15.556  29.411  22.508  1.00  0.00     0.032 A 
ATOM     68  C   UNL     1      12.833  29.460  22.491  1.00  0.00     0.048 A 
ATOM     69  C   UNL     1      14.863  29.747  23.654  1.00  0.00     0.048 A 
ATOM     70  C   UNL     1      13.484  29.778  23.669  1.00  0.00     0.119 A 
BRANCH  70  71
ATOM     71  O   UNL     1      12.764  30.120  24.830  1.00  0.00    -0.497 OA
ATOM     72  C   UNL     1      13.292  31.188  25.629  1.00  0.00     0.278 C 
ENDBRANCH  70  71
ENDBRANCH  63  65
ENDBRANCH  59  60
ENDBRANCH  58  59
ENDBRANCH  55  58
ENDBRANCH  53  54
ENDBRANCH  50  53
ENDBRANCH  47  50
ENDBRANCH   5  47
BRANCH   4  73
ATOM     73  N   UNL     1      22.788  29.599  21.022  1.00  0.00    -0.348 N 
ATOM     74  C   UNL     1      21.936  29.451  22.146  1.00  0.00     0.217 C 
ATOM     75  H   UNL     1      22.901  30.533  20.591  1.00  0.00     0.163 HD
ATOM     76  C   UNL     1      21.179  30.619  22.668  1.00  0.00     0.114 C 
ATOM     77  O   UNL     1      21.780  28.354  22.743  1.00  0.00    -0.275 OA
ENDBRANCH   4  73
TORSDOF 31
