REMARK VINA RESULT:    -6.837      2.837      6.210
REMARK INTER + INTRA:         -22.421
REMARK INTER:                 -14.231
REMARK INTRA:                  -8.190
REMARK UNBOUND:                -5.593
REMARK SMILES CC(=O)N[C@@H]1[C@@H](O)C[C@](OC[C@H]2O[C@@H](O[C@H]3[C@H](O)[C@@H](O)[C@H](OCCN=[N+]=[N-])O[C@@H]3CO)[C@H](O)[C@@H](O)[C@H]2O)(C(=O)O)O[C@H]1C(O)[C@H](O)CNC(=O)OCc1cn(C2c3ccccc3-c3ccccc32)nn1
REMARK SMILES IDX 9 1 8 2 6 3 5 4 42 5 41 6 10 7 11 8 12 9 14 10 13 11 32 12
REMARK SMILES IDX 34 13 36 14 15 15 16 16 29 17 28 18 21 19 17 20 19 21 30 22
REMARK SMILES IDX 31 23 22 25 23 26 24 27 25 28 26 29 27 30 18 31 20 33 33 35
REMARK SMILES IDX 35 37 37 39 38 41 39 42 40 43 7 45 43 47 44 48 45 50 46 51
REMARK SMILES IDX 47 53 48 54 49 55 50 57 51 58 52 59 53 60 54 61 70 62 55 63
REMARK SMILES IDX 69 64 56 65 57 66 68 67 58 68 62 69 63 70 67 71 59 72 61 73
REMARK SMILES IDX 64 74 66 75 60 76 65 77 4 78 2 79 1 81 3 82
REMARK H PARENT 31 24 18 32 20 34 33 36 35 38 37 40 40 44 7 46 44 49 46 52
REMARK H PARENT 48 56 4 80
REMARK Flexibility Score: inf
ROOT
ATOM      1  C   UNL     1      21.044  27.889  21.195  1.00  0.00     0.272 C 
ATOM      2  C   UNL     1      22.224  28.636  20.724  1.00  0.00     0.113 C 
ATOM      3  C   UNL     1      21.880  29.938  20.106  1.00  0.00     0.145 C 
ATOM      4  C   UNL     1      20.458  30.033  19.628  1.00  0.00     0.142 C 
ATOM      5  C   UNL     1      19.980  28.671  19.261  1.00  0.00     0.178 C 
ATOM      6  O   UNL     1      20.058  27.706  20.214  1.00  0.00    -0.332 OA
ENDROOT
BRANCH   1   7
ATOM      7  O   UNL     1      20.449  28.444  22.297  1.00  0.00    -0.338 OA
BRANCH   7   8
ATOM      8  C   UNL     1      21.196  28.497  23.443  1.00  0.00     0.199 C 
BRANCH   8   9
ATOM      9  C   UNL     1      20.717  29.632  24.321  1.00  0.00     0.179 C 
ATOM     10  C   UNL     1      21.392  28.570  26.299  1.00  0.00     0.282 C 
ATOM     11  O   UNL     1      20.385  29.111  25.550  1.00  0.00    -0.341 OA
ATOM     12  C   UNL     1      22.588  29.443  26.307  1.00  0.00     0.202 C 
ATOM     13  C   UNL     1      22.075  30.852  25.956  1.00  0.00     0.179 C 
ATOM     14  C   UNL     1      21.735  30.731  24.455  1.00  0.00     0.177 C 
BRANCH  10  15
ATOM     15  O   UNL     1      21.571  27.239  26.036  1.00  0.00    -0.341 OA
BRANCH  15  16
ATOM     16  C   UNL     1      22.745  26.677  26.462  1.00  0.00     0.184 C 
ATOM     17  C   UNL     1      23.306  25.769  25.433  1.00  0.00     0.178 C 
ATOM     18  O   UNL     1      23.870  24.612  25.961  1.00  0.00    -0.341 OA
ATOM     19  C   UNL     1      24.449  24.785  27.176  1.00  0.00     0.281 C 
ATOM     20  C   UNL     1      22.375  25.948  27.751  1.00  0.00     0.180 C 
ATOM     21  C   UNL     1      23.336  24.930  28.208  1.00  0.00     0.202 C 
BRANCH  17  22
ATOM     22  C   UNL     1      24.375  26.443  24.601  1.00  0.00     0.191 C 
BRANCH  22  23
ATOM     23  O   UNL     1      23.807  27.460  23.796  1.00  0.00    -0.394 OA
ATOM     24  H   UNL     1      23.153  27.992  24.343  1.00  0.00     0.210 HD
ENDBRANCH  22  23
ENDBRANCH  17  22
BRANCH  19  25
ATOM     25  O   UNL     1      25.268  25.889  27.323  1.00  0.00    -0.350 OA
BRANCH  25  26
ATOM     26  C   UNL     1      25.869  25.989  28.545  1.00  0.00     0.169 C 
BRANCH  26  27
ATOM     27  C   UNL     1      26.108  27.364  29.065  1.00  0.00     0.119 C 
BRANCH  27  28
ATOM     28  N   UNL     1      24.915  27.993  29.592  1.00  0.00    -0.092 NA
ATOM     29  N   UNL     1      24.719  27.866  30.808  1.00  0.00     0.001 N 
ATOM     30  N   UNL     1      24.400  27.697  31.990  1.00  0.00    -0.003 NA
ENDBRANCH  27  28
ENDBRANCH  26  27
ENDBRANCH  25  26
ENDBRANCH  19  25
BRANCH  20  31
ATOM     31  O   UNL     1      22.226  26.904  28.791  1.00  0.00    -0.387 OA
ATOM     32  H   UNL     1      22.704  26.602  29.604  1.00  0.00     0.211 HD
ENDBRANCH  20  31
BRANCH  21  33
ATOM     33  O   UNL     1      22.714  23.678  28.304  1.00  0.00    -0.385 OA
ATOM     34  H   UNL     1      23.334  22.967  28.609  1.00  0.00     0.211 HD
ENDBRANCH  21  33
ENDBRANCH  15  16
ENDBRANCH  10  15
BRANCH  12  35
ATOM     35  O   UNL     1      23.172  29.578  27.566  1.00  0.00    -0.385 OA
ATOM     36  H   UNL     1      24.017  29.070  27.574  1.00  0.00     0.211 HD
ENDBRANCH  12  35
BRANCH  13  37
ATOM     37  O   UNL     1      23.068  31.796  26.066  1.00  0.00    -0.387 OA
ATOM     38  H   UNL     1      23.884  31.447  25.631  1.00  0.00     0.211 HD
ENDBRANCH  13  37
BRANCH  14  39
ATOM     39  O   UNL     1      22.910  30.345  23.839  1.00  0.00    -0.387 OA
ATOM     40  H   UNL     1      22.799  30.166  22.873  1.00  0.00     0.211 HD
ENDBRANCH  14  39
ENDBRANCH   8   9
ENDBRANCH   7   8
ENDBRANCH   1   7
BRANCH   1  41
ATOM     41  C   UNL     1      21.433  26.445  21.513  1.00  0.00     0.364 C 
ATOM     42  O   UNL     1      22.610  26.117  21.333  1.00  0.00    -0.246 OA
BRANCH  41  43
ATOM     43  O   UNL     1      20.516  25.538  21.982  1.00  0.00    -0.477 OA
ATOM     44  H   UNL     1      20.730  24.534  22.027  1.00  0.00     0.296 HD
ENDBRANCH  41  43
ENDBRANCH   1  41
BRANCH   3  45
ATOM     45  O   UNL     1      22.167  31.056  20.891  1.00  0.00    -0.391 OA
ATOM     46  H   UNL     1      21.608  31.821  20.692  1.00  0.00     0.211 HD
ENDBRANCH   3  45
BRANCH   5  47
ATOM     47  C   UNL     1      18.531  28.775  18.790  1.00  0.00     0.176 C 
BRANCH  47  48
ATOM     48  O   UNL     1      17.701  28.256  19.750  1.00  0.00    -0.388 OA
ATOM     49  H   UNL     1      16.837  28.766  19.801  1.00  0.00     0.211 HD
ENDBRANCH  47  48
BRANCH  47  50
ATOM     50  C   UNL     1      18.409  28.051  17.484  1.00  0.00     0.165 C 
BRANCH  50  51
ATOM     51  O   UNL     1      19.658  28.032  16.838  1.00  0.00    -0.388 OA
ATOM     52  H   UNL     1      20.388  28.009  17.496  1.00  0.00     0.211 HD
ENDBRANCH  50  51
BRANCH  50  53
ATOM     53  C   UNL     1      17.511  28.909  16.584  1.00  0.00     0.154 C 
BRANCH  53  54
ATOM     54  N   UNL     1      16.172  28.817  17.081  1.00  0.00    -0.319 N 
ATOM     55  C   UNL     1      15.313  29.935  17.049  1.00  0.00     0.407 C 
ATOM     56  H   UNL     1      15.824  27.909  17.472  1.00  0.00     0.167 HD
ATOM     57  O   UNL     1      15.699  31.043  16.595  1.00  0.00    -0.225 OA
BRANCH  55  58
ATOM     58  O   UNL     1      14.013  29.870  17.508  1.00  0.00    -0.443 OA
BRANCH  58  59
ATOM     59  C   UNL     1      13.576  30.529  18.687  1.00  0.00     0.294 C 
BRANCH  59  60
ATOM     60  C   UNL     1      14.248  29.873  19.837  1.00  0.00     0.120 A 
ATOM     61  C   UNL     1      14.749  30.465  20.988  1.00  0.00     0.139 A 
ATOM     62  N   UNL     1      14.494  28.562  19.976  1.00  0.00    -0.132 NA
ATOM     63  N   UNL     1      15.274  29.514  21.777  1.00  0.00    -0.240 N 
ATOM     64  N   UNL     1      15.103  28.369  21.134  1.00  0.00    -0.066 NA
BRANCH  63  65
ATOM     65  C   UNL     1      15.905  29.707  23.084  1.00  0.00     0.170 C 
ATOM     66  C   UNL     1      14.885  30.195  24.016  1.00  0.00    -0.011 A 
ATOM     67  C   UNL     1      16.888  30.804  23.024  1.00  0.00    -0.011 A 
ATOM     68  C   UNL     1      13.709  29.624  24.488  1.00  0.00     0.007 A 
ATOM     69  C   UNL     1      15.200  31.446  24.474  1.00  0.00    -0.012 A 
ATOM     70  C   UNL     1      16.463  31.822  23.844  1.00  0.00    -0.012 A 
ATOM     71  C   UNL     1      18.075  30.963  22.334  1.00  0.00     0.007 A 
ATOM     72  C   UNL     1      12.906  30.300  25.379  1.00  0.00     0.000 A 
ATOM     73  C   UNL     1      14.389  32.126  25.371  1.00  0.00     0.009 A 
ATOM     74  C   UNL     1      17.199  32.978  23.981  1.00  0.00     0.009 A 
ATOM     75  C   UNL     1      18.825  32.110  22.457  1.00  0.00     0.000 A 
ATOM     76  C   UNL     1      13.225  31.568  25.843  1.00  0.00     0.001 A 
ATOM     77  C   UNL     1      18.385  33.122  23.284  1.00  0.00     0.001 A 
ENDBRANCH  63  65
ENDBRANCH  59  60
ENDBRANCH  58  59
ENDBRANCH  55  58
ENDBRANCH  53  54
ENDBRANCH  50  53
ENDBRANCH  47  50
ENDBRANCH   5  47
BRANCH   4  78
ATOM     78  N   UNL     1      20.498  30.805  18.370  1.00  0.00    -0.348 N 
ATOM     79  C   UNL     1      20.281  32.206  18.350  1.00  0.00     0.217 C 
ATOM     80  H   UNL     1      20.688  30.289  17.500  1.00  0.00     0.163 HD
ATOM     81  C   UNL     1      20.325  32.975  17.066  1.00  0.00     0.114 C 
ATOM     82  O   UNL     1      20.051  32.786  19.447  1.00  0.00    -0.275 OA
ENDBRANCH   4  78
TORSDOF 30
