REMARK VINA RESULT:    -4.333     20.395     25.419
REMARK INTER + INTRA:         -22.844
REMARK INTER:                 -17.671
REMARK INTRA:                  -5.173
REMARK UNBOUND:               -11.418
REMARK SMILES CC(=O)N[C@@H]1[C@@H](O)C[C@](OC[C@H]2O[C@@H](O[C@H]3[C@H](O)[C@@H](O)[C@H](OCCN=[N+]=[N-])O[C@@H]3CO)[C@H](O)[C@@H](O)[C@H]2O)(C(=O)O)O[C@H]1C(O)[C@H](O)CNC(=O)OCc1cn(CC(=O)NCc2cccs2)nn1
REMARK SMILES IDX 43 1 42 2 9 3 8 4 41 5 6 6 5 7 10 8 11 9 12 10 14 11 13 12
REMARK SMILES IDX 32 13 34 14 36 15 15 16 16 17 29 18 28 19 21 20 17 21 19 22
REMARK SMILES IDX 30 23 31 24 22 26 23 27 24 28 25 29 26 30 27 31 18 32 20 34
REMARK SMILES IDX 33 36 35 38 37 40 38 42 39 43 40 44 7 46 4 48 2 49 1 51 3 52
REMARK SMILES IDX 44 53 45 55 46 56 47 58 48 59 49 60 50 62 51 63 52 64 53 65
REMARK SMILES IDX 54 66 67 67 55 68 66 69 56 70 57 71 58 72 59 73 60 75 61 76
REMARK SMILES IDX 62 77 65 78 63 79 64 80
REMARK H PARENT 31 25 18 33 20 35 33 37 35 39 37 41 40 45 7 47 4 50 44 54
REMARK H PARENT 46 57 48 61 59 74
REMARK Flexibility Score: inf
ROOT
ATOM      1  C   UNL     1      31.581  20.710  26.290  1.00  0.00     0.176 C 
ENDROOT
BRANCH   1   2
ATOM      2  C   UNL     1      32.758  19.783  26.447  1.00  0.00     0.178 C 
ATOM      3  C   UNL     1      33.174  18.413  24.564  1.00  0.00     0.272 C 
ATOM      4  C   UNL     1      32.142  17.432  25.143  1.00  0.00     0.113 C 
ATOM      5  O   UNL     1      33.295  19.569  25.226  1.00  0.00    -0.332 OA
ATOM      6  C   UNL     1      32.379  17.301  26.593  1.00  0.00     0.145 C 
ATOM      7  C   UNL     1      32.548  18.609  27.321  1.00  0.00     0.142 C 
BRANCH   3   8
ATOM      8  O   UNL     1      32.750  18.617  23.272  1.00  0.00    -0.338 OA
BRANCH   8   9
ATOM      9  C   UNL     1      32.320  19.811  22.859  1.00  0.00     0.199 C 
BRANCH   9  10
ATOM     10  C   UNL     1      30.867  20.010  22.538  1.00  0.00     0.179 C 
ATOM     11  C   UNL     1      29.657  21.204  20.996  1.00  0.00     0.282 C 
ATOM     12  O   UNL     1      30.852  20.504  21.211  1.00  0.00    -0.341 OA
ATOM     13  C   UNL     1      28.477  20.462  21.529  1.00  0.00     0.202 C 
ATOM     14  C   UNL     1      28.725  19.033  21.883  1.00  0.00     0.179 C 
ATOM     15  C   UNL     1      30.070  18.725  22.459  1.00  0.00     0.177 C 
BRANCH  11  16
ATOM     16  O   UNL     1      29.470  21.539  19.684  1.00  0.00    -0.341 OA
BRANCH  16  17
ATOM     17  C   UNL     1      29.329  22.910  19.476  1.00  0.00     0.184 C 
ATOM     18  C   UNL     1      29.219  23.696  20.707  1.00  0.00     0.178 C 
ATOM     19  O   UNL     1      28.019  24.280  21.008  1.00  0.00    -0.341 OA
ATOM     20  C   UNL     1      26.932  23.927  20.275  1.00  0.00     0.281 C 
ATOM     21  C   UNL     1      28.253  23.096  18.444  1.00  0.00     0.180 C 
ATOM     22  C   UNL     1      27.280  24.191  18.800  1.00  0.00     0.202 C 
BRANCH  18  23
ATOM     23  C   UNL     1      30.229  24.861  20.683  1.00  0.00     0.191 C 
BRANCH  23  24
ATOM     24  O   UNL     1      30.781  25.049  19.434  1.00  0.00    -0.394 OA
ATOM     25  H   UNL     1      31.199  24.192  19.151  1.00  0.00     0.210 HD
ENDBRANCH  23  24
ENDBRANCH  18  23
BRANCH  20  26
ATOM     26  O   UNL     1      25.895  24.836  20.548  1.00  0.00    -0.350 OA
BRANCH  26  27
ATOM     27  C   UNL     1      24.795  24.211  21.098  1.00  0.00     0.169 C 
BRANCH  27  28
ATOM     28  C   UNL     1      23.552  24.900  20.528  1.00  0.00     0.119 C 
BRANCH  28  29
ATOM     29  N   UNL     1      23.408  24.541  19.125  1.00  0.00    -0.092 NA
ATOM     30  N   UNL     1      22.813  25.300  18.362  1.00  0.00     0.001 N 
ATOM     31  N   UNL     1      22.404  26.109  17.508  1.00  0.00    -0.003 NA
ENDBRANCH  28  29
ENDBRANCH  27  28
ENDBRANCH  26  27
ENDBRANCH  20  26
BRANCH  21  32
ATOM     32  O   UNL     1      28.759  23.275  17.153  1.00  0.00    -0.387 OA
ATOM     33  H   UNL     1      28.800  22.400  16.659  1.00  0.00     0.211 HD
ENDBRANCH  21  32
BRANCH  22  34
ATOM     34  O   UNL     1      26.163  24.057  17.999  1.00  0.00    -0.385 OA
ATOM     35  H   UNL     1      25.386  23.744  18.529  1.00  0.00     0.211 HD
ENDBRANCH  22  34
ENDBRANCH  16  17
ENDBRANCH  11  16
BRANCH  13  36
ATOM     36  O   UNL     1      27.891  21.134  22.626  1.00  0.00    -0.385 OA
ATOM     37  H   UNL     1      27.942  22.101  22.560  1.00  0.00     0.211 HD
ENDBRANCH  13  36
BRANCH  14  38
ATOM     38  O   UNL     1      28.422  18.190  20.788  1.00  0.00    -0.387 OA
ATOM     39  H   UNL     1      27.512  18.390  20.458  1.00  0.00     0.211 HD
ENDBRANCH  14  38
BRANCH  15  40
ATOM     40  O   UNL     1      30.707  17.857  21.540  1.00  0.00    -0.387 OA
ATOM     41  H   UNL     1      31.632  18.132  21.348  1.00  0.00     0.211 HD
ENDBRANCH  15  40
ENDBRANCH   9  10
ENDBRANCH   8   9
ENDBRANCH   3   8
BRANCH   3  42
ATOM     42  C   UNL     1      34.463  17.653  24.604  1.00  0.00     0.364 C 
ATOM     43  O   UNL     1      35.509  18.057  25.159  1.00  0.00    -0.246 OA
BRANCH  42  44
ATOM     44  O   UNL     1      34.531  16.407  23.993  1.00  0.00    -0.477 OA
ATOM     45  H   UNL     1      34.986  15.632  24.458  1.00  0.00     0.296 HD
ENDBRANCH  42  44
ENDBRANCH   3  42
BRANCH   6  46
ATOM     46  O   UNL     1      31.329  16.530  27.170  1.00  0.00    -0.391 OA
ATOM     47  H   UNL     1      31.379  16.538  28.151  1.00  0.00     0.211 HD
ENDBRANCH   6  46
BRANCH   7  48
ATOM     48  N   UNL     1      33.571  18.502  28.342  1.00  0.00    -0.348 N 
ATOM     49  C   UNL     1      33.216  18.511  29.707  1.00  0.00     0.217 C 
ATOM     50  H   UNL     1      34.594  18.421  28.100  1.00  0.00     0.163 HD
ATOM     51  C   UNL     1      34.283  18.401  30.744  1.00  0.00     0.114 C 
ATOM     52  O   UNL     1      32.037  18.608  30.121  1.00  0.00    -0.275 OA
ENDBRANCH   7  48
ENDBRANCH   1   2
BRANCH   1  53
ATOM     53  O   UNL     1      30.576  20.551  27.199  1.00  0.00    -0.388 OA
ATOM     54  H   UNL     1      29.686  20.860  26.929  1.00  0.00     0.211 HD
ENDBRANCH   1  53
BRANCH   1  55
ATOM     55  C   UNL     1      31.937  22.160  26.038  1.00  0.00     0.165 C 
BRANCH  55  56
ATOM     56  O   UNL     1      32.673  22.350  24.908  1.00  0.00    -0.388 OA
ATOM     57  H   UNL     1      33.458  21.768  24.816  1.00  0.00     0.211 HD
ENDBRANCH  55  56
BRANCH  55  58
ATOM     58  C   UNL     1      32.633  22.744  27.254  1.00  0.00     0.154 C 
BRANCH  58  59
ATOM     59  N   UNL     1      31.720  23.147  28.283  1.00  0.00    -0.319 N 
ATOM     60  C   UNL     1      31.310  24.467  28.590  1.00  0.00     0.407 C 
ATOM     61  H   UNL     1      31.261  22.407  28.927  1.00  0.00     0.167 HD
ATOM     62  O   UNL     1      31.718  25.443  27.961  1.00  0.00    -0.225 OA
BRANCH  60  63
ATOM     63  O   UNL     1      30.408  24.727  29.641  1.00  0.00    -0.443 OA
BRANCH  63  64
ATOM     64  C   UNL     1      29.742  25.931  29.844  1.00  0.00     0.294 C 
BRANCH  64  65
ATOM     65  C   UNL     1      28.276  25.841  29.798  1.00  0.00     0.120 A 
ATOM     66  C   UNL     1      27.436  25.452  30.818  1.00  0.00     0.138 A 
ATOM     67  N   UNL     1      27.471  26.129  28.741  1.00  0.00    -0.132 NA
ATOM     68  N   UNL     1      26.173  25.509  30.375  1.00  0.00    -0.243 N 
ATOM     69  N   UNL     1      26.231  25.919  29.130  1.00  0.00    -0.067 NA
BRANCH  68  70
ATOM     70  C   UNL     1      24.927  25.210  31.046  1.00  0.00     0.245 C 
BRANCH  70  71
ATOM     71  C   UNL     1      23.815  25.535  30.133  1.00  0.00     0.242 C 
ATOM     72  O   UNL     1      23.163  26.583  30.287  1.00  0.00    -0.273 OA
ATOM     73  N   UNL     1      23.477  24.659  29.074  1.00  0.00    -0.350 N 
ATOM     74  H   UNL     1      24.005  23.757  28.909  1.00  0.00     0.163 HD
BRANCH  73  75
ATOM     75  C   UNL     1      22.407  24.939  28.166  1.00  0.00     0.162 C 
BRANCH  75  76
ATOM     76  C   UNL     1      22.906  24.850  26.786  1.00  0.00     0.024 A 
ATOM     77  C   UNL     1      22.265  24.654  25.607  1.00  0.00     0.017 A 
ATOM     78  S   UNL     1      24.593  24.997  26.315  1.00  0.00    -0.147 S 
ATOM     79  C   UNL     1      22.975  24.620  24.469  1.00  0.00     0.012 A 
ATOM     80  C   UNL     1      24.311  24.778  24.500  1.00  0.00     0.065 A 
ENDBRANCH  75  76
ENDBRANCH  73  75
ENDBRANCH  70  71
ENDBRANCH  68  70
ENDBRANCH  64  65
ENDBRANCH  63  64
ENDBRANCH  60  63
ENDBRANCH  58  59
ENDBRANCH  55  58
ENDBRANCH   1  55
TORSDOF 33
