REMARK VINA RESULT:    -5.225      9.913     15.915
REMARK INTER + INTRA:         -21.092
REMARK INTER:                 -11.092
REMARK INTRA:                 -10.000
REMARK UNBOUND:                -7.010
REMARK SMILES CC(=O)N[C@@H]1[C@@H](O)C[C@](OC[C@H]2O[C@@H](O[C@H]3[C@H](O)[C@@H](O)[C@H](OCCN=[N+]=[N-])O[C@@H]3CO)[C@H](O)[C@@H](O)[C@H]2O)(C(=O)O)O[C@H]1C(O)[C@H](O)CNC(=O)OCc1cn([C@@H](CC(=O)O)C(=O)O)nn1
REMARK SMILES IDX 43 1 42 2 9 3 8 4 41 5 6 6 5 7 10 8 11 9 12 10 14 11 13 12
REMARK SMILES IDX 32 13 34 14 36 15 15 16 16 17 29 18 28 19 21 20 17 21 19 22
REMARK SMILES IDX 30 23 31 24 22 26 23 27 24 28 25 29 26 30 27 31 18 32 20 34
REMARK SMILES IDX 33 36 35 38 37 40 38 42 39 43 40 44 7 46 4 48 2 49 1 51 3 52
REMARK SMILES IDX 44 53 45 55 46 56 47 58 48 59 49 60 50 62 51 63 52 64 53 65
REMARK SMILES IDX 54 66 65 67 55 68 64 69 56 70 57 71 58 72 59 73 60 74 61 76
REMARK SMILES IDX 62 77 63 78
REMARK H PARENT 31 25 18 33 20 35 33 37 35 39 37 41 40 45 7 47 4 50 44 54
REMARK H PARENT 46 57 48 61 60 75 63 79
REMARK Flexibility Score: inf
ROOT
ATOM      1  C   UNL     1      19.250  18.235   8.737  1.00  0.00     0.176 C 
ENDROOT
BRANCH   1   2
ATOM      2  C   UNL     1      20.503  17.531   8.249  1.00  0.00     0.178 C 
ATOM      3  C   UNL     1      22.428  16.462   9.074  1.00  0.00     0.272 C 
ATOM      4  C   UNL     1      22.788  16.769   7.614  1.00  0.00     0.113 C 
ATOM      5  O   UNL     1      21.253  17.203   9.336  1.00  0.00    -0.332 OA
ATOM      6  C   UNL     1      22.658  18.279   7.476  1.00  0.00     0.145 C 
ATOM      7  C   UNL     1      21.150  18.482   7.258  1.00  0.00     0.142 C 
BRANCH   3   8
ATOM      8  O   UNL     1      23.361  16.764   9.853  1.00  0.00    -0.338 OA
BRANCH   8   9
ATOM      9  C   UNL     1      24.291  17.053  10.628  1.00  0.00     0.199 C 
BRANCH   9  10
ATOM     10  C   UNL     1      23.972  17.131  12.121  1.00  0.00     0.179 C 
ATOM     11  C   UNL     1      25.755  18.324  12.955  1.00  0.00     0.282 C 
ATOM     12  O   UNL     1      25.043  17.159  12.948  1.00  0.00    -0.341 OA
ATOM     13  C   UNL     1      24.921  19.508  13.259  1.00  0.00     0.202 C 
ATOM     14  C   UNL     1      23.546  18.964  13.680  1.00  0.00     0.179 C 
ATOM     15  C   UNL     1      23.018  18.255  12.447  1.00  0.00     0.177 C 
BRANCH  11  16
ATOM     16  O   UNL     1      26.692  18.469  11.944  1.00  0.00    -0.341 OA
BRANCH  16  17
ATOM     17  C   UNL     1      27.841  19.111  12.343  1.00  0.00     0.184 C 
ATOM     18  C   UNL     1      28.404  19.973  11.271  1.00  0.00     0.178 C 
ATOM     19  O   UNL     1      29.530  20.658  11.709  1.00  0.00    -0.341 OA
ATOM     20  C   UNL     1      30.352  19.913  12.561  1.00  0.00     0.281 C 
ATOM     21  C   UNL     1      28.840  18.009  12.687  1.00  0.00     0.180 C 
ATOM     22  C   UNL     1      30.207  18.426  12.249  1.00  0.00     0.202 C 
BRANCH  18  23
ATOM     23  C   UNL     1      27.366  21.050  10.957  1.00  0.00     0.191 C 
BRANCH  23  24
ATOM     24  O   UNL     1      26.968  21.654  12.167  1.00  0.00    -0.394 OA
ATOM     25  H   UNL     1      26.040  21.307  12.327  1.00  0.00     0.210 HD
ENDBRANCH  23  24
ENDBRANCH  18  23
BRANCH  20  26
ATOM     26  O   UNL     1      29.902  20.113  13.852  1.00  0.00    -0.350 OA
BRANCH  26  27
ATOM     27  C   UNL     1      30.131  21.337  14.401  1.00  0.00     0.169 C 
BRANCH  27  28
ATOM     28  C   UNL     1      28.886  21.882  15.033  1.00  0.00     0.119 C 
BRANCH  28  29
ATOM     29  N   UNL     1      27.980  20.762  15.293  1.00  0.00    -0.092 NA
ATOM     30  N   UNL     1      28.164  20.101  16.335  1.00  0.00     0.001 N 
ATOM     31  N   UNL     1      28.317  19.067  17.012  1.00  0.00    -0.003 NA
ENDBRANCH  28  29
ENDBRANCH  27  28
ENDBRANCH  26  27
ENDBRANCH  20  26
BRANCH  21  32
ATOM     32  O   UNL     1      28.834  17.781  14.058  1.00  0.00    -0.387 OA
ATOM     33  H   UNL     1      28.393  16.906  14.261  1.00  0.00     0.211 HD
ENDBRANCH  21  32
BRANCH  22  34
ATOM     34  O   UNL     1      30.472  18.177  10.901  1.00  0.00    -0.385 OA
ATOM     35  H   UNL     1      31.066  18.942  10.616  1.00  0.00     0.211 HD
ENDBRANCH  22  34
ENDBRANCH  16  17
ENDBRANCH  11  16
BRANCH  13  36
ATOM     36  O   UNL     1      25.375  20.250  14.351  1.00  0.00    -0.385 OA
ATOM     37  H   UNL     1      24.609  20.339  14.989  1.00  0.00     0.211 HD
ENDBRANCH  13  36
BRANCH  14  38
ATOM     38  O   UNL     1      22.692  19.948  14.111  1.00  0.00    -0.387 OA
ATOM     39  H   UNL     1      23.126  20.562  14.768  1.00  0.00     0.211 HD
ENDBRANCH  14  38
BRANCH  15  40
ATOM     40  O   UNL     1      22.899  19.161  11.417  1.00  0.00    -0.387 OA
ATOM     41  H   UNL     1      22.418  18.828  10.640  1.00  0.00     0.211 HD
ENDBRANCH  15  40
ENDBRANCH   9  10
ENDBRANCH   8   9
ENDBRANCH   3   8
BRANCH   3  42
ATOM     42  C   UNL     1      22.028  14.989   9.042  1.00  0.00     0.364 C 
ATOM     43  O   UNL     1      21.687  14.466   7.971  1.00  0.00    -0.246 OA
BRANCH  42  44
ATOM     44  O   UNL     1      22.039  14.220  10.190  1.00  0.00    -0.477 OA
ATOM     45  H   UNL     1      22.415  13.263  10.209  1.00  0.00     0.296 HD
ENDBRANCH  42  44
ENDBRANCH   3  42
BRANCH   6  46
ATOM     46  O   UNL     1      22.886  18.895   8.726  1.00  0.00    -0.391 OA
ATOM     47  H   UNL     1      23.088  19.842   8.648  1.00  0.00     0.211 HD
ENDBRANCH   6  46
BRANCH   7  48
ATOM     48  N   UNL     1      20.896  18.136   5.880  1.00  0.00    -0.348 N 
ATOM     49  C   UNL     1      20.351  19.107   4.985  1.00  0.00     0.217 C 
ATOM     50  H   UNL     1      21.092  17.187   5.487  1.00  0.00     0.163 HD
ATOM     51  C   UNL     1      20.108  18.684   3.565  1.00  0.00     0.114 C 
ATOM     52  O   UNL     1      20.080  20.279   5.359  1.00  0.00    -0.275 OA
ENDBRANCH   7  48
ENDBRANCH   1   2
BRANCH   1  53
ATOM     53  O   UNL     1      18.942  19.339   7.950  1.00  0.00    -0.388 OA
ATOM     54  H   UNL     1      18.011  19.292   7.592  1.00  0.00     0.211 HD
ENDBRANCH   1  53
BRANCH   1  55
ATOM     55  C   UNL     1      19.228  18.591  10.176  1.00  0.00     0.165 C 
BRANCH  55  56
ATOM     56  O   UNL     1      18.191  18.069  10.917  1.00  0.00    -0.388 OA
ATOM     57  H   UNL     1      17.629  17.411  10.429  1.00  0.00     0.211 HD
ENDBRANCH  55  56
BRANCH  55  58
ATOM     58  C   UNL     1      19.455  20.049  10.383  1.00  0.00     0.154 C 
BRANCH  58  59
ATOM     59  N   UNL     1      20.791  20.518  10.186  1.00  0.00    -0.319 N 
ATOM     60  C   UNL     1      21.037  21.546   9.245  1.00  0.00     0.407 C 
ATOM     61  H   UNL     1      21.581  20.127  10.717  1.00  0.00     0.167 HD
ATOM     62  O   UNL     1      20.036  22.029   8.611  1.00  0.00    -0.225 OA
BRANCH  60  63
ATOM     63  O   UNL     1      22.273  22.086   8.932  1.00  0.00    -0.443 OA
BRANCH  63  64
ATOM     64  C   UNL     1      22.620  23.391   9.423  1.00  0.00     0.294 C 
BRANCH  64  65
ATOM     65  C   UNL     1      23.159  23.251  10.796  1.00  0.00     0.120 A 
ATOM     66  C   UNL     1      23.124  24.129  11.856  1.00  0.00     0.139 A 
ATOM     67  N   UNL     1      23.846  22.160  11.273  1.00  0.00    -0.132 NA
ATOM     68  N   UNL     1      23.773  23.567  12.917  1.00  0.00    -0.237 N 
ATOM     69  N   UNL     1      24.179  22.399  12.513  1.00  0.00    -0.066 NA
BRANCH  68  70
ATOM     70  C   UNL     1      23.974  24.168  14.216  1.00  0.00     0.229 C 
BRANCH  70  71
ATOM     71  C   UNL     1      22.689  24.873  14.613  1.00  0.00     0.161 C 
BRANCH  71  72
ATOM     72  C   UNL     1      22.759  25.393  15.992  1.00  0.00     0.306 C 
ATOM     73  O   UNL     1      23.222  26.537  16.232  1.00  0.00    -0.252 OA
BRANCH  72  74
ATOM     74  O   UNL     1      22.316  24.629  17.049  1.00  0.00    -0.481 OA
ATOM     75  H   UNL     1      21.546  24.987  17.627  1.00  0.00     0.296 HD
ENDBRANCH  72  74
ENDBRANCH  71  72
ENDBRANCH  70  71
BRANCH  70  76
ATOM     76  C   UNL     1      24.276  23.109  15.194  1.00  0.00     0.329 C 
ATOM     77  O   UNL     1      25.408  23.085  15.732  1.00  0.00    -0.250 OA
BRANCH  76  78
ATOM     78  O   UNL     1      23.364  22.127  15.555  1.00  0.00    -0.480 OA
ATOM     79  H   UNL     1      23.663  21.407  16.206  1.00  0.00     0.296 HD
ENDBRANCH  76  78
ENDBRANCH  70  76
ENDBRANCH  68  70
ENDBRANCH  64  65
ENDBRANCH  63  64
ENDBRANCH  60  63
ENDBRANCH  58  59
ENDBRANCH  55  58
ENDBRANCH   1  55
TORSDOF 35
