REMARK VINA RESULT:    -5.062     18.629     23.922
REMARK INTER + INTRA:         -21.615
REMARK INTER:                 -14.398
REMARK INTRA:                  -7.217
REMARK UNBOUND:                -8.562
REMARK SMILES CC(=O)N[C@@H]1[C@@H](O)C[C@](OC[C@H]2O[C@@H](O[C@H]3[C@H](O)[C@@H](O)[C@H](OCCN=[N+]=[N-])O[C@@H]3CO)[C@H](O)[C@@H](O)[C@H]2O)(C(=O)O)O[C@H]1C(O)[C@H](O)CNC(=O)OCc1cn(Cc2ccc(C#N)cc2)nn1
REMARK SMILES IDX 9 1 8 2 6 3 5 4 42 5 41 6 10 7 11 8 12 9 14 10 13 11 32 12
REMARK SMILES IDX 34 13 36 14 15 15 16 16 29 17 28 18 21 19 17 20 19 21 30 22
REMARK SMILES IDX 31 23 22 25 23 26 24 27 25 28 26 29 27 30 18 31 20 33 33 35
REMARK SMILES IDX 35 37 37 39 38 41 39 42 40 43 7 45 43 47 44 48 45 50 46 51
REMARK SMILES IDX 47 53 48 54 49 55 50 57 51 58 52 59 53 60 54 61 66 62 55 63
REMARK SMILES IDX 65 64 56 65 57 66 58 67 64 68 59 69 63 70 60 71 61 72 62 73
REMARK SMILES IDX 4 74 2 75 1 77 3 78
REMARK H PARENT 31 24 18 32 20 34 33 36 35 38 37 40 40 44 7 46 44 49 46 52
REMARK H PARENT 48 56 4 76
REMARK Flexibility Score: inf
ROOT
ATOM      1  C   UNL     1       7.594  26.551  35.380  1.00  0.00     0.272 C 
ATOM      2  C   UNL     1       6.363  27.146  35.968  1.00  0.00     0.113 C 
ATOM      3  C   UNL     1       5.433  26.180  36.612  1.00  0.00     0.145 C 
ATOM      4  C   UNL     1       5.567  24.836  35.876  1.00  0.00     0.142 C 
ATOM      5  C   UNL     1       6.000  25.167  34.480  1.00  0.00     0.178 C 
ATOM      6  O   UNL     1       7.319  25.520  34.467  1.00  0.00    -0.332 OA
ENDROOT
BRANCH   1   7
ATOM      7  O   UNL     1       8.560  26.147  36.276  1.00  0.00    -0.338 OA
BRANCH   7   8
ATOM      8  C   UNL     1       9.825  26.517  35.966  1.00  0.00     0.199 C 
BRANCH   8   9
ATOM      9  C   UNL     1      10.844  25.401  36.256  1.00  0.00     0.179 C 
ATOM     10  C   UNL     1      11.156  23.650  37.726  1.00  0.00     0.282 C 
ATOM     11  O   UNL     1      10.434  24.811  37.452  1.00  0.00    -0.341 OA
ATOM     12  C   UNL     1      10.978  22.588  36.692  1.00  0.00     0.202 C 
ATOM     13  C   UNL     1      10.099  23.112  35.581  1.00  0.00     0.179 C 
ATOM     14  C   UNL     1      10.744  24.413  35.124  1.00  0.00     0.177 C 
BRANCH  10  15
ATOM     15  O   UNL     1      10.682  23.159  38.940  1.00  0.00    -0.341 OA
BRANCH  15  16
ATOM     16  C   UNL     1       9.719  23.976  39.527  1.00  0.00     0.184 C 
ATOM     17  C   UNL     1      10.072  24.223  40.950  1.00  0.00     0.178 C 
ATOM     18  O   UNL     1       9.466  23.422  41.874  1.00  0.00    -0.341 OA
ATOM     19  C   UNL     1       8.768  22.344  41.392  1.00  0.00     0.281 C 
ATOM     20  C   UNL     1       8.326  23.492  39.285  1.00  0.00     0.180 C 
ATOM     21  C   UNL     1       7.673  22.844  40.476  1.00  0.00     0.202 C 
BRANCH  17  22
ATOM     22  C   UNL     1       9.888  25.706  41.263  1.00  0.00     0.191 C 
BRANCH  22  23
ATOM     23  O   UNL     1       9.723  26.376  40.050  1.00  0.00    -0.394 OA
ATOM     24  H   UNL     1       9.070  27.135  40.143  1.00  0.00     0.210 HD
ENDBRANCH  22  23
ENDBRANCH  17  22
BRANCH  19  25
ATOM     25  O   UNL     1       8.149  21.744  42.507  1.00  0.00    -0.350 OA
BRANCH  25  26
ATOM     26  C   UNL     1       8.907  20.680  42.978  1.00  0.00     0.169 C 
BRANCH  26  27
ATOM     27  C   UNL     1       8.148  19.375  42.844  1.00  0.00     0.119 C 
BRANCH  27  28
ATOM     28  N   UNL     1       6.793  19.575  42.367  1.00  0.00    -0.092 NA
ATOM     29  N   UNL     1       6.484  19.231  41.238  1.00  0.00     0.001 N 
ATOM     30  N   UNL     1       5.891  18.605  40.345  1.00  0.00    -0.003 NA
ENDBRANCH  27  28
ENDBRANCH  26  27
ENDBRANCH  25  26
ENDBRANCH  19  25
BRANCH  20  31
ATOM     31  O   UNL     1       7.494  24.474  38.734  1.00  0.00    -0.387 OA
ATOM     32  H   UNL     1       7.722  25.371  39.119  1.00  0.00     0.211 HD
ENDBRANCH  20  31
BRANCH  21  33
ATOM     33  O   UNL     1       6.824  21.800  40.102  1.00  0.00    -0.385 OA
ATOM     34  H   UNL     1       7.399  21.004  39.957  1.00  0.00     0.211 HD
ENDBRANCH  21  33
ENDBRANCH  15  16
ENDBRANCH  10  15
BRANCH  12  35
ATOM     35  O   UNL     1      12.149  22.120  36.138  1.00  0.00    -0.385 OA
ATOM     36  H   UNL     1      12.925  22.616  36.525  1.00  0.00     0.211 HD
ENDBRANCH  12  35
BRANCH  13  37
ATOM     37  O   UNL     1       8.825  23.304  36.091  1.00  0.00    -0.387 OA
ATOM     38  H   UNL     1       8.223  22.534  35.998  1.00  0.00     0.211 HD
ENDBRANCH  13  37
BRANCH  14  39
ATOM     39  O   UNL     1      10.167  24.940  33.994  1.00  0.00    -0.387 OA
ATOM     40  H   UNL     1      10.426  25.881  33.893  1.00  0.00     0.211 HD
ENDBRANCH  14  39
ENDBRANCH   8   9
ENDBRANCH   7   8
ENDBRANCH   1   7
BRANCH   1  41
ATOM     41  C   UNL     1       8.201  27.614  34.510  1.00  0.00     0.364 C 
ATOM     42  O   UNL     1       8.229  28.788  34.892  1.00  0.00    -0.246 OA
BRANCH  41  43
ATOM     43  O   UNL     1       8.721  27.251  33.290  1.00  0.00    -0.477 OA
ATOM     44  H   UNL     1       9.711  27.222  33.083  1.00  0.00     0.296 HD
ENDBRANCH  41  43
ENDBRANCH   1  41
BRANCH   3  45
ATOM     45  O   UNL     1       5.525  26.055  37.968  1.00  0.00    -0.391 OA
ATOM     46  H   UNL     1       4.821  26.560  38.423  1.00  0.00     0.211 HD
ENDBRANCH   3  45
BRANCH   5  47
ATOM     47  C   UNL     1       5.714  24.040  33.479  1.00  0.00     0.176 C 
BRANCH  47  48
ATOM     48  O   UNL     1       5.717  24.678  32.217  1.00  0.00    -0.388 OA
ATOM     49  H   UNL     1       5.047  25.406  32.243  1.00  0.00     0.211 HD
ENDBRANCH  47  48
BRANCH  47  50
ATOM     50  C   UNL     1       6.755  23.012  33.499  1.00  0.00     0.165 C 
BRANCH  50  51
ATOM     51  O   UNL     1       8.020  23.554  33.117  1.00  0.00    -0.388 OA
ATOM     52  H   UNL     1       8.324  24.046  33.943  1.00  0.00     0.211 HD
ENDBRANCH  50  51
BRANCH  50  53
ATOM     53  C   UNL     1       6.508  21.769  32.739  1.00  0.00     0.154 C 
BRANCH  53  54
ATOM     54  N   UNL     1       5.299  21.506  32.092  1.00  0.00    -0.319 N 
ATOM     55  C   UNL     1       4.082  21.020  32.603  1.00  0.00     0.407 C 
ATOM     56  H   UNL     1       5.267  21.700  31.030  1.00  0.00     0.167 HD
ATOM     57  O   UNL     1       3.900  20.760  33.801  1.00  0.00    -0.225 OA
BRANCH  55  58
ATOM     58  O   UNL     1       2.980  20.803  31.761  1.00  0.00    -0.443 OA
BRANCH  58  59
ATOM     59  C   UNL     1       3.177  20.281  30.457  1.00  0.00     0.294 C 
BRANCH  59  60
ATOM     60  C   UNL     1       2.529  21.221  29.475  1.00  0.00     0.120 A 
ATOM     61  C   UNL     1       2.315  22.562  29.716  1.00  0.00     0.138 A 
ATOM     62  N   UNL     1       2.044  20.975  28.244  1.00  0.00    -0.132 NA
ATOM     63  N   UNL     1       1.704  23.089  28.622  1.00  0.00    -0.248 N 
ATOM     64  N   UNL     1       1.569  22.112  27.788  1.00  0.00    -0.067 NA
BRANCH  63  65
ATOM     65  C   UNL     1       1.313  24.488  28.545  1.00  0.00     0.181 C 
BRANCH  65  66
ATOM     66  C   UNL     1       2.519  25.192  27.975  1.00  0.00    -0.026 A 
ATOM     67  C   UNL     1       3.289  25.951  28.822  1.00  0.00     0.007 A 
ATOM     68  C   UNL     1       2.825  25.064  26.619  1.00  0.00     0.007 A 
ATOM     69  C   UNL     1       4.404  26.632  28.390  1.00  0.00     0.020 A 
ATOM     70  C   UNL     1       3.938  25.742  26.189  1.00  0.00     0.020 A 
ATOM     71  C   UNL     1       4.695  26.493  27.029  1.00  0.00     0.052 A 
BRANCH  71  72
ATOM     72  C   UNL     1       5.861  27.221  26.542  1.00  0.00     0.099 C 
ATOM     73  N   UNL     1       6.792  27.789  26.138  1.00  0.00    -0.192 NA
ENDBRANCH  71  72
ENDBRANCH  65  66
ENDBRANCH  63  65
ENDBRANCH  59  60
ENDBRANCH  58  59
ENDBRANCH  55  58
ENDBRANCH  53  54
ENDBRANCH  50  53
ENDBRANCH  47  50
ENDBRANCH   5  47
BRANCH   4  74
ATOM     74  N   UNL     1       4.333  24.097  35.968  1.00  0.00    -0.348 N 
ATOM     75  C   UNL     1       4.192  23.133  37.000  1.00  0.00     0.217 C 
ATOM     76  H   UNL     1       3.548  24.242  35.315  1.00  0.00     0.163 HD
ATOM     77  C   UNL     1       2.961  22.340  37.158  1.00  0.00     0.114 C 
ATOM     78  O   UNL     1       5.137  22.921  37.832  1.00  0.00    -0.275 OA
ENDBRANCH   4  74
TORSDOF 32
