REMARK VINA RESULT:    -5.557     10.789     15.849
REMARK INTER + INTRA:         -21.224
REMARK INTER:                 -13.818
REMARK INTRA:                  -7.406
REMARK UNBOUND:                -7.546
REMARK SMILES CC(=O)N[C@@H]1[C@@H](O)C[C@](OC[C@H]2O[C@@H](O[C@H]3[C@H](O)[C@@H](O)[C@H](OCCN=[N+]=[N-])O[C@@H]3CO)[C@H](O)[C@@H](O)[C@H]2O)(C(=O)O)O[C@H]1C(O)[C@H](O)CNC(=O)OCc1cn(-c2ccc3[nH]ncc3c2)nn1
REMARK SMILES IDX 9 1 8 2 6 3 5 4 42 5 41 6 10 7 11 8 12 9 14 10 13 11 32 12
REMARK SMILES IDX 34 13 36 14 15 15 16 16 29 17 28 18 21 19 17 20 19 21 30 22
REMARK SMILES IDX 31 23 22 25 23 26 24 27 25 28 26 29 27 30 18 31 20 33 33 35
REMARK SMILES IDX 35 37 37 39 38 41 39 42 40 43 7 45 43 47 44 48 45 50 46 51
REMARK SMILES IDX 47 53 48 54 49 55 50 57 51 58 52 59 53 60 54 61 66 62 55 63
REMARK SMILES IDX 65 64 56 65 57 66 64 67 58 68 63 69 59 70 62 71 60 72 61 73
REMARK SMILES IDX 4 75 2 76 1 78 3 79
REMARK H PARENT 31 24 18 32 20 34 33 36 35 38 37 40 40 44 7 46 44 49 46 52
REMARK H PARENT 48 56 60 74 4 77
REMARK Flexibility Score: inf
ROOT
ATOM      1  C   UNL     1      20.305  19.090  10.658  1.00  0.00     0.272 C 
ATOM      2  C   UNL     1      20.017  18.333   9.413  1.00  0.00     0.113 C 
ATOM      3  C   UNL     1      19.322  19.113   8.326  1.00  0.00     0.145 C 
ATOM      4  C   UNL     1      20.274  20.301   8.029  1.00  0.00     0.142 C 
ATOM      5  C   UNL     1      20.465  20.975   9.332  1.00  0.00     0.178 C 
ATOM      6  O   UNL     1      20.982  20.271  10.363  1.00  0.00    -0.332 OA
ENDROOT
BRANCH   1   7
ATOM      7  O   UNL     1      21.142  18.296  11.472  1.00  0.00    -0.338 OA
BRANCH   7   8
ATOM      8  C   UNL     1      21.689  18.929  12.539  1.00  0.00     0.199 C 
BRANCH   8   9
ATOM      9  C   UNL     1      23.210  18.673  12.643  1.00  0.00     0.179 C 
ATOM     10  C   UNL     1      24.882  19.799  11.502  1.00  0.00     0.282 C 
ATOM     11  O   UNL     1      23.828  18.871  11.446  1.00  0.00    -0.341 OA
ATOM     12  C   UNL     1      24.270  21.106  11.891  1.00  0.00     0.202 C 
ATOM     13  C   UNL     1      23.869  20.974  13.368  1.00  0.00     0.179 C 
ATOM     14  C   UNL     1      23.780  19.524  13.762  1.00  0.00     0.177 C 
BRANCH  10  15
ATOM     15  O   UNL     1      25.564  19.796  10.299  1.00  0.00    -0.341 OA
BRANCH  15  16
ATOM     16  C   UNL     1      26.750  19.086  10.438  1.00  0.00     0.184 C 
ATOM     17  C   UNL     1      27.965  19.788   9.911  1.00  0.00     0.178 C 
ATOM     18  O   UNL     1      29.083  19.086  10.159  1.00  0.00    -0.341 OA
ATOM     19  C   UNL     1      29.041  17.760  10.454  1.00  0.00     0.281 C 
ATOM     20  C   UNL     1      26.682  17.809   9.579  1.00  0.00     0.180 C 
ATOM     21  C   UNL     1      27.881  16.992   9.920  1.00  0.00     0.202 C 
BRANCH  17  22
ATOM     22  C   UNL     1      28.137  21.205  10.420  1.00  0.00     0.191 C 
BRANCH  22  23
ATOM     23  O   UNL     1      27.862  21.309  11.771  1.00  0.00    -0.394 OA
ATOM     24  H   UNL     1      28.534  21.964  12.133  1.00  0.00     0.210 HD
ENDBRANCH  22  23
ENDBRANCH  17  22
BRANCH  19  25
ATOM     25  O   UNL     1      29.120  17.637  11.819  1.00  0.00    -0.350 OA
BRANCH  25  26
ATOM     26  C   UNL     1      30.347  17.463  12.357  1.00  0.00     0.169 C 
BRANCH  26  27
ATOM     27  C   UNL     1      30.540  16.155  13.055  1.00  0.00     0.119 C 
BRANCH  27  28
ATOM     28  N   UNL     1      31.513  16.153  14.106  1.00  0.00    -0.092 NA
ATOM     29  N   UNL     1      31.558  16.984  14.992  1.00  0.00     0.001 N 
ATOM     30  N   UNL     1      31.834  17.996  15.673  1.00  0.00    -0.003 NA
ENDBRANCH  27  28
ENDBRANCH  26  27
ENDBRANCH  25  26
ENDBRANCH  19  25
BRANCH  20  31
ATOM     31  O   UNL     1      25.508  17.131   9.765  1.00  0.00    -0.387 OA
ATOM     32  H   UNL     1      25.567  16.401  10.435  1.00  0.00     0.211 HD
ENDBRANCH  20  31
BRANCH  21  33
ATOM     33  O   UNL     1      28.234  16.270   8.765  1.00  0.00    -0.385 OA
ATOM     34  H   UNL     1      28.287  15.297   8.947  1.00  0.00     0.211 HD
ENDBRANCH  21  33
ENDBRANCH  15  16
ENDBRANCH  10  15
BRANCH  12  35
ATOM     35  O   UNL     1      25.047  22.219  11.689  1.00  0.00    -0.385 OA
ATOM     36  H   UNL     1      24.856  22.655  10.804  1.00  0.00     0.211 HD
ENDBRANCH  12  35
BRANCH  13  37
ATOM     37  O   UNL     1      22.747  21.718  13.666  1.00  0.00    -0.387 OA
ATOM     38  H   UNL     1      22.239  21.212  14.369  1.00  0.00     0.211 HD
ENDBRANCH  13  37
BRANCH  14  39
ATOM     39  O   UNL     1      22.861  19.459  14.839  1.00  0.00    -0.387 OA
ATOM     40  H   UNL     1      22.672  18.550  15.115  1.00  0.00     0.211 HD
ENDBRANCH  14  39
ENDBRANCH   8   9
ENDBRANCH   7   8
ENDBRANCH   1   7
BRANCH   1  41
ATOM     41  C   UNL     1      19.098  19.505  11.421  1.00  0.00     0.364 C 
ATOM     42  O   UNL     1      18.255  18.590  11.705  1.00  0.00    -0.246 OA
BRANCH  41  43
ATOM     43  O   UNL     1      18.784  20.757  11.853  1.00  0.00    -0.477 OA
ATOM     44  H   UNL     1      17.829  21.073  12.025  1.00  0.00     0.296 HD
ENDBRANCH  41  43
ENDBRANCH   1  41
BRANCH   3  45
ATOM     45  O   UNL     1      19.212  18.304   7.212  1.00  0.00    -0.391 OA
ATOM     46  H   UNL     1      18.602  18.702   6.520  1.00  0.00     0.211 HD
ENDBRANCH   3  45
BRANCH   5  47
ATOM     47  C   UNL     1      21.055  22.344   9.168  1.00  0.00     0.176 C 
BRANCH  47  48
ATOM     48  O   UNL     1      19.899  23.204   9.099  1.00  0.00    -0.388 OA
ATOM     49  H   UNL     1      19.081  22.685   9.235  1.00  0.00     0.211 HD
ENDBRANCH  47  48
BRANCH  47  50
ATOM     50  C   UNL     1      21.840  22.864  10.347  1.00  0.00     0.165 C 
BRANCH  50  51
ATOM     51  O   UNL     1      20.960  22.743  11.458  1.00  0.00    -0.388 OA
ATOM     52  H   UNL     1      20.243  22.106  11.292  1.00  0.00     0.211 HD
ENDBRANCH  50  51
BRANCH  50  53
ATOM     53  C   UNL     1      22.296  24.270  10.252  1.00  0.00     0.154 C 
BRANCH  53  54
ATOM     54  N   UNL     1      23.001  24.818  11.356  1.00  0.00    -0.319 N 
ATOM     55  C   UNL     1      24.369  25.175  11.411  1.00  0.00     0.407 C 
ATOM     56  H   UNL     1      22.468  24.996  12.267  1.00  0.00     0.167 HD
ATOM     57  O   UNL     1      25.109  25.043  10.431  1.00  0.00    -0.225 OA
BRANCH  55  58
ATOM     58  O   UNL     1      24.907  25.689  12.587  1.00  0.00    -0.443 OA
BRANCH  58  59
ATOM     59  C   UNL     1      24.675  25.202  13.874  1.00  0.00     0.294 C 
BRANCH  59  60
ATOM     60  C   UNL     1      25.648  24.208  14.346  1.00  0.00     0.121 A 
ATOM     61  C   UNL     1      25.787  23.746  15.636  1.00  0.00     0.144 A 
ATOM     62  N   UNL     1      26.582  23.587  13.597  1.00  0.00    -0.131 NA
ATOM     63  N   UNL     1      26.794  22.871  15.601  1.00  0.00    -0.220 N 
ATOM     64  N   UNL     1      27.258  22.789  14.368  1.00  0.00    -0.062 NA
BRANCH  63  65
ATOM     65  C   UNL     1      27.283  22.148  16.731  1.00  0.00     0.067 A 
ATOM     66  C   UNL     1      27.265  22.703  17.991  1.00  0.00     0.030 A 
ATOM     67  C   UNL     1      27.786  20.877  16.577  1.00  0.00     0.040 A 
ATOM     68  C   UNL     1      27.739  22.007  19.076  1.00  0.00     0.030 A 
ATOM     69  C   UNL     1      28.262  20.185  17.688  1.00  0.00     0.022 A 
ATOM     70  C   UNL     1      28.252  20.730  18.960  1.00  0.00     0.065 A 
ATOM     71  C   UNL     1      28.802  18.924  17.788  1.00  0.00     0.143 A 
ATOM     72  N   UNL     1      28.772  19.818  19.800  1.00  0.00    -0.278 N 
ATOM     73  N   UNL     1      29.090  18.760  19.090  1.00  0.00    -0.183 NA
ATOM     74  H   UNL     1      28.888  19.960  20.832  1.00  0.00     0.190 HD
ENDBRANCH  63  65
ENDBRANCH  59  60
ENDBRANCH  58  59
ENDBRANCH  55  58
ENDBRANCH  53  54
ENDBRANCH  50  53
ENDBRANCH  47  50
ENDBRANCH   5  47
BRANCH   4  75
ATOM     75  N   UNL     1      19.452  21.152   7.162  1.00  0.00    -0.348 N 
ATOM     76  C   UNL     1      19.708  21.170   5.789  1.00  0.00     0.217 C 
ATOM     77  H   UNL     1      18.690  21.740   7.538  1.00  0.00     0.163 HD
ATOM     78  C   UNL     1      18.916  22.016   4.836  1.00  0.00     0.114 C 
ATOM     79  O   UNL     1      20.641  20.442   5.316  1.00  0.00    -0.275 OA
ENDBRANCH   4  75
TORSDOF 30
