REMARK VINA RESULT:    -6.072      1.761      2.419
REMARK INTER + INTRA:         -22.091
REMARK INTER:                 -17.503
REMARK INTRA:                  -4.588
REMARK UNBOUND:                -7.145
REMARK SMILES CC(=O)N[C@@H]1[C@@H](O)C[C@](OC[C@H]2O[C@@H](O[C@H]3[C@H](O)[C@@H](O)[C@H](OCCN=[N+]=[N-])O[C@@H]3CO)[C@H](O)[C@@H](O)[C@H]2O)(C(=O)O)O[C@H]1C(O)[C@H](O)CNC(=O)OCc1cn(-c2ccccc2Br)nn1
REMARK SMILES IDX 9 1 8 2 6 3 5 4 42 5 41 6 10 7 11 8 12 9 14 10 13 11 32 12
REMARK SMILES IDX 34 13 36 14 15 15 16 16 29 17 28 18 21 19 17 20 19 21 30 22
REMARK SMILES IDX 31 23 22 25 23 26 24 27 25 28 26 29 27 30 18 31 20 33 33 35
REMARK SMILES IDX 35 37 37 39 38 41 39 42 40 43 7 45 43 47 44 48 45 50 46 51
REMARK SMILES IDX 47 53 48 54 49 55 50 57 51 58 52 59 53 60 54 61 64 62 55 63
REMARK SMILES IDX 63 64 56 65 57 66 61 67 58 68 60 69 62 70 59 71 4 72 2 73
REMARK SMILES IDX 1 75 3 76
REMARK H PARENT 31 24 18 32 20 34 33 36 35 38 37 40 40 44 7 46 44 49 46 52
REMARK H PARENT 48 56 4 74
REMARK Flexibility Score: inf
ROOT
ATOM      1  C   UNL     1      29.779  20.213  19.253  1.00  0.00     0.272 C 
ATOM      2  C   UNL     1      29.040  19.112  19.916  1.00  0.00     0.113 C 
ATOM      3  C   UNL     1      29.126  19.196  21.405  1.00  0.00     0.145 C 
ATOM      4  C   UNL     1      28.930  20.549  21.990  1.00  0.00     0.142 C 
ATOM      5  C   UNL     1      28.991  21.624  20.962  1.00  0.00     0.178 C 
ATOM      6  O   UNL     1      29.809  21.430  19.900  1.00  0.00    -0.332 OA
ENDROOT
BRANCH   1   7
ATOM      7  O   UNL     1      29.364  20.522  17.971  1.00  0.00    -0.338 OA
BRANCH   7   8
ATOM      8  C   UNL     1      28.668  19.581  17.292  1.00  0.00     0.199 C 
BRANCH   8   9
ATOM      9  C   UNL     1      28.424  20.138  15.868  1.00  0.00     0.179 C 
ATOM     10  C   UNL     1      26.767  20.047  14.259  1.00  0.00     0.282 C 
ATOM     11  O   UNL     1      27.549  19.393  15.174  1.00  0.00    -0.341 OA
ATOM     12  C   UNL     1      27.514  21.131  13.515  1.00  0.00     0.202 C 
ATOM     13  C   UNL     1      28.131  22.122  14.479  1.00  0.00     0.179 C 
ATOM     14  C   UNL     1      28.119  21.582  15.896  1.00  0.00     0.177 C 
BRANCH  10  15
ATOM     15  O   UNL     1      25.570  20.500  14.794  1.00  0.00    -0.341 OA
BRANCH  15  16
ATOM     16  C   UNL     1      24.528  20.556  13.898  1.00  0.00     0.184 C 
ATOM     17  C   UNL     1      23.432  21.521  14.279  1.00  0.00     0.178 C 
ATOM     18  O   UNL     1      22.706  21.765  13.124  1.00  0.00    -0.341 OA
ATOM     19  C   UNL     1      22.161  20.669  12.536  1.00  0.00     0.281 C 
ATOM     20  C   UNL     1      23.825  19.208  13.788  1.00  0.00     0.180 C 
ATOM     21  C   UNL     1      22.594  19.338  12.991  1.00  0.00     0.202 C 
BRANCH  17  22
ATOM     22  C   UNL     1      23.910  22.815  14.849  1.00  0.00     0.191 C 
BRANCH  22  23
ATOM     23  O   UNL     1      24.764  23.426  13.933  1.00  0.00    -0.394 OA
ATOM     24  H   UNL     1      24.375  24.263  13.627  1.00  0.00     0.210 HD
ENDBRANCH  22  23
ENDBRANCH  17  22
BRANCH  19  25
ATOM     25  O   UNL     1      22.441  20.779  11.154  1.00  0.00    -0.350 OA
BRANCH  25  26
ATOM     26  C   UNL     1      21.628  20.012  10.369  1.00  0.00     0.169 C 
BRANCH  26  27
ATOM     27  C   UNL     1      20.312  20.629  10.007  1.00  0.00     0.119 C 
BRANCH  27  28
ATOM     28  N   UNL     1      19.286  19.628  10.256  1.00  0.00    -0.092 NA
ATOM     29  N   UNL     1      19.087  19.225  11.393  1.00  0.00     0.001 N 
ATOM     30  N   UNL     1      18.823  18.858  12.531  1.00  0.00    -0.003 NA
ENDBRANCH  27  28
ENDBRANCH  26  27
ENDBRANCH  25  26
ENDBRANCH  19  25
BRANCH  20  31
ATOM     31  O   UNL     1      24.653  18.245  13.234  1.00  0.00    -0.387 OA
ATOM     32  H   UNL     1      24.352  17.933  12.350  1.00  0.00     0.211 HD
ENDBRANCH  20  31
BRANCH  21  33
ATOM     33  O   UNL     1      21.568  18.702  13.752  1.00  0.00    -0.385 OA
ATOM     34  H   UNL     1      21.723  18.820  14.718  1.00  0.00     0.211 HD
ENDBRANCH  21  33
ENDBRANCH  15  16
ENDBRANCH  10  15
BRANCH  12  35
ATOM     35  O   UNL     1      28.454  20.594  12.635  1.00  0.00    -0.385 OA
ATOM     36  H   UNL     1      28.252  20.834  11.697  1.00  0.00     0.211 HD
ENDBRANCH  12  35
BRANCH  13  37
ATOM     37  O   UNL     1      27.538  23.364  14.363  1.00  0.00    -0.387 OA
ATOM     38  H   UNL     1      27.486  23.809  15.232  1.00  0.00     0.211 HD
ENDBRANCH  13  37
BRANCH  14  39
ATOM     39  O   UNL     1      26.894  21.897  16.460  1.00  0.00    -0.387 OA
ATOM     40  H   UNL     1      26.129  21.642  15.887  1.00  0.00     0.211 HD
ENDBRANCH  14  39
ENDBRANCH   8   9
ENDBRANCH   7   8
ENDBRANCH   1   7
BRANCH   1  41
ATOM     41  C   UNL     1      31.234  19.780  19.236  1.00  0.00     0.364 C 
ATOM     42  O   UNL     1      31.510  18.780  18.540  1.00  0.00    -0.246 OA
BRANCH  41  43
ATOM     43  O   UNL     1      32.221  20.416  19.928  1.00  0.00    -0.477 OA
ATOM     44  H   UNL     1      32.160  20.509  20.954  1.00  0.00     0.296 HD
ENDBRANCH  41  43
ENDBRANCH   1  41
BRANCH   3  45
ATOM     45  O   UNL     1      28.206  18.271  21.949  1.00  0.00    -0.391 OA
ATOM     46  H   UNL     1      27.846  18.672  22.787  1.00  0.00     0.211 HD
ENDBRANCH   3  45
BRANCH   5  47
ATOM     47  C   UNL     1      27.598  22.146  20.613  1.00  0.00     0.176 C 
BRANCH  47  48
ATOM     48  O   UNL     1      27.494  22.608  19.325  1.00  0.00    -0.388 OA
ATOM     49  H   UNL     1      28.330  23.078  19.034  1.00  0.00     0.211 HD
ENDBRANCH  47  48
BRANCH  47  50
ATOM     50  C   UNL     1      27.183  23.287  21.556  1.00  0.00     0.165 C 
BRANCH  50  51
ATOM     51  O   UNL     1      26.123  22.843  22.305  1.00  0.00    -0.388 OA
ATOM     52  H   UNL     1      26.331  22.370  23.129  1.00  0.00     0.211 HD
ENDBRANCH  50  51
BRANCH  50  53
ATOM     53  C   UNL     1      26.827  24.506  20.770  1.00  0.00     0.154 C 
BRANCH  53  54
ATOM     54  N   UNL     1      25.421  24.717  20.701  1.00  0.00    -0.319 N 
ATOM     55  C   UNL     1      24.593  24.649  19.561  1.00  0.00     0.407 C 
ATOM     56  H   UNL     1      24.912  24.955  21.610  1.00  0.00     0.167 HD
ATOM     57  O   UNL     1      25.061  24.368  18.454  1.00  0.00    -0.225 OA
BRANCH  55  58
ATOM     58  O   UNL     1      23.224  24.900  19.663  1.00  0.00    -0.443 OA
BRANCH  58  59
ATOM     59  C   UNL     1      22.663  26.062  20.223  1.00  0.00     0.294 C 
BRANCH  59  60
ATOM     60  C   UNL     1      22.052  25.772  21.561  1.00  0.00     0.121 A 
ATOM     61  C   UNL     1      22.698  25.961  22.782  1.00  0.00     0.144 A 
ATOM     62  N   UNL     1      20.853  25.293  21.852  1.00  0.00    -0.131 NA
ATOM     63  N   UNL     1      21.845  25.583  23.746  1.00  0.00    -0.219 N 
ATOM     64  N   UNL     1      20.734  25.181  23.180  1.00  0.00    -0.062 NA
BRANCH  63  65
ATOM     65  C   UNL     1      22.088  25.604  25.142  1.00  0.00     0.081 A 
ATOM     66  C   UNL     1      22.637  24.524  25.796  1.00  0.00     0.029 A 
ATOM     67  C   UNL     1      21.777  26.716  25.877  1.00  0.00     0.043 A 
ATOM     68  C   UNL     1      22.861  24.582  27.169  1.00  0.00     0.002 A 
ATOM     69  C   UNL     1      21.995  26.780  27.232  1.00  0.00     0.018 A 
ATOM     70  Br  UNL     1      21.011  28.230  25.009  1.00  0.00    -0.048 Br
ATOM     71  C   UNL     1      22.544  25.709  27.897  1.00  0.00     0.001 A 
ENDBRANCH  63  65
ENDBRANCH  59  60
ENDBRANCH  58  59
ENDBRANCH  55  58
ENDBRANCH  53  54
ENDBRANCH  50  53
ENDBRANCH  47  50
ENDBRANCH   5  47
BRANCH   4  72
ATOM     72  N   UNL     1      29.842  20.839  23.073  1.00  0.00    -0.348 N 
ATOM     73  C   UNL     1      30.996  20.048  23.295  1.00  0.00     0.217 C 
ATOM     74  H   UNL     1      29.660  21.639  23.709  1.00  0.00     0.163 HD
ATOM     75  C   UNL     1      31.884  20.419  24.438  1.00  0.00     0.114 C 
ATOM     76  O   UNL     1      31.281  19.072  22.576  1.00  0.00    -0.275 OA
ENDBRANCH   4  72
TORSDOF 30
