REMARK VINA RESULT:    -5.624      4.044      8.493
REMARK INTER + INTRA:         -21.275
REMARK INTER:                 -15.282
REMARK INTRA:                  -5.993
REMARK UNBOUND:                -6.938
REMARK SMILES CC(=O)N[C@@H]1[C@@H](O)C[C@](OC[C@H]2O[C@@H](O[C@H]3[C@H](O)[C@@H](O)[C@H](OCCN=[N+]=[N-])O[C@@H]3CO)[C@H](O)[C@@H](O)[C@H]2O)(C(=O)O)O[C@H]1C(O)[C@H](O)CNC(=O)OCc1cn(Cc2cc(Br)cc(Br)c2O)nn1
REMARK SMILES IDX 9 1 8 2 6 3 5 4 42 5 41 6 10 7 11 8 12 9 14 10 13 11 32 12
REMARK SMILES IDX 34 13 36 14 15 15 16 16 29 17 28 18 21 19 17 20 19 21 30 22
REMARK SMILES IDX 31 23 22 25 23 26 24 27 25 28 26 29 27 30 18 31 20 33 33 35
REMARK SMILES IDX 35 37 37 39 38 41 39 42 40 43 7 45 43 47 44 48 45 50 46 51
REMARK SMILES IDX 47 53 48 54 49 55 50 57 51 58 52 59 53 60 54 61 67 62 55 63
REMARK SMILES IDX 66 64 56 65 57 66 58 67 64 68 59 69 62 70 60 71 61 72 63 73
REMARK SMILES IDX 65 74 4 76 2 77 1 79 3 80
REMARK H PARENT 31 24 18 32 20 34 33 36 35 38 37 40 40 44 7 46 44 49 46 52
REMARK H PARENT 48 56 65 75 4 78
REMARK Flexibility Score: inf
ROOT
ATOM      1  C   UNL     1      19.014  30.930  21.762  1.00  0.00     0.272 C 
ATOM      2  C   UNL     1      18.359  30.112  22.976  1.00  0.00     0.113 C 
ATOM      3  C   UNL     1      16.892  30.243  22.940  1.00  0.00     0.145 C 
ATOM      4  C   UNL     1      16.360  29.801  21.601  1.00  0.00     0.142 C 
ATOM      5  C   UNL     1      17.359  29.796  20.483  1.00  0.00     0.178 C 
ATOM      6  O   UNL     1      18.538  30.392  20.620  1.00  0.00    -0.332 OA
ENDROOT
BRANCH   1   7
ATOM      7  O   UNL     1      20.314  30.605  21.950  1.00  0.00    -0.338 OA
BRANCH   7   8
ATOM      8  C   UNL     1      20.821  29.388  21.992  1.00  0.00     0.199 C 
BRANCH   8   9
ATOM      9  C   UNL     1      22.145  29.067  21.390  1.00  0.00     0.179 C 
ATOM     10  C   UNL     1      22.210  26.802  21.933  1.00  0.00     0.282 C 
ATOM     11  O   UNL     1      22.778  28.033  21.989  1.00  0.00    -0.341 OA
ATOM     12  C   UNL     1      21.659  26.480  20.582  1.00  0.00     0.202 C 
ATOM     13  C   UNL     1      22.227  27.405  19.541  1.00  0.00     0.179 C 
ATOM     14  C   UNL     1      22.045  28.856  19.878  1.00  0.00     0.177 C 
BRANCH  10  15
ATOM     15  O   UNL     1      21.283  26.626  22.973  1.00  0.00    -0.341 OA
BRANCH  15  16
ATOM     16  C   UNL     1      21.849  26.514  24.222  1.00  0.00     0.184 C 
ATOM     17  C   UNL     1      22.153  25.074  24.568  1.00  0.00     0.178 C 
ATOM     18  O   UNL     1      22.476  24.864  25.878  1.00  0.00    -0.341 OA
ATOM     19  C   UNL     1      22.778  25.989  26.624  1.00  0.00     0.281 C 
ATOM     20  C   UNL     1      20.875  26.964  25.317  1.00  0.00     0.180 C 
ATOM     21  C   UNL     1      21.694  27.031  26.584  1.00  0.00     0.202 C 
BRANCH  17  22
ATOM     22  C   UNL     1      23.204  24.466  23.664  1.00  0.00     0.191 C 
BRANCH  22  23
ATOM     23  O   UNL     1      24.372  24.207  24.348  1.00  0.00    -0.394 OA
ATOM     24  H   UNL     1      25.041  24.883  24.088  1.00  0.00     0.210 HD
ENDBRANCH  22  23
ENDBRANCH  17  22
BRANCH  19  25
ATOM     25  O   UNL     1      24.008  26.479  26.217  1.00  0.00    -0.350 OA
BRANCH  25  26
ATOM     26  C   UNL     1      24.313  27.649  26.859  1.00  0.00     0.169 C 
BRANCH  26  27
ATOM     27  C   UNL     1      25.486  27.605  27.778  1.00  0.00     0.119 C 
BRANCH  27  28
ATOM     28  N   UNL     1      25.719  26.288  28.334  1.00  0.00    -0.092 NA
ATOM     29  N   UNL     1      25.263  25.934  29.403  1.00  0.00     0.001 N 
ATOM     30  N   UNL     1      24.675  25.354  30.312  1.00  0.00    -0.003 NA
ENDBRANCH  27  28
ENDBRANCH  26  27
ENDBRANCH  25  26
ENDBRANCH  19  25
BRANCH  20  31
ATOM     31  O   UNL     1      20.225  28.133  25.027  1.00  0.00    -0.387 OA
ATOM     32  H   UNL     1      19.647  27.938  24.222  1.00  0.00     0.211 HD
ENDBRANCH  20  31
BRANCH  21  33
ATOM     33  O   UNL     1      20.896  26.911  27.716  1.00  0.00    -0.385 OA
ATOM     34  H   UNL     1      19.983  26.681  27.472  1.00  0.00     0.211 HD
ENDBRANCH  21  33
ENDBRANCH  15  16
ENDBRANCH  10  15
BRANCH  12  35
ATOM     35  O   UNL     1      22.017  25.142  20.286  1.00  0.00    -0.385 OA
ATOM     36  H   UNL     1      22.434  24.804  21.113  1.00  0.00     0.211 HD
ENDBRANCH  12  35
BRANCH  13  37
ATOM     37  O   UNL     1      21.737  27.121  18.266  1.00  0.00    -0.387 OA
ATOM     38  H   UNL     1      22.514  26.800  17.743  1.00  0.00     0.211 HD
ENDBRANCH  13  37
BRANCH  14  39
ATOM     39  O   UNL     1      20.806  29.285  19.437  1.00  0.00    -0.387 OA
ATOM     40  H   UNL     1      20.903  29.972  18.724  1.00  0.00     0.211 HD
ENDBRANCH  14  39
ENDBRANCH   8   9
ENDBRANCH   7   8
ENDBRANCH   1   7
BRANCH   1  41
ATOM     41  C   UNL     1      18.617  32.316  21.983  1.00  0.00     0.364 C 
ATOM     42  O   UNL     1      18.975  32.948  23.047  1.00  0.00    -0.246 OA
BRANCH  41  43
ATOM     43  O   UNL     1      17.862  33.061  21.115  1.00  0.00    -0.477 OA
ATOM     44  H   UNL     1      17.206  32.622  20.486  1.00  0.00     0.296 HD
ENDBRANCH  41  43
ENDBRANCH   1  41
BRANCH   3  45
ATOM     45  O   UNL     1      16.344  29.479  23.987  1.00  0.00    -0.391 OA
ATOM     46  H   UNL     1      15.679  28.850  23.627  1.00  0.00     0.211 HD
ENDBRANCH   3  45
BRANCH   5  47
ATOM     47  C   UNL     1      17.428  28.382  19.939  1.00  0.00     0.176 C 
BRANCH  47  48
ATOM     48  O   UNL     1      16.333  27.635  20.440  1.00  0.00    -0.388 OA
ATOM     49  H   UNL     1      15.912  28.097  21.192  1.00  0.00     0.211 HD
ENDBRANCH  47  48
BRANCH  47  50
ATOM     50  C   UNL     1      17.555  28.258  18.477  1.00  0.00     0.165 C 
BRANCH  50  51
ATOM     51  O   UNL     1      18.841  27.968  18.077  1.00  0.00    -0.388 OA
ATOM     52  H   UNL     1      18.897  27.211  17.441  1.00  0.00     0.211 HD
ENDBRANCH  50  51
BRANCH  50  53
ATOM     53  C   UNL     1      16.971  29.334  17.628  1.00  0.00     0.154 C 
BRANCH  53  54
ATOM     54  N   UNL     1      15.680  29.091  17.084  1.00  0.00    -0.319 N 
ATOM     55  C   UNL     1      14.618  29.977  17.474  1.00  0.00     0.407 C 
ATOM     56  H   UNL     1      15.447  28.313  16.447  1.00  0.00     0.167 HD
ATOM     57  O   UNL     1      14.879  30.933  18.282  1.00  0.00    -0.225 OA
BRANCH  55  58
ATOM     58  O   UNL     1      13.358  29.793  16.981  1.00  0.00    -0.443 OA
BRANCH  58  59
ATOM     59  C   UNL     1      13.068  29.799  15.607  1.00  0.00     0.294 C 
BRANCH  59  60
ATOM     60  C   UNL     1      11.650  30.153  15.376  1.00  0.00     0.120 A 
ATOM     61  C   UNL     1      10.968  31.323  15.686  1.00  0.00     0.138 A 
ATOM     62  N   UNL     1      10.722  29.379  14.790  1.00  0.00    -0.132 NA
ATOM     63  N   UNL     1       9.688  31.231  15.297  1.00  0.00    -0.248 N 
ATOM     64  N   UNL     1       9.571  30.019  14.747  1.00  0.00    -0.067 NA
BRANCH  63  65
ATOM     65  C   UNL     1       8.597  32.204  15.414  1.00  0.00     0.185 C 
BRANCH  65  66
ATOM     66  C   UNL     1       8.001  32.043  16.761  1.00  0.00     0.018 A 
ATOM     67  C   UNL     1       8.452  32.848  17.789  1.00  0.00     0.025 A 
ATOM     68  C   UNL     1       7.005  31.111  17.027  1.00  0.00     0.134 A 
ATOM     69  C   UNL     1       7.938  32.753  19.073  1.00  0.00     0.019 A 
ATOM     70  C   UNL     1       6.472  30.991  18.301  1.00  0.00     0.061 A 
ATOM     71  Br  UNL     1       8.590  33.884  20.459  1.00  0.00    -0.051 Br
ATOM     72  C   UNL     1       6.954  31.824  19.311  1.00  0.00     0.035 A 
ATOM     73  Br  UNL     1       5.119  29.718  18.637  1.00  0.00    -0.047 Br
BRANCH  68  74
ATOM     74  O   UNL     1       6.600  30.336  15.958  1.00  0.00    -0.506 OA
ATOM     75  H   UNL     1       6.937  30.553  15.034  1.00  0.00     0.293 HD
ENDBRANCH  68  74
ENDBRANCH  65  66
ENDBRANCH  63  65
ENDBRANCH  59  60
ENDBRANCH  58  59
ENDBRANCH  55  58
ENDBRANCH  53  54
ENDBRANCH  50  53
ENDBRANCH  47  50
ENDBRANCH   5  47
BRANCH   4  76
ATOM     76  N   UNL     1      15.136  30.513  21.303  1.00  0.00    -0.348 N 
ATOM     77  C   UNL     1      13.893  29.862  21.508  1.00  0.00     0.217 C 
ATOM     78  H   UNL     1      15.120  31.493  20.935  1.00  0.00     0.163 HD
ATOM     79  C   UNL     1      12.628  30.599  21.200  1.00  0.00     0.114 C 
ATOM     80  O   UNL     1      13.866  28.665  21.953  1.00  0.00    -0.275 OA
ENDBRANCH   4  76
TORSDOF 32
