REMARK VINA RESULT:    -5.250     15.907     20.132
REMARK INTER + INTRA:         -21.277
REMARK INTER:                 -13.910
REMARK INTRA:                  -7.367
REMARK UNBOUND:                -8.354
REMARK SMILES CC(=O)N[C@@H]1[C@@H](O)C[C@](OC[C@H]2O[C@@H](O[C@H]3[C@H](O)[C@@H](O)[C@H](OCCN=[N+]=[N-])O[C@@H]3CO)[C@H](O)[C@@H](O)[C@H]2O)(C(=O)O)O[C@H]1C(O)[C@H](O)CNC(=O)OCc1cn(-c2cccc(Cl)c2)nn1
REMARK SMILES IDX 9 1 8 2 6 3 5 4 42 5 41 6 10 7 11 8 12 9 14 10 13 11 32 12
REMARK SMILES IDX 34 13 36 14 15 15 16 16 29 17 28 18 21 19 17 20 19 21 30 22
REMARK SMILES IDX 31 23 22 25 23 26 24 27 25 28 26 29 27 30 18 31 20 33 33 35
REMARK SMILES IDX 35 37 37 39 38 41 39 42 40 43 7 45 43 47 44 48 45 50 46 51
REMARK SMILES IDX 47 53 48 54 49 55 50 57 51 58 52 59 53 60 54 61 64 62 55 63
REMARK SMILES IDX 63 64 56 65 57 66 62 67 58 68 60 69 59 70 61 71 4 72 2 73
REMARK SMILES IDX 1 75 3 76
REMARK H PARENT 31 24 18 32 20 34 33 36 35 38 37 40 40 44 7 46 44 49 46 52
REMARK H PARENT 48 56 4 74
REMARK Flexibility Score: inf
ROOT
ATOM      1  C   UNL     1       5.785  26.489  34.382  1.00  0.00     0.272 C 
ATOM      2  C   UNL     1       5.012  27.123  35.451  1.00  0.00     0.113 C 
ATOM      3  C   UNL     1       4.199  26.263  36.359  1.00  0.00     0.145 C 
ATOM      4  C   UNL     1       4.243  24.799  35.998  1.00  0.00     0.142 C 
ATOM      5  C   UNL     1       4.307  24.775  34.462  1.00  0.00     0.178 C 
ATOM      6  O   UNL     1       5.592  25.123  34.169  1.00  0.00    -0.332 OA
ENDROOT
BRANCH   1   7
ATOM      7  O   UNL     1       7.129  26.688  34.297  1.00  0.00    -0.338 OA
BRANCH   7   8
ATOM      8  C   UNL     1       7.716  27.884  34.309  1.00  0.00     0.199 C 
BRANCH   8   9
ATOM      9  C   UNL     1       9.102  28.039  34.841  1.00  0.00     0.179 C 
ATOM     10  C   UNL     1      10.568  27.177  36.403  1.00  0.00     0.282 C 
ATOM     11  O   UNL     1       9.335  26.988  35.753  1.00  0.00    -0.341 OA
ATOM     12  C   UNL     1      11.668  27.157  35.386  1.00  0.00     0.202 C 
ATOM     13  C   UNL     1      11.486  28.014  34.174  1.00  0.00     0.179 C 
ATOM     14  C   UNL     1      10.076  27.819  33.660  1.00  0.00     0.177 C 
BRANCH  10  15
ATOM     15  O   UNL     1      10.719  26.065  37.188  1.00  0.00    -0.341 OA
BRANCH  15  16
ATOM     16  C   UNL     1       9.801  25.028  37.029  1.00  0.00     0.184 C 
ATOM     17  C   UNL     1       8.928  24.796  38.172  1.00  0.00     0.178 C 
ATOM     18  O   UNL     1       8.805  23.477  38.537  1.00  0.00    -0.341 OA
ATOM     19  C   UNL     1       9.954  22.709  38.370  1.00  0.00     0.281 C 
ATOM     20  C   UNL     1      10.558  23.911  36.399  1.00  0.00     0.180 C 
ATOM     21  C   UNL     1      10.077  22.569  36.856  1.00  0.00     0.202 C 
BRANCH  17  22
ATOM     22  C   UNL     1       7.491  25.248  37.862  1.00  0.00     0.191 C 
BRANCH  22  23
ATOM     23  O   UNL     1       7.506  26.666  37.833  1.00  0.00    -0.394 OA
ATOM     24  H   UNL     1       7.688  26.961  36.923  1.00  0.00     0.210 HD
ENDBRANCH  22  23
ENDBRANCH  17  22
BRANCH  19  25
ATOM     25  O   UNL     1       9.746  21.486  38.940  1.00  0.00    -0.350 OA
BRANCH  25  26
ATOM     26  C   UNL     1       9.774  21.435  40.310  1.00  0.00     0.169 C 
BRANCH  26  27
ATOM     27  C   UNL     1      10.516  22.562  40.979  1.00  0.00     0.119 C 
BRANCH  27  28
ATOM     28  N   UNL     1      11.806  22.017  41.430  1.00  0.00    -0.092 NA
ATOM     29  N   UNL     1      12.756  22.827  41.482  1.00  0.00     0.001 N 
ATOM     30  N   UNL     1      13.605  23.607  41.950  1.00  0.00    -0.003 NA
ENDBRANCH  27  28
ENDBRANCH  26  27
ENDBRANCH  25  26
ENDBRANCH  19  25
BRANCH  20  31
ATOM     31  O   UNL     1      10.510  24.017  34.995  1.00  0.00    -0.387 OA
ATOM     32  H   UNL     1       9.731  24.597  34.799  1.00  0.00     0.211 HD
ENDBRANCH  20  31
BRANCH  21  33
ATOM     33  O   UNL     1      11.067  21.628  36.555  1.00  0.00    -0.385 OA
ATOM     34  H   UNL     1      11.261  21.591  35.604  1.00  0.00     0.211 HD
ENDBRANCH  21  33
ENDBRANCH  15  16
ENDBRANCH  10  15
BRANCH  12  35
ATOM     35  O   UNL     1      12.890  27.558  35.948  1.00  0.00    -0.385 OA
ATOM     36  H   UNL     1      13.303  26.839  36.477  1.00  0.00     0.211 HD
ENDBRANCH  12  35
BRANCH  13  37
ATOM     37  O   UNL     1      12.355  27.561  33.180  1.00  0.00    -0.387 OA
ATOM     38  H   UNL     1      12.822  26.737  33.401  1.00  0.00     0.211 HD
ENDBRANCH  13  37
BRANCH  14  39
ATOM     39  O   UNL     1       9.957  26.435  33.396  1.00  0.00    -0.387 OA
ATOM     40  H   UNL     1      10.798  25.960  33.476  1.00  0.00     0.211 HD
ENDBRANCH  14  39
ENDBRANCH   8   9
ENDBRANCH   7   8
ENDBRANCH   1   7
BRANCH   1  41
ATOM     41  C   UNL     1       5.261  27.096  33.071  1.00  0.00     0.364 C 
ATOM     42  O   UNL     1       4.447  28.035  33.041  1.00  0.00    -0.246 OA
BRANCH  41  43
ATOM     43  O   UNL     1       5.719  26.572  31.856  1.00  0.00    -0.477 OA
ATOM     44  H   UNL     1       5.218  26.839  31.000  1.00  0.00     0.296 HD
ENDBRANCH  41  43
ENDBRANCH   1  41
BRANCH   3  45
ATOM     45  O   UNL     1       4.524  26.397  37.698  1.00  0.00    -0.391 OA
ATOM     46  H   UNL     1       4.639  27.339  37.963  1.00  0.00     0.211 HD
ENDBRANCH   3  45
BRANCH   5  47
ATOM     47  C   UNL     1       3.857  23.433  33.911  1.00  0.00     0.176 C 
BRANCH  47  48
ATOM     48  O   UNL     1       2.699  23.756  33.157  1.00  0.00    -0.388 OA
ATOM     49  H   UNL     1       2.361  22.898  32.761  1.00  0.00     0.211 HD
ENDBRANCH  47  48
BRANCH  47  50
ATOM     50  C   UNL     1       4.879  22.952  32.903  1.00  0.00     0.165 C 
BRANCH  50  51
ATOM     51  O   UNL     1       4.976  23.863  31.864  1.00  0.00    -0.388 OA
ATOM     52  H   UNL     1       5.437  24.695  32.113  1.00  0.00     0.211 HD
ENDBRANCH  50  51
BRANCH  50  53
ATOM     53  C   UNL     1       4.396  21.628  32.301  1.00  0.00     0.154 C 
BRANCH  53  54
ATOM     54  N   UNL     1       3.957  21.784  30.942  1.00  0.00    -0.319 N 
ATOM     55  C   UNL     1       2.629  21.729  30.492  1.00  0.00     0.407 C 
ATOM     56  H   UNL     1       4.708  21.957  30.200  1.00  0.00     0.167 HD
ATOM     57  O   UNL     1       1.696  21.553  31.310  1.00  0.00    -0.225 OA
BRANCH  55  58
ATOM     58  O   UNL     1       2.299  21.871  29.114  1.00  0.00    -0.443 OA
BRANCH  58  59
ATOM     59  C   UNL     1       1.741  23.072  28.653  1.00  0.00     0.294 C 
BRANCH  59  60
ATOM     60  C   UNL     1       2.535  24.280  28.996  1.00  0.00     0.121 A 
ATOM     61  C   UNL     1       3.192  25.143  28.112  1.00  0.00     0.144 A 
ATOM     62  N   UNL     1       2.810  24.798  30.205  1.00  0.00    -0.131 NA
ATOM     63  N   UNL     1       3.815  26.114  28.804  1.00  0.00    -0.220 N 
ATOM     64  N   UNL     1       3.576  25.894  30.071  1.00  0.00    -0.062 NA
BRANCH  63  65
ATOM     65  C   UNL     1       4.579  27.139  28.185  1.00  0.00     0.068 A 
ATOM     66  C   UNL     1       4.679  28.421  28.676  1.00  0.00     0.028 A 
ATOM     67  C   UNL     1       5.290  26.876  27.001  1.00  0.00     0.049 A 
ATOM     68  C   UNL     1       5.441  29.391  28.032  1.00  0.00     0.004 A 
ATOM     69  C   UNL     1       6.041  27.835  26.367  1.00  0.00     0.043 A 
ATOM     70  C   UNL     1       6.131  29.112  26.872  1.00  0.00     0.020 A 
ATOM     71  Cl  UNL     1       6.925  27.487  24.888  1.00  0.00    -0.084 Cl
ENDBRANCH  63  65
ENDBRANCH  59  60
ENDBRANCH  58  59
ENDBRANCH  55  58
ENDBRANCH  53  54
ENDBRANCH  50  53
ENDBRANCH  47  50
ENDBRANCH   5  47
BRANCH   4  72
ATOM     72  N   UNL     1       3.152  24.054  36.533  1.00  0.00    -0.348 N 
ATOM     73  C   UNL     1       3.366  22.937  37.416  1.00  0.00     0.217 C 
ATOM     74  H   UNL     1       2.140  24.249  36.341  1.00  0.00     0.163 HD
ATOM     75  C   UNL     1       2.259  22.153  37.981  1.00  0.00     0.114 C 
ATOM     76  O   UNL     1       4.543  22.633  37.704  1.00  0.00    -0.275 OA
ENDBRANCH   4  72
TORSDOF 30
