REMARK VINA RESULT:    -6.104     15.450     20.229
REMARK INTER + INTRA:         -23.922
REMARK INTER:                 -15.865
REMARK INTRA:                  -8.057
REMARK UNBOUND:                -6.934
REMARK SMILES CCOCCc1c(-c2ccccc2)nc(N)nc1-n1cc(COC(=O)NC[C@@H](O)C(O)[C@@H]2O[C@@](OC[C@H]3O[C@@H](O[C@H]4[C@H](O)[C@@H](O)[C@H](OCCN=[N+]=[N-])O[C@@H]4CO)[C@H](O)[C@@H](O)[C@H]3O)(C(=O)O)C[C@H](O)[C@H]2NC(C)=O)nn1
REMARK SMILES IDX 30 1 32 2 34 3 66 4 33 5 67 6 69 7 35 8 36 9 37 10 39 11
REMARK SMILES IDX 38 12 57 13 59 14 61 15 40 16 41 17 54 18 53 19 46 20 42 21
REMARK SMILES IDX 44 22 55 23 56 24 47 26 48 27 49 28 50 29 51 30 52 31 43 32
REMARK SMILES IDX 45 34 58 36 60 38 62 40 63 42 64 43 65 44 68 46 70 48 71 49
REMARK SMILES IDX 72 51 73 52 31 53 28 55 29 56 27 58 26 59 24 60 25 62 23 63
REMARK SMILES IDX 22 64 21 65 20 66 74 67 19 68 75 69 18 70 17 71 6 72 15 73
REMARK SMILES IDX 7 74 14 75 5 76 4 77 3 78 2 79 1 80 16 81 8 84 9 85 13 86
REMARK SMILES IDX 10 87 12 88 11 89
REMARK H PARENT 56 25 43 33 45 35 58 37 60 39 62 41 65 45 68 47 70 50 31 54
REMARK H PARENT 29 57 26 61 16 82 16 83
REMARK Flexibility Score: inf
ROOT
ATOM      1  C   UNL     1      15.278  34.105  22.100  1.00  0.00     0.176 C 
ENDROOT
BRANCH   1   2
ATOM      2  C   UNL     1      14.792  32.793  22.638  1.00  0.00     0.178 C 
ATOM      3  C   UNL     1      15.419  30.548  22.423  1.00  0.00     0.272 C 
ATOM      4  C   UNL     1      14.260  30.372  23.407  1.00  0.00     0.113 C 
ATOM      5  O   UNL     1      15.783  31.836  22.263  1.00  0.00    -0.332 OA
ATOM      6  C   UNL     1      13.042  31.143  23.000  1.00  0.00     0.145 C 
ATOM      7  C   UNL     1      13.497  32.283  22.107  1.00  0.00     0.142 C 
BRANCH   3   8
ATOM      8  O   UNL     1      15.068  29.888  21.266  1.00  0.00    -0.338 OA
BRANCH   8   9
ATOM      9  C   UNL     1      15.531  30.435  20.099  1.00  0.00     0.199 C 
BRANCH   9  10
ATOM     10  C   UNL     1      15.383  29.487  18.918  1.00  0.00     0.179 C 
ATOM     11  C   UNL     1      15.767  29.690  16.625  1.00  0.00     0.282 C 
ATOM     12  O   UNL     1      15.290  30.238  17.782  1.00  0.00    -0.341 OA
ATOM     13  C   UNL     1      17.247  29.373  16.878  1.00  0.00     0.202 C 
ATOM     14  C   UNL     1      17.211  28.144  17.785  1.00  0.00     0.179 C 
ATOM     15  C   UNL     1      16.277  28.315  18.931  1.00  0.00     0.177 C 
BRANCH  11  16
ATOM     16  O   UNL     1      15.588  30.562  15.577  1.00  0.00    -0.341 OA
BRANCH  16  17
ATOM     17  C   UNL     1      14.446  30.282  14.845  1.00  0.00     0.184 C 
ATOM     18  C   UNL     1      13.300  31.132  15.277  1.00  0.00     0.178 C 
ATOM     19  O   UNL     1      12.282  30.506  15.925  1.00  0.00    -0.341 OA
ATOM     20  C   UNL     1      11.831  29.315  15.448  1.00  0.00     0.281 C 
ATOM     21  C   UNL     1      14.143  28.814  14.836  1.00  0.00     0.180 C 
ATOM     22  C   UNL     1      12.699  28.604  14.465  1.00  0.00     0.202 C 
BRANCH  18  23
ATOM     23  C   UNL     1      12.804  32.032  14.145  1.00  0.00     0.191 C 
BRANCH  23  24
ATOM     24  O   UNL     1      13.200  33.344  14.332  1.00  0.00    -0.394 OA
ATOM     25  H   UNL     1      14.182  33.340  14.466  1.00  0.00     0.210 HD
ENDBRANCH  23  24
ENDBRANCH  18  23
BRANCH  20  26
ATOM     26  O   UNL     1      10.582  29.533  14.878  1.00  0.00    -0.350 OA
BRANCH  26  27
ATOM     27  C   UNL     1       9.731  30.286  15.650  1.00  0.00     0.169 C 
BRANCH  27  28
ATOM     28  C   UNL     1       9.005  31.370  14.891  1.00  0.00     0.119 C 
BRANCH  28  29
ATOM     29  N   UNL     1       9.070  32.609  15.664  1.00  0.00    -0.092 NA
ATOM     30  N   UNL     1       9.644  33.614  15.227  1.00  0.00     0.001 N 
ATOM     31  N   UNL     1      10.356  34.478  14.718  1.00  0.00    -0.003 NA
ENDBRANCH  28  29
ENDBRANCH  27  28
ENDBRANCH  26  27
ENDBRANCH  20  26
BRANCH  21  32
ATOM     32  O   UNL     1      14.931  28.113  13.919  1.00  0.00    -0.387 OA
ATOM     33  H   UNL     1      15.896  28.333  14.020  1.00  0.00     0.211 HD
ENDBRANCH  21  32
BRANCH  22  34
ATOM     34  O   UNL     1      12.437  27.237  14.552  1.00  0.00    -0.385 OA
ATOM     35  H   UNL     1      12.732  26.745  13.745  1.00  0.00     0.211 HD
ENDBRANCH  22  34
ENDBRANCH  16  17
ENDBRANCH  11  16
BRANCH  13  36
ATOM     36  O   UNL     1      17.933  29.083  15.724  1.00  0.00    -0.385 OA
ATOM     37  H   UNL     1      17.424  28.458  15.138  1.00  0.00     0.211 HD
ENDBRANCH  13  36
BRANCH  14  38
ATOM     38  O   UNL     1      18.463  27.678  18.115  1.00  0.00    -0.387 OA
ATOM     39  H   UNL     1      18.757  28.003  19.019  1.00  0.00     0.211 HD
ENDBRANCH  14  38
BRANCH  15  40
ATOM     40  O   UNL     1      17.055  28.352  20.108  1.00  0.00    -0.387 OA
ATOM     41  H   UNL     1      17.832  27.745  20.001  1.00  0.00     0.211 HD
ENDBRANCH  15  40
ENDBRANCH   9  10
ENDBRANCH   8   9
ENDBRANCH   3   8
BRANCH   3  42
ATOM     42  C   UNL     1      16.543  29.812  23.085  1.00  0.00     0.364 C 
ATOM     43  O   UNL     1      16.205  29.138  24.121  1.00  0.00    -0.246 OA
BRANCH  42  44
ATOM     44  O   UNL     1      17.845  29.812  22.673  1.00  0.00    -0.477 OA
ATOM     45  H   UNL     1      18.279  30.685  22.387  1.00  0.00     0.296 HD
ENDBRANCH  42  44
ENDBRANCH   3  42
BRANCH   6  46
ATOM     46  O   UNL     1      12.203  30.252  22.313  1.00  0.00    -0.391 OA
ATOM     47  H   UNL     1      12.405  29.321  22.530  1.00  0.00     0.211 HD
ENDBRANCH   6  46
BRANCH   7  48
ATOM     48  N   UNL     1      12.456  33.243  21.906  1.00  0.00    -0.348 N 
ATOM     49  C   UNL     1      11.875  33.526  20.642  1.00  0.00     0.217 C 
ATOM     50  H   UNL     1      12.105  33.739  22.753  1.00  0.00     0.163 HD
ATOM     51  C   UNL     1      10.803  34.536  20.551  1.00  0.00     0.114 C 
ATOM     52  O   UNL     1      12.272  32.921  19.623  1.00  0.00    -0.275 OA
ENDBRANCH   7  48
ENDBRANCH   1   2
BRANCH   1  53
ATOM     53  O   UNL     1      15.095  34.016  20.677  1.00  0.00    -0.388 OA
ATOM     54  H   UNL     1      15.916  34.381  20.286  1.00  0.00     0.211 HD
ENDBRANCH   1  53
BRANCH   1  55
ATOM     55  C   UNL     1      16.685  34.488  22.321  1.00  0.00     0.165 C 
BRANCH  55  56
ATOM     56  O   UNL     1      16.656  35.898  22.526  1.00  0.00    -0.388 OA
ATOM     57  H   UNL     1      17.264  36.109  23.263  1.00  0.00     0.211 HD
ENDBRANCH  55  56
BRANCH  55  58
ATOM     58  C   UNL     1      17.659  34.194  21.259  1.00  0.00     0.154 C 
BRANCH  58  59
ATOM     59  N   UNL     1      18.182  32.884  21.233  1.00  0.00    -0.319 N 
ATOM     60  C   UNL     1      18.435  32.114  20.082  1.00  0.00     0.407 C 
ATOM     61  H   UNL     1      18.434  32.361  22.152  1.00  0.00     0.167 HD
ATOM     62  O   UNL     1      18.206  32.539  18.928  1.00  0.00    -0.225 OA
BRANCH  60  63
ATOM     63  O   UNL     1      18.963  30.820  20.149  1.00  0.00    -0.443 OA
BRANCH  63  64
ATOM     64  C   UNL     1      20.347  30.569  20.031  1.00  0.00     0.294 C 
BRANCH  64  65
ATOM     65  C   UNL     1      20.665  29.141  20.270  1.00  0.00     0.121 A 
ATOM     66  C   UNL     1      21.695  28.420  19.723  1.00  0.00     0.146 A 
ATOM     67  N   UNL     1      19.995  28.263  21.051  1.00  0.00    -0.131 NA
ATOM     68  N   UNL     1      21.631  27.113  20.180  1.00  0.00    -0.202 N 
ATOM     69  N   UNL     1      20.597  27.091  20.966  1.00  0.00    -0.060 NA
BRANCH  68  70
ATOM     70  C   UNL     1      22.586  26.187  19.726  1.00  0.00     0.164 A 
ATOM     71  N   UNL     1      22.320  25.483  18.597  1.00  0.00    -0.193 NA
ATOM     72  C   UNL     1      23.842  25.990  20.317  1.00  0.00     0.026 A 
ATOM     73  C   UNL     1      23.183  24.634  18.036  1.00  0.00     0.222 A 
ATOM     74  C   UNL     1      24.741  25.131  19.760  1.00  0.00     0.081 A 
ATOM     75  N   UNL     1      24.374  24.466  18.614  1.00  0.00    -0.213 NA
BRANCH  72  76
ATOM     76  C   UNL     1      24.054  26.667  21.602  1.00  0.00     0.070 C 
BRANCH  76  77
ATOM     77  C   UNL     1      23.881  25.776  22.812  1.00  0.00     0.165 C 
BRANCH  77  78
ATOM     78  O   UNL     1      22.886  24.849  22.763  1.00  0.00    -0.381 OA
BRANCH  78  79
ATOM     79  C   UNL     1      22.215  24.562  23.913  1.00  0.00     0.156 C 
ATOM     80  C   UNL     1      20.694  24.552  23.685  1.00  0.00     0.035 C 
ENDBRANCH  78  79
ENDBRANCH  77  78
ENDBRANCH  76  77
ENDBRANCH  72  76
BRANCH  73  81
ATOM     81  N   UNL     1      22.853  23.913  16.845  1.00  0.00    -0.368 N 
ATOM     82  H   UNL     1      22.307  23.029  16.902  1.00  0.00     0.159 HD
ATOM     83  H   UNL     1      23.134  24.230  15.902  1.00  0.00     0.159 HD
ENDBRANCH  73  81
BRANCH  74  84
ATOM     84  C   UNL     1      26.064  24.892  20.292  1.00  0.00     0.001 A 
ATOM     85  C   UNL     1      26.250  23.769  21.095  1.00  0.00     0.010 A 
ATOM     86  C   UNL     1      27.139  25.715  20.013  1.00  0.00     0.010 A 
ATOM     87  C   UNL     1      27.497  23.457  21.621  1.00  0.00     0.001 A 
ATOM     88  C   UNL     1      28.364  25.389  20.544  1.00  0.00     0.001 A 
ATOM     89  C   UNL     1      28.558  24.284  21.335  1.00  0.00     0.000 A 
ENDBRANCH  74  84
ENDBRANCH  68  70
ENDBRANCH  64  65
ENDBRANCH  63  64
ENDBRANCH  60  63
ENDBRANCH  58  59
ENDBRANCH  55  58
ENDBRANCH   1  55
TORSDOF 36
