REMARK VINA RESULT:    -5.853      4.458     11.977
REMARK INTER + INTRA:         -20.371
REMARK INTER:                 -15.653
REMARK INTRA:                  -4.718
REMARK UNBOUND:                -5.964
REMARK SMILES CC(=O)N[C@@H]1[C@@H](O)C[C@](OC[C@H]2O[C@@H](O[C@H]3[C@H](O)[C@@H](O)[C@H](OCCN=[N+]=[N-])O[C@@H]3CO)[C@H](O)[C@@H](O)[C@H]2O)(C(=O)O)O[C@H]1C(O)[C@H](O)CNC(=O)OCc1cn(C2CCN(C)CC2)nn1
REMARK SMILES IDX 9 1 8 2 6 3 5 4 42 5 41 6 10 7 11 8 12 9 14 10 13 11 32 12
REMARK SMILES IDX 34 13 36 14 15 15 16 16 29 17 28 18 21 19 17 20 19 21 30 22
REMARK SMILES IDX 31 23 22 25 23 26 24 27 25 28 26 29 27 30 18 31 20 33 33 35
REMARK SMILES IDX 35 37 37 39 38 41 39 42 40 43 7 45 43 47 44 48 45 50 46 51
REMARK SMILES IDX 47 53 48 54 49 55 50 57 51 58 52 59 53 60 54 61 64 62 55 63
REMARK SMILES IDX 63 64 56 65 57 66 62 67 58 68 61 69 59 70 60 71 4 72 2 73
REMARK SMILES IDX 1 75 3 76
REMARK H PARENT 31 24 18 32 20 34 33 36 35 38 37 40 40 44 7 46 44 49 46 52
REMARK H PARENT 48 56 4 74
REMARK Flexibility Score: inf
ROOT
ATOM      1  C   UNL     1      30.417  19.375  21.298  1.00  0.00     0.272 C 
ATOM      2  C   UNL     1      30.738  18.917  19.887  1.00  0.00     0.113 C 
ATOM      3  C   UNL     1      29.936  19.517  18.807  1.00  0.00     0.145 C 
ATOM      4  C   UNL     1      29.624  20.986  18.987  1.00  0.00     0.142 C 
ATOM      5  C   UNL     1      29.721  21.442  20.392  1.00  0.00     0.178 C 
ATOM      6  O   UNL     1      30.493  20.805  21.264  1.00  0.00    -0.332 OA
ENDROOT
BRANCH   1   7
ATOM      7  O   UNL     1      31.449  19.052  22.092  1.00  0.00    -0.338 OA
BRANCH   7   8
ATOM      8  C   UNL     1      31.599  18.988  23.372  1.00  0.00     0.199 C 
BRANCH   8   9
ATOM      9  C   UNL     1      31.390  20.140  24.305  1.00  0.00     0.179 C 
ATOM     10  C   UNL     1      32.452  19.609  26.377  1.00  0.00     0.282 C 
ATOM     11  O   UNL     1      31.366  19.619  25.570  1.00  0.00    -0.341 OA
ATOM     12  C   UNL     1      33.677  20.138  25.768  1.00  0.00     0.202 C 
ATOM     13  C   UNL     1      33.300  21.523  25.213  1.00  0.00     0.179 C 
ATOM     14  C   UNL     1      32.343  21.270  24.105  1.00  0.00     0.177 C 
BRANCH  10  15
ATOM     15  O   UNL     1      32.482  18.319  26.893  1.00  0.00    -0.341 OA
BRANCH  15  16
ATOM     16  C   UNL     1      33.101  18.130  28.059  1.00  0.00     0.184 C 
ATOM     17  C   UNL     1      33.867  16.852  28.070  1.00  0.00     0.178 C 
ATOM     18  O   UNL     1      34.807  16.906  29.105  1.00  0.00    -0.341 OA
ATOM     19  C   UNL     1      34.164  16.898  30.321  1.00  0.00     0.281 C 
ATOM     20  C   UNL     1      32.147  17.996  29.257  1.00  0.00     0.180 C 
ATOM     21  C   UNL     1      33.070  17.920  30.469  1.00  0.00     0.202 C 
BRANCH  17  22
ATOM     22  C   UNL     1      34.474  16.461  26.767  1.00  0.00     0.191 C 
BRANCH  22  23
ATOM     23  O   UNL     1      33.645  15.538  26.145  1.00  0.00    -0.394 OA
ATOM     24  H   UNL     1      33.988  14.612  26.232  1.00  0.00     0.210 HD
ENDBRANCH  22  23
ENDBRANCH  17  22
BRANCH  19  25
ATOM     25  O   UNL     1      35.130  17.227  31.282  1.00  0.00    -0.350 OA
BRANCH  25  26
ATOM     26  C   UNL     1      36.190  17.944  30.789  1.00  0.00     0.169 C 
BRANCH  26  27
ATOM     27  C   UNL     1      36.103  19.430  31.072  1.00  0.00     0.119 C 
BRANCH  27  28
ATOM     28  N   UNL     1      35.765  20.170  29.871  1.00  0.00    -0.092 NA
ATOM     29  N   UNL     1      34.799  20.931  29.847  1.00  0.00     0.001 N 
ATOM     30  N   UNL     1      33.674  21.329  29.540  1.00  0.00    -0.003 NA
ENDBRANCH  27  28
ENDBRANCH  26  27
ENDBRANCH  25  26
ENDBRANCH  19  25
BRANCH  20  31
ATOM     31  O   UNL     1      31.350  19.094  29.438  1.00  0.00    -0.387 OA
ATOM     32  H   UNL     1      31.156  19.498  28.564  1.00  0.00     0.211 HD
ENDBRANCH  20  31
BRANCH  21  33
ATOM     33  O   UNL     1      32.324  17.662  31.592  1.00  0.00    -0.385 OA
ATOM     34  H   UNL     1      32.727  16.999  32.175  1.00  0.00     0.211 HD
ENDBRANCH  21  33
ENDBRANCH  15  16
ENDBRANCH  10  15
BRANCH  12  35
ATOM     35  O   UNL     1      34.706  20.424  26.662  1.00  0.00    -0.385 OA
ATOM     36  H   UNL     1      34.470  20.107  27.569  1.00  0.00     0.211 HD
ENDBRANCH  12  35
BRANCH  13  37
ATOM     37  O   UNL     1      34.396  22.249  24.820  1.00  0.00    -0.387 OA
ATOM     38  H   UNL     1      34.372  22.322  23.832  1.00  0.00     0.211 HD
ENDBRANCH  13  37
BRANCH  14  39
ATOM     39  O   UNL     1      33.070  21.045  22.939  1.00  0.00    -0.387 OA
ATOM     40  H   UNL     1      32.583  21.303  22.123  1.00  0.00     0.211 HD
ENDBRANCH  14  39
ENDBRANCH   8   9
ENDBRANCH   7   8
ENDBRANCH   1   7
BRANCH   1  41
ATOM     41  C   UNL     1      29.050  18.995  21.621  1.00  0.00     0.364 C 
ATOM     42  O   UNL     1      28.387  19.797  22.397  1.00  0.00    -0.246 OA
BRANCH  41  43
ATOM     43  O   UNL     1      28.311  17.905  21.247  1.00  0.00    -0.477 OA
ATOM     44  H   UNL     1      28.183  17.071  21.821  1.00  0.00     0.296 HD
ENDBRANCH  41  43
ENDBRANCH   1  41
BRANCH   3  45
ATOM     45  O   UNL     1      30.636  19.353  17.574  1.00  0.00    -0.391 OA
ATOM     46  H   UNL     1      30.010  19.251  16.827  1.00  0.00     0.211 HD
ENDBRANCH   3  45
BRANCH   5  47
ATOM     47  C   UNL     1      30.110  22.945  20.456  1.00  0.00     0.176 C 
BRANCH  47  48
ATOM     48  O   UNL     1      31.352  23.066  21.064  1.00  0.00    -0.388 OA
ATOM     49  H   UNL     1      31.395  22.630  21.941  1.00  0.00     0.211 HD
ENDBRANCH  47  48
BRANCH  47  50
ATOM     50  C   UNL     1      29.084  23.716  21.150  1.00  0.00     0.165 C 
BRANCH  50  51
ATOM     51  O   UNL     1      28.613  22.872  22.230  1.00  0.00    -0.388 OA
ATOM     52  H   UNL     1      27.964  23.381  22.772  1.00  0.00     0.211 HD
ENDBRANCH  50  51
BRANCH  50  53
ATOM     53  C   UNL     1      27.896  24.207  20.441  1.00  0.00     0.154 C 
BRANCH  53  54
ATOM     54  N   UNL     1      26.596  23.761  20.714  1.00  0.00    -0.319 N 
ATOM     55  C   UNL     1      25.777  24.118  21.813  1.00  0.00     0.407 C 
ATOM     56  H   UNL     1      26.160  23.064  20.017  1.00  0.00     0.167 HD
ATOM     57  O   UNL     1      26.156  24.944  22.666  1.00  0.00    -0.225 OA
BRANCH  55  58
ATOM     58  O   UNL     1      24.505  23.512  21.927  1.00  0.00    -0.443 OA
BRANCH  58  59
ATOM     59  C   UNL     1      23.385  24.189  21.419  1.00  0.00     0.294 C 
BRANCH  59  60
ATOM     60  C   UNL     1      22.504  24.565  22.550  1.00  0.00     0.120 A 
ATOM     61  C   UNL     1      22.931  24.932  23.838  1.00  0.00     0.138 A 
ATOM     62  N   UNL     1      21.167  24.652  22.622  1.00  0.00    -0.132 NA
ATOM     63  N   UNL     1      21.865  25.217  24.606  1.00  0.00    -0.249 N 
ATOM     64  N   UNL     1      20.816  25.040  23.848  1.00  0.00    -0.067 NA
BRANCH  63  65
ATOM     65  C   UNL     1      21.891  25.634  25.988  1.00  0.00     0.111 C 
ATOM     66  C   UNL     1      22.662  24.602  26.762  1.00  0.00     0.043 C 
ATOM     67  C   UNL     1      22.543  26.978  26.166  1.00  0.00     0.043 C 
ATOM     68  C   UNL     1      24.046  25.132  27.057  1.00  0.00     0.086 C 
ATOM     69  C   UNL     1      23.006  27.229  27.576  1.00  0.00     0.086 C 
ATOM     70  N   UNL     1      23.908  26.200  28.048  1.00  0.00    -0.306 NA
ATOM     71  C   UNL     1      23.364  25.609  29.258  1.00  0.00     0.105 C 
ENDBRANCH  63  65
ENDBRANCH  59  60
ENDBRANCH  58  59
ENDBRANCH  55  58
ENDBRANCH  53  54
ENDBRANCH  50  53
ENDBRANCH  47  50
ENDBRANCH   5  47
BRANCH   4  72
ATOM     72  N   UNL     1      28.343  21.334  18.404  1.00  0.00    -0.348 N 
ATOM     73  C   UNL     1      28.302  21.862  17.093  1.00  0.00     0.217 C 
ATOM     74  H   UNL     1      27.439  21.209  18.922  1.00  0.00     0.163 HD
ATOM     75  C   UNL     1      27.004  22.241  16.445  1.00  0.00     0.114 C 
ATOM     76  O   UNL     1      29.382  22.023  16.440  1.00  0.00    -0.275 OA
ENDBRANCH   4  72
TORSDOF 30
