REMARK VINA RESULT:    -6.024      0.000      0.000
REMARK INTER + INTRA:         -23.389
REMARK INTER:                 -17.146
REMARK INTRA:                  -6.243
REMARK UNBOUND:                -8.561
REMARK SMILES CC(=O)N[C@@H]1[C@@H](O)C[C@](OC[C@H]2O[C@@H](O[C@H]3[C@H](O)[C@@H](O)[C@H](OCCN=[N+]=[N-])O[C@@H]3CO)[C@H](O)[C@@H](O)[C@H]2O)(C(=O)O)O[C@H]1C(O)[C@H](O)CNC(=O)OCc1cn(-c2cnc3ccccc3c2)nn1
REMARK SMILES IDX 9 1 8 2 6 3 5 4 42 5 41 6 10 7 11 8 12 9 14 10 13 11 32 12
REMARK SMILES IDX 34 13 36 14 15 15 16 16 29 17 28 18 21 19 17 20 19 21 30 22
REMARK SMILES IDX 31 23 22 25 23 26 24 27 25 28 26 29 27 30 18 31 20 33 33 35
REMARK SMILES IDX 35 37 37 39 38 41 39 42 40 43 7 45 43 47 44 48 45 50 46 51
REMARK SMILES IDX 47 53 48 54 49 55 50 57 51 58 52 59 53 60 54 61 67 62 55 63
REMARK SMILES IDX 66 64 56 65 57 66 65 67 58 68 64 69 59 70 63 71 60 72 62 73
REMARK SMILES IDX 61 74 4 75 2 76 1 78 3 79
REMARK H PARENT 31 24 18 32 20 34 33 36 35 38 37 40 40 44 7 46 44 49 46 52
REMARK H PARENT 48 56 4 77
REMARK Flexibility Score: inf
ROOT
ATOM      1  C   UNL     1      22.973  22.546  13.467  1.00  0.00     0.272 C 
ATOM      2  C   UNL     1      21.868  23.020  12.593  1.00  0.00     0.113 C 
ATOM      3  C   UNL     1      21.614  22.085  11.427  1.00  0.00     0.145 C 
ATOM      4  C   UNL     1      21.523  20.689  12.045  1.00  0.00     0.142 C 
ATOM      5  C   UNL     1      22.935  20.368  12.559  1.00  0.00     0.178 C 
ATOM      6  O   UNL     1      23.044  21.202  13.693  1.00  0.00    -0.332 OA
ENDROOT
BRANCH   1   7
ATOM      7  O   UNL     1      22.891  23.124  14.751  1.00  0.00    -0.338 OA
BRANCH   7   8
ATOM      8  C   UNL     1      22.893  24.491  14.758  1.00  0.00     0.199 C 
BRANCH   8   9
ATOM      9  C   UNL     1      23.408  24.965  16.100  1.00  0.00     0.179 C 
ATOM     10  C   UNL     1      22.919  25.190  18.331  1.00  0.00     0.282 C 
ATOM     11  O   UNL     1      22.703  24.460  17.173  1.00  0.00    -0.341 OA
ATOM     12  C   UNL     1      24.253  25.879  18.339  1.00  0.00     0.202 C 
ATOM     13  C   UNL     1      25.316  25.156  17.590  1.00  0.00     0.179 C 
ATOM     14  C   UNL     1      24.876  24.924  16.173  1.00  0.00     0.177 C 
BRANCH  10  15
ATOM     15  O   UNL     1      22.726  24.376  19.426  1.00  0.00    -0.341 OA
BRANCH  15  16
ATOM     16  C   UNL     1      23.046  25.001  20.631  1.00  0.00     0.184 C 
ATOM     17  C   UNL     1      23.809  24.105  21.576  1.00  0.00     0.178 C 
ATOM     18  O   UNL     1      23.350  24.068  22.855  1.00  0.00    -0.341 OA
ATOM     19  C   UNL     1      23.015  25.253  23.450  1.00  0.00     0.281 C 
ATOM     20  C   UNL     1      21.857  25.673  21.260  1.00  0.00     0.180 C 
ATOM     21  C   UNL     1      22.233  26.210  22.605  1.00  0.00     0.202 C 
BRANCH  17  22
ATOM     22  C   UNL     1      25.314  24.358  21.461  1.00  0.00     0.191 C 
BRANCH  22  23
ATOM     23  O   UNL     1      26.009  23.891  22.573  1.00  0.00    -0.394 OA
ATOM     24  H   UNL     1      26.317  22.968  22.472  1.00  0.00     0.210 HD
ENDBRANCH  22  23
ENDBRANCH  17  22
BRANCH  19  25
ATOM     25  O   UNL     1      24.096  25.879  24.076  1.00  0.00    -0.350 OA
BRANCH  25  26
ATOM     26  C   UNL     1      23.749  26.466  25.274  1.00  0.00     0.169 C 
BRANCH  26  27
ATOM     27  C   UNL     1      23.019  25.506  26.184  1.00  0.00     0.119 C 
BRANCH  27  28
ATOM     28  N   UNL     1      22.001  26.195  26.950  1.00  0.00    -0.092 NA
ATOM     29  N   UNL     1      21.382  27.161  26.504  1.00  0.00     0.001 N 
ATOM     30  N   UNL     1      20.517  27.830  25.938  1.00  0.00    -0.003 NA
ENDBRANCH  27  28
ENDBRANCH  26  27
ENDBRANCH  25  26
ENDBRANCH  19  25
BRANCH  20  31
ATOM     31  O   UNL     1      21.503  26.773  20.448  1.00  0.00    -0.387 OA
ATOM     32  H   UNL     1      21.696  26.567  19.494  1.00  0.00     0.211 HD
ENDBRANCH  20  31
BRANCH  21  33
ATOM     33  O   UNL     1      21.032  26.615  23.233  1.00  0.00    -0.385 OA
ATOM     34  H   UNL     1      20.254  26.176  22.778  1.00  0.00     0.211 HD
ENDBRANCH  21  33
ENDBRANCH  15  16
ENDBRANCH  10  15
BRANCH  12  35
ATOM     35  O   UNL     1      24.202  27.195  17.890  1.00  0.00    -0.385 OA
ATOM     36  H   UNL     1      25.058  27.481  17.490  1.00  0.00     0.211 HD
ENDBRANCH  12  35
BRANCH  13  37
ATOM     37  O   UNL     1      25.652  23.961  18.230  1.00  0.00    -0.387 OA
ATOM     38  H   UNL     1      24.970  23.733  18.883  1.00  0.00     0.211 HD
ENDBRANCH  13  37
BRANCH  14  39
ATOM     39  O   UNL     1      25.443  23.722  15.762  1.00  0.00    -0.387 OA
ATOM     40  H   UNL     1      25.495  23.630  14.793  1.00  0.00     0.211 HD
ENDBRANCH  14  39
ENDBRANCH   8   9
ENDBRANCH   7   8
ENDBRANCH   1   7
BRANCH   1  41
ATOM     41  C   UNL     1      24.278  22.949  12.836  1.00  0.00     0.364 C 
ATOM     42  O   UNL     1      24.303  23.771  11.863  1.00  0.00    -0.246 OA
BRANCH  41  43
ATOM     43  O   UNL     1      25.508  22.484  13.236  1.00  0.00    -0.477 OA
ATOM     44  H   UNL     1      26.026  22.879  14.036  1.00  0.00     0.296 HD
ENDBRANCH  41  43
ENDBRANCH   1  41
BRANCH   3  45
ATOM     45  O   UNL     1      20.476  22.411  10.728  1.00  0.00    -0.391 OA
ATOM     46  H   UNL     1      20.362  23.383  10.763  1.00  0.00     0.211 HD
ENDBRANCH   3  45
BRANCH   5  47
ATOM     47  C   UNL     1      23.022  18.963  13.088  1.00  0.00     0.176 C 
BRANCH  47  48
ATOM     48  O   UNL     1      22.640  19.010  14.455  1.00  0.00    -0.388 OA
ATOM     49  H   UNL     1      23.177  18.376  14.994  1.00  0.00     0.211 HD
ENDBRANCH  47  48
BRANCH  47  50
ATOM     50  C   UNL     1      24.423  18.368  13.079  1.00  0.00     0.165 C 
BRANCH  50  51
ATOM     51  O   UNL     1      25.175  19.349  13.818  1.00  0.00    -0.388 OA
ATOM     52  H   UNL     1      25.843  19.722  13.197  1.00  0.00     0.211 HD
ENDBRANCH  50  51
BRANCH  50  53
ATOM     53  C   UNL     1      25.028  18.469  11.695  1.00  0.00     0.154 C 
BRANCH  53  54
ATOM     54  N   UNL     1      26.440  18.472  11.619  1.00  0.00    -0.319 N 
ATOM     55  C   UNL     1      27.234  19.625  11.441  1.00  0.00     0.407 C 
ATOM     56  H   UNL     1      26.932  17.526  11.703  1.00  0.00     0.167 HD
ATOM     57  O   UNL     1      26.676  20.734  11.326  1.00  0.00    -0.225 OA
BRANCH  55  58
ATOM     58  O   UNL     1      28.601  19.472  11.398  1.00  0.00    -0.443 OA
BRANCH  58  59
ATOM     59  C   UNL     1      29.456  20.017  12.366  1.00  0.00     0.294 C 
BRANCH  59  60
ATOM     60  C   UNL     1      28.925  19.725  13.736  1.00  0.00     0.121 A 
ATOM     61  C   UNL     1      29.066  20.455  14.868  1.00  0.00     0.144 A 
ATOM     62  N   UNL     1      28.196  18.627  14.044  1.00  0.00    -0.131 NA
ATOM     63  N   UNL     1      28.419  19.780  15.837  1.00  0.00    -0.219 N 
ATOM     64  N   UNL     1      27.891  18.666  15.324  1.00  0.00    -0.062 NA
BRANCH  63  65
ATOM     65  C   UNL     1      28.328  20.209  17.193  1.00  0.00     0.085 A 
ATOM     66  C   UNL     1      27.912  21.470  17.477  1.00  0.00     0.140 A 
ATOM     67  C   UNL     1      28.665  19.316  18.197  1.00  0.00     0.040 A 
ATOM     68  N   UNL     1      27.826  21.859  18.765  1.00  0.00    -0.254 NA
ATOM     69  C   UNL     1      28.570  19.727  19.496  1.00  0.00     0.002 A 
ATOM     70  C   UNL     1      28.149  21.002  19.741  1.00  0.00     0.070 A 
ATOM     71  C   UNL     1      28.900  18.856  20.513  1.00  0.00     0.010 A 
ATOM     72  C   UNL     1      28.054  21.416  21.071  1.00  0.00     0.029 A 
ATOM     73  C   UNL     1      28.798  19.288  21.825  1.00  0.00     0.001 A 
ATOM     74  C   UNL     1      28.370  20.586  22.109  1.00  0.00     0.002 A 
ENDBRANCH  63  65
ENDBRANCH  59  60
ENDBRANCH  58  59
ENDBRANCH  55  58
ENDBRANCH  53  54
ENDBRANCH  50  53
ENDBRANCH  47  50
ENDBRANCH   5  47
BRANCH   4  75
ATOM     75  N   UNL     1      20.972  19.745  11.149  1.00  0.00    -0.348 N 
ATOM     76  C   UNL     1      19.560  19.443  11.176  1.00  0.00     0.217 C 
ATOM     77  H   UNL     1      21.513  19.231  10.423  1.00  0.00     0.163 HD
ATOM     78  C   UNL     1      18.974  18.467  10.255  1.00  0.00     0.114 C 
ATOM     79  O   UNL     1      18.863  20.063  12.034  1.00  0.00    -0.275 OA
ENDBRANCH   4  75
TORSDOF 30
