REMARK VINA RESULT:    -6.342      3.310      8.698
REMARK INTER + INTRA:         -20.628
REMARK INTER:                 -12.511
REMARK INTRA:                  -8.117
REMARK UNBOUND:                -5.017
REMARK SMILES CC(=O)N[C@@H]1[C@@H](O)C[C@](OC[C@H]2O[C@@H](O[C@H]3[C@H](O)[C@@H](O)[C@H](OCCN=[N+]=[N-])O[C@@H]3CO)[C@H](O)[C@@H](O)[C@H]2O)(C(=O)O)O[C@H]1C(O)[C@H](O)CNC(=O)OCc1cn(C2CCCCC2)nn1
REMARK SMILES IDX 9 1 8 2 6 3 5 4 42 5 41 6 10 7 11 8 12 9 14 10 13 11 32 12
REMARK SMILES IDX 34 13 36 14 15 15 16 16 29 17 28 18 21 19 17 20 19 21 30 22
REMARK SMILES IDX 31 23 22 25 23 26 24 27 25 28 26 29 27 30 18 31 20 33 33 35
REMARK SMILES IDX 35 37 37 39 38 41 39 42 40 43 7 45 43 47 44 48 45 50 46 51
REMARK SMILES IDX 47 53 48 54 49 55 50 57 51 58 52 59 53 60 54 61 63 62 55 63
REMARK SMILES IDX 62 64 56 65 57 66 61 67 58 68 60 69 59 70 4 71 2 72 1 74
REMARK SMILES IDX 3 75
REMARK H PARENT 31 24 18 32 20 34 33 36 35 38 37 40 40 44 7 46 44 49 46 52
REMARK H PARENT 48 56 4 73
REMARK Flexibility Score: inf
ROOT
ATOM      1  C   UNL     1      22.774  30.217  21.221  1.00  0.00     0.272 C 
ATOM      2  C   UNL     1      22.179  29.877  22.638  1.00  0.00     0.113 C 
ATOM      3  C   UNL     1      20.734  29.510  22.493  1.00  0.00     0.145 C 
ATOM      4  C   UNL     1      19.965  30.604  21.801  1.00  0.00     0.142 C 
ATOM      5  C   UNL     1      20.724  31.267  20.706  1.00  0.00     0.178 C 
ATOM      6  O   UNL     1      22.033  31.151  20.601  1.00  0.00    -0.332 OA
ENDROOT
BRANCH   1   7
ATOM      7  O   UNL     1      22.778  29.041  20.608  1.00  0.00    -0.338 OA
BRANCH   7   8
ATOM      8  C   UNL     1      23.305  28.573  19.528  1.00  0.00     0.199 C 
BRANCH   8   9
ATOM      9  C   UNL     1      23.962  27.204  19.461  1.00  0.00     0.179 C 
ATOM     10  C   UNL     1      24.192  25.804  21.328  1.00  0.00     0.282 C 
ATOM     11  O   UNL     1      24.646  26.892  20.591  1.00  0.00    -0.341 OA
ATOM     12  C   UNL     1      24.092  24.615  20.449  1.00  0.00     0.202 C 
ATOM     13  C   UNL     1      23.330  24.861  19.170  1.00  0.00     0.179 C 
ATOM     14  C   UNL     1      22.814  26.249  19.152  1.00  0.00     0.177 C 
BRANCH  10  15
ATOM     15  O   UNL     1      23.115  26.206  22.028  1.00  0.00    -0.341 OA
BRANCH  15  16
ATOM     16  C   UNL     1      23.107  26.128  23.382  1.00  0.00     0.184 C 
ATOM     17  C   UNL     1      21.735  25.654  23.814  1.00  0.00     0.178 C 
ATOM     18  O   UNL     1      21.703  25.268  25.140  1.00  0.00    -0.341 OA
ATOM     19  C   UNL     1      22.641  25.873  25.933  1.00  0.00     0.281 C 
ATOM     20  C   UNL     1      23.296  27.460  24.078  1.00  0.00     0.180 C 
ATOM     21  C   UNL     1      22.907  27.276  25.526  1.00  0.00     0.202 C 
BRANCH  17  22
ATOM     22  C   UNL     1      21.132  24.635  22.890  1.00  0.00     0.191 C 
BRANCH  22  23
ATOM     23  O   UNL     1      20.387  25.325  21.932  1.00  0.00    -0.394 OA
ATOM     24  H   UNL     1      20.402  24.875  21.054  1.00  0.00     0.210 HD
ENDBRANCH  22  23
ENDBRANCH  17  22
BRANCH  19  25
ATOM     25  O   UNL     1      23.731  25.055  26.060  1.00  0.00    -0.350 OA
BRANCH  25  26
ATOM     26  C   UNL     1      23.705  24.230  27.174  1.00  0.00     0.169 C 
BRANCH  26  27
ATOM     27  C   UNL     1      22.920  24.791  28.329  1.00  0.00     0.119 C 
BRANCH  27  28
ATOM     28  N   UNL     1      23.855  25.357  29.279  1.00  0.00    -0.092 NA
ATOM     29  N   UNL     1      24.167  26.542  29.099  1.00  0.00     0.001 N 
ATOM     30  N   UNL     1      24.933  27.460  28.755  1.00  0.00    -0.003 NA
ENDBRANCH  27  28
ENDBRANCH  26  27
ENDBRANCH  25  26
ENDBRANCH  19  25
BRANCH  20  31
ATOM     31  O   UNL     1      24.586  27.931  24.031  1.00  0.00    -0.387 OA
ATOM     32  H   UNL     1      24.959  27.959  23.116  1.00  0.00     0.211 HD
ENDBRANCH  20  31
BRANCH  21  33
ATOM     33  O   UNL     1      21.694  27.987  25.694  1.00  0.00    -0.385 OA
ATOM     34  H   UNL     1      21.004  27.647  25.074  1.00  0.00     0.211 HD
ENDBRANCH  21  33
ENDBRANCH  15  16
ENDBRANCH  10  15
BRANCH  12  35
ATOM     35  O   UNL     1      25.421  24.308  20.055  1.00  0.00    -0.385 OA
ATOM     36  H   UNL     1      25.784  24.990  19.449  1.00  0.00     0.211 HD
ENDBRANCH  12  35
BRANCH  13  37
ATOM     37  O   UNL     1      22.265  23.950  19.033  1.00  0.00    -0.387 OA
ATOM     38  H   UNL     1      21.568  24.366  18.501  1.00  0.00     0.211 HD
ENDBRANCH  13  37
BRANCH  14  39
ATOM     39  O   UNL     1      21.679  26.500  19.873  1.00  0.00    -0.387 OA
ATOM     40  H   UNL     1      20.943  25.970  19.485  1.00  0.00     0.211 HD
ENDBRANCH  14  39
ENDBRANCH   8   9
ENDBRANCH   7   8
ENDBRANCH   1   7
BRANCH   1  41
ATOM     41  C   UNL     1      24.094  30.850  21.567  1.00  0.00     0.364 C 
ATOM     42  O   UNL     1      24.889  30.402  22.385  1.00  0.00    -0.246 OA
BRANCH  41  43
ATOM     43  O   UNL     1      24.479  32.043  20.924  1.00  0.00    -0.477 OA
ATOM     44  H   UNL     1      25.384  32.448  21.103  1.00  0.00     0.296 HD
ENDBRANCH  41  43
ENDBRANCH   1  41
BRANCH   3  45
ATOM     45  O   UNL     1      20.578  28.280  21.865  1.00  0.00    -0.391 OA
ATOM     46  H   UNL     1      20.048  28.434  21.031  1.00  0.00     0.211 HD
ENDBRANCH   3  45
BRANCH   5  47
ATOM     47  C   UNL     1      20.122  30.862  19.325  1.00  0.00     0.176 C 
BRANCH  47  48
ATOM     48  O   UNL     1      18.880  30.237  19.548  1.00  0.00    -0.388 OA
ATOM     49  H   UNL     1      18.638  29.640  18.813  1.00  0.00     0.211 HD
ENDBRANCH  47  48
BRANCH  47  50
ATOM     50  C   UNL     1      20.007  32.030  18.408  1.00  0.00     0.165 C 
BRANCH  50  51
ATOM     51  O   UNL     1      18.999  32.864  18.947  1.00  0.00    -0.388 OA
ATOM     52  H   UNL     1      19.152  33.051  19.893  1.00  0.00     0.211 HD
ENDBRANCH  50  51
BRANCH  50  53
ATOM     53  C   UNL     1      19.618  31.750  17.005  1.00  0.00     0.154 C 
BRANCH  53  54
ATOM     54  N   UNL     1      18.547  30.805  16.828  1.00  0.00    -0.319 N 
ATOM     55  C   UNL     1      17.178  31.180  16.771  1.00  0.00     0.407 C 
ATOM     56  H   UNL     1      18.775  29.800  16.731  1.00  0.00     0.167 HD
ATOM     57  O   UNL     1      16.853  32.389  16.877  1.00  0.00    -0.225 OA
BRANCH  55  58
ATOM     58  O   UNL     1      16.180  30.261  16.602  1.00  0.00    -0.443 OA
BRANCH  58  59
ATOM     59  C   UNL     1      16.286  28.865  16.746  1.00  0.00     0.294 C 
BRANCH  59  60
ATOM     60  C   UNL     1      16.264  28.529  18.186  1.00  0.00     0.120 A 
ATOM     61  C   UNL     1      15.295  28.976  19.038  1.00  0.00     0.138 A 
ATOM     62  N   UNL     1      17.114  27.789  18.907  1.00  0.00    -0.132 NA
ATOM     63  N   UNL     1      15.565  28.499  20.275  1.00  0.00    -0.249 N 
ATOM     64  N   UNL     1      16.679  27.779  20.164  1.00  0.00    -0.067 NA
BRANCH  63  65
ATOM     65  C   UNL     1      14.784  28.740  21.473  1.00  0.00     0.109 C 
ATOM     66  C   UNL     1      13.588  29.574  21.025  1.00  0.00     0.027 C 
ATOM     67  C   UNL     1      15.583  29.551  22.469  1.00  0.00     0.027 C 
ATOM     68  C   UNL     1      12.662  29.795  22.221  1.00  0.00     0.002 C 
ATOM     69  C   UNL     1      14.839  30.781  22.947  1.00  0.00     0.002 C 
ATOM     70  C   UNL     1      13.435  30.428  23.333  1.00  0.00     0.000 C 
ENDBRANCH  63  65
ENDBRANCH  59  60
ENDBRANCH  58  59
ENDBRANCH  55  58
ENDBRANCH  53  54
ENDBRANCH  50  53
ENDBRANCH  47  50
ENDBRANCH   5  47
BRANCH   4  71
ATOM     71  N   UNL     1      19.369  31.518  22.740  1.00  0.00    -0.348 N 
ATOM     72  C   UNL     1      18.224  32.290  22.487  1.00  0.00     0.217 C 
ATOM     73  H   UNL     1      19.789  31.658  23.715  1.00  0.00     0.163 HD
ATOM     74  C   UNL     1      17.647  33.216  23.521  1.00  0.00     0.114 C 
ATOM     75  O   UNL     1      17.640  32.244  21.404  1.00  0.00    -0.275 OA
ENDBRANCH   4  71
TORSDOF 30
