REMARK VINA RESULT:    -5.701      4.196      6.817
REMARK INTER + INTRA:         -20.801
REMARK INTER:                 -17.363
REMARK INTRA:                  -3.438
REMARK UNBOUND:                -6.268
REMARK SMILES CC(=O)N[C@@H]1[C@@H](O)C[C@](OC[C@H]2O[C@@H](O[C@H]3[C@H](O)[C@@H](O)[C@H](OCCN=[N+]=[N-])O[C@@H]3CO)[C@H](O)[C@@H](O)[C@H]2O)(C(=O)O)O[C@H]1C(O)[C@H](O)CNC(=O)OCc1cn(C(C)(C)CO)nn1
REMARK SMILES IDX 9 1 8 2 6 3 5 4 42 5 41 6 10 7 11 8 12 9 14 10 13 11 32 12
REMARK SMILES IDX 34 13 36 14 15 15 16 16 29 17 28 18 21 19 17 20 19 21 30 22
REMARK SMILES IDX 31 23 22 25 23 26 24 27 25 28 26 29 27 30 18 31 20 33 33 35
REMARK SMILES IDX 35 37 37 39 38 41 39 42 40 43 7 45 43 47 44 48 45 50 46 51
REMARK SMILES IDX 47 53 48 54 49 55 50 57 51 58 52 59 53 60 54 61 62 62 55 63
REMARK SMILES IDX 61 64 56 65 57 66 58 67 59 68 60 69 4 71 2 72 1 74 3 75
REMARK H PARENT 31 24 18 32 20 34 33 36 35 38 37 40 40 44 7 46 44 49 46 52
REMARK H PARENT 48 56 60 70 4 73
REMARK Flexibility Score: inf
ROOT
ATOM      1  C   UNL     1      17.934  28.947  20.205  1.00  0.00     0.272 C 
ATOM      2  C   UNL     1      18.374  30.287  19.679  1.00  0.00     0.113 C 
ATOM      3  C   UNL     1      18.548  31.210  20.862  1.00  0.00     0.145 C 
ATOM      4  C   UNL     1      17.113  31.494  21.363  1.00  0.00     0.142 C 
ATOM      5  C   UNL     1      16.472  30.160  21.604  1.00  0.00     0.178 C 
ATOM      6  O   UNL     1      17.367  29.112  21.526  1.00  0.00    -0.332 OA
ENDROOT
BRANCH   1   7
ATOM      7  O   UNL     1      18.950  28.078  20.435  1.00  0.00    -0.338 OA
BRANCH   7   8
ATOM      8  C   UNL     1      20.223  28.338  20.187  1.00  0.00     0.199 C 
BRANCH   8   9
ATOM      9  C   UNL     1      21.362  27.919  21.022  1.00  0.00     0.179 C 
ATOM     10  C   UNL     1      22.023  27.888  23.231  1.00  0.00     0.282 C 
ATOM     11  O   UNL     1      20.941  27.954  22.394  1.00  0.00    -0.341 OA
ATOM     12  C   UNL     1      23.276  27.332  22.655  1.00  0.00     0.202 C 
ATOM     13  C   UNL     1      23.055  26.278  21.593  1.00  0.00     0.179 C 
ATOM     14  C   UNL     1      21.764  26.457  20.861  1.00  0.00     0.177 C 
BRANCH  10  15
ATOM     15  O   UNL     1      21.614  27.244  24.403  1.00  0.00    -0.341 OA
BRANCH  15  16
ATOM     16  C   UNL     1      22.652  26.885  25.231  1.00  0.00     0.184 C 
ATOM     17  C   UNL     1      22.426  25.576  25.954  1.00  0.00     0.178 C 
ATOM     18  O   UNL     1      22.731  25.628  27.298  1.00  0.00    -0.341 OA
ATOM     19  C   UNL     1      21.997  26.509  28.046  1.00  0.00     0.281 C 
ATOM     20  C   UNL     1      22.744  27.996  26.294  1.00  0.00     0.180 C 
ATOM     21  C   UNL     1      21.582  27.710  27.228  1.00  0.00     0.202 C 
BRANCH  17  22
ATOM     22  C   UNL     1      23.396  24.583  25.327  1.00  0.00     0.191 C 
BRANCH  22  23
ATOM     23  O   UNL     1      24.284  24.121  26.300  1.00  0.00    -0.394 OA
ATOM     24  H   UNL     1      24.400  24.735  27.048  1.00  0.00     0.210 HD
ENDBRANCH  22  23
ENDBRANCH  17  22
BRANCH  19  25
ATOM     25  O   UNL     1      22.759  26.855  29.148  1.00  0.00    -0.350 OA
BRANCH  25  26
ATOM     26  C   UNL     1      22.924  25.883  30.084  1.00  0.00     0.169 C 
BRANCH  26  27
ATOM     27  C   UNL     1      24.361  25.411  30.243  1.00  0.00     0.119 C 
BRANCH  27  28
ATOM     28  N   UNL     1      25.259  26.176  29.400  1.00  0.00    -0.092 NA
ATOM     29  N   UNL     1      26.474  25.976  29.534  1.00  0.00     0.001 N 
ATOM     30  N   UNL     1      27.650  25.605  29.327  1.00  0.00    -0.003 NA
ENDBRANCH  27  28
ENDBRANCH  26  27
ENDBRANCH  25  26
ENDBRANCH  19  25
BRANCH  20  31
ATOM     31  O   UNL     1      23.980  27.804  26.919  1.00  0.00    -0.387 OA
ATOM     32  H   UNL     1      24.428  28.691  26.897  1.00  0.00     0.211 HD
ENDBRANCH  20  31
BRANCH  21  33
ATOM     33  O   UNL     1      20.500  27.308  26.426  1.00  0.00    -0.385 OA
ATOM     34  H   UNL     1      20.524  26.314  26.293  1.00  0.00     0.211 HD
ENDBRANCH  21  33
ENDBRANCH  15  16
ENDBRANCH  10  15
BRANCH  12  35
ATOM     35  O   UNL     1      24.194  28.294  22.230  1.00  0.00    -0.385 OA
ATOM     36  H   UNL     1      25.054  28.061  22.634  1.00  0.00     0.211 HD
ENDBRANCH  12  35
BRANCH  13  37
ATOM     37  O   UNL     1      23.152  24.986  22.139  1.00  0.00    -0.387 OA
ATOM     38  H   UNL     1      22.396  24.416  21.838  1.00  0.00     0.211 HD
ENDBRANCH  13  37
BRANCH  14  39
ATOM     39  O   UNL     1      20.797  25.696  21.557  1.00  0.00    -0.387 OA
ATOM     40  H   UNL     1      21.104  24.770  21.646  1.00  0.00     0.211 HD
ENDBRANCH  14  39
ENDBRANCH   8   9
ENDBRANCH   7   8
ENDBRANCH   1   7
BRANCH   1  41
ATOM     41  C   UNL     1      16.818  28.378  19.451  1.00  0.00     0.364 C 
ATOM     42  O   UNL     1      16.321  27.283  19.723  1.00  0.00    -0.246 OA
BRANCH  41  43
ATOM     43  O   UNL     1      16.233  29.044  18.358  1.00  0.00    -0.477 OA
ATOM     44  H   UNL     1      15.530  28.536  17.834  1.00  0.00     0.296 HD
ENDBRANCH  41  43
ENDBRANCH   1  41
BRANCH   3  45
ATOM     45  O   UNL     1      19.139  30.469  21.887  1.00  0.00    -0.391 OA
ATOM     46  H   UNL     1      18.533  29.780  22.226  1.00  0.00     0.211 HD
ENDBRANCH   3  45
BRANCH   5  47
ATOM     47  C   UNL     1      16.044  30.164  23.084  1.00  0.00     0.176 C 
BRANCH  47  48
ATOM     48  O   UNL     1      17.105  29.624  23.850  1.00  0.00    -0.388 OA
ATOM     49  H   UNL     1      17.945  30.084  23.686  1.00  0.00     0.211 HD
ENDBRANCH  47  48
BRANCH  47  50
ATOM     50  C   UNL     1      14.885  29.216  23.340  1.00  0.00     0.165 C 
BRANCH  50  51
ATOM     51  O   UNL     1      14.319  28.736  22.204  1.00  0.00    -0.388 OA
ATOM     52  H   UNL     1      14.327  27.757  22.092  1.00  0.00     0.211 HD
ENDBRANCH  50  51
BRANCH  50  53
ATOM     53  C   UNL     1      13.853  29.888  24.222  1.00  0.00     0.154 C 
BRANCH  53  54
ATOM     54  N   UNL     1      12.716  29.110  24.554  1.00  0.00    -0.319 N 
ATOM     55  C   UNL     1      11.405  29.422  24.182  1.00  0.00     0.407 C 
ATOM     56  H   UNL     1      12.847  28.210  25.133  1.00  0.00     0.167 HD
ATOM     57  O   UNL     1      11.126  30.425  23.505  1.00  0.00    -0.225 OA
BRANCH  55  58
ATOM     58  O   UNL     1      10.316  28.601  24.562  1.00  0.00    -0.443 OA
BRANCH  58  59
ATOM     59  C   UNL     1       8.990  29.079  24.526  1.00  0.00     0.294 C 
BRANCH  59  60
ATOM     60  C   UNL     1       7.979  28.045  24.823  1.00  0.00     0.120 A 
ATOM     61  C   UNL     1       6.735  28.227  25.393  1.00  0.00     0.139 A 
ATOM     62  N   UNL     1       8.077  26.726  24.591  1.00  0.00    -0.132 NA
ATOM     63  N   UNL     1       6.114  27.025  25.492  1.00  0.00    -0.244 N 
ATOM     64  N   UNL     1       6.953  26.130  24.997  1.00  0.00    -0.066 NA
BRANCH  63  65
ATOM     65  C   UNL     1       4.797  26.804  26.032  1.00  0.00     0.082 C 
ATOM     66  C   UNL     1       4.416  25.362  25.865  1.00  0.00     0.039 C 
ATOM     67  C   UNL     1       3.763  27.631  25.255  1.00  0.00     0.039 C 
BRANCH  65  68
ATOM     68  C   UNL     1       4.663  27.184  27.479  1.00  0.00     0.186 C 
BRANCH  68  69
ATOM     69  O   UNL     1       5.073  26.201  28.348  1.00  0.00    -0.394 OA
ATOM     70  H   UNL     1       5.265  25.340  27.943  1.00  0.00     0.210 HD
ENDBRANCH  68  69
ENDBRANCH  65  68
ENDBRANCH  63  65
ENDBRANCH  59  60
ENDBRANCH  58  59
ENDBRANCH  55  58
ENDBRANCH  53  54
ENDBRANCH  50  53
ENDBRANCH  47  50
ENDBRANCH   5  47
BRANCH   4  71
ATOM     71  N   UNL     1      16.505  32.296  20.350  1.00  0.00    -0.348 N 
ATOM     72  C   UNL     1      15.256  32.057  19.729  1.00  0.00     0.217 C 
ATOM     73  H   UNL     1      17.008  33.164  19.996  1.00  0.00     0.163 HD
ATOM     74  C   UNL     1      14.706  32.952  18.676  1.00  0.00     0.114 C 
ATOM     75  O   UNL     1      14.589  31.065  20.068  1.00  0.00    -0.275 OA
ENDBRANCH   4  71
TORSDOF 32
