REMARK VINA RESULT:    -6.338     15.038     19.329
REMARK INTER + INTRA:         -22.988
REMARK INTER:                 -15.816
REMARK INTRA:                  -7.172
REMARK UNBOUND:                -7.387
REMARK SMILES CC(=O)N[C@@H]1[C@@H](O)C[C@](OC[C@H]2O[C@@H](O[C@H]3[C@H](O)[C@@H](O)[C@H](OCCN=[N+]=[N-])O[C@@H]3CO)[C@H](O)[C@@H](O)[C@H]2O)(C(=O)O)O[C@H]1C(O)[C@H](O)CNC(=O)OCc1cn(C23CC4CC(CC(C4)C2)C3)nn1
REMARK SMILES IDX 9 1 8 2 6 3 5 4 42 5 41 6 10 7 11 8 12 9 14 10 13 11 32 12
REMARK SMILES IDX 34 13 36 14 15 15 16 16 29 17 28 18 21 19 17 20 19 21 30 22
REMARK SMILES IDX 31 23 22 25 23 26 24 27 25 28 26 29 27 30 18 31 20 33 33 35
REMARK SMILES IDX 35 37 37 39 38 41 39 42 40 43 7 45 43 47 44 48 45 50 46 51
REMARK SMILES IDX 47 53 48 54 49 55 50 57 51 58 52 59 53 60 54 61 67 62 55 63
REMARK SMILES IDX 66 64 56 65 65 66 64 67 57 68 60 69 62 70 58 71 59 72 61 73
REMARK SMILES IDX 63 74 4 75 2 76 1 78 3 79
REMARK H PARENT 31 24 18 32 20 34 33 36 35 38 37 40 40 44 7 46 44 49 46 52
REMARK H PARENT 48 56 4 77
REMARK Flexibility Score: inf
ROOT
ATOM      1  C   UNL     1       2.447  21.651  33.755  1.00  0.00     0.272 C 
ATOM      2  C   UNL     1       2.006  20.373  34.381  1.00  0.00     0.113 C 
ATOM      3  C   UNL     1       2.980  19.257  34.066  1.00  0.00     0.145 C 
ATOM      4  C   UNL     1       2.728  18.914  32.591  1.00  0.00     0.142 C 
ATOM      5  C   UNL     1       2.666  20.233  31.880  1.00  0.00     0.178 C 
ATOM      6  O   UNL     1       3.186  21.300  32.567  1.00  0.00    -0.332 OA
ENDROOT
BRANCH   1   7
ATOM      7  O   UNL     1       3.284  22.419  34.438  1.00  0.00    -0.338 OA
BRANCH   7   8
ATOM      8  C   UNL     1       3.644  23.662  34.246  1.00  0.00     0.199 C 
BRANCH   8   9
ATOM      9  C   UNL     1       5.061  24.129  34.234  1.00  0.00     0.179 C 
ATOM     10  C   UNL     1       7.113  23.924  35.127  1.00  0.00     0.282 C 
ATOM     11  O   UNL     1       5.809  23.393  35.222  1.00  0.00    -0.341 OA
ATOM     12  C   UNL     1       7.806  23.104  34.088  1.00  0.00     0.202 C 
ATOM     13  C   UNL     1       6.790  22.786  33.008  1.00  0.00     0.179 C 
ATOM     14  C   UNL     1       5.741  23.865  32.894  1.00  0.00     0.177 C 
BRANCH  10  15
ATOM     15  O   UNL     1       7.737  23.936  36.369  1.00  0.00    -0.341 OA
BRANCH  15  16
ATOM     16  C   UNL     1       8.533  25.039  36.469  1.00  0.00     0.184 C 
ATOM     17  C   UNL     1       9.847  24.876  37.143  1.00  0.00     0.178 C 
ATOM     18  O   UNL     1      10.631  25.982  36.740  1.00  0.00    -0.341 OA
ATOM     19  C   UNL     1      10.167  27.172  37.347  1.00  0.00     0.281 C 
ATOM     20  C   UNL     1       7.839  26.183  37.217  1.00  0.00     0.180 C 
ATOM     21  C   UNL     1       8.710  27.386  37.108  1.00  0.00     0.202 C 
BRANCH  17  22
ATOM     22  C   UNL     1      10.560  23.595  36.921  1.00  0.00     0.191 C 
BRANCH  22  23
ATOM     23  O   UNL     1      10.802  23.478  35.543  1.00  0.00    -0.394 OA
ATOM     24  H   UNL     1      11.704  23.108  35.361  1.00  0.00     0.210 HD
ENDBRANCH  22  23
ENDBRANCH  17  22
BRANCH  19  25
ATOM     25  O   UNL     1      10.869  28.180  36.726  1.00  0.00    -0.350 OA
BRANCH  25  26
ATOM     26  C   UNL     1      12.059  27.855  36.187  1.00  0.00     0.169 C 
BRANCH  26  27
ATOM     27  C   UNL     1      12.309  28.528  34.876  1.00  0.00     0.119 C 
BRANCH  27  28
ATOM     28  N   UNL     1      12.451  27.532  33.807  1.00  0.00    -0.092 NA
ATOM     29  N   UNL     1      11.503  26.784  33.605  1.00  0.00     0.001 N 
ATOM     30  N   UNL     1      10.769  25.788  33.429  1.00  0.00    -0.003 NA
ENDBRANCH  27  28
ENDBRANCH  26  27
ENDBRANCH  25  26
ENDBRANCH  19  25
BRANCH  20  31
ATOM     31  O   UNL     1       6.598  26.476  36.655  1.00  0.00    -0.387 OA
ATOM     32  H   UNL     1       6.521  27.449  36.543  1.00  0.00     0.211 HD
ENDBRANCH  20  31
BRANCH  21  33
ATOM     33  O   UNL     1       8.232  28.320  38.024  1.00  0.00    -0.385 OA
ATOM     34  H   UNL     1       8.130  29.197  37.605  1.00  0.00     0.211 HD
ENDBRANCH  21  33
ENDBRANCH  15  16
ENDBRANCH  10  15
BRANCH  12  35
ATOM     35  O   UNL     1       8.956  23.647  33.572  1.00  0.00    -0.385 OA
ATOM     36  H   UNL     1       9.632  23.759  34.282  1.00  0.00     0.211 HD
ENDBRANCH  12  35
BRANCH  13  37
ATOM     37  O   UNL     1       6.214  21.532  33.170  1.00  0.00    -0.387 OA
ATOM     38  H   UNL     1       5.256  21.650  33.470  1.00  0.00     0.211 HD
ENDBRANCH  13  37
BRANCH  14  39
ATOM     39  O   UNL     1       4.768  23.423  32.008  1.00  0.00    -0.387 OA
ATOM     40  H   UNL     1       3.857  23.502  32.394  1.00  0.00     0.211 HD
ENDBRANCH  14  39
ENDBRANCH   8   9
ENDBRANCH   7   8
ENDBRANCH   1   7
BRANCH   1  41
ATOM     41  C   UNL     1       1.287  22.363  33.193  1.00  0.00     0.364 C 
ATOM     42  O   UNL     1       0.111  22.262  33.566  1.00  0.00    -0.246 OA
BRANCH  41  43
ATOM     43  O   UNL     1       1.588  23.244  32.112  1.00  0.00    -0.477 OA
ATOM     44  H   UNL     1       2.489  23.181  31.689  1.00  0.00     0.296 HD
ENDBRANCH  41  43
ENDBRANCH   1  41
BRANCH   3  45
ATOM     45  O   UNL     1       4.280  19.738  34.158  1.00  0.00    -0.391 OA
ATOM     46  H   UNL     1       4.868  19.082  33.705  1.00  0.00     0.211 HD
ENDBRANCH   3  45
BRANCH   5  47
ATOM     47  C   UNL     1       3.536  20.194  30.565  1.00  0.00     0.176 C 
BRANCH  47  48
ATOM     48  O   UNL     1       4.781  20.630  31.064  1.00  0.00    -0.388 OA
ATOM     49  H   UNL     1       4.886  21.555  30.728  1.00  0.00     0.211 HD
ENDBRANCH  47  48
BRANCH  47  50
ATOM     50  C   UNL     1       3.022  21.156  29.592  1.00  0.00     0.165 C 
BRANCH  50  51
ATOM     51  O   UNL     1       3.142  22.510  29.954  1.00  0.00    -0.388 OA
ATOM     52  H   UNL     1       3.693  22.983  29.262  1.00  0.00     0.211 HD
ENDBRANCH  50  51
BRANCH  50  53
ATOM     53  C   UNL     1       1.666  20.931  29.043  1.00  0.00     0.154 C 
BRANCH  53  54
ATOM     54  N   UNL     1       1.141  22.005  28.282  1.00  0.00    -0.319 N 
ATOM     55  C   UNL     1       1.341  22.282  26.922  1.00  0.00     0.407 C 
ATOM     56  H   UNL     1       0.500  22.699  28.839  1.00  0.00     0.167 HD
ATOM     57  O   UNL     1       2.068  21.561  26.221  1.00  0.00    -0.225 OA
BRANCH  55  58
ATOM     58  O   UNL     1       0.693  23.409  26.360  1.00  0.00    -0.443 OA
BRANCH  58  59
ATOM     59  C   UNL     1       0.548  24.552  27.164  1.00  0.00     0.294 C 
BRANCH  59  60
ATOM     60  C   UNL     1       1.857  25.196  27.349  1.00  0.00     0.120 A 
ATOM     61  C   UNL     1       2.405  26.137  26.514  1.00  0.00     0.138 A 
ATOM     62  N   UNL     1       2.750  25.002  28.337  1.00  0.00    -0.132 NA
ATOM     63  N   UNL     1       3.594  26.478  27.017  1.00  0.00    -0.246 N 
ATOM     64  N   UNL     1       3.776  25.776  28.118  1.00  0.00    -0.066 NA
BRANCH  63  65
ATOM     65  C   UNL     1       4.469  27.456  26.401  1.00  0.00     0.065 C 
ATOM     66  C   UNL     1       3.643  28.371  25.553  1.00  0.00     0.034 C 
ATOM     67  C   UNL     1       5.266  28.183  27.464  1.00  0.00     0.034 C 
ATOM     68  C   UNL     1       5.467  26.751  25.499  1.00  0.00     0.034 C 
ATOM     69  C   UNL     1       4.510  29.429  24.918  1.00  0.00    -0.008 C 
ATOM     70  C   UNL     1       6.071  29.272  26.818  1.00  0.00    -0.008 C 
ATOM     71  C   UNL     1       6.353  27.811  24.888  1.00  0.00    -0.008 C 
ATOM     72  C   UNL     1       5.540  28.755  24.046  1.00  0.00     0.007 C 
ATOM     73  C   UNL     1       5.193  30.194  26.028  1.00  0.00     0.007 C 
ATOM     74  C   UNL     1       7.103  28.612  25.915  1.00  0.00     0.007 C 
ENDBRANCH  63  65
ENDBRANCH  59  60
ENDBRANCH  58  59
ENDBRANCH  55  58
ENDBRANCH  53  54
ENDBRANCH  50  53
ENDBRANCH  47  50
ENDBRANCH   5  47
BRANCH   4  75
ATOM     75  N   UNL     1       1.430  18.235  32.506  1.00  0.00    -0.348 N 
ATOM     76  C   UNL     1       1.295  16.981  31.850  1.00  0.00     0.217 C 
ATOM     77  H   UNL     1       0.576  18.676  32.931  1.00  0.00     0.163 HD
ATOM     78  C   UNL     1      -0.049  16.302  31.767  1.00  0.00     0.114 C 
ATOM     79  O   UNL     1       2.316  16.463  31.347  1.00  0.00    -0.275 OA
ENDBRANCH   4  75
TORSDOF 30
