REMARK VINA RESULT:    -6.158     20.909     27.449
REMARK INTER + INTRA:         -25.040
REMARK INTER:                 -18.087
REMARK INTRA:                  -6.953
REMARK UNBOUND:                -8.981
REMARK SMILES CC(=O)N[C@@H]1[C@@H](O)C[C@](OC[C@H]2O[C@@H](O[C@H]3[C@H](O)[C@@H](O)[C@H](OCCN=[N+]=[N-])O[C@@H]3CO)[C@H](O)[C@@H](O)[C@H]2O)(C(=O)O)O[C@H]1C(O)[C@H](O)CNC(=O)OCc1cn(-c2cc(C(=O)O)nc(-c3ccccc3)c2)nn1
REMARK SMILES IDX 9 1 8 2 6 3 5 4 42 5 41 6 10 7 11 8 12 9 14 10 13 11 32 12
REMARK SMILES IDX 34 13 36 14 15 15 16 16 29 17 28 18 21 19 17 20 19 21 30 22
REMARK SMILES IDX 31 23 22 25 23 26 24 27 25 28 26 29 27 30 18 31 20 33 33 35
REMARK SMILES IDX 35 37 37 39 38 41 39 42 40 43 7 45 43 47 44 48 45 50 46 51
REMARK SMILES IDX 47 53 48 54 49 55 50 57 51 58 52 59 53 60 54 61 72 62 55 63
REMARK SMILES IDX 71 64 56 65 57 66 70 67 58 68 63 69 62 70 59 71 60 72 61 73
REMARK SMILES IDX 64 75 65 76 69 77 66 78 68 79 67 80 4 81 2 82 1 84 3 85
REMARK H PARENT 31 24 18 32 20 34 33 36 35 38 37 40 40 44 7 46 44 49 46 52
REMARK H PARENT 48 56 61 74 4 83
REMARK Flexibility Score: inf
ROOT
ATOM      1  C   UNL     1       3.860  24.763  32.282  1.00  0.00     0.272 C 
ATOM      2  C   UNL     1       2.664  24.824  33.254  1.00  0.00     0.113 C 
ATOM      3  C   UNL     1       2.896  24.129  34.546  1.00  0.00     0.145 C 
ATOM      4  C   UNL     1       3.638  22.806  34.394  1.00  0.00     0.142 C 
ATOM      5  C   UNL     1       3.719  22.591  32.880  1.00  0.00     0.178 C 
ATOM      6  O   UNL     1       4.568  23.570  32.415  1.00  0.00    -0.332 OA
ENDROOT
BRANCH   1   7
ATOM      7  O   UNL     1       4.657  25.805  32.632  1.00  0.00    -0.338 OA
BRANCH   7   8
ATOM      8  C   UNL     1       4.102  27.003  32.943  1.00  0.00     0.199 C 
BRANCH   8   9
ATOM      9  C   UNL     1       4.954  27.735  34.010  1.00  0.00     0.179 C 
ATOM     10  C   UNL     1       6.409  27.216  35.765  1.00  0.00     0.282 C 
ATOM     11  O   UNL     1       5.549  26.792  34.785  1.00  0.00    -0.341 OA
ATOM     12  C   UNL     1       6.729  28.681  35.535  1.00  0.00     0.202 C 
ATOM     13  C   UNL     1       7.083  28.994  34.102  1.00  0.00     0.179 C 
ATOM     14  C   UNL     1       6.017  28.470  33.208  1.00  0.00     0.177 C 
BRANCH  10  15
ATOM     15  O   UNL     1       7.547  26.433  35.697  1.00  0.00    -0.341 OA
BRANCH  15  16
ATOM     16  C   UNL     1       7.331  25.074  35.848  1.00  0.00     0.184 C 
ATOM     17  C   UNL     1       7.922  24.510  37.087  1.00  0.00     0.178 C 
ATOM     18  O   UNL     1       8.881  23.549  36.815  1.00  0.00    -0.341 OA
ATOM     19  C   UNL     1       9.846  24.003  35.918  1.00  0.00     0.281 C 
ATOM     20  C   UNL     1       7.783  24.403  34.583  1.00  0.00     0.180 C 
ATOM     21  C   UNL     1       9.205  23.971  34.548  1.00  0.00     0.202 C 
BRANCH  17  22
ATOM     22  C   UNL     1       6.839  23.831  37.900  1.00  0.00     0.191 C 
BRANCH  22  23
ATOM     23  O   UNL     1       7.356  23.080  38.939  1.00  0.00    -0.394 OA
ATOM     24  H   UNL     1       7.410  22.127  38.662  1.00  0.00     0.210 HD
ENDBRANCH  22  23
ENDBRANCH  17  22
BRANCH  19  25
ATOM     25  O   UNL     1      10.890  23.090  35.953  1.00  0.00    -0.350 OA
BRANCH  25  26
ATOM     26  C   UNL     1      12.134  23.722  35.979  1.00  0.00     0.169 C 
BRANCH  26  27
ATOM     27  C   UNL     1      12.249  24.613  37.191  1.00  0.00     0.119 C 
BRANCH  27  28
ATOM     28  N   UNL     1      12.829  25.878  36.799  1.00  0.00    -0.092 NA
ATOM     29  N   UNL     1      13.952  25.881  36.314  1.00  0.00     0.001 N 
ATOM     30  N   UNL     1      14.915  26.170  35.584  1.00  0.00    -0.003 NA
ENDBRANCH  27  28
ENDBRANCH  26  27
ENDBRANCH  25  26
ENDBRANCH  19  25
BRANCH  20  31
ATOM     31  O   UNL     1       6.997  23.236  34.436  1.00  0.00    -0.387 OA
ATOM     32  H   UNL     1       6.697  22.908  35.320  1.00  0.00     0.211 HD
ENDBRANCH  20  31
BRANCH  21  33
ATOM     33  O   UNL     1       9.897  24.797  33.638  1.00  0.00    -0.385 OA
ATOM     34  H   UNL     1      10.147  25.667  34.054  1.00  0.00     0.211 HD
ENDBRANCH  21  33
ENDBRANCH  15  16
ENDBRANCH  10  15
BRANCH  12  35
ATOM     35  O   UNL     1       5.706  29.535  35.925  1.00  0.00    -0.385 OA
ATOM     36  H   UNL     1       5.158  29.679  35.103  1.00  0.00     0.211 HD
ENDBRANCH  12  35
BRANCH  13  37
ATOM     37  O   UNL     1       8.330  28.416  33.861  1.00  0.00    -0.387 OA
ATOM     38  H   UNL     1       8.164  27.564  33.382  1.00  0.00     0.211 HD
ENDBRANCH  13  37
BRANCH  14  39
ATOM     39  O   UNL     1       6.629  27.538  32.346  1.00  0.00    -0.387 OA
ATOM     40  H   UNL     1       7.467  27.862  31.977  1.00  0.00     0.211 HD
ENDBRANCH  14  39
ENDBRANCH   8   9
ENDBRANCH   7   8
ENDBRANCH   1   7
BRANCH   1  41
ATOM     41  C   UNL     1       3.333  24.799  30.895  1.00  0.00     0.364 C 
ATOM     42  O   UNL     1       2.203  24.328  30.590  1.00  0.00    -0.246 OA
BRANCH  41  43
ATOM     43  O   UNL     1       4.075  25.360  29.880  1.00  0.00    -0.477 OA
ATOM     44  H   UNL     1       4.030  26.354  29.625  1.00  0.00     0.296 HD
ENDBRANCH  41  43
ENDBRANCH   1  41
BRANCH   3  45
ATOM     45  O   UNL     1       3.442  24.936  35.520  1.00  0.00    -0.391 OA
ATOM     46  H   UNL     1       2.720  25.344  36.040  1.00  0.00     0.211 HD
ENDBRANCH   3  45
BRANCH   5  47
ATOM     47  C   UNL     1       4.037  21.198  32.487  1.00  0.00     0.176 C 
BRANCH  47  48
ATOM     48  O   UNL     1       5.289  21.189  31.831  1.00  0.00    -0.388 OA
ATOM     49  H   UNL     1       5.147  21.213  30.832  1.00  0.00     0.211 HD
ENDBRANCH  47  48
BRANCH  47  50
ATOM     50  C   UNL     1       3.009  20.498  31.643  1.00  0.00     0.165 C 
BRANCH  50  51
ATOM     51  O   UNL     1       2.797  19.223  32.128  1.00  0.00    -0.388 OA
ATOM     52  H   UNL     1       2.188  18.691  31.550  1.00  0.00     0.211 HD
ENDBRANCH  50  51
BRANCH  50  53
ATOM     53  C   UNL     1       3.539  20.488  30.230  1.00  0.00     0.154 C 
BRANCH  53  54
ATOM     54  N   UNL     1       3.060  21.511  29.372  1.00  0.00    -0.319 N 
ATOM     55  C   UNL     1       1.875  21.354  28.608  1.00  0.00     0.407 C 
ATOM     56  H   UNL     1       3.574  22.421  29.278  1.00  0.00     0.167 HD
ATOM     57  O   UNL     1       1.244  20.282  28.673  1.00  0.00    -0.225 OA
BRANCH  55  58
ATOM     58  O   UNL     1       1.404  22.391  27.780  1.00  0.00    -0.443 OA
BRANCH  58  59
ATOM     59  C   UNL     1       2.192  22.789  26.686  1.00  0.00     0.294 C 
BRANCH  59  60
ATOM     60  C   UNL     1       2.629  24.199  26.820  1.00  0.00     0.121 A 
ATOM     61  C   UNL     1       3.805  24.801  26.440  1.00  0.00     0.144 A 
ATOM     62  N   UNL     1       1.922  25.211  27.402  1.00  0.00    -0.131 NA
ATOM     63  N   UNL     1       3.805  26.109  26.779  1.00  0.00    -0.220 N 
ATOM     64  N   UNL     1       2.628  26.321  27.368  1.00  0.00    -0.062 NA
BRANCH  63  65
ATOM     65  C   UNL     1       4.853  27.040  26.576  1.00  0.00     0.071 A 
ATOM     66  C   UNL     1       5.869  26.677  25.706  1.00  0.00     0.064 A 
ATOM     67  C   UNL     1       4.938  28.286  27.162  1.00  0.00     0.057 A 
ATOM     68  C   UNL     1       6.903  27.564  25.468  1.00  0.00     0.151 A 
ATOM     69  C   UNL     1       5.957  29.153  26.923  1.00  0.00     0.073 A 
ATOM     70  N   UNL     1       6.929  28.770  26.072  1.00  0.00    -0.241 NA
BRANCH  68  71
ATOM     71  C   UNL     1       7.983  27.214  24.556  1.00  0.00     0.354 C 
ATOM     72  O   UNL     1       8.990  27.965  24.517  1.00  0.00    -0.245 OA
BRANCH  71  73
ATOM     73  O   UNL     1       7.967  26.111  23.736  1.00  0.00    -0.477 OA
ATOM     74  H   UNL     1       8.817  25.592  23.483  1.00  0.00     0.297 HD
ENDBRANCH  71  73
ENDBRANCH  68  71
BRANCH  69  75
ATOM     75  C   UNL     1       6.023  30.468  27.548  1.00  0.00     0.000 A 
ATOM     76  C   UNL     1       5.492  30.608  28.829  1.00  0.00     0.010 A 
ATOM     77  C   UNL     1       6.571  31.568  26.955  1.00  0.00     0.010 A 
ATOM     78  C   UNL     1       5.512  31.805  29.494  1.00  0.00     0.001 A 
ATOM     79  C   UNL     1       6.585  32.773  27.635  1.00  0.00     0.001 A 
ATOM     80  C   UNL     1       6.069  32.919  28.890  1.00  0.00     0.000 A 
ENDBRANCH  69  75
ENDBRANCH  63  65
ENDBRANCH  59  60
ENDBRANCH  58  59
ENDBRANCH  55  58
ENDBRANCH  53  54
ENDBRANCH  50  53
ENDBRANCH  47  50
ENDBRANCH   5  47
BRANCH   4  81
ATOM     81  N   UNL     1       2.987  21.740  35.084  1.00  0.00    -0.348 N 
ATOM     82  C   UNL     1       3.148  21.596  36.486  1.00  0.00     0.217 C 
ATOM     83  H   UNL     1       2.394  21.073  34.539  1.00  0.00     0.163 HD
ATOM     84  C   UNL     1       2.495  20.507  37.257  1.00  0.00     0.114 C 
ATOM     85  O   UNL     1       3.874  22.415  37.144  1.00  0.00    -0.275 OA
ENDBRANCH   4  81
TORSDOF 33
