REMARK VINA RESULT:    -6.449      2.135      3.195
REMARK INTER + INTRA:         -22.651
REMARK INTER:                 -14.603
REMARK INTRA:                  -8.048
REMARK UNBOUND:                -6.778
REMARK SMILES CC(=O)N[C@@H]1[C@@H](O)C[C@](OC[C@H]2O[C@@H](O[C@H]3[C@H](O)[C@@H](O)[C@H](OCCN=[N+]=[N-])O[C@@H]3CO)[C@H](O)[C@@H](O)[C@H]2O)(C(=O)O)O[C@H]1C(O)[C@H](O)CNC(=O)OCc1cn(-c2ccc3c(c2)OCO3)nn1
REMARK SMILES IDX 9 1 8 2 6 3 5 4 42 5 41 6 10 7 11 8 12 9 14 10 13 11 32 12
REMARK SMILES IDX 34 13 36 14 15 15 16 16 29 17 28 18 21 19 17 20 19 21 30 22
REMARK SMILES IDX 31 23 22 25 23 26 24 27 25 28 26 29 27 30 18 31 20 33 33 35
REMARK SMILES IDX 35 37 37 39 38 41 39 42 40 43 7 45 43 47 44 48 45 50 46 51
REMARK SMILES IDX 47 53 48 54 49 55 50 57 51 58 52 59 53 60 54 61 66 62 55 63
REMARK SMILES IDX 65 64 56 65 57 66 61 67 58 68 60 69 59 70 62 71 64 72 63 73
REMARK SMILES IDX 4 74 2 75 1 77 3 78
REMARK H PARENT 31 24 18 32 20 34 33 36 35 38 37 40 40 44 7 46 44 49 46 52
REMARK H PARENT 48 56 4 76
REMARK Flexibility Score: inf
ROOT
ATOM      1  C   UNL     1      23.546  25.284  21.240  1.00  0.00     0.272 C 
ATOM      2  C   UNL     1      24.423  24.692  20.172  1.00  0.00     0.113 C 
ATOM      3  C   UNL     1      24.989  25.770  19.228  1.00  0.00     0.145 C 
ATOM      4  C   UNL     1      23.790  26.298  18.469  1.00  0.00     0.142 C 
ATOM      5  C   UNL     1      22.788  26.714  19.526  1.00  0.00     0.178 C 
ATOM      6  O   UNL     1      23.211  26.598  20.806  1.00  0.00    -0.332 OA
ENDROOT
BRANCH   1   7
ATOM      7  O   UNL     1      24.141  25.449  22.411  1.00  0.00    -0.338 OA
BRANCH   7   8
ATOM      8  C   UNL     1      24.556  24.635  23.332  1.00  0.00     0.199 C 
BRANCH   8   9
ATOM      9  C   UNL     1      24.602  25.023  24.786  1.00  0.00     0.179 C 
ATOM     10  C   UNL     1      24.427  26.950  26.082  1.00  0.00     0.282 C 
ATOM     11  O   UNL     1      24.707  26.388  24.864  1.00  0.00    -0.341 OA
ATOM     12  C   UNL     1      24.310  25.966  27.198  1.00  0.00     0.202 C 
ATOM     13  C   UNL     1      23.288  24.885  26.892  1.00  0.00     0.179 C 
ATOM     14  C   UNL     1      23.266  24.572  25.431  1.00  0.00     0.177 C 
BRANCH  10  15
ATOM     15  O   UNL     1      23.170  27.576  25.964  1.00  0.00    -0.341 OA
BRANCH  15  16
ATOM     16  C   UNL     1      23.255  28.938  25.830  1.00  0.00     0.184 C 
ATOM     17  C   UNL     1      22.118  29.588  26.574  1.00  0.00     0.178 C 
ATOM     18  O   UNL     1      20.958  29.689  25.843  1.00  0.00    -0.341 OA
ATOM     19  C   UNL     1      20.829  28.682  24.885  1.00  0.00     0.281 C 
ATOM     20  C   UNL     1      23.220  29.246  24.351  1.00  0.00     0.180 C 
ATOM     21  C   UNL     1      21.883  28.790  23.812  1.00  0.00     0.202 C 
BRANCH  17  22
ATOM     22  C   UNL     1      22.484  30.990  27.039  1.00  0.00     0.191 C 
BRANCH  22  23
ATOM     23  O   UNL     1      21.847  31.958  26.273  1.00  0.00    -0.394 OA
ATOM     24  H   UNL     1      20.997  31.618  25.856  1.00  0.00     0.210 HD
ENDBRANCH  22  23
ENDBRANCH  17  22
BRANCH  19  25
ATOM     25  O   UNL     1      19.590  28.884  24.292  1.00  0.00    -0.350 OA
BRANCH  25  26
ATOM     26  C   UNL     1      19.712  29.879  23.328  1.00  0.00     0.169 C 
BRANCH  26  27
ATOM     27  C   UNL     1      18.778  31.048  23.624  1.00  0.00     0.119 C 
BRANCH  27  28
ATOM     28  N   UNL     1      19.316  32.206  22.895  1.00  0.00    -0.092 NA
ATOM     29  N   UNL     1      20.497  32.556  23.109  1.00  0.00     0.001 N 
ATOM     30  N   UNL     1      21.659  32.770  23.496  1.00  0.00    -0.003 NA
ENDBRANCH  27  28
ENDBRANCH  26  27
ENDBRANCH  25  26
ENDBRANCH  19  25
BRANCH  20  31
ATOM     31  O   UNL     1      23.486  30.568  24.060  1.00  0.00    -0.387 OA
ATOM     32  H   UNL     1      23.903  30.708  23.159  1.00  0.00     0.211 HD
ENDBRANCH  20  31
BRANCH  21  33
ATOM     33  O   UNL     1      22.062  27.516  23.268  1.00  0.00    -0.385 OA
ATOM     34  H   UNL     1      21.709  27.438  22.346  1.00  0.00     0.211 HD
ENDBRANCH  21  33
ENDBRANCH  15  16
ENDBRANCH  10  15
BRANCH  12  35
ATOM     35  O   UNL     1      25.509  25.355  27.556  1.00  0.00    -0.385 OA
ATOM     36  H   UNL     1      25.387  24.359  27.461  1.00  0.00     0.211 HD
ENDBRANCH  12  35
BRANCH  13  37
ATOM     37  O   UNL     1      22.039  25.343  27.319  1.00  0.00    -0.387 OA
ATOM     38  H   UNL     1      22.023  25.641  28.248  1.00  0.00     0.211 HD
ENDBRANCH  13  37
BRANCH  14  39
ATOM     39  O   UNL     1      22.208  25.262  24.846  1.00  0.00    -0.387 OA
ATOM     40  H   UNL     1      22.468  25.827  24.100  1.00  0.00     0.211 HD
ENDBRANCH  14  39
ENDBRANCH   8   9
ENDBRANCH   7   8
ENDBRANCH   1   7
BRANCH   1  41
ATOM     41  C   UNL     1      22.241  24.553  21.326  1.00  0.00     0.364 C 
ATOM     42  O   UNL     1      22.194  23.430  20.712  1.00  0.00    -0.246 OA
BRANCH  41  43
ATOM     43  O   UNL     1      21.127  24.970  21.981  1.00  0.00    -0.477 OA
ATOM     44  H   UNL     1      20.583  24.389  22.599  1.00  0.00     0.296 HD
ENDBRANCH  41  43
ENDBRANCH   1  41
BRANCH   3  45
ATOM     45  O   UNL     1      25.527  26.752  20.070  1.00  0.00    -0.391 OA
ATOM     46  H   UNL     1      26.443  26.514  20.334  1.00  0.00     0.211 HD
ENDBRANCH   3  45
BRANCH   5  47
ATOM     47  C   UNL     1      22.591  28.227  19.296  1.00  0.00     0.176 C 
BRANCH  47  48
ATOM     48  O   UNL     1      23.247  28.692  18.193  1.00  0.00    -0.388 OA
ATOM     49  H   UNL     1      23.366  28.025  17.473  1.00  0.00     0.211 HD
ENDBRANCH  47  48
BRANCH  47  50
ATOM     50  C   UNL     1      21.112  28.579  19.207  1.00  0.00     0.165 C 
BRANCH  50  51
ATOM     51  O   UNL     1      20.317  27.687  19.845  1.00  0.00    -0.388 OA
ATOM     52  H   UNL     1      19.744  27.121  19.288  1.00  0.00     0.211 HD
ENDBRANCH  50  51
BRANCH  50  53
ATOM     53  C   UNL     1      20.793  28.674  17.747  1.00  0.00     0.154 C 
BRANCH  53  54
ATOM     54  N   UNL     1      19.392  28.812  17.499  1.00  0.00    -0.319 N 
ATOM     55  C   UNL     1      18.759  29.940  16.916  1.00  0.00     0.407 C 
ATOM     56  H   UNL     1      18.706  28.018  17.758  1.00  0.00     0.167 HD
ATOM     57  O   UNL     1      19.426  30.930  16.551  1.00  0.00    -0.225 OA
BRANCH  55  58
ATOM     58  O   UNL     1      17.375  29.983  16.731  1.00  0.00    -0.443 OA
BRANCH  58  59
ATOM     59  C   UNL     1      16.545  28.856  16.807  1.00  0.00     0.294 C 
BRANCH  59  60
ATOM     60  C   UNL     1      16.315  28.531  18.255  1.00  0.00     0.121 A 
ATOM     61  C   UNL     1      15.532  29.272  19.142  1.00  0.00     0.144 A 
ATOM     62  N   UNL     1      16.784  27.500  18.970  1.00  0.00    -0.131 NA
ATOM     63  N   UNL     1      15.559  28.666  20.349  1.00  0.00    -0.220 N 
ATOM     64  N   UNL     1      16.328  27.601  20.193  1.00  0.00    -0.062 NA
BRANCH  63  65
ATOM     65  C   UNL     1      14.910  29.059  21.534  1.00  0.00     0.070 A 
ATOM     66  C   UNL     1      13.545  29.051  21.615  1.00  0.00     0.032 A 
ATOM     67  C   UNL     1      15.639  29.453  22.628  1.00  0.00     0.079 A 
ATOM     68  C   UNL     1      12.913  29.441  22.805  1.00  0.00     0.053 A 
ATOM     69  C   UNL     1      15.034  29.840  23.805  1.00  0.00     0.167 A 
ATOM     70  C   UNL     1      13.666  29.831  23.884  1.00  0.00     0.165 A 
ATOM     71  O   UNL     1      15.558  30.265  25.006  1.00  0.00    -0.454 OA
ATOM     72  O   UNL     1      13.309  30.257  25.157  1.00  0.00    -0.454 OA
ATOM     73  C   UNL     1      14.456  30.801  25.750  1.00  0.00     0.468 C 
ENDBRANCH  63  65
ENDBRANCH  59  60
ENDBRANCH  58  59
ENDBRANCH  55  58
ENDBRANCH  53  54
ENDBRANCH  50  53
ENDBRANCH  47  50
ENDBRANCH   5  47
BRANCH   4  74
ATOM     74  N   UNL     1      23.316  25.290  17.571  1.00  0.00    -0.348 N 
ATOM     75  C   UNL     1      22.915  25.607  16.221  1.00  0.00     0.217 C 
ATOM     76  H   UNL     1      23.219  24.280  17.806  1.00  0.00     0.163 HD
ATOM     77  C   UNL     1      22.424  24.550  15.297  1.00  0.00     0.114 C 
ATOM     78  O   UNL     1      22.984  26.778  15.832  1.00  0.00    -0.275 OA
ENDBRANCH   4  74
TORSDOF 30
