REMARK VINA RESULT:    -5.677      4.626      8.399
REMARK INTER + INTRA:         -22.454
REMARK INTER:                 -16.184
REMARK INTRA:                  -6.269
REMARK UNBOUND:                -8.149
REMARK SMILES CC(=O)N[C@@H]1[C@@H](O)C[C@](OC[C@H]2O[C@@H](O[C@H]3[C@H](O)[C@@H](O)[C@H](OCCN=[N+]=[N-])O[C@@H]3CO)[C@H](O)[C@@H](O)[C@H]2O)(C(=O)O)O[C@H]1C(O)[C@H](O)CNC(=O)OCc1cn(Cc2ccc3c(c2)OCO3)nn1
REMARK SMILES IDX 9 1 8 2 6 3 5 4 42 5 41 6 10 7 11 8 12 9 14 10 13 11 32 12
REMARK SMILES IDX 34 13 36 14 15 15 16 16 29 17 28 18 21 19 17 20 19 21 30 22
REMARK SMILES IDX 31 23 22 25 23 26 24 27 25 28 26 29 27 30 18 31 20 33 33 35
REMARK SMILES IDX 35 37 37 39 38 41 39 42 40 43 7 45 43 47 44 48 45 50 46 51
REMARK SMILES IDX 47 53 48 54 49 55 50 57 51 58 52 59 53 60 54 61 67 62 55 63
REMARK SMILES IDX 66 64 56 65 57 66 58 67 62 68 59 69 61 70 60 71 63 72 65 73
REMARK SMILES IDX 64 74 4 75 2 76 1 78 3 79
REMARK H PARENT 31 24 18 32 20 34 33 36 35 38 37 40 40 44 7 46 44 49 46 52
REMARK H PARENT 48 56 4 77
REMARK Flexibility Score: inf
ROOT
ATOM      1  C   UNL     1      16.672  29.184  18.685  1.00  0.00     0.272 C 
ATOM      2  C   UNL     1      15.179  29.062  18.450  1.00  0.00     0.113 C 
ATOM      3  C   UNL     1      14.557  30.426  18.480  1.00  0.00     0.145 C 
ATOM      4  C   UNL     1      14.793  30.977  19.911  1.00  0.00     0.142 C 
ATOM      5  C   UNL     1      16.254  30.904  20.177  1.00  0.00     0.178 C 
ATOM      6  O   UNL     1      17.013  30.447  19.101  1.00  0.00    -0.332 OA
ENDROOT
BRANCH   1   7
ATOM      7  O   UNL     1      17.382  28.811  17.532  1.00  0.00    -0.338 OA
BRANCH   7   8
ATOM      8  C   UNL     1      18.471  29.553  17.218  1.00  0.00     0.199 C 
BRANCH   8   9
ATOM      9  C   UNL     1      18.203  30.274  15.887  1.00  0.00     0.179 C 
ATOM     10  C   UNL     1      16.521  31.163  14.594  1.00  0.00     0.282 C 
ATOM     11  O   UNL     1      16.854  30.332  15.663  1.00  0.00    -0.341 OA
ATOM     12  C   UNL     1      16.875  32.602  14.979  1.00  0.00     0.202 C 
ATOM     13  C   UNL     1      18.018  32.710  15.921  1.00  0.00     0.179 C 
ATOM     14  C   UNL     1      18.949  31.554  15.781  1.00  0.00     0.177 C 
BRANCH  10  15
ATOM     15  O   UNL     1      15.198  31.124  14.396  1.00  0.00    -0.341 OA
BRANCH  15  16
ATOM     16  C   UNL     1      14.627  30.183  13.595  1.00  0.00     0.184 C 
ATOM     17  C   UNL     1      13.760  30.742  12.501  1.00  0.00     0.178 C 
ATOM     18  O   UNL     1      12.450  30.421  12.640  1.00  0.00    -0.341 OA
ATOM     19  C   UNL     1      12.145  29.045  12.616  1.00  0.00     0.281 C 
ATOM     20  C   UNL     1      13.843  29.220  14.447  1.00  0.00     0.180 C 
ATOM     21  C   UNL     1      13.087  28.286  13.524  1.00  0.00     0.202 C 
BRANCH  17  22
ATOM     22  C   UNL     1      14.274  30.255  11.169  1.00  0.00     0.191 C 
BRANCH  22  23
ATOM     23  O   UNL     1      13.582  30.896  10.108  1.00  0.00    -0.394 OA
ATOM     24  H   UNL     1      12.606  30.781  10.177  1.00  0.00     0.210 HD
ENDBRANCH  22  23
ENDBRANCH  17  22
BRANCH  19  25
ATOM     25  O   UNL     1      12.069  28.570  11.346  1.00  0.00    -0.350 OA
BRANCH  25  26
ATOM     26  C   UNL     1      11.181  27.663  10.947  1.00  0.00     0.169 C 
BRANCH  26  27
ATOM     27  C   UNL     1       9.746  27.938  11.267  1.00  0.00     0.119 C 
BRANCH  27  28
ATOM     28  N   UNL     1       8.955  26.816  11.629  1.00  0.00    -0.092 NA
ATOM     29  N   UNL     1       8.093  26.314  10.912  1.00  0.00     0.001 N 
ATOM     30  N   UNL     1       7.034  26.205  10.270  1.00  0.00    -0.003 NA
ENDBRANCH  27  28
ENDBRANCH  26  27
ENDBRANCH  25  26
ENDBRANCH  19  25
BRANCH  20  31
ATOM     31  O   UNL     1      14.747  28.473  15.196  1.00  0.00    -0.387 OA
ATOM     32  H   UNL     1      15.673  28.819  15.102  1.00  0.00     0.211 HD
ENDBRANCH  20  31
BRANCH  21  33
ATOM     33  O   UNL     1      12.376  27.419  14.349  1.00  0.00    -0.385 OA
ATOM     34  H   UNL     1      12.293  26.527  13.918  1.00  0.00     0.211 HD
ENDBRANCH  21  33
ENDBRANCH  15  16
ENDBRANCH  10  15
BRANCH  12  35
ATOM     35  O   UNL     1      17.098  33.365  13.834  1.00  0.00    -0.385 OA
ATOM     36  H   UNL     1      16.648  32.975  13.066  1.00  0.00     0.211 HD
ENDBRANCH  12  35
BRANCH  13  37
ATOM     37  O   UNL     1      17.637  32.916  17.237  1.00  0.00    -0.387 OA
ATOM     38  H   UNL     1      17.848  33.853  17.487  1.00  0.00     0.211 HD
ENDBRANCH  13  37
BRANCH  14  39
ATOM     39  O   UNL     1      19.922  31.666  16.785  1.00  0.00    -0.387 OA
ATOM     40  H   UNL     1      19.782  30.944  17.428  1.00  0.00     0.211 HD
ENDBRANCH  14  39
ENDBRANCH   8   9
ENDBRANCH   7   8
ENDBRANCH   1   7
BRANCH   1  41
ATOM     41  C   UNL     1      17.081  28.200  19.704  1.00  0.00     0.364 C 
ATOM     42  O   UNL     1      16.358  27.267  20.076  1.00  0.00    -0.246 OA
BRANCH  41  43
ATOM     43  O   UNL     1      18.336  28.274  20.315  1.00  0.00    -0.477 OA
ATOM     44  H   UNL     1      19.104  27.659  19.998  1.00  0.00     0.296 HD
ENDBRANCH  41  43
ENDBRANCH   1  41
BRANCH   3  45
ATOM     45  O   UNL     1      15.084  31.359  17.635  1.00  0.00    -0.391 OA
ATOM     46  H   UNL     1      14.644  31.400  16.749  1.00  0.00     0.211 HD
ENDBRANCH   3  45
BRANCH   5  47
ATOM     47  C   UNL     1      16.823  32.322  20.426  1.00  0.00     0.176 C 
BRANCH  47  48
ATOM     48  O   UNL     1      16.121  33.293  19.780  1.00  0.00    -0.388 OA
ATOM     49  H   UNL     1      16.195  33.173  18.804  1.00  0.00     0.211 HD
ENDBRANCH  47  48
BRANCH  47  50
ATOM     50  C   UNL     1      17.161  32.635  21.817  1.00  0.00     0.165 C 
BRANCH  50  51
ATOM     51  O   UNL     1      18.135  33.628  21.989  1.00  0.00    -0.388 OA
ATOM     52  H   UNL     1      17.761  34.524  21.784  1.00  0.00     0.211 HD
ENDBRANCH  50  51
BRANCH  50  53
ATOM     53  C   UNL     1      17.542  31.478  22.700  1.00  0.00     0.154 C 
BRANCH  53  54
ATOM     54  N   UNL     1      18.974  31.214  22.480  1.00  0.00    -0.319 N 
ATOM     55  C   UNL     1      19.654  30.157  23.150  1.00  0.00     0.407 C 
ATOM     56  H   UNL     1      19.478  31.818  21.822  1.00  0.00     0.167 HD
ATOM     57  O   UNL     1      18.976  29.452  23.944  1.00  0.00    -0.225 OA
BRANCH  55  58
ATOM     58  O   UNL     1      20.988  29.886  22.966  1.00  0.00    -0.443 OA
BRANCH  58  59
ATOM     59  C   UNL     1      21.453  29.304  21.771  1.00  0.00     0.294 C 
BRANCH  59  60
ATOM     60  C   UNL     1      21.466  27.831  21.938  1.00  0.00     0.120 A 
ATOM     61  C   UNL     1      22.437  27.043  22.544  1.00  0.00     0.138 A 
ATOM     62  N   UNL     1      20.530  26.954  21.520  1.00  0.00    -0.132 NA
ATOM     63  N   UNL     1      22.061  25.752  22.474  1.00  0.00    -0.248 N 
ATOM     64  N   UNL     1      20.910  25.728  21.852  1.00  0.00    -0.067 NA
BRANCH  63  65
ATOM     65  C   UNL     1      22.797  24.638  22.994  1.00  0.00     0.181 C 
BRANCH  65  66
ATOM     66  C   UNL     1      23.298  24.830  24.375  1.00  0.00    -0.023 A 
ATOM     67  C   UNL     1      24.590  25.196  24.588  1.00  0.00     0.010 A 
ATOM     68  C   UNL     1      22.443  24.633  25.465  1.00  0.00     0.056 A 
ATOM     69  C   UNL     1      25.034  25.365  25.875  1.00  0.00     0.051 A 
ATOM     70  C   UNL     1      22.873  24.798  26.753  1.00  0.00     0.166 A 
ATOM     71  C   UNL     1      24.192  25.169  26.937  1.00  0.00     0.165 A 
ATOM     72  O   UNL     1      22.317  24.689  28.014  1.00  0.00    -0.454 OA
ATOM     73  O   UNL     1      24.444  25.288  28.310  1.00  0.00    -0.454 OA
ATOM     74  C   UNL     1      23.181  25.347  28.938  1.00  0.00     0.468 C 
ENDBRANCH  65  66
ENDBRANCH  63  65
ENDBRANCH  59  60
ENDBRANCH  58  59
ENDBRANCH  55  58
ENDBRANCH  53  54
ENDBRANCH  50  53
ENDBRANCH  47  50
ENDBRANCH   5  47
BRANCH   4  75
ATOM     75  N   UNL     1      13.962  30.159  20.748  1.00  0.00    -0.348 N 
ATOM     76  C   UNL     1      13.375  30.757  21.913  1.00  0.00     0.217 C 
ATOM     77  H   UNL     1      13.723  29.160  20.611  1.00  0.00     0.163 HD
ATOM     78  C   UNL     1      12.503  29.923  22.809  1.00  0.00     0.114 C 
ATOM     79  O   UNL     1      13.587  31.964  22.181  1.00  0.00    -0.275 OA
ENDBRANCH   4  75
TORSDOF 31
