REMARK VINA RESULT:    -5.782     15.424     21.062
REMARK INTER + INTRA:         -21.299
REMARK INTER:                 -10.426
REMARK INTRA:                 -10.873
REMARK UNBOUND:                -6.052
REMARK SMILES CC(=O)N[C@@H]1[C@@H](O)C[C@](OC[C@H]2O[C@@H](O[C@H]3[C@H](O)[C@@H](O)[C@H](OCCN=[N+]=[N-])O[C@@H]3CO)[C@H](O)[C@@H](O)[C@H]2O)(C(=O)O)O[C@H]1C(O)[C@H](O)CNC(=O)OCc1cn(CC(O)CO)nn1
REMARK SMILES IDX 43 1 42 2 9 3 8 4 41 5 6 6 5 7 10 8 11 9 12 10 14 11 13 12
REMARK SMILES IDX 32 13 34 14 36 15 15 16 16 17 29 18 28 19 21 20 17 21 19 22
REMARK SMILES IDX 30 23 31 24 22 26 23 27 24 28 25 29 26 30 27 31 18 32 20 34
REMARK SMILES IDX 33 36 35 38 37 40 38 42 39 43 40 44 7 46 4 48 2 49 1 51 3 52
REMARK SMILES IDX 44 53 45 55 46 56 47 58 48 59 49 60 50 62 51 63 52 64 53 65
REMARK SMILES IDX 54 66 62 67 55 68 61 69 56 70 57 71 58 72 59 74 60 75
REMARK H PARENT 31 25 18 33 20 35 33 37 35 39 37 41 40 45 7 47 4 50 44 54
REMARK H PARENT 46 57 48 61 58 73 60 76
REMARK Flexibility Score: inf
ROOT
ATOM      1  C   UNL     1      22.902  27.802  24.205  1.00  0.00     0.176 C 
ENDROOT
BRANCH   1   2
ATOM      2  C   UNL     1      23.199  26.426  23.579  1.00  0.00     0.178 C 
ATOM      3  C   UNL     1      23.624  25.356  21.517  1.00  0.00     0.272 C 
ATOM      4  C   UNL     1      22.575  24.322  21.815  1.00  0.00     0.113 C 
ATOM      5  O   UNL     1      23.349  26.513  22.261  1.00  0.00    -0.332 OA
ATOM      6  C   UNL     1      21.643  24.604  22.933  1.00  0.00     0.145 C 
ATOM      7  C   UNL     1      22.155  25.471  24.022  1.00  0.00     0.142 C 
BRANCH   3   8
ATOM      8  O   UNL     1      23.611  25.687  20.242  1.00  0.00    -0.338 OA
BRANCH   8   9
ATOM      9  C   UNL     1      22.878  25.926  19.238  1.00  0.00     0.199 C 
BRANCH   9  10
ATOM     10  C   UNL     1      22.056  27.158  19.045  1.00  0.00     0.179 C 
ATOM     11  C   UNL     1      20.082  28.104  19.711  1.00  0.00     0.282 C 
ATOM     12  O   UNL     1      21.099  27.249  20.127  1.00  0.00    -0.341 OA
ATOM     13  C   UNL     1      20.474  29.104  18.678  1.00  0.00     0.202 C 
ATOM     14  C   UNL     1      21.902  29.553  18.723  1.00  0.00     0.179 C 
ATOM     15  C   UNL     1      22.825  28.465  19.247  1.00  0.00     0.177 C 
BRANCH  11  16
ATOM     16  O   UNL     1      19.417  28.743  20.737  1.00  0.00    -0.341 OA
BRANCH  16  17
ATOM     17  C   UNL     1      18.609  29.798  20.318  1.00  0.00     0.184 C 
ATOM     18  C   UNL     1      18.431  30.768  21.446  1.00  0.00     0.178 C 
ATOM     19  O   UNL     1      17.119  30.874  21.880  1.00  0.00    -0.341 OA
ATOM     20  C   UNL     1      16.516  29.609  21.970  1.00  0.00     0.281 C 
ATOM     21  C   UNL     1      17.373  29.282  19.708  1.00  0.00     0.180 C 
ATOM     22  C   UNL     1      16.146  29.242  20.553  1.00  0.00     0.202 C 
BRANCH  18  23
ATOM     23  C   UNL     1      18.905  32.161  21.080  1.00  0.00     0.191 C 
BRANCH  23  24
ATOM     24  O   UNL     1      20.290  32.239  21.038  1.00  0.00    -0.394 OA
ATOM     25  H   UNL     1      20.520  33.216  20.921  1.00  0.00     0.210 HD
ENDBRANCH  23  24
ENDBRANCH  18  23
BRANCH  20  26
ATOM     26  O   UNL     1      15.386  29.774  22.756  1.00  0.00    -0.350 OA
BRANCH  26  27
ATOM     27  C   UNL     1      15.620  29.677  24.118  1.00  0.00     0.169 C 
BRANCH  27  28
ATOM     28  C   UNL     1      15.004  30.812  24.905  1.00  0.00     0.119 C 
BRANCH  28  29
ATOM     29  N   UNL     1      15.837  31.983  24.927  1.00  0.00    -0.092 NA
ATOM     30  N   UNL     1      17.060  31.986  25.008  1.00  0.00     0.001 N 
ATOM     31  N   UNL     1      18.269  31.846  25.190  1.00  0.00    -0.003 NA
ENDBRANCH  28  29
ENDBRANCH  27  28
ENDBRANCH  26  27
ENDBRANCH  20  26
BRANCH  21  32
ATOM     32  O   UNL     1      17.048  29.972  18.513  1.00  0.00    -0.387 OA
ATOM     33  H   UNL     1      16.544  30.787  18.836  1.00  0.00     0.211 HD
ENDBRANCH  21  32
BRANCH  22  34
ATOM     34  O   UNL     1      15.461  28.032  20.490  1.00  0.00    -0.385 OA
ATOM     35  H   UNL     1      15.039  27.783  21.329  1.00  0.00     0.211 HD
ENDBRANCH  22  34
ENDBRANCH  16  17
ENDBRANCH  11  16
BRANCH  13  36
ATOM     36  O   UNL     1      20.062  28.716  17.382  1.00  0.00    -0.385 OA
ATOM     37  H   UNL     1      19.134  28.421  17.349  1.00  0.00     0.211 HD
ENDBRANCH  13  36
BRANCH  14  38
ATOM     38  O   UNL     1      22.089  30.743  19.424  1.00  0.00    -0.387 OA
ATOM     39  H   UNL     1      22.340  31.455  18.788  1.00  0.00     0.211 HD
ENDBRANCH  14  38
BRANCH  15  40
ATOM     40  O   UNL     1      22.906  28.654  20.653  1.00  0.00    -0.387 OA
ATOM     41  H   UNL     1      22.094  28.307  21.096  1.00  0.00     0.211 HD
ENDBRANCH  15  40
ENDBRANCH   9  10
ENDBRANCH   8   9
ENDBRANCH   3   8
BRANCH   3  42
ATOM     42  C   UNL     1      24.984  24.880  21.934  1.00  0.00     0.364 C 
ATOM     43  O   UNL     1      25.968  25.591  21.560  1.00  0.00    -0.246 OA
BRANCH  42  44
ATOM     44  O   UNL     1      25.201  23.747  22.675  1.00  0.00    -0.477 OA
ATOM     45  H   UNL     1      24.810  23.631  23.617  1.00  0.00     0.296 HD
ENDBRANCH  42  44
ENDBRANCH   3  42
BRANCH   6  46
ATOM     46  O   UNL     1      20.502  25.227  22.373  1.00  0.00    -0.391 OA
ATOM     47  H   UNL     1      20.271  24.786  21.532  1.00  0.00     0.211 HD
ENDBRANCH   6  46
BRANCH   7  48
ATOM     48  N   UNL     1      22.568  24.636  25.146  1.00  0.00    -0.348 N 
ATOM     49  C   UNL     1      22.369  25.034  26.492  1.00  0.00     0.217 C 
ATOM     50  H   UNL     1      23.026  23.714  24.999  1.00  0.00     0.163 HD
ATOM     51  C   UNL     1      22.788  24.188  27.640  1.00  0.00     0.114 C 
ATOM     52  O   UNL     1      21.818  26.145  26.695  1.00  0.00    -0.275 OA
ENDBRANCH   7  48
ENDBRANCH   1   2
BRANCH   1  53
ATOM     53  O   UNL     1      23.662  28.764  23.568  1.00  0.00    -0.388 OA
ATOM     54  H   UNL     1      24.118  29.342  24.229  1.00  0.00     0.211 HD
ENDBRANCH   1  53
BRANCH   1  55
ATOM     55  C   UNL     1      21.426  28.131  24.056  1.00  0.00     0.165 C 
BRANCH  55  56
ATOM     56  O   UNL     1      21.340  28.846  22.836  1.00  0.00    -0.388 OA
ATOM     57  H   UNL     1      22.251  29.028  22.498  1.00  0.00     0.211 HD
ENDBRANCH  55  56
BRANCH  55  58
ATOM     58  C   UNL     1      20.884  28.992  25.145  1.00  0.00     0.154 C 
BRANCH  58  59
ATOM     59  N   UNL     1      20.990  30.401  24.834  1.00  0.00    -0.319 N 
ATOM     60  C   UNL     1      21.862  31.240  25.566  1.00  0.00     0.407 C 
ATOM     61  H   UNL     1      20.428  30.848  24.057  1.00  0.00     0.167 HD
ATOM     62  O   UNL     1      22.561  30.808  26.511  1.00  0.00    -0.225 OA
BRANCH  60  63
ATOM     63  O   UNL     1      21.984  32.581  25.263  1.00  0.00    -0.443 OA
BRANCH  63  64
ATOM     64  C   UNL     1      22.226  33.152  24.025  1.00  0.00     0.294 C 
BRANCH  64  65
ATOM     65  C   UNL     1      23.146  32.403  23.141  1.00  0.00     0.120 A 
ATOM     66  C   UNL     1      24.497  32.599  23.071  1.00  0.00     0.138 A 
ATOM     67  N   UNL     1      22.799  31.419  22.258  1.00  0.00    -0.132 NA
ATOM     68  N   UNL     1      24.947  31.731  22.146  1.00  0.00    -0.249 N 
ATOM     69  N   UNL     1      23.933  31.046  21.679  1.00  0.00    -0.067 NA
BRANCH  68  70
ATOM     70  C   UNL     1      26.317  31.566  21.711  1.00  0.00     0.180 C 
BRANCH  70  71
ATOM     71  C   UNL     1      26.917  30.428  22.549  1.00  0.00     0.161 C 
BRANCH  71  72
ATOM     72  O   UNL     1      26.258  29.275  22.199  1.00  0.00    -0.389 OA
ATOM     73  H   UNL     1      26.421  29.017  21.259  1.00  0.00     0.211 HD
ENDBRANCH  71  72
BRANCH  71  74
ATOM     74  C   UNL     1      28.400  30.331  22.283  1.00  0.00     0.189 C 
BRANCH  74  75
ATOM     75  O   UNL     1      28.677  29.198  21.551  1.00  0.00    -0.394 OA
ATOM     76  H   UNL     1      28.216  29.250  20.675  1.00  0.00     0.210 HD
ENDBRANCH  74  75
ENDBRANCH  71  74
ENDBRANCH  70  71
ENDBRANCH  68  70
ENDBRANCH  64  65
ENDBRANCH  63  64
ENDBRANCH  60  63
ENDBRANCH  58  59
ENDBRANCH  55  58
ENDBRANCH   1  55
TORSDOF 34
