REMARK VINA RESULT:    -5.329      3.332      5.397
REMARK INTER + INTRA:         -20.603
REMARK INTER:                 -12.435
REMARK INTRA:                  -8.168
REMARK UNBOUND:                -6.864
REMARK SMILES CC(=O)N[C@@H]1[C@@H](O)C[C@](OC[C@H]2O[C@@H](O[C@H]3[C@H](O)[C@@H](O)[C@H](OCCN=[N+]=[N-])O[C@@H]3CO)[C@H](O)[C@@H](O)[C@H]2O)(C(=O)O)O[C@H]1C(O)[C@H](O)CNC(=O)OCc1cn(CCC2OCCO2)nn1
REMARK SMILES IDX 9 1 8 2 6 3 5 4 42 5 41 6 10 7 11 8 12 9 14 10 13 11 32 12
REMARK SMILES IDX 34 13 36 14 15 15 16 16 29 17 28 18 21 19 17 20 19 21 30 22
REMARK SMILES IDX 31 23 22 25 23 26 24 27 25 28 26 29 27 30 18 31 20 33 33 35
REMARK SMILES IDX 35 37 37 39 38 41 39 42 40 43 7 45 43 47 44 48 45 50 46 51
REMARK SMILES IDX 47 53 48 54 49 55 50 57 51 58 52 59 53 60 54 61 64 62 55 63
REMARK SMILES IDX 63 64 56 65 57 66 58 67 59 68 62 69 60 70 61 71 4 72 2 73
REMARK SMILES IDX 1 75 3 76
REMARK H PARENT 31 24 18 32 20 34 33 36 35 38 37 40 40 44 7 46 44 49 46 52
REMARK H PARENT 48 56 4 74
REMARK Flexibility Score: inf
ROOT
ATOM      1  C   UNL     1      14.981  30.486  19.336  1.00  0.00     0.272 C 
ATOM      2  C   UNL     1      14.251  29.629  18.237  1.00  0.00     0.113 C 
ATOM      3  C   UNL     1      14.703  29.996  16.888  1.00  0.00     0.145 C 
ATOM      4  C   UNL     1      16.201  29.793  16.777  1.00  0.00     0.142 C 
ATOM      5  C   UNL     1      16.876  29.818  18.106  1.00  0.00     0.178 C 
ATOM      6  O   UNL     1      16.326  30.580  19.075  1.00  0.00    -0.332 OA
ENDROOT
BRANCH   1   7
ATOM      7  O   UNL     1      14.764  29.777  20.444  1.00  0.00    -0.338 OA
BRANCH   7   8
ATOM      8  C   UNL     1      13.681  29.140  20.826  1.00  0.00     0.199 C 
BRANCH   8   9
ATOM      9  C   UNL     1      13.103  29.306  22.195  1.00  0.00     0.179 C 
ATOM     10  C   UNL     1      13.735  29.892  24.371  1.00  0.00     0.282 C 
ATOM     11  O   UNL     1      14.103  29.404  23.134  1.00  0.00    -0.341 OA
ATOM     12  C   UNL     1      12.275  29.967  24.630  1.00  0.00     0.202 C 
ATOM     13  C   UNL     1      11.486  30.573  23.503  1.00  0.00     0.179 C 
ATOM     14  C   UNL     1      12.345  30.654  22.285  1.00  0.00     0.177 C 
BRANCH  10  15
ATOM     15  O   UNL     1      14.451  31.065  24.611  1.00  0.00    -0.341 OA
BRANCH  15  16
ATOM     16  C   UNL     1      15.785  30.849  24.928  1.00  0.00     0.184 C 
ATOM     17  C   UNL     1      16.240  31.528  26.183  1.00  0.00     0.178 C 
ATOM     18  O   UNL     1      17.566  31.154  26.414  1.00  0.00    -0.341 OA
ATOM     19  C   UNL     1      18.451  31.657  25.471  1.00  0.00     0.281 C 
ATOM     20  C   UNL     1      16.672  31.456  23.804  1.00  0.00     0.180 C 
ATOM     21  C   UNL     1      18.084  30.997  24.145  1.00  0.00     0.202 C 
BRANCH  17  22
ATOM     22  C   UNL     1      15.453  30.986  27.363  1.00  0.00     0.191 C 
BRANCH  22  23
ATOM     23  O   UNL     1      16.431  30.561  28.297  1.00  0.00    -0.394 OA
ATOM     24  H   UNL     1      17.267  31.068  28.223  1.00  0.00     0.210 HD
ENDBRANCH  22  23
ENDBRANCH  17  22
BRANCH  19  25
ATOM     25  O   UNL     1      19.725  31.334  25.845  1.00  0.00    -0.350 OA
BRANCH  25  26
ATOM     26  C   UNL     1      20.395  32.272  26.578  1.00  0.00     0.169 C 
BRANCH  26  27
ATOM     27  C   UNL     1      20.261  33.691  26.070  1.00  0.00     0.119 C 
BRANCH  27  28
ATOM     28  N   UNL     1      21.218  33.934  25.006  1.00  0.00    -0.092 NA
ATOM     29  N   UNL     1      20.921  33.875  23.815  1.00  0.00     0.001 N 
ATOM     30  N   UNL     1      20.676  33.997  22.618  1.00  0.00    -0.003 NA
ENDBRANCH  27  28
ENDBRANCH  26  27
ENDBRANCH  25  26
ENDBRANCH  19  25
BRANCH  20  31
ATOM     31  O   UNL     1      16.276  30.926  22.601  1.00  0.00    -0.387 OA
ATOM     32  H   UNL     1      15.290  31.040  22.511  1.00  0.00     0.211 HD
ENDBRANCH  20  31
BRANCH  21  33
ATOM     33  O   UNL     1      18.909  31.402  23.117  1.00  0.00    -0.385 OA
ATOM     34  H   UNL     1      19.516  30.653  22.892  1.00  0.00     0.211 HD
ENDBRANCH  21  33
ENDBRANCH  15  16
ENDBRANCH  10  15
BRANCH  12  35
ATOM     35  O   UNL     1      11.792  28.672  24.944  1.00  0.00    -0.385 OA
ATOM     36  H   UNL     1      11.387  28.340  24.099  1.00  0.00     0.211 HD
ENDBRANCH  12  35
BRANCH  13  37
ATOM     37  O   UNL     1      10.930  31.802  23.857  1.00  0.00    -0.387 OA
ATOM     38  H   UNL     1      11.482  32.181  24.590  1.00  0.00     0.211 HD
ENDBRANCH  13  37
BRANCH  14  39
ATOM     39  O   UNL     1      13.266  31.679  22.307  1.00  0.00    -0.387 OA
ATOM     40  H   UNL     1      13.018  32.432  22.900  1.00  0.00     0.211 HD
ENDBRANCH  14  39
ENDBRANCH   8   9
ENDBRANCH   7   8
ENDBRANCH   1   7
BRANCH   1  41
ATOM     41  C   UNL     1      14.395  31.814  19.156  1.00  0.00     0.364 C 
ATOM     42  O   UNL     1      15.179  32.828  18.942  1.00  0.00    -0.246 OA
BRANCH  41  43
ATOM     43  O   UNL     1      13.066  32.173  19.174  1.00  0.00    -0.477 OA
ATOM     44  H   UNL     1      12.351  31.463  19.099  1.00  0.00     0.296 HD
ENDBRANCH  41  43
ENDBRANCH   1  41
BRANCH   3  45
ATOM     45  O   UNL     1      14.034  29.116  15.989  1.00  0.00    -0.391 OA
ATOM     46  H   UNL     1      13.105  29.489  15.882  1.00  0.00     0.211 HD
ENDBRANCH   3  45
BRANCH   5  47
ATOM     47  C   UNL     1      17.244  28.426  18.525  1.00  0.00     0.176 C 
BRANCH  47  48
ATOM     48  O   UNL     1      18.015  27.751  17.567  1.00  0.00    -0.388 OA
ATOM     49  H   UNL     1      18.619  28.387  17.085  1.00  0.00     0.211 HD
ENDBRANCH  47  48
BRANCH  47  50
ATOM     50  C   UNL     1      18.193  28.483  19.756  1.00  0.00     0.165 C 
BRANCH  50  51
ATOM     51  O   UNL     1      17.440  28.765  20.871  1.00  0.00    -0.388 OA
ATOM     52  H   UNL     1      17.920  29.251  21.566  1.00  0.00     0.211 HD
ENDBRANCH  50  51
BRANCH  50  53
ATOM     53  C   UNL     1      19.309  29.391  19.434  1.00  0.00     0.154 C 
BRANCH  53  54
ATOM     54  N   UNL     1      19.876  29.990  20.601  1.00  0.00    -0.319 N 
ATOM     55  C   UNL     1      21.237  30.223  20.792  1.00  0.00     0.407 C 
ATOM     56  H   UNL     1      19.205  30.271  21.359  1.00  0.00     0.167 HD
ATOM     57  O   UNL     1      22.074  29.902  19.934  1.00  0.00    -0.225 OA
BRANCH  55  58
ATOM     58  O   UNL     1      21.758  30.825  21.946  1.00  0.00    -0.443 OA
BRANCH  58  59
ATOM     59  C   UNL     1      22.545  30.085  22.862  1.00  0.00     0.294 C 
BRANCH  59  60
ATOM     60  C   UNL     1      21.730  29.258  23.782  1.00  0.00     0.120 A 
ATOM     61  C   UNL     1      22.088  28.927  25.092  1.00  0.00     0.138 A 
ATOM     62  N   UNL     1      20.539  28.668  23.594  1.00  0.00    -0.132 NA
ATOM     63  N   UNL     1      21.109  28.157  25.639  1.00  0.00    -0.252 N 
ATOM     64  N   UNL     1      20.189  28.019  24.712  1.00  0.00    -0.067 NA
BRANCH  63  65
ATOM     65  C   UNL     1      21.177  27.651  27.003  1.00  0.00     0.151 C 
BRANCH  65  66
ATOM     66  C   UNL     1      22.609  27.701  27.517  1.00  0.00     0.086 C 
BRANCH  66  67
ATOM     67  C   UNL     1      23.233  26.335  27.539  1.00  0.00     0.251 C 
ATOM     68  O   UNL     1      22.306  25.413  28.028  1.00  0.00    -0.350 OA
ATOM     69  O   UNL     1      23.593  25.873  26.289  1.00  0.00    -0.350 OA
ATOM     70  C   UNL     1      22.793  24.176  27.621  1.00  0.00     0.192 C 
ATOM     71  C   UNL     1      23.851  24.514  26.585  1.00  0.00     0.192 C 
ENDBRANCH  66  67
ENDBRANCH  65  66
ENDBRANCH  63  65
ENDBRANCH  59  60
ENDBRANCH  58  59
ENDBRANCH  55  58
ENDBRANCH  53  54
ENDBRANCH  50  53
ENDBRANCH  47  50
ENDBRANCH   5  47
BRANCH   4  72
ATOM     72  N   UNL     1      16.779  30.738  15.824  1.00  0.00    -0.348 N 
ATOM     73  C   UNL     1      17.748  30.386  14.880  1.00  0.00     0.217 C 
ATOM     74  H   UNL     1      16.421  31.736  15.877  1.00  0.00     0.163 HD
ATOM     75  C   UNL     1      18.293  31.415  13.935  1.00  0.00     0.114 C 
ATOM     76  O   UNL     1      18.138  29.187  14.860  1.00  0.00    -0.275 OA
ENDBRANCH   4  72
TORSDOF 32
