REMARK VINA RESULT:    -4.736      3.532      9.227
REMARK INTER + INTRA:         -21.998
REMARK INTER:                 -15.795
REMARK INTRA:                  -6.204
REMARK UNBOUND:                -8.679
REMARK SMILES CCOC(CCn1cc(COC(=O)NC[C@@H](O)C(O)[C@@H]2O[C@@](OC[C@H]3O[C@@H](O[C@H]4[C@H](O)[C@@H](O)[C@H](OCCN=[N+]=[N-])O[C@@H]4CO)[C@H](O)[C@@H](O)[C@H]3O)(C(=O)O)C[C@H](O)[C@H]2NC(C)=O)nn1)OCC
REMARK SMILES IDX 18 1 20 2 22 3 54 4 21 5 55 6 57 7 23 8 24 9 25 10 27 11
REMARK SMILES IDX 26 12 45 13 47 14 49 15 28 16 29 17 42 18 41 19 34 20 30 21
REMARK SMILES IDX 32 22 43 23 44 24 35 26 36 27 37 28 38 29 39 30 40 31 31 32
REMARK SMILES IDX 33 34 46 36 48 38 50 40 51 42 52 43 53 44 56 46 58 48 59 49
REMARK SMILES IDX 60 51 61 52 19 53 16 55 17 56 15 58 14 59 12 60 13 62 11 63
REMARK SMILES IDX 10 64 9 65 8 66 62 67 7 68 63 69 6 70 5 71 4 72 3 73 2 74
REMARK SMILES IDX 1 75 64 76 65 77 66 78
REMARK H PARENT 44 25 31 33 33 35 46 37 48 39 50 41 53 45 56 47 58 50 19 54
REMARK H PARENT 17 57 14 61
REMARK Flexibility Score: inf
ROOT
ATOM      1  C   UNL     1      14.648  31.403  18.359  1.00  0.00     0.176 C 
ENDROOT
BRANCH   1   2
ATOM      2  C   UNL     1      15.386  30.290  19.043  1.00  0.00     0.178 C 
ATOM      3  C   UNL     1      17.077  29.804  20.544  1.00  0.00     0.272 C 
ATOM      4  C   UNL     1      16.540  28.440  20.294  1.00  0.00     0.113 C 
ATOM      5  O   UNL     1      16.412  30.814  19.813  1.00  0.00    -0.332 OA
ATOM      6  C   UNL     1      16.288  28.084  18.870  1.00  0.00     0.145 C 
ATOM      7  C   UNL     1      16.082  29.360  18.044  1.00  0.00     0.142 C 
BRANCH   3   8
ATOM      8  O   UNL     1      18.392  30.009  20.421  1.00  0.00    -0.338 OA
BRANCH   8   9
ATOM      9  C   UNL     1      19.291  29.352  21.175  1.00  0.00     0.199 C 
BRANCH   9  10
ATOM     10  C   UNL     1      20.441  28.840  20.337  1.00  0.00     0.179 C 
ATOM     11  C   UNL     1      21.758  27.097  19.815  1.00  0.00     0.282 C 
ATOM     12  O   UNL     1      20.429  27.470  20.151  1.00  0.00    -0.341 OA
ATOM     13  C   UNL     1      22.038  27.584  18.442  1.00  0.00     0.202 C 
ATOM     14  C   UNL     1      21.826  29.079  18.378  1.00  0.00     0.179 C 
ATOM     15  C   UNL     1      20.527  29.541  18.984  1.00  0.00     0.177 C 
BRANCH  11  16
ATOM     16  O   UNL     1      21.898  25.718  19.998  1.00  0.00    -0.341 OA
BRANCH  16  17
ATOM     17  C   UNL     1      22.560  25.490  21.163  1.00  0.00     0.184 C 
ATOM     18  C   UNL     1      23.776  24.647  21.141  1.00  0.00     0.178 C 
ATOM     19  O   UNL     1      24.483  24.877  22.329  1.00  0.00    -0.341 OA
ATOM     20  C   UNL     1      23.767  24.376  23.427  1.00  0.00     0.281 C 
ATOM     21  C   UNL     1      21.624  24.782  22.194  1.00  0.00     0.180 C 
ATOM     22  C   UNL     1      22.374  24.961  23.521  1.00  0.00     0.202 C 
BRANCH  18  23
ATOM     23  C   UNL     1      24.670  25.000  19.990  1.00  0.00     0.191 C 
BRANCH  23  24
ATOM     24  O   UNL     1      24.167  24.549  18.770  1.00  0.00    -0.394 OA
ATOM     25  H   UNL     1      24.159  23.579  18.697  1.00  0.00     0.210 HD
ENDBRANCH  23  24
ENDBRANCH  18  23
BRANCH  20  26
ATOM     26  O   UNL     1      24.466  24.755  24.560  1.00  0.00    -0.350 OA
BRANCH  26  27
ATOM     27  C   UNL     1      24.688  26.089  24.723  1.00  0.00     0.169 C 
BRANCH  27  28
ATOM     28  C   UNL     1      24.171  26.547  26.062  1.00  0.00     0.119 C 
BRANCH  28  29
ATOM     29  N   UNL     1      23.213  27.632  25.861  1.00  0.00    -0.092 NA
ATOM     30  N   UNL     1      22.032  27.341  26.141  1.00  0.00     0.001 N 
ATOM     31  N   UNL     1      20.821  27.167  25.984  1.00  0.00    -0.003 NA
ENDBRANCH  28  29
ENDBRANCH  27  28
ENDBRANCH  26  27
ENDBRANCH  20  26
BRANCH  21  32
ATOM     32  O   UNL     1      20.396  25.386  22.246  1.00  0.00    -0.387 OA
ATOM     33  H   UNL     1      20.094  25.728  21.369  1.00  0.00     0.211 HD
ENDBRANCH  21  32
BRANCH  22  34
ATOM     34  O   UNL     1      21.704  24.364  24.555  1.00  0.00    -0.385 OA
ATOM     35  H   UNL     1      21.867  24.928  25.374  1.00  0.00     0.211 HD
ENDBRANCH  22  34
ENDBRANCH  16  17
ENDBRANCH  11  16
BRANCH  13  36
ATOM     36  O   UNL     1      23.381  27.376  18.088  1.00  0.00    -0.385 OA
ATOM     37  H   UNL     1      23.978  27.450  18.866  1.00  0.00     0.211 HD
ENDBRANCH  13  36
BRANCH  14  38
ATOM     38  O   UNL     1      22.019  29.577  17.095  1.00  0.00    -0.387 OA
ATOM     39  H   UNL     1      22.430  30.482  17.117  1.00  0.00     0.211 HD
ENDBRANCH  14  38
BRANCH  15  40
ATOM     40  O   UNL     1      19.426  29.194  18.216  1.00  0.00    -0.387 OA
ATOM     41  H   UNL     1      18.665  28.939  18.784  1.00  0.00     0.211 HD
ENDBRANCH  15  40
ENDBRANCH   9  10
ENDBRANCH   8   9
ENDBRANCH   3   8
BRANCH   3  42
ATOM     42  C   UNL     1      16.731  30.137  21.963  1.00  0.00     0.364 C 
ATOM     43  O   UNL     1      16.783  31.304  22.394  1.00  0.00    -0.246 OA
BRANCH  42  44
ATOM     44  O   UNL     1      16.335  29.152  22.861  1.00  0.00    -0.477 OA
ATOM     45  H   UNL     1      15.563  29.355  23.488  1.00  0.00     0.296 HD
ENDBRANCH  42  44
ENDBRANCH   3  42
BRANCH   6  46
ATOM     46  O   UNL     1      17.238  27.276  18.297  1.00  0.00    -0.391 OA
ATOM     47  H   UNL     1      16.897  26.698  17.571  1.00  0.00     0.211 HD
ENDBRANCH   6  46
BRANCH   7  48
ATOM     48  N   UNL     1      15.322  29.126  16.860  1.00  0.00    -0.348 N 
ATOM     49  C   UNL     1      16.023  28.951  15.634  1.00  0.00     0.217 C 
ATOM     50  H   UNL     1      14.285  29.074  16.847  1.00  0.00     0.163 HD
ATOM     51  C   UNL     1      15.259  28.707  14.382  1.00  0.00     0.114 C 
ATOM     52  O   UNL     1      17.298  29.001  15.586  1.00  0.00    -0.275 OA
ENDBRANCH   7  48
ENDBRANCH   1   2
BRANCH   1  53
ATOM     53  O   UNL     1      13.660  30.796  17.563  1.00  0.00    -0.388 OA
ATOM     54  H   UNL     1      13.771  29.801  17.568  1.00  0.00     0.211 HD
ENDBRANCH   1  53
BRANCH   1  55
ATOM     55  C   UNL     1      13.921  32.201  19.424  1.00  0.00     0.165 C 
BRANCH  55  56
ATOM     56  O   UNL     1      14.794  32.725  20.332  1.00  0.00    -0.388 OA
ATOM     57  H   UNL     1      14.461  33.522  20.815  1.00  0.00     0.211 HD
ENDBRANCH  55  56
BRANCH  55  58
ATOM     58  C   UNL     1      12.892  31.346  20.108  1.00  0.00     0.154 C 
BRANCH  58  59
ATOM     59  N   UNL     1      13.076  31.159  21.518  1.00  0.00    -0.319 N 
ATOM     60  C   UNL     1      13.271  29.922  22.152  1.00  0.00     0.407 C 
ATOM     61  H   UNL     1      13.057  32.049  22.104  1.00  0.00     0.167 HD
ATOM     62  O   UNL     1      13.313  28.842  21.539  1.00  0.00    -0.225 OA
BRANCH  60  63
ATOM     63  O   UNL     1      13.432  29.856  23.554  1.00  0.00    -0.443 OA
BRANCH  63  64
ATOM     64  C   UNL     1      13.271  31.054  24.328  1.00  0.00     0.294 C 
BRANCH  64  65
ATOM     65  C   UNL     1      14.240  31.020  25.454  1.00  0.00     0.120 A 
ATOM     66  C   UNL     1      14.027  31.415  26.753  1.00  0.00     0.138 A 
ATOM     67  N   UNL     1      15.505  30.599  25.388  1.00  0.00    -0.132 NA
ATOM     68  N   UNL     1      15.183  31.215  27.419  1.00  0.00    -0.252 N 
ATOM     69  N   UNL     1      16.057  30.718  26.562  1.00  0.00    -0.067 NA
BRANCH  68  70
ATOM     70  C   UNL     1      15.371  31.505  28.810  1.00  0.00     0.151 C 
BRANCH  70  71
ATOM     71  C   UNL     1      15.669  30.308  29.667  1.00  0.00     0.086 C 
BRANCH  71  72
ATOM     72  C   UNL     1      14.980  30.481  31.021  1.00  0.00     0.251 C 
BRANCH  72  73
ATOM     73  O   UNL     1      14.963  29.233  31.615  1.00  0.00    -0.353 OA
BRANCH  73  74
ATOM     74  C   UNL     1      15.603  29.225  32.847  1.00  0.00     0.160 C 
ATOM     75  C   UNL     1      16.146  30.595  33.201  1.00  0.00     0.035 C 
ENDBRANCH  73  74
ENDBRANCH  72  73
BRANCH  72  76
ATOM     76  O   UNL     1      13.776  31.110  30.911  1.00  0.00    -0.353 OA
BRANCH  76  77
ATOM     77  C   UNL     1      12.652  30.349  31.083  1.00  0.00     0.160 C 
ATOM     78  C   UNL     1      11.939  30.791  32.340  1.00  0.00     0.035 C 
ENDBRANCH  76  77
ENDBRANCH  72  76
ENDBRANCH  71  72
ENDBRANCH  70  71
ENDBRANCH  68  70
ENDBRANCH  64  65
ENDBRANCH  63  64
ENDBRANCH  60  63
ENDBRANCH  58  59
ENDBRANCH  55  58
ENDBRANCH   1  55
TORSDOF 36
