REMARK VINA RESULT:    -4.007     13.507     18.299
REMARK INTER + INTRA:         -21.985
REMARK INTER:                 -14.873
REMARK INTRA:                  -7.112
REMARK UNBOUND:               -11.418
REMARK SMILES CC(=O)N[C@@H]1[C@@H](O)C[C@](OC[C@H]2O[C@@H](O[C@H]3[C@H](O)[C@@H](O)[C@H](OCCN=[N+]=[N-])O[C@@H]3CO)[C@H](O)[C@@H](O)[C@H]2O)(C(=O)O)O[C@H]1C(O)[C@H](O)CNC(=O)OCc1cn(CC(=O)NCc2cccs2)nn1
REMARK SMILES IDX 43 1 42 2 9 3 8 4 41 5 6 6 5 7 10 8 11 9 12 10 14 11 13 12
REMARK SMILES IDX 32 13 34 14 36 15 15 16 16 17 29 18 28 19 21 20 17 21 19 22
REMARK SMILES IDX 30 23 31 24 22 26 23 27 24 28 25 29 26 30 27 31 18 32 20 34
REMARK SMILES IDX 33 36 35 38 37 40 38 42 39 43 40 44 7 46 4 48 2 49 1 51 3 52
REMARK SMILES IDX 44 53 45 55 46 56 47 58 48 59 49 60 50 62 51 63 52 64 53 65
REMARK SMILES IDX 54 66 67 67 55 68 66 69 56 70 57 71 58 72 59 73 60 75 61 76
REMARK SMILES IDX 62 77 65 78 63 79 64 80
REMARK H PARENT 31 25 18 33 20 35 33 37 35 39 37 41 40 45 7 47 4 50 44 54
REMARK H PARENT 46 57 48 61 59 74
REMARK Flexibility Score: inf
ROOT
ATOM      1  C   UNL     1      14.650  30.295  16.620  1.00  0.00     0.176 C 
ENDROOT
BRANCH   1   2
ATOM      2  C   UNL     1      14.053  30.532  15.258  1.00  0.00     0.178 C 
ATOM      3  C   UNL     1      11.708  30.841  15.263  1.00  0.00     0.272 C 
ATOM      4  C   UNL     1      11.581  29.309  15.209  1.00  0.00     0.113 C 
ATOM      5  O   UNL     1      12.954  31.304  15.404  1.00  0.00    -0.332 OA
ATOM      6  C   UNL     1      12.556  28.790  14.232  1.00  0.00     0.145 C 
ATOM      7  C   UNL     1      13.948  29.347  14.380  1.00  0.00     0.142 C 
BRANCH   3   8
ATOM      8  O   UNL     1      10.915  31.202  16.326  1.00  0.00    -0.338 OA
BRANCH   8   9
ATOM      9  C   UNL     1      10.915  32.447  16.805  1.00  0.00     0.199 C 
BRANCH   9  10
ATOM     10  C   UNL     1      11.151  32.682  18.270  1.00  0.00     0.179 C 
ATOM     11  C   UNL     1      12.596  31.887  19.865  1.00  0.00     0.282 C 
ATOM     12  O   UNL     1      12.463  32.206  18.506  1.00  0.00    -0.341 OA
ATOM     13  C   UNL     1      12.018  32.947  20.742  1.00  0.00     0.202 C 
ATOM     14  C   UNL     1      11.711  34.241  20.065  1.00  0.00     0.179 C 
ATOM     15  C   UNL     1      11.216  34.144  18.658  1.00  0.00     0.177 C 
BRANCH  11  16
ATOM     16  O   UNL     1      13.888  31.614  20.219  1.00  0.00    -0.341 OA
BRANCH  16  17
ATOM     17  C   UNL     1      14.018  30.473  21.008  1.00  0.00     0.184 C 
ATOM     18  C   UNL     1      14.333  30.747  22.413  1.00  0.00     0.178 C 
ATOM     19  O   UNL     1      15.576  30.417  22.882  1.00  0.00    -0.341 OA
ATOM     20  C   UNL     1      16.528  30.059  21.982  1.00  0.00     0.281 C 
ATOM     21  C   UNL     1      14.920  29.522  20.274  1.00  0.00     0.180 C 
ATOM     22  C   UNL     1      15.956  28.886  21.166  1.00  0.00     0.202 C 
BRANCH  18  23
ATOM     23  C   UNL     1      13.352  29.992  23.333  1.00  0.00     0.191 C 
BRANCH  23  24
ATOM     24  O   UNL     1      12.654  29.011  22.662  1.00  0.00    -0.394 OA
ATOM     25  H   UNL     1      11.688  29.127  22.868  1.00  0.00     0.210 HD
ENDBRANCH  23  24
ENDBRANCH  18  23
BRANCH  20  26
ATOM     26  O   UNL     1      17.609  29.493  22.678  1.00  0.00    -0.350 OA
BRANCH  26  27
ATOM     27  C   UNL     1      18.727  30.301  22.635  1.00  0.00     0.169 C 
BRANCH  27  28
ATOM     28  C   UNL     1      19.360  30.270  24.030  1.00  0.00     0.119 C 
BRANCH  28  29
ATOM     29  N   UNL     1      19.936  28.955  24.265  1.00  0.00    -0.092 NA
ATOM     30  N   UNL     1      20.924  28.602  23.624  1.00  0.00     0.001 N 
ATOM     31  N   UNL     1      22.030  28.269  23.158  1.00  0.00    -0.003 NA
ENDBRANCH  28  29
ENDBRANCH  27  28
ENDBRANCH  26  27
ENDBRANCH  20  26
BRANCH  21  32
ATOM     32  O   UNL     1      14.219  28.553  19.549  1.00  0.00    -0.387 OA
ATOM     33  H   UNL     1      13.765  27.901  20.166  1.00  0.00     0.211 HD
ENDBRANCH  21  32
BRANCH  22  34
ATOM     34  O   UNL     1      16.930  28.321  20.368  1.00  0.00    -0.385 OA
ATOM     35  H   UNL     1      17.801  28.773  20.503  1.00  0.00     0.211 HD
ENDBRANCH  22  34
ENDBRANCH  16  17
ENDBRANCH  11  16
BRANCH  13  36
ATOM     36  O   UNL     1      10.875  32.483  21.433  1.00  0.00    -0.385 OA
ATOM     37  H   UNL     1      10.624  31.575  21.203  1.00  0.00     0.211 HD
ENDBRANCH  13  36
BRANCH  14  38
ATOM     38  O   UNL     1      12.807  35.130  20.172  1.00  0.00    -0.387 OA
ATOM     39  H   UNL     1      13.650  34.635  20.025  1.00  0.00     0.211 HD
ENDBRANCH  14  38
BRANCH  15  40
ATOM     40  O   UNL     1      12.189  34.781  17.850  1.00  0.00    -0.387 OA
ATOM     41  H   UNL     1      12.762  34.134  17.379  1.00  0.00     0.211 HD
ENDBRANCH  15  40
ENDBRANCH   9  10
ENDBRANCH   8   9
ENDBRANCH   3   8
BRANCH   3  42
ATOM     42  C   UNL     1      11.124  31.300  13.964  1.00  0.00     0.364 C 
ATOM     43  O   UNL     1      11.713  32.040  13.143  1.00  0.00    -0.246 OA
BRANCH  42  44
ATOM     44  O   UNL     1       9.843  30.891  13.616  1.00  0.00    -0.477 OA
ATOM     45  H   UNL     1       9.131  31.573  13.387  1.00  0.00     0.296 HD
ENDBRANCH  42  44
ENDBRANCH   3  42
BRANCH   6  46
ATOM     46  O   UNL     1      12.569  27.367  14.295  1.00  0.00    -0.391 OA
ATOM     47  H   UNL     1      12.997  27.051  15.120  1.00  0.00     0.211 HD
ENDBRANCH   6  46
BRANCH   7  48
ATOM     48  N   UNL     1      14.551  29.578  13.082  1.00  0.00    -0.348 N 
ATOM     49  C   UNL     1      15.948  29.467  12.919  1.00  0.00     0.217 C 
ATOM     50  H   UNL     1      13.976  29.836  12.237  1.00  0.00     0.163 HD
ATOM     51  C   UNL     1      16.551  29.709  11.575  1.00  0.00     0.114 C 
ATOM     52  O   UNL     1      16.738  29.173  13.846  1.00  0.00    -0.275 OA
ENDBRANCH   7  48
ENDBRANCH   1   2
BRANCH   1  53
ATOM     53  O   UNL     1      15.198  29.062  16.821  1.00  0.00    -0.388 OA
ATOM     54  H   UNL     1      15.090  28.410  16.097  1.00  0.00     0.211 HD
ENDBRANCH   1  53
BRANCH   1  55
ATOM     55  C   UNL     1      15.506  31.426  17.150  1.00  0.00     0.165 C 
BRANCH  55  56
ATOM     56  O   UNL     1      14.830  32.599  17.293  1.00  0.00    -0.388 OA
ATOM     57  H   UNL     1      15.191  33.211  17.970  1.00  0.00     0.211 HD
ENDBRANCH  55  56
BRANCH  55  58
ATOM     58  C   UNL     1      16.735  31.601  16.276  1.00  0.00     0.154 C 
BRANCH  58  59
ATOM     59  N   UNL     1      17.710  30.569  16.467  1.00  0.00    -0.319 N 
ATOM     60  C   UNL     1      18.319  30.187  17.688  1.00  0.00     0.407 C 
ATOM     61  H   UNL     1      18.059  29.982  15.627  1.00  0.00     0.167 HD
ATOM     62  O   UNL     1      18.043  30.733  18.756  1.00  0.00    -0.225 OA
BRANCH  60  63
ATOM     63  O   UNL     1      19.277  29.155  17.737  1.00  0.00    -0.443 OA
BRANCH  63  64
ATOM     64  C   UNL     1      20.267  28.937  16.785  1.00  0.00     0.294 C 
BRANCH  64  65
ATOM     65  C   UNL     1      21.219  27.869  17.117  1.00  0.00     0.120 A 
ATOM     66  C   UNL     1      21.901  27.702  18.302  1.00  0.00     0.138 A 
ATOM     67  N   UNL     1      21.603  26.838  16.318  1.00  0.00    -0.132 NA
ATOM     68  N   UNL     1      22.664  26.606  18.204  1.00  0.00    -0.243 N 
ATOM     69  N   UNL     1      22.461  26.114  17.006  1.00  0.00    -0.067 NA
BRANCH  68  70
ATOM     70  C   UNL     1      23.560  25.997  19.162  1.00  0.00     0.245 C 
BRANCH  70  71
ATOM     71  C   UNL     1      22.772  25.121  20.048  1.00  0.00     0.242 C 
ATOM     72  O   UNL     1      22.399  24.001  19.655  1.00  0.00    -0.273 OA
ATOM     73  N   UNL     1      22.431  25.543  21.356  1.00  0.00    -0.350 N 
ATOM     74  H   UNL     1      22.728  26.488  21.729  1.00  0.00     0.163 HD
BRANCH  73  75
ATOM     75  C   UNL     1      21.670  24.723  22.247  1.00  0.00     0.162 C 
BRANCH  75  76
ATOM     76  C   UNL     1      22.324  24.701  23.564  1.00  0.00     0.024 A 
ATOM     77  C   UNL     1      21.818  24.649  24.821  1.00  0.00     0.017 A 
ATOM     78  S   UNL     1      24.062  24.731  23.824  1.00  0.00    -0.147 S 
ATOM     79  C   UNL     1      22.656  24.634  25.869  1.00  0.00     0.012 A 
ATOM     80  C   UNL     1      23.986  24.670  25.671  1.00  0.00     0.065 A 
ENDBRANCH  75  76
ENDBRANCH  73  75
ENDBRANCH  70  71
ENDBRANCH  68  70
ENDBRANCH  64  65
ENDBRANCH  63  64
ENDBRANCH  60  63
ENDBRANCH  58  59
ENDBRANCH  55  58
ENDBRANCH   1  55
TORSDOF 33
