REMARK VINA RESULT:    -7.215      0.000      0.000
REMARK INTER + INTRA:         -23.298
REMARK INTER:                 -16.539
REMARK INTRA:                  -6.759
REMARK UNBOUND:                -5.539
REMARK SMILES CC(=O)N[C@@H]1[C@@H](O)C[C@](OC[C@H]2O[C@@H](O[C@H]3[C@H](O)[C@@H](O)[C@H](OCCN=[N+]=[N-])O[C@@H]3CO)[C@H](O)[C@@H](O)[C@H]2O)(C(=O)O)O[C@H]1C(O)[C@H](O)CNC(=O)OCc1cn(-c2c3ccccc3nc3ccccc23)nn1
REMARK SMILES IDX 9 1 8 2 6 3 5 4 42 5 41 6 10 7 11 8 12 9 14 10 13 11 32 12
REMARK SMILES IDX 34 13 36 14 15 15 16 16 29 17 28 18 21 19 17 20 19 21 30 22
REMARK SMILES IDX 31 23 22 25 23 26 24 27 25 28 26 29 27 30 18 31 20 33 33 35
REMARK SMILES IDX 35 37 37 39 38 41 39 42 40 43 7 45 43 47 44 48 45 50 46 51
REMARK SMILES IDX 47 53 48 54 49 55 50 57 51 58 52 59 53 60 54 61 71 62 55 63
REMARK SMILES IDX 70 64 56 65 57 66 69 67 58 68 62 69 64 70 68 71 59 72 61 73
REMARK SMILES IDX 63 74 65 75 67 76 60 77 66 78 4 79 2 80 1 82 3 83
REMARK H PARENT 31 24 18 32 20 34 33 36 35 38 37 40 40 44 7 46 44 49 46 52
REMARK H PARENT 48 56 4 81
REMARK Flexibility Score: inf
ROOT
ATOM      1  C   UNL     1       2.183  22.922  34.563  1.00  0.00     0.272 C 
ATOM      2  C   UNL     1       2.855  22.129  35.789  1.00  0.00     0.113 C 
ATOM      3  C   UNL     1       2.540  20.708  35.498  1.00  0.00     0.145 C 
ATOM      4  C   UNL     1       2.979  20.227  34.130  1.00  0.00     0.142 C 
ATOM      5  C   UNL     1       3.051  21.282  33.107  1.00  0.00     0.178 C 
ATOM      6  O   UNL     1       2.931  22.565  33.521  1.00  0.00    -0.332 OA
ENDROOT
BRANCH   1   7
ATOM      7  O   UNL     1       2.511  24.223  34.948  1.00  0.00    -0.338 OA
BRANCH   7   8
ATOM      8  C   UNL     1       1.857  25.232  34.325  1.00  0.00     0.199 C 
BRANCH   8   9
ATOM      9  C   UNL     1       2.714  26.248  33.676  1.00  0.00     0.179 C 
ATOM     10  C   UNL     1       4.809  27.277  33.645  1.00  0.00     0.282 C 
ATOM     11  O   UNL     1       3.938  26.362  34.275  1.00  0.00    -0.341 OA
ATOM     12  C   UNL     1       4.176  28.098  32.601  1.00  0.00     0.202 C 
ATOM     13  C   UNL     1       3.435  27.258  31.586  1.00  0.00     0.179 C 
ATOM     14  C   UNL     1       2.868  26.007  32.172  1.00  0.00     0.177 C 
BRANCH  10  15
ATOM     15  O   UNL     1       5.949  26.614  33.212  1.00  0.00    -0.341 OA
BRANCH  15  16
ATOM     16  C   UNL     1       6.608  25.930  34.260  1.00  0.00     0.184 C 
ATOM     17  C   UNL     1       7.970  26.472  34.433  1.00  0.00     0.178 C 
ATOM     18  O   UNL     1       8.854  25.585  35.101  1.00  0.00    -0.341 OA
ATOM     19  C   UNL     1       9.000  24.477  34.276  1.00  0.00     0.281 C 
ATOM     20  C   UNL     1       6.635  24.470  33.781  1.00  0.00     0.180 C 
ATOM     21  C   UNL     1       7.705  23.672  34.472  1.00  0.00     0.202 C 
BRANCH  17  22
ATOM     22  C   UNL     1       7.964  27.755  35.250  1.00  0.00     0.191 C 
BRANCH  22  23
ATOM     23  O   UNL     1       7.479  28.838  34.563  1.00  0.00    -0.394 OA
ATOM     24  H   UNL     1       6.556  29.029  34.872  1.00  0.00     0.210 HD
ENDBRANCH  22  23
ENDBRANCH  17  22
BRANCH  19  25
ATOM     25  O   UNL     1      10.117  23.790  34.680  1.00  0.00    -0.350 OA
BRANCH  25  26
ATOM     26  C   UNL     1      10.781  24.358  35.763  1.00  0.00     0.169 C 
BRANCH  26  27
ATOM     27  C   UNL     1      11.648  23.353  36.491  1.00  0.00     0.119 C 
BRANCH  27  28
ATOM     28  N   UNL     1      10.765  22.292  36.964  1.00  0.00    -0.092 NA
ATOM     29  N   UNL     1       9.918  22.520  37.834  1.00  0.00     0.001 N 
ATOM     30  N   UNL     1       9.012  22.706  38.649  1.00  0.00    -0.003 NA
ENDBRANCH  27  28
ENDBRANCH  26  27
ENDBRANCH  25  26
ENDBRANCH  19  25
BRANCH  20  31
ATOM     31  O   UNL     1       5.375  23.909  33.912  1.00  0.00    -0.387 OA
ATOM     32  H   UNL     1       4.649  24.510  33.608  1.00  0.00     0.211 HD
ENDBRANCH  20  31
BRANCH  21  33
ATOM     33  O   UNL     1       7.800  22.428  33.888  1.00  0.00    -0.385 OA
ATOM     34  H   UNL     1       8.150  21.799  34.589  1.00  0.00     0.211 HD
ENDBRANCH  21  33
ENDBRANCH  15  16
ENDBRANCH  10  15
BRANCH  12  35
ATOM     35  O   UNL     1       3.359  29.089  33.168  1.00  0.00    -0.385 OA
ATOM     36  H   UNL     1       3.985  29.693  33.668  1.00  0.00     0.211 HD
ENDBRANCH  12  35
BRANCH  13  37
ATOM     37  O   UNL     1       4.330  26.977  30.536  1.00  0.00    -0.387 OA
ATOM     38  H   UNL     1       3.921  27.412  29.721  1.00  0.00     0.211 HD
ENDBRANCH  13  37
BRANCH  14  39
ATOM     39  O   UNL     1       3.614  24.880  31.893  1.00  0.00    -0.387 OA
ATOM     40  H   UNL     1       3.906  24.395  32.706  1.00  0.00     0.211 HD
ENDBRANCH  14  39
ENDBRANCH   8   9
ENDBRANCH   7   8
ENDBRANCH   1   7
BRANCH   1  41
ATOM     41  C   UNL     1       0.802  22.602  34.700  1.00  0.00     0.364 C 
ATOM     42  O   UNL     1       0.104  22.263  33.690  1.00  0.00    -0.246 OA
BRANCH  41  43
ATOM     43  O   UNL     1       0.067  22.611  35.892  1.00  0.00    -0.477 OA
ATOM     44  H   UNL     1       0.262  21.902  36.588  1.00  0.00     0.296 HD
ENDBRANCH  41  43
ENDBRANCH   1  41
BRANCH   3  45
ATOM     45  O   UNL     1       3.170  19.941  36.508  1.00  0.00    -0.391 OA
ATOM     46  H   UNL     1       3.622  20.556  37.143  1.00  0.00     0.211 HD
ENDBRANCH   3  45
BRANCH   5  47
ATOM     47  C   UNL     1       4.401  21.241  32.338  1.00  0.00     0.176 C 
BRANCH  47  48
ATOM     48  O   UNL     1       5.423  20.917  33.179  1.00  0.00    -0.388 OA
ATOM     49  H   UNL     1       6.110  21.645  33.296  1.00  0.00     0.211 HD
ENDBRANCH  47  48
BRANCH  47  50
ATOM     50  C   UNL     1       4.312  20.600  31.028  1.00  0.00     0.165 C 
BRANCH  50  51
ATOM     51  O   UNL     1       5.498  20.473  30.302  1.00  0.00    -0.388 OA
ATOM     52  H   UNL     1       6.251  20.185  30.876  1.00  0.00     0.211 HD
ENDBRANCH  50  51
BRANCH  50  53
ATOM     53  C   UNL     1       3.119  20.844  30.187  1.00  0.00     0.154 C 
BRANCH  53  54
ATOM     54  N   UNL     1       3.014  22.031  29.424  1.00  0.00    -0.319 N 
ATOM     55  C   UNL     1       2.267  22.179  28.236  1.00  0.00     0.407 C 
ATOM     56  H   UNL     1       3.550  22.909  29.777  1.00  0.00     0.167 HD
ATOM     57  O   UNL     1       1.621  21.272  27.688  1.00  0.00    -0.225 OA
BRANCH  55  58
ATOM     58  O   UNL     1       2.209  23.422  27.576  1.00  0.00    -0.443 OA
BRANCH  58  59
ATOM     59  C   UNL     1       2.950  23.705  26.402  1.00  0.00     0.294 C 
BRANCH  59  60
ATOM     60  C   UNL     1       3.690  24.988  26.580  1.00  0.00     0.121 A 
ATOM     61  C   UNL     1       4.329  25.746  25.623  1.00  0.00     0.144 A 
ATOM     62  N   UNL     1       3.883  25.645  27.733  1.00  0.00    -0.131 NA
ATOM     63  N   UNL     1       4.893  26.835  26.194  1.00  0.00    -0.219 N 
ATOM     64  N   UNL     1       4.604  26.744  27.482  1.00  0.00    -0.062 NA
BRANCH  63  65
ATOM     65  C   UNL     1       5.649  27.861  25.524  1.00  0.00     0.085 A 
ATOM     66  C   UNL     1       5.001  28.968  24.998  1.00  0.00     0.027 A 
ATOM     67  C   UNL     1       7.015  27.786  25.378  1.00  0.00     0.027 A 
ATOM     68  C   UNL     1       3.634  29.102  25.113  1.00  0.00     0.012 A 
ATOM     69  C   UNL     1       5.686  29.985  24.337  1.00  0.00     0.073 A 
ATOM     70  C   UNL     1       7.654  28.812  24.719  1.00  0.00     0.073 A 
ATOM     71  C   UNL     1       7.716  26.726  25.873  1.00  0.00     0.012 A 
ATOM     72  C   UNL     1       2.990  30.203  24.591  1.00  0.00     0.001 A 
ATOM     73  C   UNL     1       5.038  31.084  23.817  1.00  0.00     0.029 A 
ATOM     74  N   UNL     1       7.015  29.881  24.212  1.00  0.00    -0.248 NA
ATOM     75  C   UNL     1       9.023  28.773  24.553  1.00  0.00     0.029 A 
ATOM     76  C   UNL     1       9.093  26.712  25.692  1.00  0.00     0.001 A 
ATOM     77  C   UNL     1       3.675  31.219  23.931  1.00  0.00     0.002 A 
ATOM     78  C   UNL     1       9.774  27.717  25.039  1.00  0.00     0.002 A 
ENDBRANCH  63  65
ENDBRANCH  59  60
ENDBRANCH  58  59
ENDBRANCH  55  58
ENDBRANCH  53  54
ENDBRANCH  50  53
ENDBRANCH  47  50
ENDBRANCH   5  47
BRANCH   4  79
ATOM     79  N   UNL     1       2.168  19.092  33.750  1.00  0.00    -0.348 N 
ATOM     80  C   UNL     1       2.400  17.754  34.186  1.00  0.00     0.217 C 
ATOM     81  H   UNL     1       1.349  19.210  33.110  1.00  0.00     0.163 HD
ATOM     82  C   UNL     1       1.488  16.657  33.715  1.00  0.00     0.114 C 
ATOM     83  O   UNL     1       3.359  17.549  34.948  1.00  0.00    -0.275 OA
ENDBRANCH   4  79
TORSDOF 30
