REMARK VINA RESULT:    -5.316      9.132     13.752
REMARK INTER + INTRA:         -20.980
REMARK INTER:                 -15.836
REMARK INTRA:                  -5.144
REMARK UNBOUND:                -7.585
REMARK SMILES COc1ccc(-n2cc(COC(=O)NC[C@@H](O)C(O)[C@@H]3O[C@@](OC[C@H]4O[C@@H](O[C@H]5[C@H](O)[C@@H](O)[C@H](OCCN=[N+]=[N-])O[C@@H]5CO)[C@H](O)[C@@H](O)[C@H]4O)(C(=O)O)C[C@H](O)[C@H]3NC(C)=O)nn2)cc1
REMARK SMILES IDX 22 1 54 2 55 3 57 4 20 5 21 6 23 7 24 8 25 9 27 10 26 11
REMARK SMILES IDX 45 12 47 13 49 14 28 15 29 16 42 17 41 18 34 19 30 20 32 21
REMARK SMILES IDX 43 22 44 23 35 25 36 26 37 27 38 28 39 29 40 30 31 31 33 33
REMARK SMILES IDX 46 35 48 37 50 39 51 41 52 42 53 43 56 45 18 47 19 48 16 50
REMARK SMILES IDX 17 51 15 53 14 54 12 55 13 57 11 58 10 59 9 60 8 61 62 62
REMARK SMILES IDX 7 63 63 64 6 65 5 66 64 67 4 68 65 69 3 70 2 71 1 72 58 73
REMARK SMILES IDX 59 74 60 76 61 77
REMARK H PARENT 44 24 31 32 33 34 46 36 48 38 50 40 53 44 56 46 19 49 17 52
REMARK H PARENT 14 56 58 75
REMARK Flexibility Score: inf
ROOT
ATOM      1  C   UNL     1      20.175  29.941  17.599  1.00  0.00     0.272 C 
ATOM      2  C   UNL     1      20.382  31.346  18.026  1.00  0.00     0.113 C 
ATOM      3  C   UNL     1      20.391  31.615  19.479  1.00  0.00     0.145 C 
ATOM      4  C   UNL     1      19.627  30.473  20.179  1.00  0.00     0.142 C 
ATOM      5  C   UNL     1      18.502  30.090  19.284  1.00  0.00     0.178 C 
ATOM      6  O   UNL     1      19.047  29.374  18.220  1.00  0.00    -0.332 OA
ENDROOT
BRANCH   1   7
ATOM      7  O   UNL     1      21.104  29.041  17.524  1.00  0.00    -0.338 OA
BRANCH   7   8
ATOM      8  C   UNL     1      22.322  28.817  17.849  1.00  0.00     0.199 C 
BRANCH   8   9
ATOM      9  C   UNL     1      22.939  27.451  17.949  1.00  0.00     0.179 C 
ATOM     10  C   UNL     1      23.044  25.462  19.069  1.00  0.00     0.282 C 
ATOM     11  O   UNL     1      22.352  26.671  18.886  1.00  0.00    -0.341 OA
ATOM     12  C   UNL     1      23.133  24.623  17.834  1.00  0.00     0.202 C 
ATOM     13  C   UNL     1      22.898  25.332  16.553  1.00  0.00     0.179 C 
ATOM     14  C   UNL     1      23.084  26.795  16.597  1.00  0.00     0.177 C 
BRANCH  10  15
ATOM     15  O   UNL     1      22.367  24.753  20.056  1.00  0.00    -0.341 OA
BRANCH  15  16
ATOM     16  C   UNL     1      22.647  25.191  21.321  1.00  0.00     0.184 C 
ATOM     17  C   UNL     1      23.409  24.199  22.121  1.00  0.00     0.178 C 
ATOM     18  O   UNL     1      23.587  24.657  23.454  1.00  0.00    -0.341 OA
ATOM     19  C   UNL     1      22.300  24.581  24.047  1.00  0.00     0.281 C 
ATOM     20  C   UNL     1      21.312  25.497  22.024  1.00  0.00     0.180 C 
ATOM     21  C   UNL     1      21.568  25.798  23.476  1.00  0.00     0.202 C 
BRANCH  17  22
ATOM     22  C   UNL     1      24.760  23.906  21.522  1.00  0.00     0.191 C 
BRANCH  22  23
ATOM     23  O   UNL     1      25.535  23.243  22.458  1.00  0.00    -0.394 OA
ATOM     24  H   UNL     1      26.330  23.754  22.728  1.00  0.00     0.210 HD
ENDBRANCH  22  23
ENDBRANCH  17  22
BRANCH  19  25
ATOM     25  O   UNL     1      22.371  24.612  25.395  1.00  0.00    -0.350 OA
BRANCH  25  26
ATOM     26  C   UNL     1      23.558  24.871  26.007  1.00  0.00     0.169 C 
BRANCH  26  27
ATOM     27  C   UNL     1      23.732  26.213  26.634  1.00  0.00     0.119 C 
BRANCH  27  28
ATOM     28  N   UNL     1      22.643  26.673  27.441  1.00  0.00    -0.092 NA
ATOM     29  N   UNL     1      21.682  27.252  26.946  1.00  0.00     0.001 N 
ATOM     30  N   UNL     1      20.842  27.921  26.336  1.00  0.00    -0.003 NA
ENDBRANCH  27  28
ENDBRANCH  26  27
ENDBRANCH  25  26
ENDBRANCH  19  25
BRANCH  20  31
ATOM     31  O   UNL     1      20.699  26.551  21.372  1.00  0.00    -0.387 OA
ATOM     32  H   UNL     1      19.705  26.409  21.458  1.00  0.00     0.211 HD
ENDBRANCH  20  31
BRANCH  21  33
ATOM     33  O   UNL     1      20.380  25.937  24.157  1.00  0.00    -0.385 OA
ATOM     34  H   UNL     1      20.227  25.181  24.777  1.00  0.00     0.211 HD
ENDBRANCH  21  33
ENDBRANCH  15  16
ENDBRANCH  10  15
BRANCH  12  35
ATOM     35  O   UNL     1      24.386  23.997  17.726  1.00  0.00    -0.385 OA
ATOM     36  H   UNL     1      24.294  23.046  17.495  1.00  0.00     0.211 HD
ENDBRANCH  12  35
BRANCH  13  37
ATOM     37  O   UNL     1      21.672  24.940  16.003  1.00  0.00    -0.387 OA
ATOM     38  H   UNL     1      21.591  25.149  15.050  1.00  0.00     0.211 HD
ENDBRANCH  13  37
BRANCH  14  39
ATOM     39  O   UNL     1      22.247  27.384  15.645  1.00  0.00    -0.387 OA
ATOM     40  H   UNL     1      22.372  26.879  14.803  1.00  0.00     0.211 HD
ENDBRANCH  14  39
ENDBRANCH   8   9
ENDBRANCH   7   8
ENDBRANCH   1   7
BRANCH   1  41
ATOM     41  C   UNL     1      19.628  30.111  16.146  1.00  0.00     0.364 C 
ATOM     42  O   UNL     1      18.531  30.638  15.951  1.00  0.00    -0.246 OA
BRANCH  41  43
ATOM     43  O   UNL     1      20.435  29.645  15.138  1.00  0.00    -0.477 OA
ATOM     44  H   UNL     1      20.103  28.947  14.457  1.00  0.00     0.296 HD
ENDBRANCH  41  43
ENDBRANCH   1  41
BRANCH   3  45
ATOM     45  O   UNL     1      21.602  31.861  20.058  1.00  0.00    -0.391 OA
ATOM     46  H   UNL     1      21.973  32.762  19.920  1.00  0.00     0.211 HD
ENDBRANCH   3  45
BRANCH   5  47
ATOM     47  C   UNL     1      17.501  29.112  19.943  1.00  0.00     0.176 C 
BRANCH  47  48
ATOM     48  O   UNL     1      18.143  28.018  20.437  1.00  0.00    -0.388 OA
ATOM     49  H   UNL     1      17.663  27.202  20.164  1.00  0.00     0.211 HD
ENDBRANCH  47  48
BRANCH  47  50
ATOM     50  C   UNL     1      16.455  29.790  20.667  1.00  0.00     0.165 C 
BRANCH  50  51
ATOM     51  O   UNL     1      16.312  29.438  22.037  1.00  0.00    -0.388 OA
ATOM     52  H   UNL     1      17.197  29.566  22.432  1.00  0.00     0.211 HD
ENDBRANCH  50  51
BRANCH  50  53
ATOM     53  C   UNL     1      15.073  29.953  20.185  1.00  0.00     0.154 C 
BRANCH  53  54
ATOM     54  N   UNL     1      14.095  30.423  21.057  1.00  0.00    -0.319 N 
ATOM     55  C   UNL     1      13.220  29.651  21.836  1.00  0.00     0.407 C 
ATOM     56  H   UNL     1      13.982  31.490  21.156  1.00  0.00     0.167 HD
ATOM     57  O   UNL     1      13.256  28.410  21.834  1.00  0.00    -0.225 OA
BRANCH  55  58
ATOM     58  O   UNL     1      12.268  30.303  22.653  1.00  0.00    -0.443 OA
BRANCH  58  59
ATOM     59  C   UNL     1      12.002  29.736  23.911  1.00  0.00     0.294 C 
BRANCH  59  60
ATOM     60  C   UNL     1      10.541  29.734  24.162  1.00  0.00     0.121 A 
ATOM     61  C   UNL     1       9.705  28.693  24.521  1.00  0.00     0.144 A 
ATOM     62  N   UNL     1       9.762  30.830  24.087  1.00  0.00    -0.131 NA
ATOM     63  N   UNL     1       8.471  29.193  24.647  1.00  0.00    -0.220 N 
ATOM     64  N   UNL     1       8.531  30.501  24.376  1.00  0.00    -0.062 NA
BRANCH  63  65
ATOM     65  C   UNL     1       7.237  28.587  25.000  1.00  0.00     0.067 A 
ATOM     66  C   UNL     1       7.105  27.611  25.950  1.00  0.00     0.032 A 
ATOM     67  C   UNL     1       6.079  28.992  24.340  1.00  0.00     0.032 A 
ATOM     68  C   UNL     1       5.868  27.052  26.240  1.00  0.00     0.048 A 
ATOM     69  C   UNL     1       4.848  28.436  24.627  1.00  0.00     0.048 A 
ATOM     70  C   UNL     1       4.718  27.453  25.585  1.00  0.00     0.119 A 
BRANCH  70  71
ATOM     71  O   UNL     1       3.469  26.876  25.888  1.00  0.00    -0.497 OA
ATOM     72  C   UNL     1       2.740  26.296  24.796  1.00  0.00     0.278 C 
ENDBRANCH  70  71
ENDBRANCH  63  65
ENDBRANCH  59  60
ENDBRANCH  58  59
ENDBRANCH  55  58
ENDBRANCH  53  54
ENDBRANCH  50  53
ENDBRANCH  47  50
ENDBRANCH   5  47
BRANCH   4  73
ATOM     73  N   UNL     1      19.313  30.886  21.518  1.00  0.00    -0.348 N 
ATOM     74  C   UNL     1      19.651  30.081  22.636  1.00  0.00     0.217 C 
ATOM     75  H   UNL     1      18.859  31.803  21.674  1.00  0.00     0.163 HD
ATOM     76  C   UNL     1      19.313  30.531  24.012  1.00  0.00     0.114 C 
ATOM     77  O   UNL     1      20.237  28.972  22.524  1.00  0.00    -0.275 OA
ENDBRANCH   4  73
TORSDOF 31
