REMARK VINA RESULT:    -6.041      3.064      7.975
REMARK INTER + INTRA:         -23.371
REMARK INTER:                 -15.434
REMARK INTRA:                  -7.937
REMARK UNBOUND:                -8.149
REMARK SMILES CC(=O)N[C@@H]1[C@@H](O)C[C@](OC[C@H]2O[C@@H](O[C@H]3[C@H](O)[C@@H](O)[C@H](OCCN=[N+]=[N-])O[C@@H]3CO)[C@H](O)[C@@H](O)[C@H]2O)(C(=O)O)O[C@H]1C(O)[C@H](O)CNC(=O)OCc1cn(Cc2ccc3c(c2)OCO3)nn1
REMARK SMILES IDX 9 1 8 2 6 3 5 4 42 5 41 6 10 7 11 8 12 9 14 10 13 11 32 12
REMARK SMILES IDX 34 13 36 14 15 15 16 16 29 17 28 18 21 19 17 20 19 21 30 22
REMARK SMILES IDX 31 23 22 25 23 26 24 27 25 28 26 29 27 30 18 31 20 33 33 35
REMARK SMILES IDX 35 37 37 39 38 41 39 42 40 43 7 45 43 47 44 48 45 50 46 51
REMARK SMILES IDX 47 53 48 54 49 55 50 57 51 58 52 59 53 60 54 61 67 62 55 63
REMARK SMILES IDX 66 64 56 65 57 66 58 67 62 68 59 69 61 70 60 71 63 72 65 73
REMARK SMILES IDX 64 74 4 75 2 76 1 78 3 79
REMARK H PARENT 31 24 18 32 20 34 33 36 35 38 37 40 40 44 7 46 44 49 46 52
REMARK H PARENT 48 56 4 77
REMARK Flexibility Score: inf
ROOT
ATOM      1  C   UNL     1      19.262  30.627  22.795  1.00  0.00     0.272 C 
ATOM      2  C   UNL     1      19.538  31.889  22.001  1.00  0.00     0.113 C 
ATOM      3  C   UNL     1      19.812  31.528  20.572  1.00  0.00     0.145 C 
ATOM      4  C   UNL     1      21.096  30.657  20.586  1.00  0.00     0.142 C 
ATOM      5  C   UNL     1      20.855  29.530  21.524  1.00  0.00     0.178 C 
ATOM      6  O   UNL     1      19.575  29.502  22.073  1.00  0.00    -0.332 OA
ENDROOT
BRANCH   1   7
ATOM      7  O   UNL     1      17.928  30.604  23.233  1.00  0.00    -0.338 OA
BRANCH   7   8
ATOM      8  C   UNL     1      17.339  31.801  23.466  1.00  0.00     0.199 C 
BRANCH   8   9
ATOM      9  C   UNL     1      15.816  31.625  23.360  1.00  0.00     0.179 C 
ATOM     10  C   UNL     1      14.170  30.667  22.070  1.00  0.00     0.282 C 
ATOM     11  O   UNL     1      15.505  31.063  22.151  1.00  0.00    -0.341 OA
ATOM     12  C   UNL     1      13.952  29.516  23.057  1.00  0.00     0.202 C 
ATOM     13  C   UNL     1      14.836  29.570  24.250  1.00  0.00     0.179 C 
ATOM     14  C   UNL     1      15.241  30.970  24.564  1.00  0.00     0.177 C 
BRANCH  10  15
ATOM     15  O   UNL     1      13.924  30.185  20.846  1.00  0.00    -0.341 OA
BRANCH  15  16
ATOM     16  C   UNL     1      14.909  30.084  19.911  1.00  0.00     0.184 C 
ATOM     17  C   UNL     1      14.557  30.671  18.572  1.00  0.00     0.178 C 
ATOM     18  O   UNL     1      14.479  29.746  17.585  1.00  0.00    -0.341 OA
ATOM     19  C   UNL     1      15.662  29.027  17.317  1.00  0.00     0.281 C 
ATOM     20  C   UNL     1      15.303  28.638  19.763  1.00  0.00     0.180 C 
ATOM     21  C   UNL     1      16.277  28.534  18.607  1.00  0.00     0.202 C 
BRANCH  17  22
ATOM     22  C   UNL     1      15.575  31.725  18.215  1.00  0.00     0.191 C 
BRANCH  22  23
ATOM     23  O   UNL     1      16.314  32.108  19.365  1.00  0.00    -0.394 OA
ATOM     24  H   UNL     1      16.769  32.973  19.245  1.00  0.00     0.210 HD
ENDBRANCH  22  23
ENDBRANCH  17  22
BRANCH  19  25
ATOM     25  O   UNL     1      16.503  29.730  16.514  1.00  0.00    -0.350 OA
BRANCH  25  26
ATOM     26  C   UNL     1      16.333  29.864  15.201  1.00  0.00     0.169 C 
BRANCH  26  27
ATOM     27  C   UNL     1      15.681  28.723  14.486  1.00  0.00     0.119 C 
BRANCH  27  28
ATOM     28  N   UNL     1      14.504  29.028  13.754  1.00  0.00    -0.092 NA
ATOM     29  N   UNL     1      13.399  28.544  13.983  1.00  0.00     0.001 N 
ATOM     30  N   UNL     1      12.501  27.690  14.078  1.00  0.00    -0.003 NA
ENDBRANCH  27  28
ENDBRANCH  26  27
ENDBRANCH  25  26
ENDBRANCH  19  25
BRANCH  20  31
ATOM     31  O   UNL     1      15.951  28.247  20.931  1.00  0.00    -0.387 OA
ATOM     32  H   UNL     1      16.252  27.302  20.883  1.00  0.00     0.211 HD
ENDBRANCH  20  31
BRANCH  21  33
ATOM     33  O   UNL     1      16.610  27.186  18.504  1.00  0.00    -0.385 OA
ATOM     34  H   UNL     1      15.878  26.686  18.053  1.00  0.00     0.211 HD
ENDBRANCH  21  33
ENDBRANCH  15  16
ENDBRANCH  10  15
BRANCH  12  35
ATOM     35  O   UNL     1      12.611  29.453  23.432  1.00  0.00    -0.385 OA
ATOM     36  H   UNL     1      12.233  28.586  23.214  1.00  0.00     0.211 HD
ENDBRANCH  12  35
BRANCH  13  37
ATOM     37  O   UNL     1      15.926  28.717  24.173  1.00  0.00    -0.387 OA
ATOM     38  H   UNL     1      16.581  28.976  24.871  1.00  0.00     0.211 HD
ENDBRANCH  13  37
BRANCH  14  39
ATOM     39  O   UNL     1      16.169  30.920  25.614  1.00  0.00    -0.387 OA
ATOM     40  H   UNL     1      16.794  31.663  25.505  1.00  0.00     0.211 HD
ENDBRANCH  14  39
ENDBRANCH   8   9
ENDBRANCH   7   8
ENDBRANCH   1   7
BRANCH   1  41
ATOM     41  C   UNL     1      20.057  30.656  24.036  1.00  0.00     0.364 C 
ATOM     42  O   UNL     1      19.839  29.912  25.000  1.00  0.00    -0.246 OA
BRANCH  41  43
ATOM     43  O   UNL     1      21.124  31.546  24.189  1.00  0.00    -0.477 OA
ATOM     44  H   UNL     1      21.100  32.470  23.724  1.00  0.00     0.296 HD
ENDBRANCH  41  43
ENDBRANCH   1  41
BRANCH   3  45
ATOM     45  O   UNL     1      18.866  30.778  19.936  1.00  0.00    -0.391 OA
ATOM     46  H   UNL     1      18.981  29.801  20.044  1.00  0.00     0.211 HD
ENDBRANCH   3  45
BRANCH   5  47
ATOM     47  C   UNL     1      20.939  28.180  20.770  1.00  0.00     0.176 C 
BRANCH  47  48
ATOM     48  O   UNL     1      20.133  27.224  21.309  1.00  0.00    -0.388 OA
ATOM     49  H   UNL     1      19.220  27.306  20.946  1.00  0.00     0.211 HD
ENDBRANCH  47  48
BRANCH  47  50
ATOM     50  C   UNL     1      20.891  28.266  19.308  1.00  0.00     0.165 C 
BRANCH  50  51
ATOM     51  O   UNL     1      19.648  27.974  18.730  1.00  0.00    -0.388 OA
ATOM     52  H   UNL     1      19.612  27.026  18.439  1.00  0.00     0.211 HD
ENDBRANCH  50  51
BRANCH  50  53
ATOM     53  C   UNL     1      21.931  27.489  18.548  1.00  0.00     0.154 C 
BRANCH  53  54
ATOM     54  N   UNL     1      22.762  26.786  19.540  1.00  0.00    -0.319 N 
ATOM     55  C   UNL     1      22.909  25.369  19.527  1.00  0.00     0.407 C 
ATOM     56  H   UNL     1      23.241  27.350  20.250  1.00  0.00     0.167 HD
ATOM     57  O   UNL     1      22.295  24.737  18.627  1.00  0.00    -0.225 OA
BRANCH  55  58
ATOM     58  O   UNL     1      23.678  24.686  20.438  1.00  0.00    -0.443 OA
BRANCH  58  59
ATOM     59  C   UNL     1      23.090  23.816  21.376  1.00  0.00     0.294 C 
BRANCH  59  60
ATOM     60  C   UNL     1      22.380  24.627  22.392  1.00  0.00     0.120 A 
ATOM     61  C   UNL     1      22.915  25.553  23.281  1.00  0.00     0.138 A 
ATOM     62  N   UNL     1      21.059  24.621  22.664  1.00  0.00    -0.132 NA
ATOM     63  N   UNL     1      21.922  26.059  24.037  1.00  0.00    -0.248 N 
ATOM     64  N   UNL     1      20.816  25.480  23.645  1.00  0.00    -0.067 NA
BRANCH  63  65
ATOM     65  C   UNL     1      22.074  27.046  25.064  1.00  0.00     0.181 C 
BRANCH  65  66
ATOM     66  C   UNL     1      22.809  26.572  26.260  1.00  0.00    -0.023 A 
ATOM     67  C   UNL     1      22.349  25.505  26.967  1.00  0.00     0.010 A 
ATOM     68  C   UNL     1      23.980  27.222  26.668  1.00  0.00     0.056 A 
ATOM     69  C   UNL     1      23.044  25.084  28.072  1.00  0.00     0.051 A 
ATOM     70  C   UNL     1      24.681  26.813  27.769  1.00  0.00     0.166 A 
ATOM     71  C   UNL     1      24.187  25.726  28.466  1.00  0.00     0.165 A 
ATOM     72  O   UNL     1      25.829  27.212  28.427  1.00  0.00    -0.454 OA
ATOM     73  O   UNL     1      25.032  25.460  29.551  1.00  0.00    -0.454 OA
ATOM     74  C   UNL     1      26.234  26.154  29.293  1.00  0.00     0.468 C 
ENDBRANCH  65  66
ENDBRANCH  63  65
ENDBRANCH  59  60
ENDBRANCH  58  59
ENDBRANCH  55  58
ENDBRANCH  53  54
ENDBRANCH  50  53
ENDBRANCH  47  50
ENDBRANCH   5  47
BRANCH   4  75
ATOM     75  N   UNL     1      22.140  31.570  20.957  1.00  0.00    -0.348 N 
ATOM     76  C   UNL     1      23.438  31.391  20.371  1.00  0.00     0.217 C 
ATOM     77  H   UNL     1      22.071  32.368  21.614  1.00  0.00     0.163 HD
ATOM     78  C   UNL     1      24.550  32.330  20.746  1.00  0.00     0.114 C 
ATOM     79  O   UNL     1      23.642  30.461  19.556  1.00  0.00    -0.275 OA
ENDBRANCH   4  75
TORSDOF 31
