REMARK VINA RESULT:    -5.661      8.172     13.775
REMARK INTER + INTRA:         -24.503
REMARK INTER:                 -16.524
REMARK INTRA:                  -7.979
REMARK UNBOUND:                -9.245
REMARK SMILES CC(=O)N[C@@H]1[C@@H](O)C[C@](OC[C@H]2O[C@@H](O[C@H]3[C@H](O)[C@@H](O)[C@H](OCCN=[N+]=[N-])O[C@@H]3CO)[C@H](O)[C@@H](O)[C@H]2O)(C(=O)O)O[C@H]1C(O)[C@H](O)CNC(=O)OCc1cn([C@@H](C)C(=O)OCc2ccccc2)nn1
REMARK SMILES IDX 43 1 42 2 9 3 8 4 41 5 6 6 5 7 10 8 11 9 12 10 14 11 13 12
REMARK SMILES IDX 32 13 34 14 36 15 15 16 16 17 29 18 28 19 21 20 17 21 19 22
REMARK SMILES IDX 30 23 31 24 22 26 23 27 24 28 25 29 26 30 27 31 18 32 20 34
REMARK SMILES IDX 33 36 35 38 37 40 38 42 39 43 40 44 7 46 4 48 2 49 1 51 3 52
REMARK SMILES IDX 44 53 45 55 46 56 47 58 48 59 49 60 50 62 51 63 52 64 53 65
REMARK SMILES IDX 54 66 69 67 55 68 68 69 56 70 57 71 58 72 59 73 60 74 61 75
REMARK SMILES IDX 62 76 63 77 67 78 64 79 66 80 65 81
REMARK H PARENT 31 25 18 33 20 35 33 37 35 39 37 41 40 45 7 47 4 50 44 54
REMARK H PARENT 46 57 48 61
REMARK Flexibility Score: inf
ROOT
ATOM      1  C   UNL     1      20.442  28.737  20.731  1.00  0.00     0.176 C 
ENDROOT
BRANCH   1   2
ATOM      2  C   UNL     1      20.728  30.188  20.711  1.00  0.00     0.178 C 
ATOM      3  C   UNL     1      22.326  30.422  22.396  1.00  0.00     0.272 C 
ATOM      4  C   UNL     1      21.345  31.206  23.181  1.00  0.00     0.113 C 
ATOM      5  O   UNL     1      22.016  30.557  20.996  1.00  0.00    -0.332 OA
ATOM      6  C   UNL     1      19.907  30.825  22.915  1.00  0.00     0.145 C 
ATOM      7  C   UNL     1      19.658  30.956  21.443  1.00  0.00     0.142 C 
BRANCH   3   8
ATOM      8  O   UNL     1      22.490  29.139  22.589  1.00  0.00    -0.338 OA
BRANCH   8   9
ATOM      9  C   UNL     1      23.365  28.440  23.251  1.00  0.00     0.199 C 
BRANCH   9  10
ATOM     10  C   UNL     1      23.242  26.959  23.476  1.00  0.00     0.179 C 
ATOM     11  C   UNL     1      22.976  25.477  25.250  1.00  0.00     0.282 C 
ATOM     12  O   UNL     1      23.502  26.680  24.786  1.00  0.00    -0.341 OA
ATOM     13  C   UNL     1      22.709  24.506  24.158  1.00  0.00     0.202 C 
ATOM     14  C   UNL     1      21.670  25.034  23.207  1.00  0.00     0.179 C 
ATOM     15  C   UNL     1      21.820  26.507  23.080  1.00  0.00     0.177 C 
BRANCH  11  16
ATOM     16  O   UNL     1      21.932  25.788  26.078  1.00  0.00    -0.341 OA
BRANCH  16  17
ATOM     17  C   UNL     1      22.202  25.746  27.413  1.00  0.00     0.184 C 
ATOM     18  C   UNL     1      22.525  27.136  27.900  1.00  0.00     0.178 C 
ATOM     19  O   UNL     1      22.954  27.087  29.232  1.00  0.00    -0.341 OA
ATOM     20  C   UNL     1      24.332  26.764  29.153  1.00  0.00     0.281 C 
ATOM     21  C   UNL     1      23.399  24.871  27.748  1.00  0.00     0.180 C 
ATOM     22  C   UNL     1      24.589  25.601  28.248  1.00  0.00     0.202 C 
BRANCH  18  23
ATOM     23  C   UNL     1      21.423  28.134  27.705  1.00  0.00     0.191 C 
BRANCH  23  24
ATOM     24  O   UNL     1      21.445  28.495  26.354  1.00  0.00    -0.394 OA
ATOM     25  H   UNL     1      20.875  27.918  25.792  1.00  0.00     0.210 HD
ENDBRANCH  23  24
ENDBRANCH  18  23
BRANCH  20  26
ATOM     26  O   UNL     1      24.794  26.611  30.421  1.00  0.00    -0.350 OA
BRANCH  26  27
ATOM     27  C   UNL     1      25.420  25.458  30.762  1.00  0.00     0.169 C 
BRANCH  27  28
ATOM     28  C   UNL     1      26.660  25.550  31.577  1.00  0.00     0.119 C 
BRANCH  28  29
ATOM     29  N   UNL     1      27.805  26.119  30.963  1.00  0.00    -0.092 NA
ATOM     30  N   UNL     1      28.640  25.443  30.374  1.00  0.00     0.001 N 
ATOM     31  N   UNL     1      29.427  24.841  29.621  1.00  0.00    -0.003 NA
ENDBRANCH  28  29
ENDBRANCH  27  28
ENDBRANCH  26  27
ENDBRANCH  20  26
BRANCH  21  32
ATOM     32  O   UNL     1      23.059  23.876  28.670  1.00  0.00    -0.387 OA
ATOM     33  H   UNL     1      22.098  23.854  28.877  1.00  0.00     0.211 HD
ENDBRANCH  21  32
BRANCH  22  34
ATOM     34  O   UNL     1      25.423  25.920  27.171  1.00  0.00    -0.385 OA
ATOM     35  H   UNL     1      26.150  26.493  27.536  1.00  0.00     0.211 HD
ENDBRANCH  22  34
ENDBRANCH  16  17
ENDBRANCH  11  16
BRANCH  13  36
ATOM     36  O   UNL     1      23.927  24.252  23.483  1.00  0.00    -0.385 OA
ATOM     37  H   UNL     1      24.479  23.742  24.151  1.00  0.00     0.211 HD
ENDBRANCH  13  36
BRANCH  14  38
ATOM     38  O   UNL     1      20.423  24.637  23.646  1.00  0.00    -0.387 OA
ATOM     39  H   UNL     1      20.393  24.502  24.632  1.00  0.00     0.211 HD
ENDBRANCH  14  38
BRANCH  15  40
ATOM     40  O   UNL     1      20.851  27.209  23.784  1.00  0.00    -0.387 OA
ATOM     41  H   UNL     1      20.358  27.815  23.149  1.00  0.00     0.211 HD
ENDBRANCH  15  40
ENDBRANCH   9  10
ENDBRANCH   8   9
ENDBRANCH   3   8
BRANCH   3  42
ATOM     42  C   UNL     1      23.633  31.190  22.413  1.00  0.00     0.364 C 
ATOM     43  O   UNL     1      23.976  31.865  23.393  1.00  0.00    -0.246 OA
BRANCH  42  44
ATOM     44  O   UNL     1      24.492  31.156  21.316  1.00  0.00    -0.477 OA
ATOM     45  H   UNL     1      25.046  31.948  21.008  1.00  0.00     0.296 HD
ENDBRANCH  42  44
ENDBRANCH   3  42
BRANCH   6  46
ATOM     46  O   UNL     1      19.580  29.565  23.406  1.00  0.00    -0.391 OA
ATOM     47  H   UNL     1      19.072  29.709  24.238  1.00  0.00     0.211 HD
ENDBRANCH   6  46
BRANCH   7  48
ATOM     48  N   UNL     1      19.681  32.370  21.090  1.00  0.00    -0.348 N 
ATOM     49  C   UNL     1      18.544  32.923  20.422  1.00  0.00     0.217 C 
ATOM     50  H   UNL     1      20.479  33.004  21.295  1.00  0.00     0.163 HD
ATOM     51  C   UNL     1      18.569  34.372  20.060  1.00  0.00     0.114 C 
ATOM     52  O   UNL     1      17.551  32.195  20.150  1.00  0.00    -0.275 OA
ENDBRANCH   7  48
ENDBRANCH   1   2
BRANCH   1  53
ATOM     53  O   UNL     1      19.050  28.550  20.550  1.00  0.00    -0.388 OA
ATOM     54  H   UNL     1      18.540  29.211  21.094  1.00  0.00     0.211 HD
ENDBRANCH   1  53
BRANCH   1  55
ATOM     55  C   UNL     1      21.064  27.971  19.553  1.00  0.00     0.165 C 
BRANCH  55  56
ATOM     56  O   UNL     1      22.247  27.386  19.878  1.00  0.00    -0.388 OA
ATOM     57  H   UNL     1      22.328  27.260  20.853  1.00  0.00     0.211 HD
ENDBRANCH  55  56
BRANCH  55  58
ATOM     58  C   UNL     1      21.066  28.806  18.314  1.00  0.00     0.154 C 
BRANCH  58  59
ATOM     59  N   UNL     1      19.763  28.828  17.710  1.00  0.00    -0.319 N 
ATOM     60  C   UNL     1      19.036  29.984  17.339  1.00  0.00     0.407 C 
ATOM     61  H   UNL     1      19.253  27.911  17.501  1.00  0.00     0.167 HD
ATOM     62  O   UNL     1      19.490  31.114  17.535  1.00  0.00    -0.225 OA
BRANCH  60  63
ATOM     63  O   UNL     1      17.774  29.882  16.734  1.00  0.00    -0.443 OA
BRANCH  63  64
ATOM     64  C   UNL     1      17.018  28.698  16.776  1.00  0.00     0.294 C 
BRANCH  64  65
ATOM     65  C   UNL     1      16.554  28.509  18.170  1.00  0.00     0.120 A 
ATOM     66  C   UNL     1      15.762  29.346  18.923  1.00  0.00     0.139 A 
ATOM     67  N   UNL     1      16.848  27.461  18.947  1.00  0.00    -0.132 NA
ATOM     68  N   UNL     1      15.591  28.784  20.152  1.00  0.00    -0.238 N 
ATOM     69  N   UNL     1      16.258  27.646  20.137  1.00  0.00    -0.066 NA
BRANCH  68  70
ATOM     70  C   UNL     1      14.813  29.421  21.186  1.00  0.00     0.215 C 
ATOM     71  C   UNL     1      13.458  28.756  21.343  1.00  0.00     0.046 C 
BRANCH  70  72
ATOM     72  C   UNL     1      15.549  29.377  22.500  1.00  0.00     0.331 C 
ATOM     73  O   UNL     1      16.774  29.584  22.511  1.00  0.00    -0.250 OA
BRANCH  72  74
ATOM     74  O   UNL     1      14.893  29.116  23.680  1.00  0.00    -0.459 OA
BRANCH  74  75
ATOM     75  C   UNL     1      14.374  30.092  24.550  1.00  0.00     0.268 C 
BRANCH  75  76
ATOM     76  C   UNL     1      12.989  30.495  24.231  1.00  0.00    -0.011 A 
ATOM     77  C   UNL     1      11.902  29.745  24.597  1.00  0.00     0.007 A 
ATOM     78  C   UNL     1      12.755  31.659  23.540  1.00  0.00     0.007 A 
ATOM     79  C   UNL     1      10.610  30.116  24.299  1.00  0.00     0.000 A 
ATOM     80  C   UNL     1      11.482  32.070  23.221  1.00  0.00     0.000 A 
ATOM     81  C   UNL     1      10.404  31.283  23.609  1.00  0.00     0.000 A 
ENDBRANCH  75  76
ENDBRANCH  74  75
ENDBRANCH  72  74
ENDBRANCH  70  72
ENDBRANCH  68  70
ENDBRANCH  64  65
ENDBRANCH  63  64
ENDBRANCH  60  63
ENDBRANCH  58  59
ENDBRANCH  55  58
ENDBRANCH   1  55
TORSDOF 34
