REMARK VINA RESULT:    -6.377      5.341     13.174
REMARK INTER + INTRA:         -21.421
REMARK INTER:                 -16.868
REMARK INTRA:                  -4.553
REMARK UNBOUND:                -5.351
REMARK SMILES CC(=O)N[C@@H]1[C@@H](O)C[C@](OC[C@H]2O[C@@H](O[C@H]3[C@H](O)[C@@H](O)[C@H](OCCN=[N+]=[N-])O[C@@H]3CO)[C@H](O)[C@@H](O)[C@H]2O)(C(=O)O)O[C@H]1C(O)[C@H](O)CNC(=O)OCc1cn(-c2ccc([N+](=O)[O-])cc2)nn1
REMARK SMILES IDX 9 1 8 2 6 3 5 4 42 5 41 6 10 7 11 8 12 9 14 10 13 11 32 12
REMARK SMILES IDX 34 13 36 14 15 15 16 16 29 17 28 18 21 19 17 20 19 21 30 22
REMARK SMILES IDX 31 23 22 25 23 26 24 27 25 28 26 29 27 30 18 31 20 33 33 35
REMARK SMILES IDX 35 37 37 39 38 41 39 42 40 43 7 45 43 47 44 48 45 50 46 51
REMARK SMILES IDX 47 53 48 54 49 55 50 57 51 58 52 59 53 60 54 61 66 62 55 63
REMARK SMILES IDX 65 64 56 65 57 66 64 67 58 68 63 69 59 70 60 71 61 72 62 73
REMARK SMILES IDX 4 74 2 75 1 77 3 78
REMARK H PARENT 31 24 18 32 20 34 33 36 35 38 37 40 40 44 7 46 44 49 46 52
REMARK H PARENT 48 56 4 76
REMARK Flexibility Score: inf
ROOT
ATOM      1  C   UNL     1      25.197  24.878  20.737  1.00  0.00     0.272 C 
ATOM      2  C   UNL     1      25.461  26.334  20.936  1.00  0.00     0.113 C 
ATOM      3  C   UNL     1      24.388  27.133  20.329  1.00  0.00     0.145 C 
ATOM      4  C   UNL     1      23.443  26.375  19.380  1.00  0.00     0.142 C 
ATOM      5  C   UNL     1      24.206  25.370  18.654  1.00  0.00     0.178 C 
ATOM      6  O   UNL     1      25.138  24.631  19.376  1.00  0.00    -0.332 OA
ENDROOT
BRANCH   1   7
ATOM      7  O   UNL     1      24.152  24.364  21.440  1.00  0.00    -0.338 OA
BRANCH   7   8
ATOM      8  C   UNL     1      23.982  24.815  22.709  1.00  0.00     0.199 C 
BRANCH   8   9
ATOM      9  C   UNL     1      22.680  24.310  23.320  1.00  0.00     0.179 C 
ATOM     10  C   UNL     1      22.029  25.786  25.013  1.00  0.00     0.282 C 
ATOM     11  O   UNL     1      22.564  24.588  24.656  1.00  0.00    -0.341 OA
ATOM     12  C   UNL     1      21.550  26.693  23.954  1.00  0.00     0.202 C 
ATOM     13  C   UNL     1      20.867  25.937  22.845  1.00  0.00     0.179 C 
ATOM     14  C   UNL     1      21.460  24.612  22.526  1.00  0.00     0.177 C 
BRANCH  10  15
ATOM     15  O   UNL     1      22.900  26.378  25.922  1.00  0.00    -0.341 OA
BRANCH  15  16
ATOM     16  C   UNL     1      22.558  26.330  27.232  1.00  0.00     0.184 C 
ATOM     17  C   UNL     1      22.648  27.660  27.947  1.00  0.00     0.178 C 
ATOM     18  O   UNL     1      22.327  27.453  29.304  1.00  0.00    -0.341 OA
ATOM     19  C   UNL     1      23.387  26.793  29.925  1.00  0.00     0.281 C 
ATOM     20  C   UNL     1      23.626  25.460  27.924  1.00  0.00     0.180 C 
ATOM     21  C   UNL     1      23.303  25.353  29.401  1.00  0.00     0.202 C 
BRANCH  17  22
ATOM     22  C   UNL     1      21.680  28.699  27.446  1.00  0.00     0.191 C 
BRANCH  22  23
ATOM     23  O   UNL     1      20.941  29.097  28.589  1.00  0.00    -0.394 OA
ATOM     24  H   UNL     1      21.555  29.392  29.313  1.00  0.00     0.210 HD
ENDBRANCH  22  23
ENDBRANCH  17  22
BRANCH  19  25
ATOM     25  O   UNL     1      23.209  26.769  31.283  1.00  0.00    -0.350 OA
BRANCH  25  26
ATOM     26  C   UNL     1      24.076  27.536  32.018  1.00  0.00     0.169 C 
BRANCH  26  27
ATOM     27  C   UNL     1      25.169  26.773  32.713  1.00  0.00     0.119 C 
BRANCH  27  28
ATOM     28  N   UNL     1      26.004  26.136  31.691  1.00  0.00    -0.092 NA
ATOM     29  N   UNL     1      27.068  25.629  32.014  1.00  0.00     0.001 N 
ATOM     30  N   UNL     1      27.995  24.935  32.398  1.00  0.00    -0.003 NA
ENDBRANCH  27  28
ENDBRANCH  26  27
ENDBRANCH  25  26
ENDBRANCH  19  25
BRANCH  20  31
ATOM     31  O   UNL     1      23.777  24.247  27.313  1.00  0.00    -0.387 OA
ATOM     32  H   UNL     1      23.623  24.236  26.348  1.00  0.00     0.211 HD
ENDBRANCH  20  31
BRANCH  21  33
ATOM     33  O   UNL     1      24.199  24.521  30.017  1.00  0.00    -0.385 OA
ATOM     34  H   UNL     1      24.311  24.807  30.955  1.00  0.00     0.211 HD
ENDBRANCH  21  33
ENDBRANCH  15  16
ENDBRANCH  10  15
BRANCH  12  35
ATOM     35  O   UNL     1      20.543  27.521  24.487  1.00  0.00    -0.385 OA
ATOM     36  H   UNL     1      20.050  27.991  23.789  1.00  0.00     0.211 HD
ENDBRANCH  12  35
BRANCH  13  37
ATOM     37  O   UNL     1      20.805  26.769  21.701  1.00  0.00    -0.387 OA
ATOM     38  H   UNL     1      20.165  26.370  21.088  1.00  0.00     0.211 HD
ENDBRANCH  13  37
BRANCH  14  39
ATOM     39  O   UNL     1      21.707  24.392  21.177  1.00  0.00    -0.387 OA
ATOM     40  H   UNL     1      22.530  23.835  21.119  1.00  0.00     0.211 HD
ENDBRANCH  14  39
ENDBRANCH   8   9
ENDBRANCH   7   8
ENDBRANCH   1   7
BRANCH   1  41
ATOM     41  C   UNL     1      26.450  24.129  21.141  1.00  0.00     0.364 C 
ATOM     42  O   UNL     1      26.375  23.152  21.910  1.00  0.00    -0.246 OA
BRANCH  41  43
ATOM     43  O   UNL     1      27.663  24.534  20.660  1.00  0.00    -0.477 OA
ATOM     44  H   UNL     1      28.062  25.460  20.789  1.00  0.00     0.296 HD
ENDBRANCH  41  43
ENDBRANCH   1  41
BRANCH   3  45
ATOM     45  O   UNL     1      23.574  27.706  21.304  1.00  0.00    -0.391 OA
ATOM     46  H   UNL     1      23.963  27.602  22.194  1.00  0.00     0.211 HD
ENDBRANCH   3  45
BRANCH   5  47
ATOM     47  C   UNL     1      23.580  24.386  17.767  1.00  0.00     0.176 C 
BRANCH  47  48
ATOM     48  O   UNL     1      22.342  23.881  18.175  1.00  0.00    -0.388 OA
ATOM     49  H   UNL     1      22.200  23.867  19.137  1.00  0.00     0.211 HD
ENDBRANCH  47  48
BRANCH  47  50
ATOM     50  C   UNL     1      23.447  24.649  16.303  1.00  0.00     0.165 C 
BRANCH  50  51
ATOM     51  O   UNL     1      22.698  23.768  15.586  1.00  0.00    -0.388 OA
ATOM     52  H   UNL     1      22.314  24.168  14.762  1.00  0.00     0.211 HD
ENDBRANCH  50  51
BRANCH  50  53
ATOM     53  C   UNL     1      24.720  25.146  15.670  1.00  0.00     0.154 C 
BRANCH  53  54
ATOM     54  N   UNL     1      25.679  24.122  15.350  1.00  0.00    -0.319 N 
ATOM     55  C   UNL     1      26.092  23.793  14.037  1.00  0.00     0.407 C 
ATOM     56  H   UNL     1      26.129  23.557  16.118  1.00  0.00     0.167 HD
ATOM     57  O   UNL     1      25.612  24.397  13.073  1.00  0.00    -0.225 OA
BRANCH  55  58
ATOM     58  O   UNL     1      27.034  22.792  13.792  1.00  0.00    -0.443 OA
BRANCH  58  59
ATOM     59  C   UNL     1      26.719  21.436  13.617  1.00  0.00     0.294 C 
BRANCH  59  60
ATOM     60  C   UNL     1      27.234  20.633  14.745  1.00  0.00     0.121 A 
ATOM     61  C   UNL     1      27.505  21.045  16.048  1.00  0.00     0.144 A 
ATOM     62  N   UNL     1      27.540  19.301  14.749  1.00  0.00    -0.131 NA
ATOM     63  N   UNL     1      27.945  19.997  16.770  1.00  0.00    -0.220 N 
ATOM     64  N   UNL     1      27.954  18.965  15.957  1.00  0.00    -0.062 NA
BRANCH  63  65
ATOM     65  C   UNL     1      28.318  19.993  18.152  1.00  0.00     0.067 A 
ATOM     66  C   UNL     1      28.102  21.048  19.005  1.00  0.00     0.035 A 
ATOM     67  C   UNL     1      28.945  18.873  18.681  1.00  0.00     0.035 A 
ATOM     68  C   UNL     1      28.496  20.995  20.341  1.00  0.00     0.088 A 
ATOM     69  C   UNL     1      29.335  18.816  20.002  1.00  0.00     0.088 A 
ATOM     70  C   UNL     1      29.119  19.874  20.859  1.00  0.00     0.269 A 
BRANCH  70  71
ATOM     71  N   UNL     1      29.519  19.832  22.225  1.00  0.00     0.062 N 
ATOM     72  O   UNL     1      29.383  20.776  23.020  1.00  0.00    -0.258 OA
ATOM     73  O   UNL     1      30.094  18.676  22.687  1.00  0.00    -0.258 OA
ENDBRANCH  70  71
ENDBRANCH  63  65
ENDBRANCH  59  60
ENDBRANCH  58  59
ENDBRANCH  55  58
ENDBRANCH  53  54
ENDBRANCH  50  53
ENDBRANCH  47  50
ENDBRANCH   5  47
BRANCH   4  74
ATOM     74  N   UNL     1      23.056  27.461  18.464  1.00  0.00    -0.348 N 
ATOM     75  C   UNL     1      21.735  27.926  18.355  1.00  0.00     0.217 C 
ATOM     76  H   UNL     1      23.806  27.890  17.894  1.00  0.00     0.163 HD
ATOM     77  C   UNL     1      21.449  29.030  17.390  1.00  0.00     0.114 C 
ATOM     78  O   UNL     1      20.803  27.456  19.025  1.00  0.00    -0.275 OA
ENDBRANCH   4  74
TORSDOF 31
