REMARK VINA RESULT:    -6.080     12.698     20.452
REMARK INTER + INTRA:         -23.471
REMARK INTER:                 -13.976
REMARK INTRA:                  -9.495
REMARK UNBOUND:                -8.149
REMARK SMILES CC(=O)N[C@@H]1[C@@H](O)C[C@](OC[C@H]2O[C@@H](O[C@H]3[C@H](O)[C@@H](O)[C@H](OCCN=[N+]=[N-])O[C@@H]3CO)[C@H](O)[C@@H](O)[C@H]2O)(C(=O)O)O[C@H]1C(O)[C@H](O)CNC(=O)OCc1cn(Cc2ccc3c(c2)OCO3)nn1
REMARK SMILES IDX 9 1 8 2 6 3 5 4 42 5 41 6 10 7 11 8 12 9 14 10 13 11 32 12
REMARK SMILES IDX 34 13 36 14 15 15 16 16 29 17 28 18 21 19 17 20 19 21 30 22
REMARK SMILES IDX 31 23 22 25 23 26 24 27 25 28 26 29 27 30 18 31 20 33 33 35
REMARK SMILES IDX 35 37 37 39 38 41 39 42 40 43 7 45 43 47 44 48 45 50 46 51
REMARK SMILES IDX 47 53 48 54 49 55 50 57 51 58 52 59 53 60 54 61 67 62 55 63
REMARK SMILES IDX 66 64 56 65 57 66 58 67 62 68 59 69 61 70 60 71 63 72 65 73
REMARK SMILES IDX 64 74 4 75 2 76 1 78 3 79
REMARK H PARENT 31 24 18 32 20 34 33 36 35 38 37 40 40 44 7 46 44 49 46 52
REMARK H PARENT 48 56 4 77
REMARK Flexibility Score: inf
ROOT
ATOM      1  C   UNL     1       4.633  23.225  33.937  1.00  0.00     0.272 C 
ATOM      2  C   UNL     1       5.242  24.181  34.944  1.00  0.00     0.113 C 
ATOM      3  C   UNL     1       4.578  25.520  34.825  1.00  0.00     0.145 C 
ATOM      4  C   UNL     1       4.895  26.033  33.395  1.00  0.00     0.142 C 
ATOM      5  C   UNL     1       4.453  24.982  32.441  1.00  0.00     0.178 C 
ATOM      6  O   UNL     1       3.833  23.887  33.038  1.00  0.00    -0.332 OA
ENDROOT
BRANCH   1   7
ATOM      7  O   UNL     1       3.932  22.201  34.594  1.00  0.00    -0.338 OA
BRANCH   7   8
ATOM      8  C   UNL     1       2.598  22.374  34.750  1.00  0.00     0.199 C 
BRANCH   8   9
ATOM      9  C   UNL     1       1.873  21.176  34.117  1.00  0.00     0.179 C 
ATOM     10  C   UNL     1       1.742  19.927  32.190  1.00  0.00     0.282 C 
ATOM     11  O   UNL     1       2.179  21.110  32.784  1.00  0.00    -0.341 OA
ATOM     12  C   UNL     1       2.540  18.766  32.791  1.00  0.00     0.202 C 
ATOM     13  C   UNL     1       2.978  18.997  34.192  1.00  0.00     0.179 C 
ATOM     14  C   UNL     1       2.056  19.928  34.903  1.00  0.00     0.177 C 
BRANCH  10  15
ATOM     15  O   UNL     1       2.021  19.957  30.882  1.00  0.00    -0.341 OA
BRANCH  15  16
ATOM     16  C   UNL     1       1.614  20.991  30.093  1.00  0.00     0.184 C 
ATOM     17  C   UNL     1       0.601  20.614  29.048  1.00  0.00     0.178 C 
ATOM     18  O   UNL     1       1.067  20.738  27.781  1.00  0.00    -0.341 OA
ATOM     19  C   UNL     1       1.459  22.035  27.392  1.00  0.00     0.281 C 
ATOM     20  C   UNL     1       2.820  21.624  29.451  1.00  0.00     0.180 C 
ATOM     21  C   UNL     1       2.332  22.659  28.457  1.00  0.00     0.202 C 
BRANCH  17  22
ATOM     22  C   UNL     1      -0.633  21.460  29.232  1.00  0.00     0.191 C 
BRANCH  22  23
ATOM     23  O   UNL     1      -0.418  22.433  30.243  1.00  0.00    -0.394 OA
ATOM     24  H   UNL     1      -1.210  22.558  30.815  1.00  0.00     0.210 HD
ENDBRANCH  22  23
ENDBRANCH  17  22
BRANCH  19  25
ATOM     25  O   UNL     1       0.393  22.788  27.014  1.00  0.00    -0.350 OA
BRANCH  25  26
ATOM     26  C   UNL     1      -0.114  22.788  25.784  1.00  0.00     0.169 C 
BRANCH  26  27
ATOM     27  C   UNL     1      -1.575  22.489  25.656  1.00  0.00     0.119 C 
BRANCH  27  28
ATOM     28  N   UNL     1      -1.913  21.200  25.166  1.00  0.00    -0.092 NA
ATOM     29  N   UNL     1      -1.140  20.246  25.130  1.00  0.00     0.001 N 
ATOM     30  N   UNL     1      -0.164  19.553  24.794  1.00  0.00    -0.003 NA
ENDBRANCH  27  28
ENDBRANCH  26  27
ENDBRANCH  25  26
ENDBRANCH  19  25
BRANCH  20  31
ATOM     31  O   UNL     1       3.549  22.270  30.446  1.00  0.00    -0.387 OA
ATOM     32  H   UNL     1       3.777  23.200  30.187  1.00  0.00     0.211 HD
ENDBRANCH  20  31
BRANCH  21  33
ATOM     33  O   UNL     1       3.475  23.215  27.887  1.00  0.00    -0.385 OA
ATOM     34  H   UNL     1       3.322  23.395  26.921  1.00  0.00     0.211 HD
ENDBRANCH  21  33
ENDBRANCH  15  16
ENDBRANCH  10  15
BRANCH  12  35
ATOM     35  O   UNL     1       1.817  17.579  32.684  1.00  0.00    -0.385 OA
ATOM     36  H   UNL     1       1.431  17.489  31.798  1.00  0.00     0.211 HD
ENDBRANCH  12  35
BRANCH  13  37
ATOM     37  O   UNL     1       4.302  19.390  34.303  1.00  0.00    -0.387 OA
ATOM     38  H   UNL     1       4.423  20.244  33.814  1.00  0.00     0.211 HD
ENDBRANCH  13  37
BRANCH  14  39
ATOM     39  O   UNL     1       2.607  20.193  36.165  1.00  0.00    -0.387 OA
ATOM     40  H   UNL     1       2.094  19.699  36.833  1.00  0.00     0.211 HD
ENDBRANCH  14  39
ENDBRANCH   8   9
ENDBRANCH   7   8
ENDBRANCH   1   7
BRANCH   1  41
ATOM     41  C   UNL     1       5.715  22.529  33.218  1.00  0.00     0.364 C 
ATOM     42  O   UNL     1       6.882  22.940  33.183  1.00  0.00    -0.246 OA
BRANCH  41  43
ATOM     43  O   UNL     1       5.472  21.340  32.524  1.00  0.00    -0.477 OA
ATOM     44  H   UNL     1       5.332  20.456  33.043  1.00  0.00     0.296 HD
ENDBRANCH  41  43
ENDBRANCH   1  41
BRANCH   3  45
ATOM     45  O   UNL     1       3.218  25.541  34.930  1.00  0.00    -0.391 OA
ATOM     46  H   UNL     1       2.878  25.364  35.843  1.00  0.00     0.211 HD
ENDBRANCH   3  45
BRANCH   5  47
ATOM     47  C   UNL     1       3.351  25.538  31.507  1.00  0.00     0.176 C 
BRANCH  47  48
ATOM     48  O   UNL     1       3.593  25.278  30.192  1.00  0.00    -0.388 OA
ATOM     49  H   UNL     1       4.295  25.881  29.851  1.00  0.00     0.211 HD
ENDBRANCH  47  48
BRANCH  47  50
ATOM     50  C   UNL     1       1.972  25.290  31.934  1.00  0.00     0.165 C 
BRANCH  50  51
ATOM     51  O   UNL     1       1.456  24.031  31.597  1.00  0.00    -0.388 OA
ATOM     52  H   UNL     1       2.191  23.390  31.414  1.00  0.00     0.211 HD
ENDBRANCH  50  51
BRANCH  50  53
ATOM     53  C   UNL     1       0.944  26.314  31.538  1.00  0.00     0.154 C 
BRANCH  53  54
ATOM     54  N   UNL     1       1.118  26.575  30.099  1.00  0.00    -0.319 N 
ATOM     55  C   UNL     1       0.305  25.940  29.117  1.00  0.00     0.407 C 
ATOM     56  H   UNL     1       1.850  27.236  29.817  1.00  0.00     0.167 HD
ATOM     57  O   UNL     1      -0.576  25.140  29.532  1.00  0.00    -0.225 OA
BRANCH  55  58
ATOM     58  O   UNL     1       0.444  26.163  27.769  1.00  0.00    -0.443 OA
BRANCH  58  59
ATOM     59  C   UNL     1       1.097  27.313  27.286  1.00  0.00     0.294 C 
BRANCH  59  60
ATOM     60  C   UNL     1       2.547  27.025  27.186  1.00  0.00     0.120 A 
ATOM     61  C   UNL     1       3.246  26.496  26.107  1.00  0.00     0.138 A 
ATOM     62  N   UNL     1       3.484  27.212  28.138  1.00  0.00    -0.132 NA
ATOM     63  N   UNL     1       4.547  26.388  26.438  1.00  0.00    -0.248 N 
ATOM     64  N   UNL     1       4.661  26.824  27.666  1.00  0.00    -0.067 NA
BRANCH  63  65
ATOM     65  C   UNL     1       5.586  25.890  25.587  1.00  0.00     0.181 C 
BRANCH  65  66
ATOM     66  C   UNL     1       6.633  26.886  25.258  1.00  0.00    -0.023 A 
ATOM     67  C   UNL     1       6.285  28.158  24.925  1.00  0.00     0.010 A 
ATOM     68  C   UNL     1       7.984  26.521  25.286  1.00  0.00     0.056 A 
ATOM     69  C   UNL     1       7.270  29.064  24.622  1.00  0.00     0.051 A 
ATOM     70  C   UNL     1       8.975  27.413  24.984  1.00  0.00     0.166 A 
ATOM     71  C   UNL     1       8.589  28.698  24.650  1.00  0.00     0.165 A 
ATOM     72  O   UNL     1      10.355  27.388  24.916  1.00  0.00    -0.454 OA
ATOM     73  O   UNL     1       9.733  29.460  24.377  1.00  0.00    -0.454 OA
ATOM     74  C   UNL     1      10.824  28.735  24.905  1.00  0.00     0.468 C 
ENDBRANCH  65  66
ENDBRANCH  63  65
ENDBRANCH  59  60
ENDBRANCH  58  59
ENDBRANCH  55  58
ENDBRANCH  53  54
ENDBRANCH  50  53
ENDBRANCH  47  50
ENDBRANCH   5  47
BRANCH   4  75
ATOM     75  N   UNL     1       6.304  26.306  33.420  1.00  0.00    -0.348 N 
ATOM     76  C   UNL     1       6.728  27.674  33.506  1.00  0.00     0.217 C 
ATOM     77  H   UNL     1       7.077  25.617  33.385  1.00  0.00     0.163 HD
ATOM     78  C   UNL     1       8.198  27.989  33.530  1.00  0.00     0.114 C 
ATOM     79  O   UNL     1       5.882  28.598  33.562  1.00  0.00    -0.275 OA
ENDBRANCH   4  75
TORSDOF 31
