REMARK VINA RESULT:    -6.102      8.785     13.370
REMARK INTER + INTRA:         -22.517
REMARK INTER:                 -16.740
REMARK INTRA:                  -5.777
REMARK UNBOUND:                -6.784
REMARK SMILES COc1ccc(Cn2cc(COC(=O)NC[C@@H](O)C(O)[C@@H]3O[C@@](OC[C@H]4O[C@@H](O[C@H]5[C@H](O)[C@@H](O)[C@H](OCCN=[N+]=[N-])O[C@@H]5CO)[C@H](O)[C@@H](O)[C@H]4O)(C(=O)O)C[C@H](O)[C@H]3NC(C)=O)nn2)cc1
REMARK SMILES IDX 23 1 55 2 56 3 58 4 21 5 22 6 24 7 25 8 26 9 28 10 27 11
REMARK SMILES IDX 46 12 48 13 50 14 29 15 30 16 43 17 42 18 35 19 31 20 33 21
REMARK SMILES IDX 44 22 45 23 36 25 37 26 38 27 39 28 40 29 41 30 32 31 34 33
REMARK SMILES IDX 47 35 49 37 51 39 52 41 53 42 54 43 57 45 19 47 20 48 17 50
REMARK SMILES IDX 18 51 16 53 15 54 13 55 14 57 12 58 11 59 10 60 9 61 63 62
REMARK SMILES IDX 8 63 64 64 7 65 6 66 5 67 65 68 4 69 66 70 3 71 2 72 1 73
REMARK SMILES IDX 59 74 60 75 61 77 62 78
REMARK H PARENT 45 24 32 32 34 34 47 36 49 38 51 40 54 44 57 46 20 49 18 52
REMARK H PARENT 15 56 59 76
REMARK Flexibility Score: inf
ROOT
ATOM      1  C   UNL     1      16.053  29.761  22.281  1.00  0.00     0.272 C 
ATOM      2  C   UNL     1      15.300  31.048  22.019  1.00  0.00     0.113 C 
ATOM      3  C   UNL     1      13.922  30.974  22.645  1.00  0.00     0.145 C 
ATOM      4  C   UNL     1      13.926  30.449  24.050  1.00  0.00     0.142 C 
ATOM      5  C   UNL     1      15.300  30.008  24.525  1.00  0.00     0.178 C 
ATOM      6  O   UNL     1      15.993  29.327  23.543  1.00  0.00    -0.332 OA
ENDROOT
BRANCH   1   7
ATOM      7  O   UNL     1      17.248  29.731  21.646  1.00  0.00    -0.338 OA
BRANCH   7   8
ATOM      8  C   UNL     1      18.289  30.500  21.984  1.00  0.00     0.199 C 
BRANCH   8   9
ATOM      9  C   UNL     1      19.614  29.769  21.929  1.00  0.00     0.179 C 
ATOM     10  C   UNL     1      21.039  28.718  23.360  1.00  0.00     0.282 C 
ATOM     11  O   UNL     1      19.679  28.828  22.994  1.00  0.00    -0.341 OA
ATOM     12  C   UNL     1      21.931  28.683  22.174  1.00  0.00     0.202 C 
ATOM     13  C   UNL     1      21.289  28.424  20.853  1.00  0.00     0.179 C 
ATOM     14  C   UNL     1      19.899  29.007  20.691  1.00  0.00     0.177 C 
BRANCH  10  15
ATOM     15  O   UNL     1      21.235  27.775  24.329  1.00  0.00    -0.341 OA
BRANCH  15  16
ATOM     16  C   UNL     1      22.109  26.751  24.034  1.00  0.00     0.184 C 
ATOM     17  C   UNL     1      21.704  25.395  24.560  1.00  0.00     0.178 C 
ATOM     18  O   UNL     1      22.826  24.605  24.811  1.00  0.00    -0.341 OA
ATOM     19  C   UNL     1      23.890  24.874  23.933  1.00  0.00     0.281 C 
ATOM     20  C   UNL     1      23.383  27.068  24.840  1.00  0.00     0.180 C 
ATOM     21  C   UNL     1      24.489  26.265  24.213  1.00  0.00     0.202 C 
BRANCH  17  22
ATOM     22  C   UNL     1      20.808  24.609  23.656  1.00  0.00     0.191 C 
BRANCH  22  23
ATOM     23  O   UNL     1      20.559  25.343  22.499  1.00  0.00    -0.394 OA
ATOM     24  H   UNL     1      20.211  26.234  22.786  1.00  0.00     0.210 HD
ENDBRANCH  22  23
ENDBRANCH  17  22
BRANCH  19  25
ATOM     25  O   UNL     1      23.588  24.730  22.618  1.00  0.00    -0.350 OA
BRANCH  25  26
ATOM     26  C   UNL     1      24.450  25.201  21.677  1.00  0.00     0.169 C 
BRANCH  26  27
ATOM     27  C   UNL     1      24.378  24.622  20.314  1.00  0.00     0.119 C 
BRANCH  27  28
ATOM     28  N   UNL     1      23.107  24.736  19.685  1.00  0.00    -0.092 NA
ATOM     29  N   UNL     1      22.938  24.958  18.478  1.00  0.00     0.001 N 
ATOM     30  N   UNL     1      22.644  24.748  17.279  1.00  0.00    -0.003 NA
ENDBRANCH  27  28
ENDBRANCH  26  27
ENDBRANCH  25  26
ENDBRANCH  19  25
BRANCH  20  31
ATOM     31  O   UNL     1      23.626  28.411  24.925  1.00  0.00    -0.387 OA
ATOM     32  H   UNL     1      24.582  28.640  24.695  1.00  0.00     0.211 HD
ENDBRANCH  20  31
BRANCH  21  33
ATOM     33  O   UNL     1      25.601  26.182  25.052  1.00  0.00    -0.385 OA
ATOM     34  H   UNL     1      25.969  27.094  25.189  1.00  0.00     0.211 HD
ENDBRANCH  21  33
ENDBRANCH  15  16
ENDBRANCH  10  15
BRANCH  12  35
ATOM     35  O   UNL     1      22.754  29.836  22.095  1.00  0.00    -0.385 OA
ATOM     36  H   UNL     1      23.493  29.757  22.772  1.00  0.00     0.211 HD
ENDBRANCH  12  35
BRANCH  13  37
ATOM     37  O   UNL     1      21.299  27.046  20.528  1.00  0.00    -0.387 OA
ATOM     38  H   UNL     1      22.225  26.804  20.269  1.00  0.00     0.211 HD
ENDBRANCH  13  37
BRANCH  14  39
ATOM     39  O   UNL     1      18.956  28.020  20.420  1.00  0.00    -0.387 OA
ATOM     40  H   UNL     1      18.594  27.612  21.244  1.00  0.00     0.211 HD
ENDBRANCH  14  39
ENDBRANCH   8   9
ENDBRANCH   7   8
ENDBRANCH   1   7
BRANCH   1  41
ATOM     41  C   UNL     1      15.270  28.754  21.375  1.00  0.00     0.364 C 
ATOM     42  O   UNL     1      15.820  28.286  20.354  1.00  0.00    -0.246 OA
BRANCH  41  43
ATOM     43  O   UNL     1      14.006  28.354  21.642  1.00  0.00    -0.477 OA
ATOM     44  H   UNL     1      13.169  28.548  21.151  1.00  0.00     0.296 HD
ENDBRANCH  41  43
ENDBRANCH   1  41
BRANCH   3  45
ATOM     45  O   UNL     1      13.478  32.329  22.639  1.00  0.00    -0.391 OA
ATOM     46  H   UNL     1      13.641  32.745  23.524  1.00  0.00     0.211 HD
ENDBRANCH   3  45
BRANCH   5  47
ATOM     47  C   UNL     1      15.952  31.176  25.157  1.00  0.00     0.176 C 
BRANCH  47  48
ATOM     48  O   UNL     1      17.366  31.044  25.282  1.00  0.00    -0.388 OA
ATOM     49  H   UNL     1      17.681  30.524  24.513  1.00  0.00     0.211 HD
ENDBRANCH  47  48
BRANCH  47  50
ATOM     50  C   UNL     1      15.629  31.326  26.673  1.00  0.00     0.165 C 
BRANCH  50  51
ATOM     51  O   UNL     1      14.497  31.956  27.008  1.00  0.00    -0.388 OA
ATOM     52  H   UNL     1      14.388  32.797  26.498  1.00  0.00     0.211 HD
ENDBRANCH  50  51
BRANCH  50  53
ATOM     53  C   UNL     1      16.860  32.008  27.309  1.00  0.00     0.154 C 
BRANCH  53  54
ATOM     54  N   UNL     1      17.453  31.225  28.344  1.00  0.00    -0.319 N 
ATOM     55  C   UNL     1      18.858  30.947  28.302  1.00  0.00     0.407 C 
ATOM     56  H   UNL     1      16.898  30.852  29.120  1.00  0.00     0.167 HD
ATOM     57  O   UNL     1      19.547  31.405  27.348  1.00  0.00    -0.225 OA
BRANCH  55  58
ATOM     58  O   UNL     1      19.406  30.184  29.317  1.00  0.00    -0.443 OA
BRANCH  58  59
ATOM     59  C   UNL     1      20.835  30.017  29.384  1.00  0.00     0.294 C 
BRANCH  59  60
ATOM     60  C   UNL     1      21.126  28.568  29.407  1.00  0.00     0.120 A 
ATOM     61  C   UNL     1      22.080  27.890  28.642  1.00  0.00     0.138 A 
ATOM     62  N   UNL     1      20.530  27.628  30.149  1.00  0.00    -0.132 NA
ATOM     63  N   UNL     1      21.999  26.594  28.965  1.00  0.00    -0.248 N 
ATOM     64  N   UNL     1      21.054  26.449  29.882  1.00  0.00    -0.067 NA
BRANCH  63  65
ATOM     65  C   UNL     1      22.801  25.532  28.412  1.00  0.00     0.181 C 
BRANCH  65  66
ATOM     66  C   UNL     1      24.152  25.582  29.014  1.00  0.00    -0.026 A 
ATOM     67  C   UNL     1      24.317  25.271  30.360  1.00  0.00     0.009 A 
ATOM     68  C   UNL     1      25.273  25.909  28.298  1.00  0.00     0.009 A 
ATOM     69  C   UNL     1      25.554  25.285  30.968  1.00  0.00     0.047 A 
ATOM     70  C   UNL     1      26.528  25.923  28.916  1.00  0.00     0.047 A 
ATOM     71  C   UNL     1      26.688  25.616  30.240  1.00  0.00     0.118 A 
BRANCH  71  72
ATOM     72  O   UNL     1      27.905  25.616  30.894  1.00  0.00    -0.497 OA
ATOM     73  C   UNL     1      28.342  26.610  31.774  1.00  0.00     0.278 C 
ENDBRANCH  71  72
ENDBRANCH  65  66
ENDBRANCH  63  65
ENDBRANCH  59  60
ENDBRANCH  58  59
ENDBRANCH  55  58
ENDBRANCH  53  54
ENDBRANCH  50  53
ENDBRANCH  47  50
ENDBRANCH   5  47
BRANCH   4  74
ATOM     74  N   UNL     1      12.908  29.463  24.341  1.00  0.00    -0.348 N 
ATOM     75  C   UNL     1      11.511  29.727  24.367  1.00  0.00     0.217 C 
ATOM     76  H   UNL     1      13.199  28.499  24.562  1.00  0.00     0.163 HD
ATOM     77  C   UNL     1      10.537  28.616  24.689  1.00  0.00     0.114 C 
ATOM     78  O   UNL     1      11.090  30.882  24.121  1.00  0.00    -0.275 OA
ENDBRANCH   4  74
TORSDOF 32
