REMARK VINA RESULT:    -5.805      2.940      8.789
REMARK INTER + INTRA:         -22.656
REMARK INTER:                 -16.040
REMARK INTRA:                  -6.617
REMARK UNBOUND:                -7.010
REMARK SMILES CC(=O)N[C@@H]1[C@@H](O)C[C@](OC[C@H]2O[C@@H](O[C@H]3[C@H](O)[C@@H](O)[C@H](OCCN=[N+]=[N-])O[C@@H]3CO)[C@H](O)[C@@H](O)[C@H]2O)(C(=O)O)O[C@H]1C(O)[C@H](O)CNC(=O)OCc1cn([C@@H](CC(=O)O)C(=O)O)nn1
REMARK SMILES IDX 43 1 42 2 9 3 8 4 41 5 6 6 5 7 10 8 11 9 12 10 14 11 13 12
REMARK SMILES IDX 32 13 34 14 36 15 15 16 16 17 29 18 28 19 21 20 17 21 19 22
REMARK SMILES IDX 30 23 31 24 22 26 23 27 24 28 25 29 26 30 27 31 18 32 20 34
REMARK SMILES IDX 33 36 35 38 37 40 38 42 39 43 40 44 7 46 4 48 2 49 1 51 3 52
REMARK SMILES IDX 44 53 45 55 46 56 47 58 48 59 49 60 50 62 51 63 52 64 53 65
REMARK SMILES IDX 54 66 65 67 55 68 64 69 56 70 57 71 58 72 59 73 60 74 61 76
REMARK SMILES IDX 62 77 63 78
REMARK H PARENT 31 25 18 33 20 35 33 37 35 39 37 41 40 45 7 47 4 50 44 54
REMARK H PARENT 46 57 48 61 60 75 63 79
REMARK Flexibility Score: inf
ROOT
ATOM      1  C   UNL     1      24.227  27.664  20.587  1.00  0.00     0.176 C 
ENDROOT
BRANCH   1   2
ATOM      2  C   UNL     1      24.144  26.197  20.970  1.00  0.00     0.178 C 
ATOM      3  C   UNL     1      23.289  24.802  22.658  1.00  0.00     0.272 C 
ATOM      4  C   UNL     1      24.320  23.914  21.949  1.00  0.00     0.113 C 
ATOM      5  O   UNL     1      23.527  26.110  22.179  1.00  0.00    -0.332 OA
ATOM      6  C   UNL     1      25.642  24.660  22.064  1.00  0.00     0.145 C 
ATOM      7  C   UNL     1      25.570  25.678  20.914  1.00  0.00     0.142 C 
BRANCH   3   8
ATOM      8  O   UNL     1      23.394  24.728  23.904  1.00  0.00    -0.338 OA
BRANCH   8   9
ATOM      9  C   UNL     1      23.489  24.654  25.142  1.00  0.00     0.199 C 
BRANCH   9  10
ATOM     10  C   UNL     1      22.246  24.981  25.971  1.00  0.00     0.179 C 
ATOM     11  C   UNL     1      23.139  25.571  28.008  1.00  0.00     0.282 C 
ATOM     12  O   UNL     1      22.340  24.724  27.296  1.00  0.00    -0.341 OA
ATOM     13  C   UNL     1      22.757  26.991  27.853  1.00  0.00     0.202 C 
ATOM     14  C   UNL     1      21.424  26.993  27.088  1.00  0.00     0.179 C 
ATOM     15  C   UNL     1      21.754  26.390  25.735  1.00  0.00     0.177 C 
BRANCH  11  16
ATOM     16  O   UNL     1      24.496  25.287  27.986  1.00  0.00    -0.341 OA
BRANCH  16  17
ATOM     17  C   UNL     1      25.275  26.268  28.555  1.00  0.00     0.184 C 
ATOM     18  C   UNL     1      26.536  26.492  27.801  1.00  0.00     0.178 C 
ATOM     19  O   UNL     1      27.283  27.523  28.356  1.00  0.00    -0.341 OA
ATOM     20  C   UNL     1      27.245  27.564  29.754  1.00  0.00     0.281 C 
ATOM     21  C   UNL     1      25.603  25.778  29.963  1.00  0.00     0.180 C 
ATOM     22  C   UNL     1      27.007  26.161  30.305  1.00  0.00     0.202 C 
BRANCH  18  23
ATOM     23  C   UNL     1      26.154  26.969  26.401  1.00  0.00     0.191 C 
BRANCH  23  24
ATOM     24  O   UNL     1      25.299  28.083  26.526  1.00  0.00    -0.394 OA
ATOM     25  H   UNL     1      24.471  27.716  26.956  1.00  0.00     0.210 HD
ENDBRANCH  23  24
ENDBRANCH  18  23
BRANCH  20  26
ATOM     26  O   UNL     1      26.161  28.343  30.117  1.00  0.00    -0.350 OA
BRANCH  26  27
ATOM     27  C   UNL     1      26.430  29.496  30.786  1.00  0.00     0.169 C 
BRANCH  27  28
ATOM     28  C   UNL     1      25.208  30.006  31.487  1.00  0.00     0.119 C 
BRANCH  28  29
ATOM     29  N   UNL     1      24.047  29.293  30.952  1.00  0.00    -0.092 NA
ATOM     30  N   UNL     1      23.175  28.919  31.763  1.00  0.00     0.001 N 
ATOM     31  N   UNL     1      22.396  28.109  32.299  1.00  0.00    -0.003 NA
ENDBRANCH  28  29
ENDBRANCH  27  28
ENDBRANCH  26  27
ENDBRANCH  20  26
BRANCH  21  32
ATOM     32  O   UNL     1      24.724  26.348  30.876  1.00  0.00    -0.387 OA
ATOM     33  H   UNL     1      23.792  26.333  30.514  1.00  0.00     0.211 HD
ENDBRANCH  21  32
BRANCH  22  34
ATOM     34  O   UNL     1      27.972  25.273  29.825  1.00  0.00    -0.385 OA
ATOM     35  H   UNL     1      27.442  24.568  29.335  1.00  0.00     0.211 HD
ENDBRANCH  22  34
ENDBRANCH  16  17
ENDBRANCH  11  16
BRANCH  13  36
ATOM     36  O   UNL     1      22.491  27.638  29.062  1.00  0.00    -0.385 OA
ATOM     37  H   UNL     1      23.078  28.448  29.101  1.00  0.00     0.211 HD
ENDBRANCH  13  36
BRANCH  14  38
ATOM     38  O   UNL     1      20.877  28.247  26.970  1.00  0.00    -0.387 OA
ATOM     39  H   UNL     1      20.675  28.654  27.859  1.00  0.00     0.211 HD
ENDBRANCH  14  38
BRANCH  15  40
ATOM     40  O   UNL     1      22.690  27.176  25.103  1.00  0.00    -0.387 OA
ATOM     41  H   UNL     1      23.092  26.771  24.315  1.00  0.00     0.211 HD
ENDBRANCH  15  40
ENDBRANCH   9  10
ENDBRANCH   8   9
ENDBRANCH   3   8
BRANCH   3  42
ATOM     42  C   UNL     1      21.957  24.346  22.067  1.00  0.00     0.364 C 
ATOM     43  O   UNL     1      21.945  23.586  21.089  1.00  0.00    -0.246 OA
BRANCH  42  44
ATOM     44  O   UNL     1      20.756  24.767  22.604  1.00  0.00    -0.477 OA
ATOM     45  H   UNL     1      20.691  25.215  23.528  1.00  0.00     0.296 HD
ENDBRANCH  42  44
ENDBRANCH   3  42
BRANCH   6  46
ATOM     46  O   UNL     1      25.630  25.478  23.215  1.00  0.00    -0.391 OA
ATOM     47  H   UNL     1      26.470  25.453  23.703  1.00  0.00     0.211 HD
ENDBRANCH   6  46
BRANCH   7  48
ATOM     48  N   UNL     1      25.865  24.939  19.709  1.00  0.00    -0.348 N 
ATOM     49  C   UNL     1      27.185  24.954  19.163  1.00  0.00     0.217 C 
ATOM     50  H   UNL     1      25.148  24.377  19.196  1.00  0.00     0.163 HD
ATOM     51  C   UNL     1      27.427  24.168  17.907  1.00  0.00     0.114 C 
ATOM     52  O   UNL     1      28.122  25.600  19.705  1.00  0.00    -0.275 OA
ENDBRANCH   7  48
ENDBRANCH   1   2
BRANCH   1  53
ATOM     53  O   UNL     1      25.418  27.958  19.934  1.00  0.00    -0.388 OA
ATOM     54  H   UNL     1      26.018  27.161  19.878  1.00  0.00     0.211 HD
ENDBRANCH   1  53
BRANCH   1  55
ATOM     55  C   UNL     1      23.972  28.632  21.680  1.00  0.00     0.165 C 
BRANCH  55  56
ATOM     56  O   UNL     1      24.607  28.380  22.876  1.00  0.00    -0.388 OA
ATOM     57  H   UNL     1      25.113  29.153  23.243  1.00  0.00     0.211 HD
ENDBRANCH  55  56
BRANCH  55  58
ATOM     58  C   UNL     1      22.520  28.941  21.811  1.00  0.00     0.154 C 
BRANCH  58  59
ATOM     59  N   UNL     1      21.762  28.955  20.599  1.00  0.00    -0.319 N 
ATOM     60  C   UNL     1      20.671  28.066  20.450  1.00  0.00     0.407 C 
ATOM     61  H   UNL     1      21.989  29.600  19.831  1.00  0.00     0.167 HD
ATOM     62  O   UNL     1      20.397  27.286  21.427  1.00  0.00    -0.225 OA
BRANCH  60  63
ATOM     63  O   UNL     1      19.862  27.949  19.334  1.00  0.00    -0.443 OA
BRANCH  63  64
ATOM     64  C   UNL     1      18.983  29.030  18.979  1.00  0.00     0.294 C 
BRANCH  64  65
ATOM     65  C   UNL     1      17.732  28.897  19.762  1.00  0.00     0.120 A 
ATOM     66  C   UNL     1      17.078  29.816  20.552  1.00  0.00     0.139 A 
ATOM     67  N   UNL     1      16.970  27.757  19.856  1.00  0.00    -0.132 NA
ATOM     68  N   UNL     1      15.971  29.227  21.090  1.00  0.00    -0.237 N 
ATOM     69  N   UNL     1      15.958  28.006  20.641  1.00  0.00    -0.066 NA
BRANCH  68  70
ATOM     70  C   UNL     1      15.023  29.845  21.989  1.00  0.00     0.229 C 
BRANCH  70  71
ATOM     71  C   UNL     1      13.629  29.401  21.583  1.00  0.00     0.161 C 
BRANCH  71  72
ATOM     72  C   UNL     1      12.617  30.425  21.906  1.00  0.00     0.306 C 
ATOM     73  O   UNL     1      12.408  31.397  21.137  1.00  0.00    -0.252 OA
BRANCH  72  74
ATOM     74  O   UNL     1      11.878  30.334  23.065  1.00  0.00    -0.481 OA
ATOM     75  H   UNL     1      12.312  30.621  23.950  1.00  0.00     0.296 HD
ENDBRANCH  72  74
ENDBRANCH  71  72
ENDBRANCH  70  71
BRANCH  70  76
ATOM     76  C   UNL     1      15.301  29.396  23.364  1.00  0.00     0.329 C 
ATOM     77  O   UNL     1      16.477  29.452  23.795  1.00  0.00    -0.250 OA
BRANCH  76  78
ATOM     78  O   UNL     1      14.318  28.911  24.217  1.00  0.00    -0.480 OA
ATOM     79  H   UNL     1      14.568  28.731  25.185  1.00  0.00     0.296 HD
ENDBRANCH  76  78
ENDBRANCH  70  76
ENDBRANCH  68  70
ENDBRANCH  64  65
ENDBRANCH  63  64
ENDBRANCH  60  63
ENDBRANCH  58  59
ENDBRANCH  55  58
ENDBRANCH   1  55
TORSDOF 35
