REMARK VINA RESULT:    -5.841      0.000      0.000
REMARK INTER + INTRA:         -21.791
REMARK INTER:                 -13.269
REMARK INTRA:                  -8.523
REMARK UNBOUND:                -6.390
REMARK SMILES CCOC(=O)Cn1cc(COC(=O)NC[C@@H](O)C(O)[C@@H]2O[C@@](OC[C@H]3O[C@@H](O[C@H]4[C@H](O)[C@@H](O)[C@H](OCCN=[N+]=[N-])O[C@@H]4CO)[C@H](O)[C@@H](O)[C@H]3O)(C(=O)O)C[C@H](O)[C@H]2NC(C)=O)nn1
REMARK SMILES IDX 18 1 20 2 22 3 54 4 21 5 55 6 57 7 23 8 24 9 25 10 27 11
REMARK SMILES IDX 26 12 45 13 47 14 49 15 28 16 29 17 42 18 41 19 34 20 30 21
REMARK SMILES IDX 32 22 43 23 44 24 35 26 36 27 37 28 38 29 39 30 40 31 31 32
REMARK SMILES IDX 33 34 46 36 48 38 50 40 51 42 52 43 53 44 56 46 58 48 59 49
REMARK SMILES IDX 60 51 61 52 19 53 16 55 17 56 15 58 14 59 12 60 13 62 11 63
REMARK SMILES IDX 10 64 9 65 8 66 62 67 7 68 63 69 6 70 4 71 5 72 3 73 2 74
REMARK SMILES IDX 1 75
REMARK H PARENT 44 25 31 33 33 35 46 37 48 39 50 41 53 45 56 47 58 50 19 54
REMARK H PARENT 17 57 14 61
REMARK Flexibility Score: inf
ROOT
ATOM      1  C   UNL     1      21.978  27.419  19.631  1.00  0.00     0.176 C 
ENDROOT
BRANCH   1   2
ATOM      2  C   UNL     1      22.236  26.194  20.464  1.00  0.00     0.178 C 
ATOM      3  C   UNL     1      22.748  25.552  22.654  1.00  0.00     0.272 C 
ATOM      4  C   UNL     1      23.035  24.249  21.991  1.00  0.00     0.113 C 
ATOM      5  O   UNL     1      22.057  26.439  21.800  1.00  0.00    -0.332 OA
ATOM      6  C   UNL     1      23.821  24.367  20.725  1.00  0.00     0.145 C 
ATOM      7  C   UNL     1      23.677  25.789  20.209  1.00  0.00     0.142 C 
BRANCH   3   8
ATOM      8  O   UNL     1      23.841  26.207  23.177  1.00  0.00    -0.338 OA
BRANCH   8   9
ATOM      9  C   UNL     1      24.669  25.525  24.001  1.00  0.00     0.199 C 
BRANCH   9  10
ATOM     10  C   UNL     1      24.880  26.366  25.275  1.00  0.00     0.179 C 
ATOM     11  C   UNL     1      23.977  28.107  26.514  1.00  0.00     0.282 C 
ATOM     12  O   UNL     1      24.048  27.440  25.311  1.00  0.00    -0.341 OA
ATOM     13  C   UNL     1      23.708  27.216  27.688  1.00  0.00     0.202 C 
ATOM     14  C   UNL     1      24.858  26.245  27.776  1.00  0.00     0.179 C 
ATOM     15  C   UNL     1      24.894  25.488  26.491  1.00  0.00     0.177 C 
BRANCH  11  16
ATOM     16  O   UNL     1      23.037  29.124  26.515  1.00  0.00    -0.341 OA
BRANCH  16  17
ATOM     17  C   UNL     1      22.387  29.325  25.325  1.00  0.00     0.184 C 
ATOM     18  C   UNL     1      22.768  30.623  24.644  1.00  0.00     0.178 C 
ATOM     19  O   UNL     1      21.724  31.537  24.664  1.00  0.00    -0.341 OA
ATOM     20  C   UNL     1      20.622  31.100  23.893  1.00  0.00     0.281 C 
ATOM     21  C   UNL     1      20.878  29.334  25.567  1.00  0.00     0.180 C 
ATOM     22  C   UNL     1      20.236  29.696  24.235  1.00  0.00     0.202 C 
BRANCH  18  23
ATOM     23  C   UNL     1      23.304  30.345  23.263  1.00  0.00     0.191 C 
BRANCH  23  24
ATOM     24  O   UNL     1      23.218  28.973  22.959  1.00  0.00    -0.394 OA
ATOM     25  H   UNL     1      23.700  28.760  22.135  1.00  0.00     0.210 HD
ENDBRANCH  23  24
ENDBRANCH  18  23
BRANCH  20  26
ATOM     26  O   UNL     1      20.871  31.268  22.555  1.00  0.00    -0.350 OA
BRANCH  26  27
ATOM     27  C   UNL     1      20.429  32.377  21.916  1.00  0.00     0.169 C 
BRANCH  27  28
ATOM     28  C   UNL     1      19.297  32.272  20.965  1.00  0.00     0.119 C 
BRANCH  28  29
ATOM     29  N   UNL     1      18.034  31.872  21.485  1.00  0.00    -0.092 NA
ATOM     30  N   UNL     1      17.687  30.672  21.494  1.00  0.00     0.001 N 
ATOM     31  N   UNL     1      17.628  29.434  21.591  1.00  0.00    -0.003 NA
ENDBRANCH  28  29
ENDBRANCH  27  28
ENDBRANCH  26  27
ENDBRANCH  20  26
BRANCH  21  32
ATOM     32  O   UNL     1      20.468  28.057  25.958  1.00  0.00    -0.387 OA
ATOM     33  H   UNL     1      19.567  28.168  26.394  1.00  0.00     0.211 HD
ENDBRANCH  21  32
BRANCH  22  34
ATOM     34  O   UNL     1      18.853  29.516  24.327  1.00  0.00    -0.385 OA
ATOM     35  H   UNL     1      18.509  29.567  25.252  1.00  0.00     0.211 HD
ENDBRANCH  22  34
ENDBRANCH  16  17
ENDBRANCH  11  16
BRANCH  13  36
ATOM     36  O   UNL     1      23.647  27.997  28.835  1.00  0.00    -0.385 OA
ATOM     37  H   UNL     1      24.341  27.830  29.492  1.00  0.00     0.211 HD
ENDBRANCH  13  36
BRANCH  14  38
ATOM     38  O   UNL     1      24.583  25.349  28.833  1.00  0.00    -0.387 OA
ATOM     39  H   UNL     1      24.092  25.814  29.556  1.00  0.00     0.211 HD
ENDBRANCH  14  38
BRANCH  15  40
ATOM     40  O   UNL     1      23.794  24.599  26.495  1.00  0.00    -0.387 OA
ATOM     41  H   UNL     1      24.204  23.702  26.641  1.00  0.00     0.211 HD
ENDBRANCH  15  40
ENDBRANCH   9  10
ENDBRANCH   8   9
ENDBRANCH   3   8
BRANCH   3  42
ATOM     42  C   UNL     1      21.774  25.293  23.742  1.00  0.00     0.364 C 
ATOM     43  O   UNL     1      21.889  24.261  24.440  1.00  0.00    -0.246 OA
BRANCH  42  44
ATOM     44  O   UNL     1      20.752  26.166  23.990  1.00  0.00    -0.477 OA
ATOM     45  H   UNL     1      19.839  26.074  23.552  1.00  0.00     0.296 HD
ENDBRANCH  42  44
ENDBRANCH   3  42
BRANCH   6  46
ATOM     46  O   UNL     1      25.136  23.978  20.816  1.00  0.00    -0.391 OA
ATOM     47  H   UNL     1      25.714  24.745  20.545  1.00  0.00     0.211 HD
ENDBRANCH   6  46
BRANCH   7  48
ATOM     48  N   UNL     1      24.002  25.858  18.791  1.00  0.00    -0.348 N 
ATOM     49  C   UNL     1      25.218  26.409  18.323  1.00  0.00     0.217 C 
ATOM     50  H   UNL     1      23.322  25.486  18.106  1.00  0.00     0.163 HD
ATOM     51  C   UNL     1      25.564  26.486  16.872  1.00  0.00     0.114 C 
ATOM     52  O   UNL     1      26.036  26.850  19.175  1.00  0.00    -0.275 OA
ENDBRANCH   7  48
ENDBRANCH   1   2
BRANCH   1  53
ATOM     53  O   UNL     1      21.521  27.069  18.376  1.00  0.00    -0.388 OA
ATOM     54  H   UNL     1      22.043  27.488  17.633  1.00  0.00     0.211 HD
ENDBRANCH   1  53
BRANCH   1  55
ATOM     55  C   UNL     1      20.978  28.370  20.267  1.00  0.00     0.165 C 
BRANCH  55  56
ATOM     56  O   UNL     1      20.024  27.725  21.017  1.00  0.00    -0.388 OA
ATOM     57  H   UNL     1      20.389  27.068  21.654  1.00  0.00     0.211 HD
ENDBRANCH  55  56
BRANCH  55  58
ATOM     58  C   UNL     1      20.363  29.199  19.189  1.00  0.00     0.154 C 
BRANCH  58  59
ATOM     59  N   UNL     1      18.980  28.965  18.971  1.00  0.00    -0.319 N 
ATOM     60  C   UNL     1      18.419  28.351  17.820  1.00  0.00     0.407 C 
ATOM     61  H   UNL     1      18.259  29.263  19.718  1.00  0.00     0.167 HD
ATOM     62  O   UNL     1      19.123  27.950  16.878  1.00  0.00    -0.225 OA
BRANCH  60  63
ATOM     63  O   UNL     1      17.025  28.187  17.742  1.00  0.00    -0.443 OA
BRANCH  63  64
ATOM     64  C   UNL     1      16.190  29.275  17.520  1.00  0.00     0.294 C 
BRANCH  64  65
ATOM     65  C   UNL     1      15.397  29.679  18.697  1.00  0.00     0.120 A 
ATOM     66  C   UNL     1      14.743  28.836  19.574  1.00  0.00     0.139 A 
ATOM     67  N   UNL     1      15.146  30.918  19.139  1.00  0.00    -0.132 NA
ATOM     68  N   UNL     1      14.114  29.575  20.519  1.00  0.00    -0.241 N 
ATOM     69  N   UNL     1      14.381  30.829  20.225  1.00  0.00    -0.066 NA
BRANCH  68  70
ATOM     70  C   UNL     1      13.317  29.023  21.608  1.00  0.00     0.268 C 
BRANCH  70  71
ATOM     71  C   UNL     1      13.864  29.590  22.893  1.00  0.00     0.327 C 
ATOM     72  O   UNL     1      14.945  29.207  23.378  1.00  0.00    -0.250 OA
BRANCH  71  73
ATOM     73  O   UNL     1      13.178  30.568  23.590  1.00  0.00    -0.465 OA
BRANCH  73  74
ATOM     74  C   UNL     1      12.698  30.428  24.896  1.00  0.00     0.229 C 
ATOM     75  C   UNL     1      13.471  31.248  25.899  1.00  0.00     0.049 C 
ENDBRANCH  73  74
ENDBRANCH  71  73
ENDBRANCH  70  71
ENDBRANCH  68  70
ENDBRANCH  64  65
ENDBRANCH  63  64
ENDBRANCH  60  63
ENDBRANCH  58  59
ENDBRANCH  55  58
ENDBRANCH   1  55
TORSDOF 33
