REMARK VINA RESULT:    -6.498      3.697     12.152
REMARK INTER + INTRA:         -24.347
REMARK INTER:                 -16.513
REMARK INTRA:                  -7.834
REMARK UNBOUND:                -7.402
REMARK SMILES CC(=O)N[C@@H]1[C@@H](O)C[C@](OC[C@H]2O[C@@H](O[C@H]3[C@H](O)[C@@H](O)[C@H](OCCN=[N+]=[N-])O[C@@H]3CO)[C@H](O)[C@@H](O)[C@H]2O)(C(=O)O)O[C@H]1C(O)[C@H](O)CNC(=O)OCc1cn(-c2ccc(S(=O)(=O)c3ccc(N)cc3)cc2)nn1
REMARK SMILES IDX 43 1 42 2 9 3 8 4 41 5 6 6 5 7 10 8 11 9 12 10 14 11 13 12
REMARK SMILES IDX 32 13 34 14 36 15 15 16 16 17 29 18 28 19 21 20 17 21 19 22
REMARK SMILES IDX 30 23 31 24 22 26 23 27 24 28 25 29 26 30 27 31 18 32 20 34
REMARK SMILES IDX 33 36 35 38 37 40 38 42 39 43 40 44 7 46 4 48 2 49 1 51 3 52
REMARK SMILES IDX 44 53 45 55 46 56 47 58 48 59 49 60 50 62 51 63 52 64 53 65
REMARK SMILES IDX 54 66 73 67 55 68 72 69 56 70 57 71 71 72 58 73 70 74 59 75
REMARK SMILES IDX 60 76 61 77 62 78 63 79 64 80 69 81 65 82 68 83 66 84 67 85
REMARK H PARENT 31 25 18 33 20 35 33 37 35 39 37 41 40 45 7 47 4 50 44 54
REMARK H PARENT 46 57 48 61 67 86 67 87
REMARK Flexibility Score: inf
ROOT
ATOM      1  C   UNL     1      22.615  28.023  20.309  1.00  0.00     0.176 C 
ENDROOT
BRANCH   1   2
ATOM      2  C   UNL     1      22.852  26.563  20.692  1.00  0.00     0.178 C 
ATOM      3  C   UNL     1      23.071  25.114  22.481  1.00  0.00     0.272 C 
ATOM      4  C   UNL     1      24.246  24.461  21.830  1.00  0.00     0.113 C 
ATOM      5  O   UNL     1      22.937  26.445  22.046  1.00  0.00    -0.332 OA
ATOM      6  C   UNL     1      25.017  25.516  21.054  1.00  0.00     0.145 C 
ATOM      7  C   UNL     1      24.127  26.067  19.991  1.00  0.00     0.142 C 
BRANCH   3   8
ATOM      8  O   UNL     1      23.151  25.220  23.873  1.00  0.00    -0.338 OA
BRANCH   8   9
ATOM      9  C   UNL     1      24.359  24.935  24.433  1.00  0.00     0.199 C 
BRANCH   9  10
ATOM     10  C   UNL     1      24.589  25.843  25.621  1.00  0.00     0.179 C 
ATOM     11  C   UNL     1      23.843  27.728  26.672  1.00  0.00     0.282 C 
ATOM     12  O   UNL     1      23.550  26.781  25.656  1.00  0.00    -0.341 OA
ATOM     13  C   UNL     1      23.620  27.001  27.968  1.00  0.00     0.202 C 
ATOM     14  C   UNL     1      24.672  25.925  28.111  1.00  0.00     0.179 C 
ATOM     15  C   UNL     1      24.655  25.042  26.875  1.00  0.00     0.177 C 
BRANCH  11  16
ATOM     16  O   UNL     1      23.046  28.823  26.463  1.00  0.00    -0.341 OA
BRANCH  16  17
ATOM     17  C   UNL     1      22.506  28.809  25.156  1.00  0.00     0.184 C 
ATOM     18  C   UNL     1      22.754  30.152  24.544  1.00  0.00     0.178 C 
ATOM     19  O   UNL     1      21.649  30.780  24.035  1.00  0.00    -0.341 OA
ATOM     20  C   UNL     1      20.548  30.873  24.836  1.00  0.00     0.281 C 
ATOM     21  C   UNL     1      21.019  28.550  25.363  1.00  0.00     0.180 C 
ATOM     22  C   UNL     1      20.466  29.839  25.936  1.00  0.00     0.202 C 
BRANCH  18  23
ATOM     23  C   UNL     1      23.678  29.895  23.339  1.00  0.00     0.191 C 
BRANCH  23  24
ATOM     24  O   UNL     1      24.306  28.676  23.400  1.00  0.00    -0.394 OA
ATOM     25  H   UNL     1      24.641  28.338  22.533  1.00  0.00     0.210 HD
ENDBRANCH  23  24
ENDBRANCH  18  23
BRANCH  20  26
ATOM     26  O   UNL     1      19.427  30.691  24.035  1.00  0.00    -0.350 OA
BRANCH  26  27
ATOM     27  C   UNL     1      19.362  31.490  22.926  1.00  0.00     0.169 C 
BRANCH  27  28
ATOM     28  C   UNL     1      18.771  32.821  23.254  1.00  0.00     0.119 C 
BRANCH  28  29
ATOM     29  N   UNL     1      17.315  32.683  23.427  1.00  0.00    -0.092 NA
ATOM     30  N   UNL     1      16.547  32.830  22.478  1.00  0.00     0.001 N 
ATOM     31  N   UNL     1      15.826  32.536  21.508  1.00  0.00    -0.003 NA
ENDBRANCH  28  29
ENDBRANCH  27  28
ENDBRANCH  26  27
ENDBRANCH  20  26
BRANCH  21  32
ATOM     32  O   UNL     1      20.407  28.294  24.159  1.00  0.00    -0.387 OA
ATOM     33  H   UNL     1      21.002  28.548  23.402  1.00  0.00     0.211 HD
ENDBRANCH  21  32
BRANCH  22  34
ATOM     34  O   UNL     1      21.097  30.219  27.097  1.00  0.00    -0.385 OA
ATOM     35  H   UNL     1      21.430  31.155  27.069  1.00  0.00     0.211 HD
ENDBRANCH  22  34
ENDBRANCH  16  17
ENDBRANCH  11  16
BRANCH  13  36
ATOM     36  O   UNL     1      23.608  27.858  29.067  1.00  0.00    -0.385 OA
ATOM     37  H   UNL     1      24.053  28.712  28.764  1.00  0.00     0.211 HD
ENDBRANCH  13  36
BRANCH  14  38
ATOM     38  O   UNL     1      24.304  25.089  29.175  1.00  0.00    -0.387 OA
ATOM     39  H   UNL     1      23.346  25.158  29.344  1.00  0.00     0.211 HD
ENDBRANCH  14  38
BRANCH  15  40
ATOM     40  O   UNL     1      23.635  24.105  26.950  1.00  0.00    -0.387 OA
ATOM     41  H   UNL     1      23.500  23.676  26.073  1.00  0.00     0.211 HD
ENDBRANCH  15  40
ENDBRANCH   9  10
ENDBRANCH   8   9
ENDBRANCH   3   8
BRANCH   3  42
ATOM     42  C   UNL     1      21.779  24.435  22.193  1.00  0.00     0.364 C 
ATOM     43  O   UNL     1      21.623  23.478  21.399  1.00  0.00    -0.246 OA
BRANCH  42  44
ATOM     44  O   UNL     1      20.635  24.872  22.839  1.00  0.00    -0.477 OA
ATOM     45  H   UNL     1      20.482  25.871  23.051  1.00  0.00     0.296 HD
ENDBRANCH  42  44
ENDBRANCH   3  42
BRANCH   6  46
ATOM     46  O   UNL     1      25.277  26.546  21.964  1.00  0.00    -0.391 OA
ATOM     47  H   UNL     1      25.946  27.193  21.609  1.00  0.00     0.211 HD
ENDBRANCH   6  46
BRANCH   7  48
ATOM     48  N   UNL     1      23.787  25.161  18.941  1.00  0.00    -0.348 N 
ATOM     49  C   UNL     1      24.420  25.134  17.666  1.00  0.00     0.217 C 
ATOM     50  H   UNL     1      23.024  24.459  19.103  1.00  0.00     0.163 HD
ATOM     51  C   UNL     1      23.977  24.143  16.655  1.00  0.00     0.114 C 
ATOM     52  O   UNL     1      25.327  25.949  17.451  1.00  0.00    -0.275 OA
ENDBRANCH   7  48
ENDBRANCH   1   2
BRANCH   1  53
ATOM     53  O   UNL     1      22.779  28.214  18.946  1.00  0.00    -0.388 OA
ATOM     54  H   UNL     1      22.896  27.331  18.485  1.00  0.00     0.211 HD
ENDBRANCH   1  53
BRANCH   1  55
ATOM     55  C   UNL     1      21.347  28.559  20.853  1.00  0.00     0.165 C 
BRANCH  55  56
ATOM     56  O   UNL     1      20.452  27.529  21.150  1.00  0.00    -0.388 OA
ATOM     57  H   UNL     1      20.750  26.649  20.868  1.00  0.00     0.211 HD
ENDBRANCH  55  56
BRANCH  55  58
ATOM     58  C   UNL     1      20.643  29.438  19.842  1.00  0.00     0.154 C 
BRANCH  58  59
ATOM     59  N   UNL     1      19.613  28.758  19.107  1.00  0.00    -0.319 N 
ATOM     60  C   UNL     1      19.653  28.791  17.691  1.00  0.00     0.407 C 
ATOM     61  H   UNL     1      18.851  28.251  19.583  1.00  0.00     0.167 HD
ATOM     62  O   UNL     1      20.601  29.409  17.126  1.00  0.00    -0.225 OA
BRANCH  60  63
ATOM     63  O   UNL     1      18.724  28.194  16.869  1.00  0.00    -0.443 OA
BRANCH  63  64
ATOM     64  C   UNL     1      17.362  28.561  16.806  1.00  0.00     0.294 C 
BRANCH  64  65
ATOM     65  C   UNL     1      16.756  28.356  18.145  1.00  0.00     0.121 A 
ATOM     66  C   UNL     1      15.992  29.206  18.919  1.00  0.00     0.144 A 
ATOM     67  N   UNL     1      16.840  27.204  18.882  1.00  0.00    -0.131 NA
ATOM     68  N   UNL     1      15.642  28.561  20.075  1.00  0.00    -0.220 N 
ATOM     69  N   UNL     1      16.174  27.367  20.004  1.00  0.00    -0.062 NA
BRANCH  68  70
ATOM     70  C   UNL     1      14.854  29.050  21.138  1.00  0.00     0.066 A 
ATOM     71  C   UNL     1      13.559  29.524  20.903  1.00  0.00     0.030 A 
ATOM     72  C   UNL     1      15.289  29.095  22.438  1.00  0.00     0.030 A 
ATOM     73  C   UNL     1      12.753  30.010  21.903  1.00  0.00     0.023 A 
ATOM     74  C   UNL     1      14.475  29.587  23.460  1.00  0.00     0.023 A 
ATOM     75  C   UNL     1      13.203  30.049  23.204  1.00  0.00     0.072 A 
BRANCH  75  76
ATOM     76  S   UNL     1      12.182  30.662  24.487  1.00  0.00     0.206 S 
ATOM     77  O   UNL     1      11.755  32.075  24.123  1.00  0.00    -0.219 OA
ATOM     78  O   UNL     1      12.834  30.615  25.827  1.00  0.00    -0.219 OA
BRANCH  76  79
ATOM     79  C   UNL     1      10.691  29.719  24.522  1.00  0.00     0.072 A 
ATOM     80  C   UNL     1       9.493  30.308  24.226  1.00  0.00     0.023 A 
ATOM     81  C   UNL     1      10.714  28.383  24.848  1.00  0.00     0.023 A 
ATOM     82  C   UNL     1       8.346  29.569  24.257  1.00  0.00     0.027 A 
ATOM     83  C   UNL     1       9.553  27.653  24.877  1.00  0.00     0.027 A 
ATOM     84  C   UNL     1       8.342  28.214  24.586  1.00  0.00     0.031 A 
BRANCH  84  85
ATOM     85  N   UNL     1       7.132  27.488  24.609  1.00  0.00    -0.399 N 
ATOM     86  H   UNL     1       7.019  26.620  24.067  1.00  0.00     0.156 HD
ATOM     87  H   UNL     1       6.341  27.832  25.181  1.00  0.00     0.156 HD
ENDBRANCH  84  85
ENDBRANCH  76  79
ENDBRANCH  75  76
ENDBRANCH  68  70
ENDBRANCH  64  65
ENDBRANCH  63  64
ENDBRANCH  60  63
ENDBRANCH  58  59
ENDBRANCH  55  58
ENDBRANCH   1  55
TORSDOF 33
