REMARK VINA RESULT:    -4.899      2.871      5.667
REMARK INTER + INTRA:         -21.824
REMARK INTER:                 -13.439
REMARK INTRA:                  -8.385
REMARK UNBOUND:                -8.334
REMARK SMILES CC[N+](C)(CC)CCCn1cc(COC(=O)NC[C@@H](O)C(O)[C@@H]2O[C@@](OC[C@H]3O[C@@H](O[C@H]4[C@H](O)[C@@H](O)[C@H](OCCN=[N+]=[N-])O[C@@H]4CO)[C@H](O)[C@@H](O)[C@H]3O)(C(=O)O)C[C@H](O)[C@H]2NC(C)=O)nn1
REMARK SMILES IDX 21 1 23 2 25 3 57 4 24 5 58 6 60 7 26 8 27 9 28 10 30 11
REMARK SMILES IDX 29 12 48 13 50 14 52 15 31 16 32 17 45 18 44 19 37 20 33 21
REMARK SMILES IDX 35 22 46 23 47 24 38 26 39 27 40 28 41 29 42 30 43 31 34 32
REMARK SMILES IDX 36 34 49 36 51 38 53 40 54 42 55 43 56 44 59 46 61 48 62 49
REMARK SMILES IDX 63 51 64 52 22 53 19 55 20 56 18 58 17 59 15 60 16 62 14 63
REMARK SMILES IDX 13 64 12 65 11 66 65 67 10 68 66 69 9 70 8 71 7 72 3 73 4 74
REMARK SMILES IDX 2 75 1 76 5 77 6 78
REMARK H PARENT 47 25 34 33 36 35 49 37 51 39 53 41 56 45 59 47 61 50 22 54
REMARK H PARENT 20 57 17 61
REMARK Flexibility Score: inf
ROOT
ATOM      1  C   UNL     1      19.347  29.314  19.244  1.00  0.00     0.176 C 
ENDROOT
BRANCH   1   2
ATOM      2  C   UNL     1      17.848  29.594  19.287  1.00  0.00     0.178 C 
ATOM      3  C   UNL     1      16.156  30.082  20.857  1.00  0.00     0.272 C 
ATOM      4  C   UNL     1      15.285  29.332  19.905  1.00  0.00     0.113 C 
ATOM      5  O   UNL     1      17.478  29.615  20.614  1.00  0.00    -0.332 OA
ATOM      6  C   UNL     1      15.953  28.098  19.357  1.00  0.00     0.145 C 
ATOM      7  C   UNL     1      17.131  28.547  18.497  1.00  0.00     0.142 C 
BRANCH   3   8
ATOM      8  O   UNL     1      15.955  29.754  22.182  1.00  0.00    -0.338 OA
BRANCH   8   9
ATOM      9  C   UNL     1      14.800  30.067  22.792  1.00  0.00     0.199 C 
BRANCH   9  10
ATOM     10  C   UNL     1      14.837  29.672  24.291  1.00  0.00     0.179 C 
ATOM     11  C   UNL     1      16.269  31.315  25.192  1.00  0.00     0.282 C 
ATOM     12  O   UNL     1      15.991  29.987  24.896  1.00  0.00    -0.341 OA
ATOM     13  C   UNL     1      15.070  32.127  25.508  1.00  0.00     0.202 C 
ATOM     14  C   UNL     1      14.071  31.133  26.139  1.00  0.00     0.179 C 
ATOM     15  C   UNL     1      13.613  30.278  24.979  1.00  0.00     0.177 C 
BRANCH  11  16
ATOM     16  O   UNL     1      17.148  31.854  24.243  1.00  0.00    -0.341 OA
BRANCH  16  17
ATOM     17  C   UNL     1      18.441  31.888  24.679  1.00  0.00     0.184 C 
ATOM     18  C   UNL     1      19.168  33.160  24.737  1.00  0.00     0.178 C 
ATOM     19  O   UNL     1      20.333  32.993  25.463  1.00  0.00    -0.341 OA
ATOM     20  C   UNL     1      20.845  31.757  25.627  1.00  0.00     0.281 C 
ATOM     21  C   UNL     1      19.321  30.951  23.819  1.00  0.00     0.180 C 
ATOM     22  C   UNL     1      20.649  30.768  24.506  1.00  0.00     0.202 C 
BRANCH  18  23
ATOM     23  C   UNL     1      18.423  34.337  25.334  1.00  0.00     0.191 C 
BRANCH  23  24
ATOM     24  O   UNL     1      17.280  34.684  24.626  1.00  0.00    -0.394 OA
ATOM     25  H   UNL     1      17.235  35.694  24.647  1.00  0.00     0.210 HD
ENDBRANCH  23  24
ENDBRANCH  18  23
BRANCH  20  26
ATOM     26  O   UNL     1      20.507  31.231  26.861  1.00  0.00    -0.350 OA
BRANCH  26  27
ATOM     27  C   UNL     1      21.431  30.426  27.441  1.00  0.00     0.169 C 
BRANCH  27  28
ATOM     28  C   UNL     1      20.885  29.082  27.877  1.00  0.00     0.119 C 
BRANCH  28  29
ATOM     29  N   UNL     1      21.410  28.042  27.007  1.00  0.00    -0.092 NA
ATOM     30  N   UNL     1      20.840  27.674  25.983  1.00  0.00     0.001 N 
ATOM     31  N   UNL     1      20.296  27.306  24.940  1.00  0.00    -0.003 NA
ENDBRANCH  28  29
ENDBRANCH  27  28
ENDBRANCH  26  27
ENDBRANCH  20  26
BRANCH  21  32
ATOM     32  O   UNL     1      18.597  29.799  23.620  1.00  0.00    -0.387 OA
ATOM     33  H   UNL     1      17.642  29.868  23.776  1.00  0.00     0.211 HD
ENDBRANCH  21  32
BRANCH  22  34
ATOM     34  O   UNL     1      21.655  30.821  23.554  1.00  0.00    -0.385 OA
ATOM     35  H   UNL     1      21.327  30.979  22.630  1.00  0.00     0.211 HD
ENDBRANCH  22  34
ENDBRANCH  16  17
ENDBRANCH  11  16
BRANCH  13  36
ATOM     36  O   UNL     1      15.294  33.110  26.486  1.00  0.00    -0.385 OA
ATOM     37  H   UNL     1      14.561  33.041  27.135  1.00  0.00     0.211 HD
ENDBRANCH  13  36
BRANCH  14  38
ATOM     38  O   UNL     1      12.997  31.838  26.682  1.00  0.00    -0.387 OA
ATOM     39  H   UNL     1      12.212  31.257  26.610  1.00  0.00     0.211 HD
ENDBRANCH  14  38
BRANCH  15  40
ATOM     40  O   UNL     1      13.030  31.153  24.065  1.00  0.00    -0.387 OA
ATOM     41  H   UNL     1      12.979  32.078  24.348  1.00  0.00     0.211 HD
ENDBRANCH  15  40
ENDBRANCH   9  10
ENDBRANCH   8   9
ENDBRANCH   3   8
BRANCH   3  42
ATOM     42  C   UNL     1      16.125  31.545  20.699  1.00  0.00     0.364 C 
ATOM     43  O   UNL     1      15.311  32.110  19.936  1.00  0.00    -0.246 OA
BRANCH  42  44
ATOM     44  O   UNL     1      17.000  32.349  21.389  1.00  0.00    -0.477 OA
ATOM     45  H   UNL     1      16.960  33.367  21.370  1.00  0.00     0.296 HD
ENDBRANCH  42  44
ENDBRANCH   3  42
BRANCH   6  46
ATOM     46  O   UNL     1      16.399  27.237  20.330  1.00  0.00    -0.391 OA
ATOM     47  H   UNL     1      15.791  27.226  21.131  1.00  0.00     0.211 HD
ENDBRANCH   6  46
BRANCH   7  48
ATOM     48  N   UNL     1      16.511  29.185  17.323  1.00  0.00    -0.348 N 
ATOM     49  C   UNL     1      17.154  29.187  16.054  1.00  0.00     0.217 C 
ATOM     50  H   UNL     1      15.589  29.665  17.355  1.00  0.00     0.163 HD
ATOM     51  C   UNL     1      16.566  29.814  14.844  1.00  0.00     0.114 C 
ATOM     52  O   UNL     1      18.263  28.632  15.956  1.00  0.00    -0.275 OA
ENDBRANCH   7  48
ENDBRANCH   1   2
BRANCH   1  53
ATOM     53  O   UNL     1      19.540  27.990  18.721  1.00  0.00    -0.388 OA
ATOM     54  H   UNL     1      19.386  28.055  17.742  1.00  0.00     0.211 HD
ENDBRANCH   1  53
BRANCH   1  55
ATOM     55  C   UNL     1      19.933  29.310  20.618  1.00  0.00     0.165 C 
BRANCH  55  56
ATOM     56  O   UNL     1      20.071  30.730  20.913  1.00  0.00    -0.388 OA
ATOM     57  H   UNL     1      19.443  30.927  21.675  1.00  0.00     0.211 HD
ENDBRANCH  55  56
BRANCH  55  58
ATOM     58  C   UNL     1      21.269  28.691  20.800  1.00  0.00     0.154 C 
BRANCH  58  59
ATOM     59  N   UNL     1      21.441  27.373  21.215  1.00  0.00    -0.319 N 
ATOM     60  C   UNL     1      21.871  26.259  20.457  1.00  0.00     0.407 C 
ATOM     61  H   UNL     1      21.213  27.149  22.270  1.00  0.00     0.167 HD
ATOM     62  O   UNL     1      22.170  26.318  19.254  1.00  0.00    -0.225 OA
BRANCH  60  63
ATOM     63  O   UNL     1      21.969  24.986  21.070  1.00  0.00    -0.443 OA
BRANCH  63  64
ATOM     64  C   UNL     1      23.288  24.550  21.448  1.00  0.00     0.294 C 
BRANCH  64  65
ATOM     65  C   UNL     1      23.369  24.948  22.903  1.00  0.00     0.120 A 
ATOM     66  C   UNL     1      22.646  24.416  23.944  1.00  0.00     0.138 A 
ATOM     67  N   UNL     1      24.180  25.844  23.475  1.00  0.00    -0.132 NA
ATOM     68  N   UNL     1      23.049  25.010  25.113  1.00  0.00    -0.252 N 
ATOM     69  N   UNL     1      23.986  25.877  24.778  1.00  0.00    -0.067 NA
BRANCH  68  70
ATOM     70  C   UNL     1      22.556  24.688  26.440  1.00  0.00     0.152 C 
BRANCH  70  71
ATOM     71  C   UNL     1      23.512  25.026  27.501  1.00  0.00     0.085 C 
BRANCH  71  72
ATOM     72  C   UNL     1      23.051  25.271  28.877  1.00  0.00     0.265 C 
BRANCH  72  73
ATOM     73  N   UNL     1      23.779  26.180  29.699  1.00  0.00    -0.326 N 
ATOM     74  C   UNL     1      24.453  27.156  28.886  1.00  0.00     0.334 C 
BRANCH  73  75
ATOM     75  C   UNL     1      24.678  25.583  30.643  1.00  0.00     0.260 C 
ATOM     76  C   UNL     1      26.125  25.665  30.217  1.00  0.00     0.071 C 
ENDBRANCH  73  75
BRANCH  73  77
ATOM     77  C   UNL     1      22.768  26.940  30.454  1.00  0.00     0.260 C 
ATOM     78  C   UNL     1      23.160  28.345  30.745  1.00  0.00     0.071 C 
ENDBRANCH  73  77
ENDBRANCH  72  73
ENDBRANCH  71  72
ENDBRANCH  70  71
ENDBRANCH  68  70
ENDBRANCH  64  65
ENDBRANCH  63  64
ENDBRANCH  60  63
ENDBRANCH  58  59
ENDBRANCH  55  58
ENDBRANCH   1  55
TORSDOF 35
