REMARK VINA RESULT:    -7.884     15.373     20.807
REMARK INTER + INTRA:         -19.096
REMARK INTER:                 -12.765
REMARK INTRA:                  -6.331
REMARK UNBOUND:                 3.076
REMARK SMILES CC(=O)N[C@@H]1[C@@H](O)C[C@](OC[C@H]2O[C@@H](O[C@H]3[C@H](O)[C@@H](O)[C@H](OCCN=[N+]=[N-])O[C@@H]3CO)[C@H](O)[C@@H](O)[C@H]2O)(C(=O)O)O[C@H]1C(O)[C@H](O)CNC(=O)OCc1cn(C2CC(O)C=C[C@@H](O)C2)nn1
REMARK SMILES IDX 43 1 42 2 9 3 8 4 41 5 6 6 5 7 10 8 11 9 12 10 14 11 13 12
REMARK SMILES IDX 32 13 34 14 36 15 15 16 16 17 29 18 28 19 21 20 17 21 19 22
REMARK SMILES IDX 30 23 31 24 22 26 23 27 24 28 25 29 26 30 27 31 18 32 20 34
REMARK SMILES IDX 33 36 35 38 37 40 38 42 39 43 40 44 7 46 4 48 2 49 1 51 3 52
REMARK SMILES IDX 44 53 45 55 46 56 47 58 48 59 49 60 50 62 51 63 52 64 53 65
REMARK SMILES IDX 54 66 66 67 55 68 65 69 56 70 57 71 58 72 59 74 64 76 62 77
REMARK SMILES IDX 61 78 60 79 63 81
REMARK H PARENT 31 25 18 33 20 35 33 37 35 39 37 41 40 45 7 47 4 50 44 54
REMARK H PARENT 46 57 48 61 59 75 63 82
REMARK Flexibility Score: 90.00
ROOT
ATOM      1  C   UNL     1       9.780  21.903  40.167  1.00  0.00     0.176 C 
ENDROOT
BRANCH   1   2
ATOM      2  C   UNL     1       9.376  23.337  39.872  1.00  0.00     0.178 C 
ATOM      3  C   UNL     1       8.544  24.523  38.018  1.00  0.00     0.272 C 
ATOM      4  C   UNL     1       8.941  25.822  38.617  1.00  0.00     0.113 C 
ATOM      5  O   UNL     1       9.095  23.387  38.476  1.00  0.00    -0.332 OA
ATOM      6  C   UNL     1       9.553  25.727  39.967  1.00  0.00     0.145 C 
ATOM      7  C   UNL     1      10.361  24.399  40.102  1.00  0.00     0.142 C 
BRANCH   3   8
ATOM      8  O   UNL     1       8.671  24.635  36.618  1.00  0.00    -0.338 OA
BRANCH   8   9
ATOM      9  C   UNL     1       9.129  23.513  35.992  1.00  0.00     0.199 C 
BRANCH   9  10
ATOM     10  C   UNL     1      10.434  23.797  35.246  1.00  0.00     0.179 C 
ATOM     11  C   UNL     1      11.850  25.621  35.236  1.00  0.00     0.282 C 
ATOM     12  O   UNL     1      10.546  25.143  35.098  1.00  0.00    -0.341 OA
ATOM     13  C   UNL     1      12.199  25.352  36.688  1.00  0.00     0.202 C 
ATOM     14  C   UNL     1      12.425  23.861  36.793  1.00  0.00     0.179 C 
ATOM     15  C   UNL     1      11.590  23.069  35.838  1.00  0.00     0.177 C 
BRANCH  11  16
ATOM     16  O   UNL     1      11.878  26.952  34.894  1.00  0.00    -0.341 OA
BRANCH  16  17
ATOM     17  C   UNL     1      10.604  27.505  35.053  1.00  0.00     0.184 C 
ATOM     18  C   UNL     1       9.904  27.592  33.721  1.00  0.00     0.178 C 
ATOM     19  O   UNL     1      10.342  28.607  32.908  1.00  0.00    -0.341 OA
ATOM     20  C   UNL     1      11.253  29.469  33.514  1.00  0.00     0.281 C 
ATOM     21  C   UNL     1      10.628  28.821  35.781  1.00  0.00     0.180 C 
ATOM     22  C   UNL     1      10.677  29.985  34.828  1.00  0.00     0.202 C 
BRANCH  18  23
ATOM     23  C   UNL     1       8.396  27.691  33.910  1.00  0.00     0.191 C 
BRANCH  23  24
ATOM     24  O   UNL     1       7.936  26.835  34.892  1.00  0.00    -0.394 OA
ATOM     25  H   UNL     1       7.000  26.972  35.112  1.00  0.00     0.210 HD
ENDBRANCH  23  24
ENDBRANCH  18  23
BRANCH  20  26
ATOM     26  O   UNL     1      11.436  30.522  32.624  1.00  0.00    -0.350 OA
BRANCH  26  27
ATOM     27  C   UNL     1      12.514  30.222  31.799  1.00  0.00     0.169 C 
BRANCH  27  28
ATOM     28  C   UNL     1      13.833  30.585  32.459  1.00  0.00     0.119 C 
BRANCH  28  29
ATOM     29  N   UNL     1      14.947  30.005  31.739  1.00  0.00    -0.092 NA
ATOM     30  N   UNL     1      15.128  30.326  30.553  1.00  0.00     0.001 N 
ATOM     31  N   UNL     1      15.137  30.647  29.357  1.00  0.00    -0.003 NA
ENDBRANCH  28  29
ENDBRANCH  27  28
ENDBRANCH  26  27
ENDBRANCH  20  26
BRANCH  21  32
ATOM     32  O   UNL     1       9.512  28.936  36.610  1.00  0.00    -0.387 OA
ATOM     33  H   UNL     1       9.511  29.786  37.113  1.00  0.00     0.211 HD
ENDBRANCH  21  32
BRANCH  22  34
ATOM     34  O   UNL     1      11.487  31.002  35.322  1.00  0.00    -0.385 OA
ATOM     35  H   UNL     1      11.188  31.284  36.225  1.00  0.00     0.211 HD
ENDBRANCH  22  34
ENDBRANCH  16  17
ENDBRANCH  11  16
BRANCH  13  36
ATOM     36  O   UNL     1      13.295  26.034  37.143  1.00  0.00    -0.385 OA
ATOM     37  H   UNL     1      13.126  26.941  37.443  1.00  0.00     0.211 HD
ENDBRANCH  13  36
BRANCH  14  38
ATOM     38  O   UNL     1      12.201  23.514  38.125  1.00  0.00    -0.387 OA
ATOM     39  H   UNL     1      11.442  22.872  38.203  1.00  0.00     0.211 HD
ENDBRANCH  14  38
BRANCH  15  40
ATOM     40  O   UNL     1      11.072  21.929  36.484  1.00  0.00    -0.387 OA
ATOM     41  H   UNL     1      10.157  22.034  36.781  1.00  0.00     0.211 HD
ENDBRANCH  15  40
ENDBRANCH   9  10
ENDBRANCH   8   9
ENDBRANCH   3   8
BRANCH   3  42
ATOM     42  C   UNL     1       7.055  24.398  38.260  1.00  0.00     0.364 C 
ATOM     43  O   UNL     1       6.330  25.390  38.538  1.00  0.00    -0.246 OA
BRANCH  42  44
ATOM     44  O   UNL     1       6.495  23.135  38.166  1.00  0.00    -0.477 OA
ATOM     45  H   UNL     1       5.694  22.869  38.738  1.00  0.00     0.296 HD
ENDBRANCH  42  44
ENDBRANCH   3  42
BRANCH   6  46
ATOM     46  O   UNL     1      10.364  26.801  40.238  1.00  0.00    -0.391 OA
ATOM     47  H   UNL     1      10.873  26.643  41.062  1.00  0.00     0.211 HD
ENDBRANCH   6  46
BRANCH   7  48
ATOM     48  N   UNL     1      11.127  24.455  41.287  1.00  0.00    -0.348 N 
ATOM     49  C   UNL     1      12.472  24.900  41.247  1.00  0.00     0.217 C 
ATOM     50  H   UNL     1      10.716  24.204  42.205  1.00  0.00     0.163 HD
ATOM     51  C   UNL     1      13.297  24.968  42.482  1.00  0.00     0.114 C 
ATOM     52  O   UNL     1      12.979  25.244  40.153  1.00  0.00    -0.275 OA
ENDBRANCH   7  48
ENDBRANCH   1   2
BRANCH   1  53
ATOM     53  O   UNL     1       9.940  21.391  38.805  1.00  0.00    -0.388 OA
ATOM     54  H   UNL     1      10.223  20.427  38.884  1.00  0.00     0.211 HD
ENDBRANCH   1  53
BRANCH   1  55
ATOM     55  C   UNL     1       8.662  21.040  40.675  1.00  0.00     0.165 C 
BRANCH  55  56
ATOM     56  O   UNL     1       7.437  21.651  40.561  1.00  0.00    -0.388 OA
ATOM     57  H   UNL     1       7.307  22.135  39.715  1.00  0.00     0.211 HD
ENDBRANCH  55  56
BRANCH  55  58
ATOM     58  C   UNL     1       8.852  20.724  42.155  1.00  0.00     0.154 C 
BRANCH  58  59
ATOM     59  N   UNL     1      10.217  20.613  42.558  1.00  0.00    -0.319 N 
ATOM     60  C   UNL     1      10.758  19.436  43.145  1.00  0.00     0.407 C 
ATOM     61  H   UNL     1      10.874  21.439  42.422  1.00  0.00     0.167 HD
ATOM     62  O   UNL     1       9.966  18.463  43.305  1.00  0.00    -0.225 OA
BRANCH  60  63
ATOM     63  O   UNL     1      12.083  19.386  43.512  1.00  0.00    -0.443 OA
BRANCH  63  64
ATOM     64  C   UNL     1      12.717  20.520  44.099  1.00  0.00     0.294 C 
BRANCH  64  65
ATOM     65  C   UNL     1      13.671  21.068  43.109  1.00  0.00     0.120 A 
ATOM     66  C   UNL     1      14.998  21.365  43.281  1.00  0.00     0.138 A 
ATOM     67  N   UNL     1      13.376  21.381  41.835  1.00  0.00    -0.132 NA
ATOM     68  N   UNL     1      15.463  21.851  42.103  1.00  0.00    -0.249 N 
ATOM     69  N   UNL     1      14.459  21.847  41.251  1.00  0.00    -0.067 NA
BRANCH  68  70
ATOM     70  C   UNL     1      16.833  22.304  41.824  1.00  0.00     0.115 C 
BRANCH  70  71
ATOM     71  C   UNL     1      17.664  21.117  41.471  1.00  0.00     0.063 C 
BRANCH  71  72
ATOM     72  C   UNL     1      19.129  21.419  41.805  1.00  0.00     0.139 CG0
ATOM     73  G   UNL     1      19.666  22.357  40.806  1.00  0.00     0.000 G0
BRANCH  72  74
ATOM     74  O   UNL     1      19.862  20.235  41.836  1.00  0.00    -0.389 OA
ATOM     75  H   UNL     1      19.673  19.781  42.707  1.00  0.00     0.211 HD
ENDBRANCH  72  74
ENDBRANCH  71  72
ENDBRANCH  70  71
BRANCH  70  76
ATOM     76  C   UNL     1      16.786  23.292  40.700  1.00  0.00     0.063 C 
BRANCH  76  77
ATOM     77  C   UNL     1      17.987  24.226  40.887  1.00  0.00     0.139 C 
BRANCH  77  78
ATOM     78  C   UNL     1      19.220  23.557  40.393  1.00  0.00     0.002 C 
ATOM     79  C   UNL     1      19.685  22.382  40.793  1.00  0.00     0.002 CG0
ATOM     80  G   UNL     1      19.143  21.445  41.791  1.00  0.00     0.000 G0
ENDBRANCH  77  78
BRANCH  77  81
ATOM     81  O   UNL     1      17.787  25.448  40.264  1.00  0.00    -0.389 OA
ATOM     82  H   UNL     1      17.714  25.275  39.284  1.00  0.00     0.211 HD
ENDBRANCH  77  81
ENDBRANCH  76  77
ENDBRANCH  70  76
ENDBRANCH  68  70
ENDBRANCH  64  65
ENDBRANCH  63  64
ENDBRANCH  60  63
ENDBRANCH  58  59
ENDBRANCH  55  58
ENDBRANCH   1  55
TORSDOF 32
