REMARK VINA RESULT:    -5.365      4.005      8.900
REMARK INTER + INTRA:         -20.697
REMARK INTER:                 -14.982
REMARK INTRA:                  -5.715
REMARK UNBOUND:                -6.864
REMARK SMILES CC(=O)N[C@@H]1[C@@H](O)C[C@](OC[C@H]2O[C@@H](O[C@H]3[C@H](O)[C@@H](O)[C@H](OCCN=[N+]=[N-])O[C@@H]3CO)[C@H](O)[C@@H](O)[C@H]2O)(C(=O)O)O[C@H]1C(O)[C@H](O)CNC(=O)OCc1cn(CCC2OCCO2)nn1
REMARK SMILES IDX 9 1 8 2 6 3 5 4 42 5 41 6 10 7 11 8 12 9 14 10 13 11 32 12
REMARK SMILES IDX 34 13 36 14 15 15 16 16 29 17 28 18 21 19 17 20 19 21 30 22
REMARK SMILES IDX 31 23 22 25 23 26 24 27 25 28 26 29 27 30 18 31 20 33 33 35
REMARK SMILES IDX 35 37 37 39 38 41 39 42 40 43 7 45 43 47 44 48 45 50 46 51
REMARK SMILES IDX 47 53 48 54 49 55 50 57 51 58 52 59 53 60 54 61 64 62 55 63
REMARK SMILES IDX 63 64 56 65 57 66 58 67 59 68 62 69 60 70 61 71 4 72 2 73
REMARK SMILES IDX 1 75 3 76
REMARK H PARENT 31 24 18 32 20 34 33 36 35 38 37 40 40 44 7 46 44 49 46 52
REMARK H PARENT 48 56 4 74
REMARK Flexibility Score: inf
ROOT
ATOM      1  C   UNL     1      16.671  30.679  24.044  1.00  0.00     0.272 C 
ATOM      2  C   UNL     1      15.553  29.599  24.281  1.00  0.00     0.113 C 
ATOM      3  C   UNL     1      14.213  30.161  24.061  1.00  0.00     0.145 C 
ATOM      4  C   UNL     1      14.109  30.698  22.647  1.00  0.00     0.142 C 
ATOM      5  C   UNL     1      15.443  31.016  22.062  1.00  0.00     0.178 C 
ATOM      6  O   UNL     1      16.421  31.406  22.907  1.00  0.00    -0.332 OA
ENDROOT
BRANCH   1   7
ATOM      7  O   UNL     1      17.765  29.932  23.896  1.00  0.00    -0.338 OA
BRANCH   7   8
ATOM      8  C   UNL     1      18.929  30.253  23.378  1.00  0.00     0.199 C 
BRANCH   8   9
ATOM      9  C   UNL     1      20.191  30.222  24.179  1.00  0.00     0.179 C 
ATOM     10  C   UNL     1      21.011  29.481  26.242  1.00  0.00     0.282 C 
ATOM     11  O   UNL     1      19.928  29.874  25.483  1.00  0.00    -0.341 OA
ATOM     12  C   UNL     1      22.347  29.764  25.660  1.00  0.00     0.202 C 
ATOM     13  C   UNL     1      22.475  29.379  24.212  1.00  0.00     0.179 C 
ATOM     14  C   UNL     1      21.120  29.101  23.652  1.00  0.00     0.177 C 
BRANCH  10  15
ATOM     15  O   UNL     1      20.800  28.167  26.659  1.00  0.00    -0.341 OA
BRANCH  15  16
ATOM     16  C   UNL     1      21.662  27.756  27.666  1.00  0.00     0.184 C 
ATOM     17  C   UNL     1      22.074  26.319  27.579  1.00  0.00     0.178 C 
ATOM     18  O   UNL     1      22.997  26.077  28.600  1.00  0.00    -0.341 OA
ATOM     19  C   UNL     1      22.444  26.147  29.870  1.00  0.00     0.281 C 
ATOM     20  C   UNL     1      20.930  27.877  29.033  1.00  0.00     0.180 C 
ATOM     21  C   UNL     1      22.011  27.596  30.070  1.00  0.00     0.202 C 
BRANCH  17  22
ATOM     22  C   UNL     1      22.832  26.089  26.283  1.00  0.00     0.191 C 
BRANCH  22  23
ATOM     23  O   UNL     1      21.833  25.844  25.308  1.00  0.00    -0.394 OA
ATOM     24  H   UNL     1      21.447  24.946  25.383  1.00  0.00     0.210 HD
ENDBRANCH  22  23
ENDBRANCH  17  22
BRANCH  19  25
ATOM     25  O   UNL     1      23.392  25.786  30.786  1.00  0.00    -0.350 OA
BRANCH  25  26
ATOM     26  C   UNL     1      24.587  25.361  30.281  1.00  0.00     0.169 C 
BRANCH  26  27
ATOM     27  C   UNL     1      25.803  26.061  30.848  1.00  0.00     0.119 C 
BRANCH  27  28
ATOM     28  N   UNL     1      26.856  25.098  31.117  1.00  0.00    -0.092 NA
ATOM     29  N   UNL     1      28.047  25.397  31.127  1.00  0.00     0.001 N 
ATOM     30  N   UNL     1      29.236  25.640  31.317  1.00  0.00    -0.003 NA
ENDBRANCH  27  28
ENDBRANCH  26  27
ENDBRANCH  25  26
ENDBRANCH  19  25
BRANCH  20  31
ATOM     31  O   UNL     1      20.464  29.162  29.167  1.00  0.00    -0.387 OA
ATOM     32  H   UNL     1      21.241  29.768  29.315  1.00  0.00     0.211 HD
ENDBRANCH  20  31
BRANCH  21  33
ATOM     33  O   UNL     1      21.454  27.807  31.313  1.00  0.00    -0.385 OA
ATOM     34  H   UNL     1      21.662  27.025  31.883  1.00  0.00     0.211 HD
ENDBRANCH  21  33
ENDBRANCH  15  16
ENDBRANCH  10  15
BRANCH  12  35
ATOM     35  O   UNL     1      22.654  31.135  25.846  1.00  0.00    -0.385 OA
ATOM     36  H   UNL     1      22.956  31.451  24.953  1.00  0.00     0.211 HD
ENDBRANCH  12  35
BRANCH  13  37
ATOM     37  O   UNL     1      23.366  28.320  24.030  1.00  0.00    -0.387 OA
ATOM     38  H   UNL     1      23.063  27.571  24.608  1.00  0.00     0.211 HD
ENDBRANCH  13  37
BRANCH  14  39
ATOM     39  O   UNL     1      20.594  27.880  24.020  1.00  0.00    -0.387 OA
ATOM     40  H   UNL     1      21.253  27.261  24.421  1.00  0.00     0.211 HD
ENDBRANCH  14  39
ENDBRANCH   8   9
ENDBRANCH   7   8
ENDBRANCH   1   7
BRANCH   1  41
ATOM     41  C   UNL     1      16.510  31.571  25.192  1.00  0.00     0.364 C 
ATOM     42  O   UNL     1      16.740  31.113  26.386  1.00  0.00    -0.246 OA
BRANCH  41  43
ATOM     43  O   UNL     1      16.138  32.896  25.202  1.00  0.00    -0.477 OA
ATOM     44  H   UNL     1      15.301  33.181  25.691  1.00  0.00     0.296 HD
ENDBRANCH  41  43
ENDBRANCH   1  41
BRANCH   3  45
ATOM     45  O   UNL     1      13.294  29.086  24.233  1.00  0.00    -0.391 OA
ATOM     46  H   UNL     1      13.857  28.254  24.297  1.00  0.00     0.211 HD
ENDBRANCH   3  45
BRANCH   5  47
ATOM     47  C   UNL     1      15.840  29.959  21.076  1.00  0.00     0.176 C 
BRANCH  47  48
ATOM     48  O   UNL     1      14.856  29.716  20.106  1.00  0.00    -0.388 OA
ATOM     49  H   UNL     1      14.939  30.363  19.346  1.00  0.00     0.211 HD
ENDBRANCH  47  48
BRANCH  47  50
ATOM     50  C   UNL     1      17.045  30.459  20.229  1.00  0.00     0.165 C 
BRANCH  50  51
ATOM     51  O   UNL     1      16.800  31.758  19.852  1.00  0.00    -0.388 OA
ATOM     52  H   UNL     1      17.485  32.144  19.275  1.00  0.00     0.211 HD
ENDBRANCH  50  51
BRANCH  50  53
ATOM     53  C   UNL     1      17.298  29.472  19.163  1.00  0.00     0.154 C 
BRANCH  53  54
ATOM     54  N   UNL     1      18.676  29.103  19.081  1.00  0.00    -0.319 N 
ATOM     55  C   UNL     1      19.249  28.406  18.018  1.00  0.00     0.407 C 
ATOM     56  H   UNL     1      19.288  29.385  19.887  1.00  0.00     0.167 HD
ATOM     57  O   UNL     1      18.570  28.038  17.046  1.00  0.00    -0.225 OA
BRANCH  55  58
ATOM     58  O   UNL     1      20.609  28.070  17.964  1.00  0.00    -0.443 OA
BRANCH  58  59
ATOM     59  C   UNL     1      21.469  28.331  19.059  1.00  0.00     0.294 C 
BRANCH  59  60
ATOM     60  C   UNL     1      21.421  27.270  20.091  1.00  0.00     0.120 A 
ATOM     61  C   UNL     1      22.312  26.195  20.177  1.00  0.00     0.138 A 
ATOM     62  N   UNL     1      20.573  27.093  21.116  1.00  0.00    -0.132 NA
ATOM     63  N   UNL     1      21.971  25.419  21.241  1.00  0.00    -0.252 N 
ATOM     64  N   UNL     1      20.920  25.985  21.787  1.00  0.00    -0.067 NA
BRANCH  63  65
ATOM     65  C   UNL     1      22.712  24.221  21.608  1.00  0.00     0.151 C 
BRANCH  65  66
ATOM     66  C   UNL     1      23.457  24.436  22.918  1.00  0.00     0.086 C 
BRANCH  66  67
ATOM     67  C   UNL     1      24.942  24.490  22.703  1.00  0.00     0.251 C 
ATOM     68  O   UNL     1      25.380  23.264  22.199  1.00  0.00    -0.350 OA
ATOM     69  O   UNL     1      25.331  25.434  21.773  1.00  0.00    -0.350 OA
ATOM     70  C   UNL     1      26.626  23.536  21.646  1.00  0.00     0.192 C 
ATOM     71  C   UNL     1      26.679  25.052  21.572  1.00  0.00     0.192 C 
ENDBRANCH  66  67
ENDBRANCH  65  66
ENDBRANCH  63  65
ENDBRANCH  59  60
ENDBRANCH  58  59
ENDBRANCH  55  58
ENDBRANCH  53  54
ENDBRANCH  50  53
ENDBRANCH  47  50
ENDBRANCH   5  47
BRANCH   4  72
ATOM     72  N   UNL     1      13.176  31.821  22.591  1.00  0.00    -0.348 N 
ATOM     73  C   UNL     1      12.404  32.126  21.466  1.00  0.00     0.217 C 
ATOM     74  H   UNL     1      13.106  32.416  23.467  1.00  0.00     0.163 HD
ATOM     75  C   UNL     1      11.468  33.298  21.486  1.00  0.00     0.114 C 
ATOM     76  O   UNL     1      12.527  31.386  20.453  1.00  0.00    -0.275 OA
ENDBRANCH   4  72
TORSDOF 32
