REMARK VINA RESULT:    -5.663      4.768      9.601
REMARK INTER + INTRA:         -20.703
REMARK INTER:                 -15.793
REMARK INTRA:                  -4.910
REMARK UNBOUND:                -6.268
REMARK SMILES CC(=O)N[C@@H]1[C@@H](O)C[C@](OC[C@H]2O[C@@H](O[C@H]3[C@H](O)[C@@H](O)[C@H](OCCN=[N+]=[N-])O[C@@H]3CO)[C@H](O)[C@@H](O)[C@H]2O)(C(=O)O)O[C@H]1C(O)[C@H](O)CNC(=O)OCc1cn(C(C)(C)CO)nn1
REMARK SMILES IDX 9 1 8 2 6 3 5 4 42 5 41 6 10 7 11 8 12 9 14 10 13 11 32 12
REMARK SMILES IDX 34 13 36 14 15 15 16 16 29 17 28 18 21 19 17 20 19 21 30 22
REMARK SMILES IDX 31 23 22 25 23 26 24 27 25 28 26 29 27 30 18 31 20 33 33 35
REMARK SMILES IDX 35 37 37 39 38 41 39 42 40 43 7 45 43 47 44 48 45 50 46 51
REMARK SMILES IDX 47 53 48 54 49 55 50 57 51 58 52 59 53 60 54 61 62 62 55 63
REMARK SMILES IDX 61 64 56 65 57 66 58 67 59 68 60 69 4 71 2 72 1 74 3 75
REMARK H PARENT 31 24 18 32 20 34 33 36 35 38 37 40 40 44 7 46 44 49 46 52
REMARK H PARENT 48 56 60 70 4 73
REMARK Flexibility Score: inf
ROOT
ATOM      1  C   UNL     1      23.100  25.368  21.745  1.00  0.00     0.272 C 
ATOM      2  C   UNL     1      22.468  24.234  22.507  1.00  0.00     0.113 C 
ATOM      3  C   UNL     1      21.171  24.740  23.091  1.00  0.00     0.145 C 
ATOM      4  C   UNL     1      21.591  25.715  24.216  1.00  0.00     0.142 C 
ATOM      5  C   UNL     1      22.514  26.717  23.590  1.00  0.00     0.178 C 
ATOM      6  O   UNL     1      22.555  26.624  22.213  1.00  0.00    -0.332 OA
ENDROOT
BRANCH   1   7
ATOM      7  O   UNL     1      22.787  25.394  20.425  1.00  0.00    -0.338 OA
BRANCH   7   8
ATOM      8  C   UNL     1      23.274  24.554  19.527  1.00  0.00     0.199 C 
BRANCH   8   9
ATOM      9  C   UNL     1      23.890  24.933  18.244  1.00  0.00     0.179 C 
ATOM     10  C   UNL     1      24.003  24.220  16.053  1.00  0.00     0.282 C 
ATOM     11  O   UNL     1      23.271  24.153  17.209  1.00  0.00    -0.341 OA
ATOM     12  C   UNL     1      24.935  25.372  15.922  1.00  0.00     0.202 C 
ATOM     13  C   UNL     1      24.461  26.633  16.610  1.00  0.00     0.179 C 
ATOM     14  C   UNL     1      23.581  26.353  17.785  1.00  0.00     0.177 C 
BRANCH  10  15
ATOM     15  O   UNL     1      23.116  24.095  14.980  1.00  0.00    -0.341 OA
BRANCH  15  16
ATOM     16  C   UNL     1      23.728  23.820  13.780  1.00  0.00     0.184 C 
ATOM     17  C   UNL     1      22.991  24.375  12.582  1.00  0.00     0.178 C 
ATOM     18  O   UNL     1      22.863  23.472  11.547  1.00  0.00    -0.341 OA
ATOM     19  C   UNL     1      22.157  22.334  11.828  1.00  0.00     0.281 C 
ATOM     20  C   UNL     1      23.738  22.286  13.655  1.00  0.00     0.180 C 
ATOM     21  C   UNL     1      22.309  21.938  13.280  1.00  0.00     0.202 C 
BRANCH  17  22
ATOM     22  C   UNL     1      23.851  25.517  12.057  1.00  0.00     0.191 C 
BRANCH  22  23
ATOM     23  O   UNL     1      25.159  25.067  11.868  1.00  0.00    -0.394 OA
ATOM     24  H   UNL     1      25.261  24.103  11.974  1.00  0.00     0.210 HD
ENDBRANCH  22  23
ENDBRANCH  17  22
BRANCH  19  25
ATOM     25  O   UNL     1      22.593  21.347  10.961  1.00  0.00    -0.350 OA
BRANCH  25  26
ATOM     26  C   UNL     1      21.636  20.502  10.495  1.00  0.00     0.169 C 
BRANCH  26  27
ATOM     27  C   UNL     1      21.712  19.097  11.073  1.00  0.00     0.119 C 
BRANCH  27  28
ATOM     28  N   UNL     1      20.775  18.931  12.168  1.00  0.00    -0.092 NA
ATOM     29  N   UNL     1      19.651  19.436  12.037  1.00  0.00     0.001 N 
ATOM     30  N   UNL     1      18.420  19.574  11.868  1.00  0.00    -0.003 NA
ENDBRANCH  27  28
ENDBRANCH  26  27
ENDBRANCH  25  26
ENDBRANCH  19  25
BRANCH  20  31
ATOM     31  O   UNL     1      24.636  22.007  12.620  1.00  0.00    -0.387 OA
ATOM     32  H   UNL     1      24.984  21.096  12.809  1.00  0.00     0.211 HD
ENDBRANCH  20  31
BRANCH  21  33
ATOM     33  O   UNL     1      21.470  22.783  14.026  1.00  0.00    -0.385 OA
ATOM     34  H   UNL     1      20.988  23.415  13.414  1.00  0.00     0.211 HD
ENDBRANCH  21  33
ENDBRANCH  15  16
ENDBRANCH  10  15
BRANCH  12  35
ATOM     35  O   UNL     1      26.261  25.084  16.249  1.00  0.00    -0.385 OA
ATOM     36  H   UNL     1      26.626  25.885  16.674  1.00  0.00     0.211 HD
ENDBRANCH  12  35
BRANCH  13  37
ATOM     37  O   UNL     1      23.829  27.496  15.698  1.00  0.00    -0.387 OA
ATOM     38  H   UNL     1      23.535  28.332  16.147  1.00  0.00     0.211 HD
ENDBRANCH  13  37
BRANCH  14  39
ATOM     39  O   UNL     1      22.253  26.339  17.301  1.00  0.00    -0.387 OA
ATOM     40  H   UNL     1      21.638  26.104  18.026  1.00  0.00     0.211 HD
ENDBRANCH  14  39
ENDBRANCH   8   9
ENDBRANCH   7   8
ENDBRANCH   1   7
BRANCH   1  41
ATOM     41  C   UNL     1      24.527  25.518  22.027  1.00  0.00     0.364 C 
ATOM     42  O   UNL     1      25.221  26.390  21.498  1.00  0.00    -0.246 OA
BRANCH  41  43
ATOM     43  O   UNL     1      25.208  24.673  22.922  1.00  0.00    -0.477 OA
ATOM     44  H   UNL     1      25.847  23.997  22.519  1.00  0.00     0.296 HD
ENDBRANCH  41  43
ENDBRANCH   1  41
BRANCH   3  45
ATOM     45  O   UNL     1      20.567  25.552  22.128  1.00  0.00    -0.391 OA
ATOM     46  H   UNL     1      20.227  25.024  21.378  1.00  0.00     0.211 HD
ENDBRANCH   3  45
BRANCH   5  47
ATOM     47  C   UNL     1      21.871  28.093  23.844  1.00  0.00     0.176 C 
BRANCH  47  48
ATOM     48  O   UNL     1      20.501  27.891  24.139  1.00  0.00    -0.388 OA
ATOM     49  H   UNL     1      20.324  26.988  24.453  1.00  0.00     0.211 HD
ENDBRANCH  47  48
BRANCH  47  50
ATOM     50  C   UNL     1      21.855  28.950  22.589  1.00  0.00     0.165 C 
BRANCH  50  51
ATOM     51  O   UNL     1      22.435  30.164  22.758  1.00  0.00    -0.388 OA
ATOM     52  H   UNL     1      22.473  30.744  21.962  1.00  0.00     0.211 HD
ENDBRANCH  50  51
BRANCH  50  53
ATOM     53  C   UNL     1      20.436  29.088  22.077  1.00  0.00     0.154 C 
BRANCH  53  54
ATOM     54  N   UNL     1      20.299  29.470  20.720  1.00  0.00    -0.319 N 
ATOM     55  C   UNL     1      20.340  28.586  19.638  1.00  0.00     0.407 C 
ATOM     56  H   UNL     1      20.151  30.511  20.480  1.00  0.00     0.167 HD
ATOM     57  O   UNL     1      20.494  27.362  19.785  1.00  0.00    -0.225 OA
BRANCH  55  58
ATOM     58  O   UNL     1      20.208  29.044  18.305  1.00  0.00    -0.443 OA
BRANCH  58  59
ATOM     59  C   UNL     1      19.037  28.800  17.559  1.00  0.00     0.294 C 
BRANCH  59  60
ATOM     60  C   UNL     1      17.828  28.635  18.391  1.00  0.00     0.120 A 
ATOM     61  C   UNL     1      17.110  29.623  19.032  1.00  0.00     0.139 A 
ATOM     62  N   UNL     1      17.195  27.487  18.679  1.00  0.00    -0.132 NA
ATOM     63  N   UNL     1      16.067  29.057  19.688  1.00  0.00    -0.244 N 
ATOM     64  N   UNL     1      16.143  27.757  19.457  1.00  0.00    -0.066 NA
BRANCH  63  65
ATOM     65  C   UNL     1      15.086  29.763  20.472  1.00  0.00     0.082 C 
ATOM     66  C   UNL     1      13.841  29.970  19.660  1.00  0.00     0.039 C 
ATOM     67  C   UNL     1      15.612  31.157  20.843  1.00  0.00     0.039 C 
BRANCH  65  68
ATOM     68  C   UNL     1      14.726  29.075  21.758  1.00  0.00     0.186 C 
BRANCH  68  69
ATOM     69  O   UNL     1      13.610  28.277  21.663  1.00  0.00    -0.394 OA
ATOM     70  H   UNL     1      13.212  28.016  22.509  1.00  0.00     0.210 HD
ENDBRANCH  68  69
ENDBRANCH  65  68
ENDBRANCH  63  65
ENDBRANCH  59  60
ENDBRANCH  58  59
ENDBRANCH  55  58
ENDBRANCH  53  54
ENDBRANCH  50  53
ENDBRANCH  47  50
ENDBRANCH   5  47
BRANCH   4  71
ATOM     71  N   UNL     1      22.166  24.898  25.236  1.00  0.00    -0.348 N 
ATOM     72  C   UNL     1      22.359  25.260  26.590  1.00  0.00     0.217 C 
ATOM     73  H   UNL     1      22.499  23.917  24.996  1.00  0.00     0.163 HD
ATOM     74  C   UNL     1      22.973  24.337  27.582  1.00  0.00     0.114 C 
ATOM     75  O   UNL     1      22.007  26.388  26.973  1.00  0.00    -0.275 OA
ENDBRANCH   4  71
TORSDOF 32
