REMARK VINA RESULT:    -5.996      3.695      7.389
REMARK INTER + INTRA:         -20.802
REMARK INTER:                 -15.129
REMARK INTRA:                  -5.673
REMARK UNBOUND:                -6.043
REMARK SMILES CC(=O)N[C@@H]1[C@@H](O)C[C@](OC[C@H]2O[C@@H](O[C@H]3[C@H](O)[C@@H](O)[C@H](OCCN=[N+]=[N-])O[C@@H]3CO)[C@H](O)[C@@H](O)[C@H]2O)(C(=O)O)O[C@H]1C(O)[C@H](O)CNC(=O)OCc1cn(-c2ccccc2I)nn1
REMARK SMILES IDX 9 1 8 2 6 3 5 4 42 5 41 6 10 7 11 8 12 9 14 10 13 11 32 12
REMARK SMILES IDX 34 13 36 14 15 15 16 16 29 17 28 18 21 19 17 20 19 21 30 22
REMARK SMILES IDX 31 23 22 25 23 26 24 27 25 28 26 29 27 30 18 31 20 33 33 35
REMARK SMILES IDX 35 37 37 39 38 41 39 42 40 43 7 45 43 47 44 48 45 50 46 51
REMARK SMILES IDX 47 53 48 54 49 55 50 57 51 58 52 59 53 60 54 61 64 62 55 63
REMARK SMILES IDX 63 64 56 65 57 66 61 67 58 68 60 69 62 70 59 71 4 72 2 73
REMARK SMILES IDX 1 75 3 76
REMARK H PARENT 31 24 18 32 20 34 33 36 35 38 37 40 40 44 7 46 44 49 46 52
REMARK H PARENT 48 56 4 74
REMARK Flexibility Score: inf
ROOT
ATOM      1  C   UNL     1      19.510  29.453  21.288  1.00  0.00     0.272 C 
ATOM      2  C   UNL     1      19.086  30.636  22.112  1.00  0.00     0.113 C 
ATOM      3  C   UNL     1      17.567  30.631  22.353  1.00  0.00     0.145 C 
ATOM      4  C   UNL     1      16.941  30.805  20.939  1.00  0.00     0.142 C 
ATOM      5  C   UNL     1      17.549  29.780  20.022  1.00  0.00     0.178 C 
ATOM      6  O   UNL     1      18.283  28.882  20.806  1.00  0.00    -0.332 OA
ENDROOT
BRANCH   1   7
ATOM      7  O   UNL     1      20.100  28.408  21.926  1.00  0.00    -0.338 OA
BRANCH   7   8
ATOM      8  C   UNL     1      21.296  28.333  22.430  1.00  0.00     0.199 C 
BRANCH   8   9
ATOM      9  C   UNL     1      22.346  27.490  21.825  1.00  0.00     0.179 C 
ATOM     10  C   UNL     1      23.147  25.970  23.331  1.00  0.00     0.282 C 
ATOM     11  O   UNL     1      23.388  27.100  22.598  1.00  0.00    -0.341 OA
ATOM     12  C   UNL     1      23.215  24.730  22.448  1.00  0.00     0.202 C 
ATOM     13  C   UNL     1      22.754  25.137  21.029  1.00  0.00     0.179 C 
ATOM     14  C   UNL     1      21.706  26.221  21.184  1.00  0.00     0.177 C 
BRANCH  10  15
ATOM     15  O   UNL     1      22.146  25.994  24.248  1.00  0.00    -0.341 OA
BRANCH  15  16
ATOM     16  C   UNL     1      22.529  26.143  25.561  1.00  0.00     0.184 C 
ATOM     17  C   UNL     1      22.872  24.872  26.292  1.00  0.00     0.178 C 
ATOM     18  O   UNL     1      22.717  25.047  27.665  1.00  0.00    -0.341 OA
ATOM     19  C   UNL     1      22.921  26.365  28.091  1.00  0.00     0.281 C 
ATOM     20  C   UNL     1      21.284  26.658  26.315  1.00  0.00     0.180 C 
ATOM     21  C   UNL     1      21.843  27.288  27.584  1.00  0.00     0.202 C 
BRANCH  17  22
ATOM     22  C   UNL     1      24.191  24.270  25.934  1.00  0.00     0.191 C 
BRANCH  22  23
ATOM     23  O   UNL     1      25.061  25.330  25.652  1.00  0.00    -0.394 OA
ATOM     24  H   UNL     1      24.671  25.848  24.896  1.00  0.00     0.210 HD
ENDBRANCH  22  23
ENDBRANCH  17  22
BRANCH  19  25
ATOM     25  O   UNL     1      24.188  26.806  27.865  1.00  0.00    -0.350 OA
BRANCH  25  26
ATOM     26  C   UNL     1      24.736  27.428  28.943  1.00  0.00     0.169 C 
BRANCH  26  27
ATOM     27  C   UNL     1      25.162  26.565  30.088  1.00  0.00     0.119 C 
BRANCH  27  28
ATOM     28  N   UNL     1      26.265  25.679  29.844  1.00  0.00    -0.092 NA
ATOM     29  N   UNL     1      26.940  25.345  30.834  1.00  0.00     0.001 N 
ATOM     30  N   UNL     1      27.777  24.951  31.648  1.00  0.00    -0.003 NA
ENDBRANCH  27  28
ENDBRANCH  26  27
ENDBRANCH  25  26
ENDBRANCH  19  25
BRANCH  20  31
ATOM     31  O   UNL     1      20.596  27.582  25.551  1.00  0.00    -0.387 OA
ATOM     32  H   UNL     1      19.854  27.092  25.107  1.00  0.00     0.211 HD
ENDBRANCH  20  31
BRANCH  21  33
ATOM     33  O   UNL     1      20.833  27.520  28.515  1.00  0.00    -0.385 OA
ATOM     34  H   UNL     1      20.754  28.520  28.644  1.00  0.00     0.211 HD
ENDBRANCH  21  33
ENDBRANCH  15  16
ENDBRANCH  10  15
BRANCH  12  35
ATOM     35  O   UNL     1      24.508  24.249  22.291  1.00  0.00    -0.385 OA
ATOM     36  H   UNL     1      24.429  23.280  22.089  1.00  0.00     0.211 HD
ENDBRANCH  12  35
BRANCH  13  37
ATOM     37  O   UNL     1      22.310  24.095  20.278  1.00  0.00    -0.387 OA
ATOM     38  H   UNL     1      22.562  24.119  19.306  1.00  0.00     0.211 HD
ENDBRANCH  13  37
BRANCH  14  39
ATOM     39  O   UNL     1      20.742  25.791  22.080  1.00  0.00    -0.387 OA
ATOM     40  H   UNL     1      19.840  26.143  21.798  1.00  0.00     0.211 HD
ENDBRANCH  14  39
ENDBRANCH   8   9
ENDBRANCH   7   8
ENDBRANCH   1   7
BRANCH   1  41
ATOM     41  C   UNL     1      20.281  29.903  20.115  1.00  0.00     0.364 C 
ATOM     42  O   UNL     1      20.682  31.065  19.928  1.00  0.00    -0.246 OA
BRANCH  41  43
ATOM     43  O   UNL     1      20.619  28.995  19.089  1.00  0.00    -0.477 OA
ATOM     44  H   UNL     1      21.581  28.630  19.043  1.00  0.00     0.296 HD
ENDBRANCH  41  43
ENDBRANCH   1  41
BRANCH   3  45
ATOM     45  O   UNL     1      17.131  29.463  22.939  1.00  0.00    -0.391 OA
ATOM     46  H   UNL     1      17.818  29.108  23.552  1.00  0.00     0.211 HD
ENDBRANCH   3  45
BRANCH   5  47
ATOM     47  C   UNL     1      16.424  28.882  19.442  1.00  0.00     0.176 C 
BRANCH  47  48
ATOM     48  O   UNL     1      16.436  27.690  20.266  1.00  0.00    -0.388 OA
ATOM     49  H   UNL     1      16.623  26.941  19.622  1.00  0.00     0.211 HD
ENDBRANCH  47  48
BRANCH  47  50
ATOM     50  C   UNL     1      16.786  28.333  18.095  1.00  0.00     0.165 C 
BRANCH  50  51
ATOM     51  O   UNL     1      18.008  27.619  18.202  1.00  0.00    -0.388 OA
ATOM     52  H   UNL     1      18.702  28.017  17.619  1.00  0.00     0.211 HD
ENDBRANCH  50  51
BRANCH  50  53
ATOM     53  C   UNL     1      16.887  29.255  16.957  1.00  0.00     0.154 C 
BRANCH  53  54
ATOM     54  N   UNL     1      18.190  29.337  16.325  1.00  0.00    -0.319 N 
ATOM     55  C   UNL     1      18.301  29.048  14.931  1.00  0.00     0.407 C 
ATOM     56  H   UNL     1      19.065  29.594  16.824  1.00  0.00     0.167 HD
ATOM     57  O   UNL     1      17.255  28.717  14.283  1.00  0.00    -0.225 OA
BRANCH  55  58
ATOM     58  O   UNL     1      19.473  29.097  14.205  1.00  0.00    -0.443 OA
BRANCH  58  59
ATOM     59  C   UNL     1      20.686  29.536  14.798  1.00  0.00     0.294 C 
BRANCH  59  60
ATOM     60  C   UNL     1      21.300  28.362  15.516  1.00  0.00     0.121 A 
ATOM     61  C   UNL     1      22.473  27.705  15.224  1.00  0.00     0.144 A 
ATOM     62  N   UNL     1      20.779  27.744  16.590  1.00  0.00    -0.131 NA
ATOM     63  N   UNL     1      22.585  26.728  16.145  1.00  0.00    -0.219 N 
ATOM     64  N   UNL     1      21.557  26.757  16.969  1.00  0.00    -0.062 NA
BRANCH  63  65
ATOM     65  C   UNL     1      23.637  25.774  16.245  1.00  0.00     0.080 A 
ATOM     66  C   UNL     1      23.656  24.648  15.432  1.00  0.00     0.029 A 
ATOM     67  C   UNL     1      24.657  25.937  17.153  1.00  0.00     0.039 A 
ATOM     68  C   UNL     1      24.707  23.734  15.571  1.00  0.00     0.002 A 
ATOM     69  C   UNL     1      25.701  25.012  17.278  1.00  0.00     0.017 A 
ATOM     70  I   UNL     1      24.654  27.640  18.406  1.00  0.00    -0.042 I 
ATOM     71  C   UNL     1      25.727  23.898  16.478  1.00  0.00     0.001 A 
ENDBRANCH  63  65
ENDBRANCH  59  60
ENDBRANCH  58  59
ENDBRANCH  55  58
ENDBRANCH  53  54
ENDBRANCH  50  53
ENDBRANCH  47  50
ENDBRANCH   5  47
BRANCH   4  72
ATOM     72  N   UNL     1      17.153  32.163  20.593  1.00  0.00    -0.348 N 
ATOM     73  C   UNL     1      16.218  32.923  19.804  1.00  0.00     0.217 C 
ATOM     74  H   UNL     1      17.991  32.696  20.886  1.00  0.00     0.163 HD
ATOM     75  C   UNL     1      16.430  34.336  19.438  1.00  0.00     0.114 C 
ATOM     76  O   UNL     1      15.184  32.310  19.428  1.00  0.00    -0.275 OA
ENDBRANCH   4  72
TORSDOF 30
