REMARK VINA RESULT:    -5.244      6.018     11.758
REMARK INTER + INTRA:         -21.643
REMARK INTER:                 -15.434
REMARK INTRA:                  -6.209
REMARK UNBOUND:                -8.275
REMARK SMILES CC(=O)N[C@@H]1[C@@H](O)C[C@](OC[C@H]2O[C@@H](O[C@H]3[C@H](O)[C@@H](O)[C@H](OCCN=[N+]=[N-])O[C@@H]3CO)[C@H](O)[C@@H](O)[C@H]2O)(C(=O)O)O[C@H]1C(O)[C@H](O)CNC(=O)OCc1cn(C(C)(C)C(=O)O)nn1
REMARK SMILES IDX 9 1 8 2 6 3 5 4 42 5 41 6 10 7 11 8 12 9 14 10 13 11 32 12
REMARK SMILES IDX 34 13 36 14 15 15 16 16 29 17 28 18 21 19 17 20 19 21 30 22
REMARK SMILES IDX 31 23 22 25 23 26 24 27 25 28 26 29 27 30 18 31 20 33 33 35
REMARK SMILES IDX 35 37 37 39 38 41 39 42 40 43 7 45 43 47 44 48 45 50 46 51
REMARK SMILES IDX 47 53 48 54 49 55 50 57 51 58 52 59 53 60 54 61 63 62 55 63
REMARK SMILES IDX 62 64 56 65 57 66 58 67 59 68 60 69 61 70 4 72 2 73 1 75
REMARK SMILES IDX 3 76
REMARK H PARENT 31 24 18 32 20 34 33 36 35 38 37 40 40 44 7 46 44 49 46 52
REMARK H PARENT 48 56 61 71 4 74
REMARK Flexibility Score: inf
ROOT
ATOM      1  C   UNL     1      20.276  28.560  19.089  1.00  0.00     0.272 C 
ATOM      2  C   UNL     1      21.025  29.735  19.564  1.00  0.00     0.113 C 
ATOM      3  C   UNL     1      20.880  30.034  21.029  1.00  0.00     0.145 C 
ATOM      4  C   UNL     1      19.574  29.502  21.535  1.00  0.00     0.142 C 
ATOM      5  C   UNL     1      18.615  29.552  20.331  1.00  0.00     0.178 C 
ATOM      6  O   UNL     1      18.944  28.496  19.513  1.00  0.00    -0.332 OA
ENDROOT
BRANCH   1   7
ATOM      7  O   UNL     1      20.855  27.360  19.367  1.00  0.00    -0.338 OA
BRANCH   7   8
ATOM      8  C   UNL     1      21.930  26.969  18.632  1.00  0.00     0.199 C 
BRANCH   8   9
ATOM      9  C   UNL     1      23.069  26.516  19.518  1.00  0.00     0.179 C 
ATOM     10  C   UNL     1      23.664  26.386  21.745  1.00  0.00     0.282 C 
ATOM     11  O   UNL     1      22.569  26.533  20.818  1.00  0.00    -0.341 OA
ATOM     12  C   UNL     1      24.134  24.988  21.608  1.00  0.00     0.202 C 
ATOM     13  C   UNL     1      23.492  24.281  20.415  1.00  0.00     0.179 C 
ATOM     14  C   UNL     1      23.543  25.155  19.171  1.00  0.00     0.177 C 
BRANCH  10  15
ATOM     15  O   UNL     1      23.129  26.784  22.932  1.00  0.00    -0.341 OA
BRANCH  15  16
ATOM     16  C   UNL     1      23.220  25.861  23.959  1.00  0.00     0.184 C 
ATOM     17  C   UNL     1      21.866  25.635  24.555  1.00  0.00     0.178 C 
ATOM     18  O   UNL     1      21.958  25.121  25.858  1.00  0.00    -0.341 OA
ATOM     19  C   UNL     1      22.369  26.071  26.781  1.00  0.00     0.281 C 
ATOM     20  C   UNL     1      24.125  26.390  25.073  1.00  0.00     0.180 C 
ATOM     21  C   UNL     1      23.290  27.077  26.124  1.00  0.00     0.202 C 
BRANCH  17  22
ATOM     22  C   UNL     1      21.080  24.565  23.778  1.00  0.00     0.191 C 
BRANCH  22  23
ATOM     23  O   UNL     1      20.567  25.170  22.650  1.00  0.00    -0.394 OA
ATOM     24  H   UNL     1      20.324  26.116  22.880  1.00  0.00     0.210 HD
ENDBRANCH  22  23
ENDBRANCH  17  22
BRANCH  19  25
ATOM     25  O   UNL     1      23.024  25.371  27.794  1.00  0.00    -0.350 OA
BRANCH  25  26
ATOM     26  C   UNL     1      23.364  26.123  28.888  1.00  0.00     0.169 C 
BRANCH  26  27
ATOM     27  C   UNL     1      24.825  25.776  29.207  1.00  0.00     0.119 C 
BRANCH  27  28
ATOM     28  N   UNL     1      25.012  25.436  30.598  1.00  0.00    -0.092 NA
ATOM     29  N   UNL     1      26.171  25.353  31.031  1.00  0.00     0.001 N 
ATOM     30  N   UNL     1      27.304  25.041  31.370  1.00  0.00    -0.003 NA
ENDBRANCH  27  28
ENDBRANCH  26  27
ENDBRANCH  25  26
ENDBRANCH  19  25
BRANCH  20  31
ATOM     31  O   UNL     1      24.780  25.322  25.678  1.00  0.00    -0.387 OA
ATOM     32  H   UNL     1      25.750  25.478  25.792  1.00  0.00     0.211 HD
ENDBRANCH  20  31
BRANCH  21  33
ATOM     33  O   UNL     1      22.582  28.103  25.512  1.00  0.00    -0.385 OA
ATOM     34  H   UNL     1      22.702  28.136  24.533  1.00  0.00     0.211 HD
ENDBRANCH  21  33
ENDBRANCH  15  16
ENDBRANCH  10  15
BRANCH  12  35
ATOM     35  O   UNL     1      25.512  25.014  21.301  1.00  0.00    -0.385 OA
ATOM     36  H   UNL     1      26.085  25.172  22.066  1.00  0.00     0.211 HD
ENDBRANCH  12  35
BRANCH  13  37
ATOM     37  O   UNL     1      22.199  23.900  20.719  1.00  0.00    -0.387 OA
ATOM     38  H   UNL     1      21.947  23.087  20.211  1.00  0.00     0.211 HD
ENDBRANCH  13  37
BRANCH  14  39
ATOM     39  O   UNL     1      22.719  24.560  18.229  1.00  0.00    -0.387 OA
ATOM     40  H   UNL     1      23.293  24.275  17.461  1.00  0.00     0.211 HD
ENDBRANCH  14  39
ENDBRANCH   8   9
ENDBRANCH   7   8
ENDBRANCH   1   7
BRANCH   1  41
ATOM     41  C   UNL     1      20.133  28.720  17.570  1.00  0.00     0.364 C 
ATOM     42  O   UNL     1      20.932  29.444  16.936  1.00  0.00    -0.246 OA
BRANCH  41  43
ATOM     43  O   UNL     1      19.129  28.076  16.875  1.00  0.00    -0.477 OA
ATOM     44  H   UNL     1      19.242  27.685  15.953  1.00  0.00     0.296 HD
ENDBRANCH  41  43
ENDBRANCH   1  41
BRANCH   3  45
ATOM     45  O   UNL     1      21.912  29.433  21.718  1.00  0.00    -0.391 OA
ATOM     46  H   UNL     1      22.793  29.571  21.283  1.00  0.00     0.211 HD
ENDBRANCH   3  45
BRANCH   5  47
ATOM     47  C   UNL     1      17.180  29.467  20.766  1.00  0.00     0.176 C 
BRANCH  47  48
ATOM     48  O   UNL     1      16.658  30.751  20.899  1.00  0.00    -0.388 OA
ATOM     49  H   UNL     1      16.875  31.307  20.093  1.00  0.00     0.211 HD
ENDBRANCH  47  48
BRANCH  47  50
ATOM     50  C   UNL     1      16.368  28.737  19.721  1.00  0.00     0.165 C 
BRANCH  50  51
ATOM     51  O   UNL     1      16.592  29.276  18.447  1.00  0.00    -0.388 OA
ATOM     52  H   UNL     1      16.809  30.229  18.552  1.00  0.00     0.211 HD
ENDBRANCH  50  51
BRANCH  50  53
ATOM     53  C   UNL     1      14.888  28.775  19.997  1.00  0.00     0.154 C 
BRANCH  53  54
ATOM     54  N   UNL     1      14.613  28.753  21.413  1.00  0.00    -0.319 N 
ATOM     55  C   UNL     1      13.547  29.498  21.974  1.00  0.00     0.407 C 
ATOM     56  H   UNL     1      15.203  28.182  22.050  1.00  0.00     0.167 HD
ATOM     57  O   UNL     1      12.788  30.212  21.271  1.00  0.00    -0.225 OA
BRANCH  55  58
ATOM     58  O   UNL     1      13.292  29.471  23.353  1.00  0.00    -0.443 OA
BRANCH  58  59
ATOM     59  C   UNL     1      12.458  30.489  23.917  1.00  0.00     0.294 C 
BRANCH  59  60
ATOM     60  C   UNL     1      11.099  29.998  24.140  1.00  0.00     0.120 A 
ATOM     61  C   UNL     1       9.945  30.737  24.087  1.00  0.00     0.139 A 
ATOM     62  N   UNL     1      10.747  28.744  24.436  1.00  0.00    -0.132 NA
ATOM     63  N   UNL     1       8.909  29.919  24.352  1.00  0.00    -0.235 N 
ATOM     64  N   UNL     1       9.447  28.712  24.558  1.00  0.00    -0.066 NA
BRANCH  63  65
ATOM     65  C   UNL     1       7.493  30.216  24.416  1.00  0.00     0.155 C 
ATOM     66  C   UNL     1       7.055  30.941  23.178  1.00  0.00     0.049 C 
ATOM     67  C   UNL     1       7.181  31.105  25.616  1.00  0.00     0.049 C 
BRANCH  65  68
ATOM     68  C   UNL     1       6.767  28.939  24.602  1.00  0.00     0.331 C 
ATOM     69  O   UNL     1       6.104  28.475  23.662  1.00  0.00    -0.250 OA
BRANCH  68  70
ATOM     70  O   UNL     1       6.847  28.294  25.823  1.00  0.00    -0.479 OA
ATOM     71  H   UNL     1       6.624  28.750  26.700  1.00  0.00     0.296 HD
ENDBRANCH  68  70
ENDBRANCH  65  68
ENDBRANCH  63  65
ENDBRANCH  59  60
ENDBRANCH  58  59
ENDBRANCH  55  58
ENDBRANCH  53  54
ENDBRANCH  50  53
ENDBRANCH  47  50
ENDBRANCH   5  47
BRANCH   4  72
ATOM     72  N   UNL     1      18.984  30.341  22.546  1.00  0.00    -0.348 N 
ATOM     73  C   UNL     1      19.211  30.186  23.943  1.00  0.00     0.217 C 
ATOM     74  H   UNL     1      18.356  31.110  22.241  1.00  0.00     0.163 HD
ATOM     75  C   UNL     1      18.557  31.101  24.928  1.00  0.00     0.114 C 
ATOM     76  O   UNL     1      19.971  29.266  24.344  1.00  0.00    -0.275 OA
ENDBRANCH   4  72
TORSDOF 32
