REMARK VINA RESULT:    -6.017      3.585      9.628
REMARK INTER + INTRA:         -21.310
REMARK INTER:                 -15.464
REMARK INTRA:                  -5.846
REMARK UNBOUND:                -5.091
REMARK SMILES C=CCCCCn1cc(COC(=O)NC[C@@H](O)C(O)[C@@H]2O[C@@](OC[C@H]3O[C@@H](O[C@H]4[C@H](O)[C@@H](O)[C@H](OCCN=[N+]=[N-])O[C@@H]4CO)[C@H](O)[C@@H](O)[C@H]3O)(C(=O)O)C[C@H](O)[C@H]2NC(C)=O)nn1
REMARK SMILES IDX 18 1 20 2 22 3 54 4 21 5 55 6 57 7 23 8 24 9 25 10 27 11
REMARK SMILES IDX 26 12 45 13 47 14 49 15 28 16 29 17 42 18 41 19 34 20 30 21
REMARK SMILES IDX 32 22 43 23 44 24 35 26 36 27 37 28 38 29 39 30 40 31 31 32
REMARK SMILES IDX 33 34 46 36 48 38 50 40 51 42 52 43 53 44 56 46 58 48 59 49
REMARK SMILES IDX 60 51 61 52 19 53 16 55 17 56 15 58 14 59 12 60 13 62 11 63
REMARK SMILES IDX 10 64 9 65 8 66 62 67 7 68 63 69 6 70 5 71 4 72 3 73 2 74
REMARK SMILES IDX 1 75
REMARK H PARENT 44 25 31 33 33 35 46 37 48 39 50 41 53 45 56 47 58 50 19 54
REMARK H PARENT 17 57 14 61
REMARK Flexibility Score: inf
ROOT
ATOM      1  C   UNL     1      13.242  30.192  21.047  1.00  0.00     0.176 C 
ENDROOT
BRANCH   1   2
ATOM      2  C   UNL     1      13.408  30.567  22.523  1.00  0.00     0.178 C 
ATOM      3  C   UNL     1      15.025  31.063  24.080  1.00  0.00     0.272 C 
ATOM      4  C   UNL     1      14.289  30.306  25.106  1.00  0.00     0.113 C 
ATOM      5  O   UNL     1      14.719  30.437  22.813  1.00  0.00    -0.332 OA
ATOM      6  C   UNL     1      12.839  30.207  24.911  1.00  0.00     0.145 C 
ATOM      7  C   UNL     1      12.391  30.125  23.461  1.00  0.00     0.142 C 
BRANCH   3   8
ATOM      8  O   UNL     1      16.397  30.861  24.105  1.00  0.00    -0.338 OA
BRANCH   8   9
ATOM      9  C   UNL     1      17.189  31.366  25.030  1.00  0.00     0.199 C 
BRANCH   9  10
ATOM     10  C   UNL     1      18.659  31.409  24.864  1.00  0.00     0.179 C 
ATOM     11  C   UNL     1      20.574  30.270  25.587  1.00  0.00     0.282 C 
ATOM     12  O   UNL     1      19.293  30.652  25.878  1.00  0.00    -0.341 OA
ATOM     13  C   UNL     1      21.206  31.030  24.488  1.00  0.00     0.202 C 
ATOM     14  C   UNL     1      20.402  31.083  23.217  1.00  0.00     0.179 C 
ATOM     15  C   UNL     1      18.984  30.725  23.542  1.00  0.00     0.177 C 
BRANCH  11  16
ATOM     16  O   UNL     1      20.602  28.902  25.529  1.00  0.00    -0.341 OA
BRANCH  16  17
ATOM     17  C   UNL     1      21.753  28.286  25.919  1.00  0.00     0.184 C 
ATOM     18  C   UNL     1      21.465  26.828  26.187  1.00  0.00     0.178 C 
ATOM     19  O   UNL     1      22.172  26.372  27.312  1.00  0.00    -0.341 OA
ATOM     20  C   UNL     1      21.501  26.848  28.435  1.00  0.00     0.281 C 
ATOM     21  C   UNL     1      22.270  28.857  27.260  1.00  0.00     0.180 C 
ATOM     22  C   UNL     1      21.415  28.344  28.396  1.00  0.00     0.202 C 
BRANCH  18  23
ATOM     23  C   UNL     1      21.744  25.937  24.987  1.00  0.00     0.191 C 
BRANCH  23  24
ATOM     24  O   UNL     1      20.841  26.184  23.968  1.00  0.00    -0.394 OA
ATOM     25  H   UNL     1      20.173  26.837  24.285  1.00  0.00     0.210 HD
ENDBRANCH  23  24
ENDBRANCH  18  23
BRANCH  20  26
ATOM     26  O   UNL     1      22.235  26.426  29.545  1.00  0.00    -0.350 OA
BRANCH  26  27
ATOM     27  C   UNL     1      23.240  25.529  29.237  1.00  0.00     0.169 C 
BRANCH  27  28
ATOM     28  C   UNL     1      24.251  25.576  30.369  1.00  0.00     0.119 C 
BRANCH  28  29
ATOM     29  N   UNL     1      25.600  25.677  29.879  1.00  0.00    -0.092 NA
ATOM     30  N   UNL     1      26.564  25.452  30.601  1.00  0.00     0.001 N 
ATOM     31  N   UNL     1      27.426  25.028  31.371  1.00  0.00    -0.003 NA
ENDBRANCH  28  29
ENDBRANCH  27  28
ENDBRANCH  26  27
ENDBRANCH  20  26
BRANCH  21  32
ATOM     32  O   UNL     1      23.547  28.327  27.429  1.00  0.00    -0.387 OA
ATOM     33  H   UNL     1      24.246  28.998  27.563  1.00  0.00     0.211 HD
ENDBRANCH  21  32
BRANCH  22  34
ATOM     34  O   UNL     1      20.112  28.823  28.283  1.00  0.00    -0.385 OA
ATOM     35  H   UNL     1      20.173  29.763  27.959  1.00  0.00     0.211 HD
ENDBRANCH  22  34
ENDBRANCH  16  17
ENDBRANCH  11  16
BRANCH  13  36
ATOM     36  O   UNL     1      21.388  32.347  24.933  1.00  0.00    -0.385 OA
ATOM     37  H   UNL     1      22.140  32.788  24.498  1.00  0.00     0.211 HD
ENDBRANCH  13  36
BRANCH  14  38
ATOM     38  O   UNL     1      20.926  30.253  22.225  1.00  0.00    -0.387 OA
ATOM     39  H   UNL     1      20.260  29.556  22.053  1.00  0.00     0.211 HD
ENDBRANCH  14  38
BRANCH  15  40
ATOM     40  O   UNL     1      18.797  29.341  23.644  1.00  0.00    -0.387 OA
ATOM     41  H   UNL     1      18.018  29.096  24.176  1.00  0.00     0.211 HD
ENDBRANCH  15  40
ENDBRANCH   9  10
ENDBRANCH   8   9
ENDBRANCH   3   8
BRANCH   3  42
ATOM     42  C   UNL     1      14.549  32.433  23.937  1.00  0.00     0.364 C 
ATOM     43  O   UNL     1      13.960  33.014  24.874  1.00  0.00    -0.246 OA
BRANCH  42  44
ATOM     44  O   UNL     1      14.709  33.146  22.786  1.00  0.00    -0.477 OA
ATOM     45  H   UNL     1      15.272  33.977  22.742  1.00  0.00     0.296 HD
ENDBRANCH  42  44
ENDBRANCH   3  42
BRANCH   6  46
ATOM     46  O   UNL     1      12.362  29.078  25.623  1.00  0.00    -0.391 OA
ATOM     47  H   UNL     1      11.559  28.687  25.195  1.00  0.00     0.211 HD
ENDBRANCH   6  46
BRANCH   7  48
ATOM     48  N   UNL     1      11.172  30.941  23.299  1.00  0.00    -0.348 N 
ATOM     49  C   UNL     1       9.911  30.560  23.812  1.00  0.00     0.217 C 
ATOM     50  H   UNL     1      11.187  31.861  22.779  1.00  0.00     0.163 HD
ATOM     51  C   UNL     1       8.698  31.434  23.603  1.00  0.00     0.114 C 
ATOM     52  O   UNL     1       9.817  29.478  24.446  1.00  0.00    -0.275 OA
ENDBRANCH   7  48
ENDBRANCH   1   2
BRANCH   1  53
ATOM     53  O   UNL     1      12.585  31.402  20.468  1.00  0.00    -0.388 OA
ATOM     54  H   UNL     1      11.620  31.161  20.644  1.00  0.00     0.211 HD
ENDBRANCH   1  53
BRANCH   1  55
ATOM     55  C   UNL     1      14.475  30.150  20.262  1.00  0.00     0.165 C 
BRANCH  55  56
ATOM     56  O   UNL     1      15.190  31.367  20.186  1.00  0.00    -0.388 OA
ATOM     57  H   UNL     1      15.650  31.338  19.311  1.00  0.00     0.211 HD
ENDBRANCH  55  56
BRANCH  55  58
ATOM     58  C   UNL     1      14.484  29.496  18.945  1.00  0.00     0.154 C 
BRANCH  58  59
ATOM     59  N   UNL     1      15.752  29.157  18.426  1.00  0.00    -0.319 N 
ATOM     60  C   UNL     1      16.601  28.071  18.673  1.00  0.00     0.407 C 
ATOM     61  H   UNL     1      16.150  29.864  17.698  1.00  0.00     0.167 HD
ATOM     62  O   UNL     1      16.289  27.182  19.482  1.00  0.00    -0.225 OA
BRANCH  60  63
ATOM     63  O   UNL     1      17.833  27.944  18.018  1.00  0.00    -0.443 OA
BRANCH  63  64
ATOM     64  C   UNL     1      18.880  28.845  18.379  1.00  0.00     0.294 C 
BRANCH  64  65
ATOM     65  C   UNL     1      19.698  28.284  19.484  1.00  0.00     0.120 A 
ATOM     66  C   UNL     1      20.977  27.751  19.332  1.00  0.00     0.138 A 
ATOM     67  N   UNL     1      19.407  28.168  20.788  1.00  0.00    -0.132 NA
ATOM     68  N   UNL     1      21.388  27.345  20.537  1.00  0.00    -0.252 N 
ATOM     69  N   UNL     1      20.444  27.597  21.407  1.00  0.00    -0.067 NA
BRANCH  68  70
ATOM     70  C   UNL     1      22.698  26.726  20.781  1.00  0.00     0.146 C 
BRANCH  70  71
ATOM     71  C   UNL     1      22.888  25.593  19.810  1.00  0.00     0.024 C 
BRANCH  71  72
ATOM     72  C   UNL     1      23.825  24.582  20.435  1.00  0.00     0.006 C 
BRANCH  72  73
ATOM     73  C   UNL     1      23.398  24.297  21.857  1.00  0.00     0.027 C 
BRANCH  73  74
ATOM     74  C   UNL     1      24.548  23.889  22.694  1.00  0.00    -0.035 C 
ATOM     75  C   UNL     1      24.996  24.682  23.647  1.00  0.00     0.004 C 
ENDBRANCH  73  74
ENDBRANCH  72  73
ENDBRANCH  71  72
ENDBRANCH  70  71
ENDBRANCH  68  70
ENDBRANCH  64  65
ENDBRANCH  63  64
ENDBRANCH  60  63
ENDBRANCH  58  59
ENDBRANCH  55  58
ENDBRANCH   1  55
TORSDOF 34
