REMARK VINA RESULT:    -5.813      4.694     11.789
REMARK INTER + INTRA:         -21.854
REMARK INTER:                 -14.379
REMARK INTRA:                  -7.475
REMARK UNBOUND:                -7.546
REMARK SMILES CC(=O)N[C@@H]1[C@@H](O)C[C@](OC[C@H]2O[C@@H](O[C@H]3[C@H](O)[C@@H](O)[C@H](OCCN=[N+]=[N-])O[C@@H]3CO)[C@H](O)[C@@H](O)[C@H]2O)(C(=O)O)O[C@H]1C(O)[C@H](O)CNC(=O)OCc1cn(-c2ccc3[nH]ncc3c2)nn1
REMARK SMILES IDX 9 1 8 2 6 3 5 4 42 5 41 6 10 7 11 8 12 9 14 10 13 11 32 12
REMARK SMILES IDX 34 13 36 14 15 15 16 16 29 17 28 18 21 19 17 20 19 21 30 22
REMARK SMILES IDX 31 23 22 25 23 26 24 27 25 28 26 29 27 30 18 31 20 33 33 35
REMARK SMILES IDX 35 37 37 39 38 41 39 42 40 43 7 45 43 47 44 48 45 50 46 51
REMARK SMILES IDX 47 53 48 54 49 55 50 57 51 58 52 59 53 60 54 61 66 62 55 63
REMARK SMILES IDX 65 64 56 65 57 66 64 67 58 68 63 69 59 70 62 71 60 72 61 73
REMARK SMILES IDX 4 75 2 76 1 78 3 79
REMARK H PARENT 31 24 18 32 20 34 33 36 35 38 37 40 40 44 7 46 44 49 46 52
REMARK H PARENT 48 56 60 74 4 77
REMARK Flexibility Score: inf
ROOT
ATOM      1  C   UNL     1      22.609  28.551  21.353  1.00  0.00     0.272 C 
ATOM      2  C   UNL     1      23.574  29.281  20.491  1.00  0.00     0.113 C 
ATOM      3  C   UNL     1      22.975  30.328  19.588  1.00  0.00     0.145 C 
ATOM      4  C   UNL     1      22.261  31.312  20.552  1.00  0.00     0.142 C 
ATOM      5  C   UNL     1      21.325  30.472  21.332  1.00  0.00     0.178 C 
ATOM      6  O   UNL     1      21.819  29.450  22.065  1.00  0.00    -0.332 OA
ENDROOT
BRANCH   1   7
ATOM      7  O   UNL     1      23.342  27.780  22.281  1.00  0.00    -0.338 OA
BRANCH   7   8
ATOM      8  C   UNL     1      23.981  26.700  21.767  1.00  0.00     0.199 C 
BRANCH   8   9
ATOM      9  C   UNL     1      24.076  25.545  22.789  1.00  0.00     0.179 C 
ATOM     10  C   UNL     1      22.427  24.873  24.271  1.00  0.00     0.282 C 
ATOM     11  O   UNL     1      23.391  25.838  23.930  1.00  0.00    -0.341 OA
ATOM     12  C   UNL     1      21.428  24.866  23.159  1.00  0.00     0.202 C 
ATOM     13  C   UNL     1      22.127  24.221  21.953  1.00  0.00     0.179 C 
ATOM     14  C   UNL     1      23.621  24.259  22.128  1.00  0.00     0.177 C 
BRANCH  10  15
ATOM     15  O   UNL     1      21.919  25.153  25.526  1.00  0.00    -0.341 OA
BRANCH  15  16
ATOM     16  C   UNL     1      22.260  26.449  25.889  1.00  0.00     0.184 C 
ATOM     17  C   UNL     1      22.896  26.575  27.240  1.00  0.00     0.178 C 
ATOM     18  O   UNL     1      23.279  27.840  27.485  1.00  0.00    -0.341 OA
ATOM     19  C   UNL     1      22.769  28.887  26.786  1.00  0.00     0.281 C 
ATOM     20  C   UNL     1      20.977  27.293  26.025  1.00  0.00     0.180 C 
ATOM     21  C   UNL     1      21.405  28.707  26.211  1.00  0.00     0.202 C 
BRANCH  17  22
ATOM     22  C   UNL     1      24.067  25.642  27.467  1.00  0.00     0.191 C 
BRANCH  22  23
ATOM     23  O   UNL     1      23.667  24.323  27.579  1.00  0.00    -0.394 OA
ATOM     24  H   UNL     1      24.311  23.797  27.014  1.00  0.00     0.210 HD
ENDBRANCH  22  23
ENDBRANCH  17  22
BRANCH  19  25
ATOM     25  O   UNL     1      23.673  29.210  25.804  1.00  0.00    -0.350 OA
BRANCH  25  26
ATOM     26  C   UNL     1      23.322  30.182  24.933  1.00  0.00     0.169 C 
BRANCH  26  27
ATOM     27  C   UNL     1      23.412  31.569  25.482  1.00  0.00     0.119 C 
BRANCH  27  28
ATOM     28  N   UNL     1      22.246  32.383  25.304  1.00  0.00    -0.092 NA
ATOM     29  N   UNL     1      21.367  32.499  26.135  1.00  0.00     0.001 N 
ATOM     30  N   UNL     1      20.317  32.347  26.799  1.00  0.00    -0.003 NA
ENDBRANCH  27  28
ENDBRANCH  26  27
ENDBRANCH  25  26
ENDBRANCH  19  25
BRANCH  20  31
ATOM     31  O   UNL     1      20.142  27.128  24.953  1.00  0.00    -0.387 OA
ATOM     32  H   UNL     1      19.606  27.933  24.734  1.00  0.00     0.211 HD
ENDBRANCH  20  31
BRANCH  21  33
ATOM     33  O   UNL     1      20.429  29.336  27.006  1.00  0.00    -0.385 OA
ATOM     34  H   UNL     1      20.261  30.266  26.706  1.00  0.00     0.211 HD
ENDBRANCH  21  33
ENDBRANCH  15  16
ENDBRANCH  10  15
BRANCH  12  35
ATOM     35  O   UNL     1      20.234  24.247  23.426  1.00  0.00    -0.385 OA
ATOM     36  H   UNL     1      19.913  24.436  24.360  1.00  0.00     0.211 HD
ENDBRANCH  12  35
BRANCH  13  37
ATOM     37  O   UNL     1      21.676  24.741  20.758  1.00  0.00    -0.387 OA
ATOM     38  H   UNL     1      20.896  24.177  20.470  1.00  0.00     0.211 HD
ENDBRANCH  13  37
BRANCH  14  39
ATOM     39  O   UNL     1      24.175  24.248  20.823  1.00  0.00    -0.387 OA
ATOM     40  H   UNL     1      24.026  25.078  20.347  1.00  0.00     0.211 HD
ENDBRANCH  14  39
ENDBRANCH   8   9
ENDBRANCH   7   8
ENDBRANCH   1   7
BRANCH   1  41
ATOM     41  C   UNL     1      21.653  27.684  20.613  1.00  0.00     0.364 C 
ATOM     42  O   UNL     1      22.015  27.292  19.454  1.00  0.00    -0.246 OA
BRANCH  41  43
ATOM     43  O   UNL     1      20.429  27.261  21.029  1.00  0.00    -0.477 OA
ATOM     44  H   UNL     1      20.043  26.342  20.809  1.00  0.00     0.296 HD
ENDBRANCH  41  43
ENDBRANCH   1  41
BRANCH   3  45
ATOM     45  O   UNL     1      24.003  30.973  18.928  1.00  0.00    -0.391 OA
ATOM     46  H   UNL     1      24.747  30.342  18.687  1.00  0.00     0.211 HD
ENDBRANCH   3  45
BRANCH   5  47
ATOM     47  C   UNL     1      20.301  31.301  22.047  1.00  0.00     0.176 C 
BRANCH  47  48
ATOM     48  O   UNL     1      19.225  31.409  21.091  1.00  0.00    -0.388 OA
ATOM     49  H   UNL     1      18.360  31.362  21.546  1.00  0.00     0.211 HD
ENDBRANCH  47  48
BRANCH  47  50
ATOM     50  C   UNL     1      19.665  30.657  23.255  1.00  0.00     0.165 C 
BRANCH  50  51
ATOM     51  O   UNL     1      19.294  29.352  22.825  1.00  0.00    -0.388 OA
ATOM     52  H   UNL     1      19.912  28.993  22.165  1.00  0.00     0.211 HD
ENDBRANCH  50  51
BRANCH  50  53
ATOM     53  C   UNL     1      18.465  31.338  23.796  1.00  0.00     0.154 C 
BRANCH  53  54
ATOM     54  N   UNL     1      17.256  31.246  23.057  1.00  0.00    -0.319 N 
ATOM     55  C   UNL     1      16.289  30.214  23.115  1.00  0.00     0.407 C 
ATOM     56  H   UNL     1      17.015  32.030  22.369  1.00  0.00     0.167 HD
ATOM     57  O   UNL     1      16.421  29.250  23.875  1.00  0.00    -0.225 OA
BRANCH  55  58
ATOM     58  O   UNL     1      15.160  30.274  22.304  1.00  0.00    -0.443 OA
BRANCH  58  59
ATOM     59  C   UNL     1      14.637  29.223  21.550  1.00  0.00     0.294 C 
BRANCH  59  60
ATOM     60  C   UNL     1      15.489  28.771  20.442  1.00  0.00     0.121 A 
ATOM     61  C   UNL     1      15.594  29.354  19.199  1.00  0.00     0.144 A 
ATOM     62  N   UNL     1      16.306  27.697  20.450  1.00  0.00    -0.131 NA
ATOM     63  N   UNL     1      16.467  28.606  18.521  1.00  0.00    -0.220 N 
ATOM     64  N   UNL     1      16.884  27.616  19.290  1.00  0.00    -0.062 NA
BRANCH  63  65
ATOM     65  C   UNL     1      16.874  28.850  17.174  1.00  0.00     0.067 A 
ATOM     66  C   UNL     1      15.946  29.080  16.183  1.00  0.00     0.030 A 
ATOM     67  C   UNL     1      18.209  28.856  16.842  1.00  0.00     0.040 A 
ATOM     68  C   UNL     1      16.339  29.311  14.888  1.00  0.00     0.030 A 
ATOM     69  C   UNL     1      18.590  29.092  15.524  1.00  0.00     0.022 A 
ATOM     70  C   UNL     1      17.670  29.325  14.517  1.00  0.00     0.065 A 
ATOM     71  C   UNL     1      19.841  29.149  14.954  1.00  0.00     0.143 A 
ATOM     72  N   UNL     1      18.352  29.516  13.375  1.00  0.00    -0.278 N 
ATOM     73  N   UNL     1      19.631  29.409  13.653  1.00  0.00    -0.183 NA
ATOM     74  H   UNL     1      17.910  29.713  12.444  1.00  0.00     0.190 HD
ENDBRANCH  63  65
ENDBRANCH  59  60
ENDBRANCH  58  59
ENDBRANCH  55  58
ENDBRANCH  53  54
ENDBRANCH  50  53
ENDBRANCH  47  50
ENDBRANCH   5  47
BRANCH   4  75
ATOM     75  N   UNL     1      21.495  32.154  19.627  1.00  0.00    -0.348 N 
ATOM     76  C   UNL     1      21.950  33.446  19.352  1.00  0.00     0.217 C 
ATOM     77  H   UNL     1      20.628  31.822  19.175  1.00  0.00     0.163 HD
ATOM     78  C   UNL     1      21.223  34.373  18.423  1.00  0.00     0.114 C 
ATOM     79  O   UNL     1      23.023  33.862  19.901  1.00  0.00    -0.275 OA
ENDBRANCH   4  75
TORSDOF 30
