REMARK VINA RESULT:    -7.459      5.180     12.941
REMARK INTER + INTRA:         -23.954
REMARK INTER:                 -18.259
REMARK INTRA:                  -5.694
REMARK UNBOUND:                -5.593
REMARK SMILES CC(=O)N[C@@H]1[C@@H](O)C[C@](OC[C@H]2O[C@@H](O[C@H]3[C@H](O)[C@@H](O)[C@H](OCCN=[N+]=[N-])O[C@@H]3CO)[C@H](O)[C@@H](O)[C@H]2O)(C(=O)O)O[C@H]1C(O)[C@H](O)CNC(=O)OCc1cn(C2c3ccccc3-c3ccccc32)nn1
REMARK SMILES IDX 9 1 8 2 6 3 5 4 42 5 41 6 10 7 11 8 12 9 14 10 13 11 32 12
REMARK SMILES IDX 34 13 36 14 15 15 16 16 29 17 28 18 21 19 17 20 19 21 30 22
REMARK SMILES IDX 31 23 22 25 23 26 24 27 25 28 26 29 27 30 18 31 20 33 33 35
REMARK SMILES IDX 35 37 37 39 38 41 39 42 40 43 7 45 43 47 44 48 45 50 46 51
REMARK SMILES IDX 47 53 48 54 49 55 50 57 51 58 52 59 53 60 54 61 70 62 55 63
REMARK SMILES IDX 69 64 56 65 57 66 68 67 58 68 62 69 63 70 67 71 59 72 61 73
REMARK SMILES IDX 64 74 66 75 60 76 65 77 4 78 2 79 1 81 3 82
REMARK H PARENT 31 24 18 32 20 34 33 36 35 38 37 40 40 44 7 46 44 49 46 52
REMARK H PARENT 48 56 4 80
REMARK Flexibility Score: inf
ROOT
ATOM      1  C   UNL     1      15.436  29.288  19.649  1.00  0.00     0.272 C 
ATOM      2  C   UNL     1      14.077  28.858  20.026  1.00  0.00     0.113 C 
ATOM      3  C   UNL     1      13.566  29.538  21.239  1.00  0.00     0.145 C 
ATOM      4  C   UNL     1      14.642  30.119  22.114  1.00  0.00     0.142 C 
ATOM      5  C   UNL     1      15.886  29.318  21.947  1.00  0.00     0.178 C 
ATOM      6  O   UNL     1      16.373  29.180  20.687  1.00  0.00    -0.332 OA
ENDROOT
BRANCH   1   7
ATOM      7  O   UNL     1      15.489  30.566  19.159  1.00  0.00    -0.338 OA
BRANCH   7   8
ATOM      8  C   UNL     1      14.504  30.934  18.284  1.00  0.00     0.199 C 
BRANCH   8   9
ATOM      9  C   UNL     1      14.786  32.317  17.739  1.00  0.00     0.179 C 
ATOM     10  C   UNL     1      12.757  32.422  16.570  1.00  0.00     0.282 C 
ATOM     11  O   UNL     1      14.122  32.449  16.541  1.00  0.00    -0.341 OA
ATOM     12  C   UNL     1      12.223  33.268  17.661  1.00  0.00     0.202 C 
ATOM     13  C   UNL     1      13.338  34.280  17.985  1.00  0.00     0.179 C 
ATOM     14  C   UNL     1      14.396  33.409  18.697  1.00  0.00     0.177 C 
BRANCH  10  15
ATOM     15  O   UNL     1      12.263  31.151  16.444  1.00  0.00    -0.341 OA
BRANCH  15  16
ATOM     16  C   UNL     1      12.131  30.662  15.172  1.00  0.00     0.184 C 
ATOM     17  C   UNL     1      10.709  30.401  14.847  1.00  0.00     0.178 C 
ATOM     18  O   UNL     1      10.514  29.240  14.105  1.00  0.00    -0.341 OA
ATOM     19  C   UNL     1      11.523  28.959  13.243  1.00  0.00     0.281 C 
ATOM     20  C   UNL     1      12.981  29.394  15.158  1.00  0.00     0.180 C 
ATOM     21  C   UNL     1      12.708  28.454  14.059  1.00  0.00     0.202 C 
BRANCH  17  22
ATOM     22  C   UNL     1      10.085  31.536  14.065  1.00  0.00     0.191 C 
BRANCH  22  23
ATOM     23  O   UNL     1      11.072  32.484  13.699  1.00  0.00    -0.394 OA
ATOM     24  H   UNL     1      10.708  33.411  13.830  1.00  0.00     0.210 HD
ENDBRANCH  22  23
ENDBRANCH  17  22
BRANCH  19  25
ATOM     25  O   UNL     1      11.994  30.007  12.474  1.00  0.00    -0.350 OA
BRANCH  25  26
ATOM     26  C   UNL     1      12.880  29.641  11.501  1.00  0.00     0.169 C 
BRANCH  26  27
ATOM     27  C   UNL     1      12.304  29.204  10.198  1.00  0.00     0.119 C 
BRANCH  27  28
ATOM     28  N   UNL     1      12.339  27.769  10.009  1.00  0.00    -0.092 NA
ATOM     29  N   UNL     1      11.460  27.290   9.280  1.00  0.00     0.001 N 
ATOM     30  N   UNL     1      10.557  26.726   8.651  1.00  0.00    -0.003 NA
ENDBRANCH  27  28
ENDBRANCH  26  27
ENDBRANCH  25  26
ENDBRANCH  19  25
BRANCH  20  31
ATOM     31  O   UNL     1      14.351  29.762  15.087  1.00  0.00    -0.387 OA
ATOM     32  H   UNL     1      14.806  29.553  15.941  1.00  0.00     0.211 HD
ENDBRANCH  20  31
BRANCH  21  33
ATOM     33  O   UNL     1      12.338  27.201  14.568  1.00  0.00    -0.385 OA
ATOM     34  H   UNL     1      12.621  27.074  15.510  1.00  0.00     0.211 HD
ENDBRANCH  21  33
ENDBRANCH  15  16
ENDBRANCH  10  15
BRANCH  12  35
ATOM     35  O   UNL     1      11.132  34.048  17.280  1.00  0.00    -0.385 OA
ATOM     36  H   UNL     1      11.460  34.946  17.038  1.00  0.00     0.211 HD
ENDBRANCH  12  35
BRANCH  13  37
ATOM     37  O   UNL     1      12.920  35.223  18.894  1.00  0.00    -0.387 OA
ATOM     38  H   UNL     1      12.025  35.543  18.626  1.00  0.00     0.211 HD
ENDBRANCH  13  37
BRANCH  14  39
ATOM     39  O   UNL     1      13.749  32.854  19.785  1.00  0.00    -0.387 OA
ATOM     40  H   UNL     1      14.364  32.617  20.521  1.00  0.00     0.211 HD
ENDBRANCH  14  39
ENDBRANCH   8   9
ENDBRANCH   7   8
ENDBRANCH   1   7
BRANCH   1  41
ATOM     41  C   UNL     1      16.016  28.330  18.609  1.00  0.00     0.364 C 
ATOM     42  O   UNL     1      16.509  27.273  19.016  1.00  0.00    -0.246 OA
BRANCH  41  43
ATOM     43  O   UNL     1      15.996  28.624  17.268  1.00  0.00    -0.477 OA
ATOM     44  H   UNL     1      15.254  28.268  16.653  1.00  0.00     0.296 HD
ENDBRANCH  41  43
ENDBRANCH   1  41
BRANCH   3  45
ATOM     45  O   UNL     1      12.599  30.516  21.002  1.00  0.00    -0.391 OA
ATOM     46  H   UNL     1      12.265  30.931  21.810  1.00  0.00     0.211 HD
ENDBRANCH   3  45
BRANCH   5  47
ATOM     47  C   UNL     1      16.976  29.924  22.829  1.00  0.00     0.176 C 
BRANCH  47  48
ATOM     48  O   UNL     1      16.794  29.517  24.125  1.00  0.00    -0.388 OA
ATOM     49  H   UNL     1      16.771  28.515  24.194  1.00  0.00     0.211 HD
ENDBRANCH  47  48
BRANCH  47  50
ATOM     50  C   UNL     1      16.916  31.415  22.689  1.00  0.00     0.165 C 
BRANCH  50  51
ATOM     51  O   UNL     1      17.270  31.779  21.378  1.00  0.00    -0.388 OA
ATOM     52  H   UNL     1      16.468  31.899  20.823  1.00  0.00     0.211 HD
ENDBRANCH  50  51
BRANCH  50  53
ATOM     53  C   UNL     1      18.031  31.987  23.573  1.00  0.00     0.154 C 
BRANCH  53  54
ATOM     54  N   UNL     1      19.261  31.365  23.190  1.00  0.00    -0.319 N 
ATOM     55  C   UNL     1      19.977  30.561  24.101  1.00  0.00     0.407 C 
ATOM     56  H   UNL     1      19.635  31.505  22.221  1.00  0.00     0.167 HD
ATOM     57  O   UNL     1      19.563  30.377  25.275  1.00  0.00    -0.225 OA
BRANCH  55  58
ATOM     58  O   UNL     1      21.158  29.937  23.753  1.00  0.00    -0.443 OA
BRANCH  58  59
ATOM     59  C   UNL     1      21.523  29.668  22.408  1.00  0.00     0.294 C 
BRANCH  59  60
ATOM     60  C   UNL     1      21.415  28.201  22.205  1.00  0.00     0.120 A 
ATOM     61  C   UNL     1      22.253  27.205  22.688  1.00  0.00     0.139 A 
ATOM     62  N   UNL     1      20.468  27.558  21.506  1.00  0.00    -0.132 NA
ATOM     63  N   UNL     1      21.797  26.011  22.277  1.00  0.00    -0.240 N 
ATOM     64  N   UNL     1      20.712  26.261  21.561  1.00  0.00    -0.066 NA
BRANCH  63  65
ATOM     65  C   UNL     1      22.383  24.701  22.565  1.00  0.00     0.170 C 
ATOM     66  C   UNL     1      22.721  24.655  23.991  1.00  0.00    -0.011 A 
ATOM     67  C   UNL     1      23.683  24.557  21.886  1.00  0.00    -0.011 A 
ATOM     68  C   UNL     1      21.936  24.735  25.134  1.00  0.00     0.007 A 
ATOM     69  C   UNL     1      24.070  24.504  24.168  1.00  0.00    -0.012 A 
ATOM     70  C   UNL     1      24.669  24.444  22.837  1.00  0.00    -0.012 A 
ATOM     71  C   UNL     1      24.046  24.518  20.552  1.00  0.00     0.007 A 
ATOM     72  C   UNL     1      22.504  24.664  26.386  1.00  0.00     0.000 A 
ATOM     73  C   UNL     1      24.641  24.433  25.431  1.00  0.00     0.009 A 
ATOM     74  C   UNL     1      25.989  24.294  22.479  1.00  0.00     0.009 A 
ATOM     75  C   UNL     1      25.360  24.369  20.172  1.00  0.00     0.000 A 
ATOM     76  C   UNL     1      23.871  24.511  26.567  1.00  0.00     0.001 A 
ATOM     77  C   UNL     1      26.336  24.257  21.140  1.00  0.00     0.001 A 
ENDBRANCH  63  65
ENDBRANCH  59  60
ENDBRANCH  58  59
ENDBRANCH  55  58
ENDBRANCH  53  54
ENDBRANCH  50  53
ENDBRANCH  47  50
ENDBRANCH   5  47
BRANCH   4  78
ATOM     78  N   UNL     1      14.200  29.904  23.506  1.00  0.00    -0.348 N 
ATOM     79  C   UNL     1      13.525  30.915  24.237  1.00  0.00     0.217 C 
ATOM     80  H   UNL     1      14.401  28.990  23.934  1.00  0.00     0.163 HD
ATOM     81  C   UNL     1      13.083  30.681  25.648  1.00  0.00     0.114 C 
ATOM     82  O   UNL     1      13.307  32.017  23.662  1.00  0.00    -0.275 OA
ENDBRANCH   4  78
TORSDOF 30
