REMARK VINA RESULT:    -4.938     14.217     18.535
REMARK INTER + INTRA:         -21.138
REMARK INTER:                 -12.571
REMARK INTRA:                  -8.567
REMARK UNBOUND:                -8.118
REMARK SMILES CC(=O)N[C@@H]1[C@@H](O)C[C@](OC[C@H]2O[C@@H](O[C@H]3[C@H](O)[C@@H](O)[C@H](OCCN=[N+]=[N-])O[C@@H]3CO)[C@H](O)[C@@H](O)[C@H]2O)(C(=O)O)O[C@H]1C(O)[C@H](O)CNC(=O)OCc1cn(CCOC(C)=O)nn1
REMARK SMILES IDX 43 1 42 2 9 3 8 4 41 5 6 6 5 7 10 8 11 9 12 10 14 11 13 12
REMARK SMILES IDX 32 13 34 14 36 15 15 16 16 17 29 18 28 19 21 20 17 21 19 22
REMARK SMILES IDX 30 23 31 24 22 26 23 27 24 28 25 29 26 30 27 31 18 32 20 34
REMARK SMILES IDX 33 36 35 38 37 40 38 42 39 43 40 44 7 46 4 48 2 49 1 51 3 52
REMARK SMILES IDX 44 53 45 55 46 56 47 58 48 59 49 60 50 62 51 63 52 64 53 65
REMARK SMILES IDX 54 66 63 67 55 68 62 69 56 70 57 71 58 72 59 73 61 74 60 75
REMARK H PARENT 31 25 18 33 20 35 33 37 35 39 37 41 40 45 7 47 4 50 44 54
REMARK H PARENT 46 57 48 61
REMARK Flexibility Score: inf
ROOT
ATOM      1  C   UNL     1      21.113  31.865  20.120  1.00  0.00     0.176 C 
ENDROOT
BRANCH   1   2
ATOM      2  C   UNL     1      20.699  32.139  21.543  1.00  0.00     0.178 C 
ATOM      3  C   UNL     1      19.300  31.182  23.181  1.00  0.00     0.272 C 
ATOM      4  C   UNL     1      19.929  32.300  23.977  1.00  0.00     0.113 C 
ATOM      5  O   UNL     1      19.929  31.018  21.918  1.00  0.00    -0.332 OA
ATOM      6  C   UNL     1      19.903  33.608  23.271  1.00  0.00     0.145 C 
ATOM      7  C   UNL     1      19.800  33.318  21.746  1.00  0.00     0.142 C 
BRANCH   3   8
ATOM      8  O   UNL     1      18.013  31.254  22.943  1.00  0.00    -0.338 OA
BRANCH   8   9
ATOM      9  C   UNL     1      16.980  30.671  23.484  1.00  0.00     0.199 C 
BRANCH   9  10
ATOM     10  C   UNL     1      15.607  30.651  22.964  1.00  0.00     0.179 C 
ATOM     11  C   UNL     1      14.377  31.526  21.221  1.00  0.00     0.282 C 
ATOM     12  O   UNL     1      15.659  31.086  21.583  1.00  0.00    -0.341 OA
ATOM     13  C   UNL     1      13.281  30.674  21.707  1.00  0.00     0.202 C 
ATOM     14  C   UNL     1      13.641  29.383  22.355  1.00  0.00     0.179 C 
ATOM     15  C   UNL     1      15.062  29.223  22.769  1.00  0.00     0.177 C 
BRANCH  11  16
ATOM     16  O   UNL     1      14.413  31.771  19.858  1.00  0.00    -0.341 OA
BRANCH  16  17
ATOM     17  C   UNL     1      15.270  30.946  19.177  1.00  0.00     0.184 C 
ATOM     18  C   UNL     1      16.048  31.745  18.157  1.00  0.00     0.178 C 
ATOM     19  O   UNL     1      16.913  30.828  17.544  1.00  0.00    -0.341 OA
ATOM     20  C   UNL     1      16.218  30.069  16.651  1.00  0.00     0.281 C 
ATOM     21  C   UNL     1      14.536  29.808  18.486  1.00  0.00     0.180 C 
ATOM     22  C   UNL     1      14.777  29.793  17.012  1.00  0.00     0.202 C 
BRANCH  18  23
ATOM     23  C   UNL     1      16.885  32.802  18.855  1.00  0.00     0.191 C 
BRANCH  23  24
ATOM     24  O   UNL     1      16.129  33.943  19.052  1.00  0.00    -0.394 OA
ATOM     25  H   UNL     1      15.975  34.002  20.042  1.00  0.00     0.210 HD
ENDBRANCH  23  24
ENDBRANCH  18  23
BRANCH  20  26
ATOM     26  O   UNL     1      16.928  28.874  16.471  1.00  0.00    -0.350 OA
BRANCH  26  27
ATOM     27  C   UNL     1      18.214  29.115  16.003  1.00  0.00     0.169 C 
BRANCH  27  28
ATOM     28  C   UNL     1      19.152  28.601  17.101  1.00  0.00     0.119 C 
BRANCH  28  29
ATOM     29  N   UNL     1      18.348  27.909  18.093  1.00  0.00    -0.092 NA
ATOM     30  N   UNL     1      18.153  28.368  19.226  1.00  0.00     0.001 N 
ATOM     31  N   UNL     1      18.277  28.612  20.441  1.00  0.00    -0.003 NA
ENDBRANCH  28  29
ENDBRANCH  27  28
ENDBRANCH  26  27
ENDBRANCH  20  26
BRANCH  21  32
ATOM     32  O   UNL     1      14.798  28.567  19.053  1.00  0.00    -0.387 OA
ATOM     33  H   UNL     1      15.713  28.234  18.878  1.00  0.00     0.211 HD
ENDBRANCH  21  32
BRANCH  22  34
ATOM     34  O   UNL     1      13.881  30.612  16.355  1.00  0.00    -0.385 OA
ATOM     35  H   UNL     1      13.239  30.980  17.029  1.00  0.00     0.211 HD
ENDBRANCH  22  34
ENDBRANCH  16  17
ENDBRANCH  11  16
BRANCH  13  36
ATOM     36  O   UNL     1      12.359  31.405  22.502  1.00  0.00    -0.385 OA
ATOM     37  H   UNL     1      12.606  32.351  22.569  1.00  0.00     0.211 HD
ENDBRANCH  13  36
BRANCH  14  38
ATOM     38  O   UNL     1      13.305  28.287  21.546  1.00  0.00    -0.387 OA
ATOM     39  H   UNL     1      13.656  28.467  20.624  1.00  0.00     0.211 HD
ENDBRANCH  14  38
BRANCH  15  40
ATOM     40  O   UNL     1      15.751  28.661  21.660  1.00  0.00    -0.387 OA
ATOM     41  H   UNL     1      15.148  28.105  21.126  1.00  0.00     0.211 HD
ENDBRANCH  15  40
ENDBRANCH   9  10
ENDBRANCH   8   9
ENDBRANCH   3   8
BRANCH   3  42
ATOM     42  C   UNL     1      19.731  29.932  23.868  1.00  0.00     0.364 C 
ATOM     43  O   UNL     1      19.858  29.774  25.096  1.00  0.00    -0.246 OA
BRANCH  42  44
ATOM     44  O   UNL     1      20.036  28.786  23.102  1.00  0.00    -0.477 OA
ATOM     45  H   UNL     1      19.281  28.181  22.815  1.00  0.00     0.296 HD
ENDBRANCH  42  44
ENDBRANCH   3  42
BRANCH   6  46
ATOM     46  O   UNL     1      18.916  34.480  23.669  1.00  0.00    -0.391 OA
ATOM     47  H   UNL     1      19.033  35.399  23.317  1.00  0.00     0.211 HD
ENDBRANCH   6  46
BRANCH   7  48
ATOM     48  N   UNL     1      20.094  34.510  21.025  1.00  0.00    -0.348 N 
ATOM     49  C   UNL     1      19.089  35.446  20.668  1.00  0.00     0.217 C 
ATOM     50  H   UNL     1      21.072  34.720  20.770  1.00  0.00     0.163 HD
ATOM     51  C   UNL     1      19.406  36.695  19.909  1.00  0.00     0.114 C 
ATOM     52  O   UNL     1      17.872  35.266  20.977  1.00  0.00    -0.275 OA
ENDBRANCH   7  48
ENDBRANCH   1   2
BRANCH   1  53
ATOM     53  O   UNL     1      20.038  31.091  19.582  1.00  0.00    -0.388 OA
ATOM     54  H   UNL     1      19.474  31.651  19.009  1.00  0.00     0.211 HD
ENDBRANCH   1  53
BRANCH   1  55
ATOM     55  C   UNL     1      22.288  30.916  20.092  1.00  0.00     0.165 C 
BRANCH  55  56
ATOM     56  O   UNL     1      23.310  31.474  19.308  1.00  0.00    -0.388 OA
ATOM     57  H   UNL     1      24.059  31.699  19.898  1.00  0.00     0.211 HD
ENDBRANCH  55  56
BRANCH  55  58
ATOM     58  C   UNL     1      21.925  29.540  19.630  1.00  0.00     0.154 C 
BRANCH  58  59
ATOM     59  N   UNL     1      21.437  28.656  20.641  1.00  0.00    -0.319 N 
ATOM     60  C   UNL     1      21.286  27.268  20.457  1.00  0.00     0.407 C 
ATOM     61  H   UNL     1      21.158  29.012  21.608  1.00  0.00     0.167 HD
ATOM     62  O   UNL     1      21.579  26.692  19.389  1.00  0.00    -0.225 OA
BRANCH  60  63
ATOM     63  O   UNL     1      20.787  26.437  21.472  1.00  0.00    -0.443 OA
BRANCH  63  64
ATOM     64  C   UNL     1      21.504  25.343  21.970  1.00  0.00     0.294 C 
BRANCH  64  65
ATOM     65  C   UNL     1      22.017  25.595  23.345  1.00  0.00     0.120 A 
ATOM     66  C   UNL     1      22.668  24.642  24.109  1.00  0.00     0.138 A 
ATOM     67  N   UNL     1      21.983  26.694  24.092  1.00  0.00    -0.132 NA
ATOM     68  N   UNL     1      22.992  25.211  25.274  1.00  0.00    -0.249 N 
ATOM     69  N   UNL     1      22.566  26.460  25.242  1.00  0.00    -0.067 NA
BRANCH  68  70
ATOM     70  C   UNL     1      23.683  24.582  26.410  1.00  0.00     0.187 C 
BRANCH  70  71
ATOM     71  C   UNL     1      22.737  24.467  27.584  1.00  0.00     0.256 C 
BRANCH  71  72
ATOM     72  O   UNL     1      23.251  25.256  28.652  1.00  0.00    -0.464 OA
BRANCH  72  73
ATOM     73  C   UNL     1      22.451  26.209  29.274  1.00  0.00     0.302 C 
ATOM     74  O   UNL     1      22.727  26.530  30.454  1.00  0.00    -0.253 OA
ATOM     75  C   UNL     1      21.286  26.853  28.582  1.00  0.00     0.139 C 
ENDBRANCH  72  73
ENDBRANCH  71  72
ENDBRANCH  70  71
ENDBRANCH  68  70
ENDBRANCH  64  65
ENDBRANCH  63  64
ENDBRANCH  60  63
ENDBRANCH  58  59
ENDBRANCH  55  58
ENDBRANCH   1  55
TORSDOF 33
