REMARK VINA RESULT:    -6.847      4.663     10.456
REMARK INTER + INTRA:         -22.002
REMARK INTER:                 -15.949
REMARK INTRA:                  -6.053
REMARK UNBOUND:                -4.749
REMARK SMILES CC(=O)N[C@@H]1[C@@H](O)C[C@](OC[C@H]2O[C@@H](O[C@H]3[C@H](O)[C@@H](O)[C@H](OCCN=[N+]=[N-])O[C@@H]3CO)[C@H](O)[C@@H](O)[C@H]2O)(C(=O)O)O[C@H]1C(O)[C@H](O)CNC(=O)OCc1cn(-c2ccccc2C(C)=O)nn1
REMARK SMILES IDX 9 1 8 2 6 3 5 4 42 5 41 6 10 7 11 8 12 9 14 10 13 11 32 12
REMARK SMILES IDX 34 13 36 14 15 15 16 16 29 17 28 18 21 19 17 20 19 21 30 22
REMARK SMILES IDX 31 23 22 25 23 26 24 27 25 28 26 29 27 30 18 31 20 33 33 35
REMARK SMILES IDX 35 37 37 39 38 41 39 42 40 43 7 45 43 47 44 48 45 50 46 51
REMARK SMILES IDX 47 53 48 54 49 55 50 57 51 58 52 59 53 60 54 61 66 62 55 63
REMARK SMILES IDX 65 64 56 65 61 66 57 67 60 68 58 69 59 70 62 71 64 72 63 73
REMARK SMILES IDX 4 74 2 75 1 77 3 78
REMARK H PARENT 31 24 18 32 20 34 33 36 35 38 37 40 40 44 7 46 44 49 46 52
REMARK H PARENT 48 56 4 76
REMARK Flexibility Score: inf
ROOT
ATOM      1  C   UNL     1      21.833  23.730   9.682  1.00  0.00     0.272 C 
ATOM      2  C   UNL     1      23.214  23.939   9.131  1.00  0.00     0.113 C 
ATOM      3  C   UNL     1      23.939  24.896  10.041  1.00  0.00     0.145 C 
ATOM      4  C   UNL     1      24.111  24.131  11.342  1.00  0.00     0.142 C 
ATOM      5  C   UNL     1      22.718  23.945  11.879  1.00  0.00     0.178 C 
ATOM      6  O   UNL     1      21.694  24.137  11.028  1.00  0.00    -0.332 OA
ENDROOT
BRANCH   1   7
ATOM      7  O   UNL     1      21.311  22.533   9.599  1.00  0.00    -0.338 OA
BRANCH   7   8
ATOM      8  C   UNL     1      20.759  21.836   8.656  1.00  0.00     0.199 C 
BRANCH   8   9
ATOM      9  C   UNL     1      20.496  20.378   8.681  1.00  0.00     0.179 C 
ATOM     10  C   UNL     1      21.521  18.402   9.313  1.00  0.00     0.282 C 
ATOM     11  O   UNL     1      21.587  19.782   9.386  1.00  0.00    -0.341 OA
ATOM     12  C   UNL     1      20.235  17.828   8.852  1.00  0.00     0.202 C 
ATOM     13  C   UNL     1      18.997  18.569   9.251  1.00  0.00     0.179 C 
ATOM     14  C   UNL     1      19.295  20.011   9.585  1.00  0.00     0.177 C 
BRANCH  10  15
ATOM     15  O   UNL     1      21.856  17.861  10.554  1.00  0.00    -0.341 OA
BRANCH  15  16
ATOM     16  C   UNL     1      22.764  18.662  11.241  1.00  0.00     0.184 C 
ATOM     17  C   UNL     1      24.132  18.042  11.096  1.00  0.00     0.178 C 
ATOM     18  O   UNL     1      24.710  17.656  12.277  1.00  0.00    -0.341 OA
ATOM     19  C   UNL     1      24.772  18.613  13.260  1.00  0.00     0.281 C 
ATOM     20  C   UNL     1      22.379  18.546  12.723  1.00  0.00     0.180 C 
ATOM     21  C   UNL     1      23.423  19.267  13.512  1.00  0.00     0.202 C 
BRANCH  17  22
ATOM     22  C   UNL     1      25.004  19.002  10.306  1.00  0.00     0.191 C 
BRANCH  22  23
ATOM     23  O   UNL     1      24.377  20.247  10.305  1.00  0.00    -0.394 OA
ATOM     24  H   UNL     1      24.539  20.784  11.102  1.00  0.00     0.210 HD
ENDBRANCH  22  23
ENDBRANCH  17  22
BRANCH  19  25
ATOM     25  O   UNL     1      25.770  19.553  13.091  1.00  0.00    -0.350 OA
BRANCH  25  26
ATOM     26  C   UNL     1      26.888  19.165  13.815  1.00  0.00     0.169 C 
BRANCH  26  27
ATOM     27  C   UNL     1      27.180  20.208  14.883  1.00  0.00     0.119 C 
BRANCH  27  28
ATOM     28  N   UNL     1      27.691  19.556  16.095  1.00  0.00    -0.092 NA
ATOM     29  N   UNL     1      28.265  20.287  16.900  1.00  0.00     0.001 N 
ATOM     30  N   UNL     1      28.952  20.859  17.729  1.00  0.00    -0.003 NA
ENDBRANCH  27  28
ENDBRANCH  26  27
ENDBRANCH  25  26
ENDBRANCH  19  25
BRANCH  20  31
ATOM     31  O   UNL     1      21.108  19.040  12.905  1.00  0.00    -0.387 OA
ATOM     32  H   UNL     1      20.435  18.304  13.047  1.00  0.00     0.211 HD
ENDBRANCH  20  31
BRANCH  21  33
ATOM     33  O   UNL     1      23.113  19.325  14.873  1.00  0.00    -0.385 OA
ATOM     34  H   UNL     1      22.147  19.074  14.997  1.00  0.00     0.211 HD
ENDBRANCH  21  33
ENDBRANCH  15  16
ENDBRANCH  10  15
BRANCH  12  35
ATOM     35  O   UNL     1      20.255  17.532   7.481  1.00  0.00    -0.385 OA
ATOM     36  H   UNL     1      20.304  18.356   6.934  1.00  0.00     0.211 HD
ENDBRANCH  12  35
BRANCH  13  37
ATOM     37  O   UNL     1      18.387  18.002  10.383  1.00  0.00    -0.387 OA
ATOM     38  H   UNL     1      18.241  18.749  11.021  1.00  0.00     0.211 HD
ENDBRANCH  13  37
BRANCH  14  39
ATOM     39  O   UNL     1      19.665  20.159  10.926  1.00  0.00    -0.387 OA
ATOM     40  H   UNL     1      20.637  20.026  11.070  1.00  0.00     0.211 HD
ENDBRANCH  14  39
ENDBRANCH   8   9
ENDBRANCH   7   8
ENDBRANCH   1   7
BRANCH   1  41
ATOM     41  C   UNL     1      21.003  24.765   9.001  1.00  0.00     0.364 C 
ATOM     42  O   UNL     1      20.286  25.571   9.690  1.00  0.00    -0.246 OA
BRANCH  41  43
ATOM     43  O   UNL     1      20.911  24.959   7.647  1.00  0.00    -0.477 OA
ATOM     44  H   UNL     1      20.059  25.255   7.191  1.00  0.00     0.296 HD
ENDBRANCH  41  43
ENDBRANCH   1  41
BRANCH   3  45
ATOM     45  O   UNL     1      25.167  25.165   9.441  1.00  0.00    -0.391 OA
ATOM     46  H   UNL     1      25.243  26.122   9.184  1.00  0.00     0.211 HD
ENDBRANCH   3  45
BRANCH   5  47
ATOM     47  C   UNL     1      22.637  22.590  12.653  1.00  0.00     0.176 C 
BRANCH  47  48
ATOM     48  O   UNL     1      21.282  22.155  12.394  1.00  0.00    -0.388 OA
ATOM     49  H   UNL     1      21.437  21.306  11.877  1.00  0.00     0.211 HD
ENDBRANCH  47  48
BRANCH  47  50
ATOM     50  C   UNL     1      22.739  22.794  14.106  1.00  0.00     0.165 C 
BRANCH  50  51
ATOM     51  O   UNL     1      21.868  23.816  14.559  1.00  0.00    -0.388 OA
ATOM     52  H   UNL     1      21.048  23.849  14.019  1.00  0.00     0.211 HD
ENDBRANCH  50  51
BRANCH  50  53
ATOM     53  C   UNL     1      23.988  22.638  14.849  1.00  0.00     0.154 C 
BRANCH  53  54
ATOM     54  N   UNL     1      24.139  23.408  16.027  1.00  0.00    -0.319 N 
ATOM     55  C   UNL     1      25.326  23.712  16.732  1.00  0.00     0.407 C 
ATOM     56  H   UNL     1      23.261  23.835  16.471  1.00  0.00     0.167 HD
ATOM     57  O   UNL     1      26.408  23.245  16.307  1.00  0.00    -0.225 OA
BRANCH  55  58
ATOM     58  O   UNL     1      25.373  24.499  17.873  1.00  0.00    -0.443 OA
BRANCH  58  59
ATOM     59  C   UNL     1      26.154  24.118  18.976  1.00  0.00     0.294 C 
BRANCH  59  60
ATOM     60  C   UNL     1      25.603  24.830  20.180  1.00  0.00     0.121 A 
ATOM     61  C   UNL     1      24.935  24.270  21.243  1.00  0.00     0.144 A 
ATOM     62  N   UNL     1      25.647  26.141  20.457  1.00  0.00    -0.131 NA
ATOM     63  N   UNL     1      24.601  25.272  22.120  1.00  0.00    -0.220 N 
ATOM     64  N   UNL     1      25.054  26.393  21.601  1.00  0.00    -0.062 NA
BRANCH  63  65
ATOM     65  C   UNL     1      23.865  25.065  23.318  1.00  0.00     0.077 A 
ATOM     66  C   UNL     1      22.528  25.176  23.461  1.00  0.00     0.043 A 
ATOM     67  C   UNL     1      24.640  24.704  24.437  1.00  0.00     0.029 A 
ATOM     68  C   UNL     1      21.978  24.923  24.736  1.00  0.00     0.014 A 
ATOM     69  C   UNL     1      24.076  24.463  25.670  1.00  0.00     0.002 A 
ATOM     70  C   UNL     1      22.716  24.572  25.830  1.00  0.00     0.001 A 
BRANCH  66  71
ATOM     71  C   UNL     1      21.656  25.545  22.372  1.00  0.00     0.161 C 
ATOM     72  O   UNL     1      21.165  24.554  21.708  1.00  0.00    -0.294 OA
ATOM     73  C   UNL     1      21.256  26.881  21.923  1.00  0.00     0.093 C 
ENDBRANCH  66  71
ENDBRANCH  63  65
ENDBRANCH  59  60
ENDBRANCH  58  59
ENDBRANCH  55  58
ENDBRANCH  53  54
ENDBRANCH  50  53
ENDBRANCH  47  50
ENDBRANCH   5  47
BRANCH   4  74
ATOM     74  N   UNL     1      24.987  24.799  12.257  1.00  0.00    -0.348 N 
ATOM     75  C   UNL     1      24.566  25.824  13.140  1.00  0.00     0.217 C 
ATOM     76  H   UNL     1      25.996  24.495  12.256  1.00  0.00     0.163 HD
ATOM     77  C   UNL     1      25.572  26.458  14.062  1.00  0.00     0.114 C 
ATOM     78  O   UNL     1      23.364  26.158  13.114  1.00  0.00    -0.275 OA
ENDBRANCH   4  74
TORSDOF 31
