REMARK VINA RESULT:    -7.173      3.187      7.998
REMARK INTER + INTRA:         -23.194
REMARK INTER:                 -14.546
REMARK INTRA:                  -8.648
REMARK UNBOUND:                -5.539
REMARK SMILES CC(=O)N[C@@H]1[C@@H](O)C[C@](OC[C@H]2O[C@@H](O[C@H]3[C@H](O)[C@@H](O)[C@H](OCCN=[N+]=[N-])O[C@@H]3CO)[C@H](O)[C@@H](O)[C@H]2O)(C(=O)O)O[C@H]1C(O)[C@H](O)CNC(=O)OCc1cn(-c2c3ccccc3nc3ccccc23)nn1
REMARK SMILES IDX 9 1 8 2 6 3 5 4 42 5 41 6 10 7 11 8 12 9 14 10 13 11 32 12
REMARK SMILES IDX 34 13 36 14 15 15 16 16 29 17 28 18 21 19 17 20 19 21 30 22
REMARK SMILES IDX 31 23 22 25 23 26 24 27 25 28 26 29 27 30 18 31 20 33 33 35
REMARK SMILES IDX 35 37 37 39 38 41 39 42 40 43 7 45 43 47 44 48 45 50 46 51
REMARK SMILES IDX 47 53 48 54 49 55 50 57 51 58 52 59 53 60 54 61 71 62 55 63
REMARK SMILES IDX 70 64 56 65 57 66 69 67 58 68 62 69 64 70 68 71 59 72 61 73
REMARK SMILES IDX 63 74 65 75 67 76 60 77 66 78 4 79 2 80 1 82 3 83
REMARK H PARENT 31 24 18 32 20 34 33 36 35 38 37 40 40 44 7 46 44 49 46 52
REMARK H PARENT 48 56 4 81
REMARK Flexibility Score: inf
ROOT
ATOM      1  C   UNL     1      10.204  27.967  34.075  1.00  0.00     0.272 C 
ATOM      2  C   UNL     1       9.988  28.714  35.481  1.00  0.00     0.113 C 
ATOM      3  C   UNL     1       9.621  30.098  35.086  1.00  0.00     0.145 C 
ATOM      4  C   UNL     1       8.442  30.196  34.141  1.00  0.00     0.142 C 
ATOM      5  C   UNL     1       8.244  29.015  33.286  1.00  0.00     0.178 C 
ATOM      6  O   UNL     1       8.975  27.910  33.566  1.00  0.00    -0.332 OA
ENDROOT
BRANCH   1   7
ATOM      7  O   UNL     1      10.567  26.708  34.558  1.00  0.00    -0.338 OA
BRANCH   7   8
ATOM      8  C   UNL     1      10.806  26.605  35.886  1.00  0.00     0.199 C 
BRANCH   8   9
ATOM      9  C   UNL     1      10.295  25.377  36.537  1.00  0.00     0.179 C 
ATOM     10  C   UNL     1       8.403  24.138  37.112  1.00  0.00     0.282 C 
ATOM     11  O   UNL     1       8.928  25.325  36.556  1.00  0.00    -0.341 OA
ATOM     12  C   UNL     1       9.402  23.278  37.765  1.00  0.00     0.202 C 
ATOM     13  C   UNL     1      10.579  22.986  36.863  1.00  0.00     0.179 C 
ATOM     14  C   UNL     1      10.877  24.104  35.919  1.00  0.00     0.177 C 
BRANCH  10  15
ATOM     15  O   UNL     1       7.638  23.476  36.161  1.00  0.00    -0.341 OA
BRANCH  15  16
ATOM     16  C   UNL     1       6.544  24.251  35.710  1.00  0.00     0.184 C 
ATOM     17  C   UNL     1       5.278  23.567  36.034  1.00  0.00     0.178 C 
ATOM     18  O   UNL     1       4.181  23.996  35.241  1.00  0.00    -0.341 OA
ATOM     19  C   UNL     1       4.473  23.632  33.933  1.00  0.00     0.281 C 
ATOM     20  C   UNL     1       6.767  24.344  34.192  1.00  0.00     0.180 C 
ATOM     21  C   UNL     1       5.498  24.674  33.457  1.00  0.00     0.202 C 
BRANCH  17  22
ATOM     22  C   UNL     1       4.869  23.799  37.481  1.00  0.00     0.191 C 
BRANCH  22  23
ATOM     23  O   UNL     1       5.396  22.881  38.352  1.00  0.00    -0.394 OA
ATOM     24  H   UNL     1       5.148  21.969  38.048  1.00  0.00     0.210 HD
ENDBRANCH  22  23
ENDBRANCH  17  22
BRANCH  19  25
ATOM     25  O   UNL     1       3.307  23.668  33.212  1.00  0.00    -0.350 OA
BRANCH  25  26
ATOM     26  C   UNL     1       2.753  22.419  32.949  1.00  0.00     0.169 C 
BRANCH  26  27
ATOM     27  C   UNL     1       3.800  21.327  32.910  1.00  0.00     0.119 C 
BRANCH  27  28
ATOM     28  N   UNL     1       3.145  20.094  33.334  1.00  0.00    -0.092 NA
ATOM     29  N   UNL     1       3.506  19.512  34.363  1.00  0.00     0.001 N 
ATOM     30  N   UNL     1       3.779  18.928  35.414  1.00  0.00    -0.003 NA
ENDBRANCH  27  28
ENDBRANCH  26  27
ENDBRANCH  25  26
ENDBRANCH  19  25
BRANCH  20  31
ATOM     31  O   UNL     1       7.793  25.235  33.922  1.00  0.00    -0.387 OA
ATOM     32  H   UNL     1       7.469  26.136  33.670  1.00  0.00     0.211 HD
ENDBRANCH  20  31
BRANCH  21  33
ATOM     33  O   UNL     1       5.713  24.577  32.101  1.00  0.00    -0.385 OA
ATOM     34  H   UNL     1       5.182  23.790  31.774  1.00  0.00     0.211 HD
ENDBRANCH  21  33
ENDBRANCH  15  16
ENDBRANCH  10  15
BRANCH  12  35
ATOM     35  O   UNL     1       9.799  23.817  38.998  1.00  0.00    -0.385 OA
ATOM     36  H   UNL     1       9.130  23.475  39.664  1.00  0.00     0.211 HD
ENDBRANCH  12  35
BRANCH  13  37
ATOM     37  O   UNL     1      10.298  21.790  36.175  1.00  0.00    -0.387 OA
ATOM     38  H   UNL     1      11.029  21.709  35.483  1.00  0.00     0.211 HD
ENDBRANCH  13  37
BRANCH  14  39
ATOM     39  O   UNL     1      10.415  23.882  34.638  1.00  0.00    -0.387 OA
ATOM     40  H   UNL     1      10.257  24.717  34.130  1.00  0.00     0.211 HD
ENDBRANCH  14  39
ENDBRANCH   8   9
ENDBRANCH   7   8
ENDBRANCH   1   7
BRANCH   1  41
ATOM     41  C   UNL     1      11.277  28.700  33.489  1.00  0.00     0.364 C 
ATOM     42  O   UNL     1      12.286  29.049  34.182  1.00  0.00    -0.246 OA
BRANCH  41  43
ATOM     43  O   UNL     1      11.364  29.107  32.153  1.00  0.00    -0.477 OA
ATOM     44  H   UNL     1      12.238  29.494  31.820  1.00  0.00     0.296 HD
ENDBRANCH  41  43
ENDBRANCH   1  41
BRANCH   3  45
ATOM     45  O   UNL     1       9.343  30.798  36.284  1.00  0.00    -0.391 OA
ATOM     46  H   UNL     1      10.165  31.273  36.577  1.00  0.00     0.211 HD
ENDBRANCH   3  45
BRANCH   5  47
ATOM     47  C   UNL     1       6.768  28.528  33.316  1.00  0.00     0.176 C 
BRANCH  47  48
ATOM     48  O   UNL     1       6.549  27.601  32.341  1.00  0.00    -0.388 OA
ATOM     49  H   UNL     1       6.607  26.646  32.657  1.00  0.00     0.211 HD
ENDBRANCH  47  48
BRANCH  47  50
ATOM     50  C   UNL     1       6.253  28.297  34.663  1.00  0.00     0.165 C 
BRANCH  50  51
ATOM     51  O   UNL     1       7.044  27.531  35.523  1.00  0.00    -0.388 OA
ATOM     52  H   UNL     1       7.896  27.986  35.739  1.00  0.00     0.211 HD
ENDBRANCH  50  51
BRANCH  50  53
ATOM     53  C   UNL     1       4.799  28.098  34.853  1.00  0.00     0.154 C 
BRANCH  53  54
ATOM     54  N   UNL     1       3.911  28.225  33.758  1.00  0.00    -0.319 N 
ATOM     55  C   UNL     1       2.700  27.521  33.598  1.00  0.00     0.407 C 
ATOM     56  H   UNL     1       4.178  28.927  32.970  1.00  0.00     0.167 HD
ATOM     57  O   UNL     1       2.265  26.671  34.390  1.00  0.00    -0.225 OA
BRANCH  55  58
ATOM     58  O   UNL     1       1.878  27.755  32.478  1.00  0.00    -0.443 OA
BRANCH  58  59
ATOM     59  C   UNL     1       1.943  26.972  31.298  1.00  0.00     0.294 C 
BRANCH  59  60
ATOM     60  C   UNL     1       3.218  27.263  30.581  1.00  0.00     0.121 A 
ATOM     61  C   UNL     1       3.475  28.262  29.667  1.00  0.00     0.144 A 
ATOM     62  N   UNL     1       4.369  26.583  30.687  1.00  0.00    -0.131 NA
ATOM     63  N   UNL     1       4.755  28.180  29.236  1.00  0.00    -0.219 N 
ATOM     64  N   UNL     1       5.273  27.145  29.877  1.00  0.00    -0.062 NA
BRANCH  63  65
ATOM     65  C   UNL     1       5.396  29.042  28.279  1.00  0.00     0.085 A 
ATOM     66  C   UNL     1       5.576  30.387  28.567  1.00  0.00     0.027 A 
ATOM     67  C   UNL     1       5.844  28.581  27.062  1.00  0.00     0.027 A 
ATOM     68  C   UNL     1       5.150  30.910  29.768  1.00  0.00     0.012 A 
ATOM     69  C   UNL     1       6.186  31.263  27.672  1.00  0.00     0.073 A 
ATOM     70  C   UNL     1       6.441  29.479  26.207  1.00  0.00     0.073 A 
ATOM     71  C   UNL     1       5.701  27.269  26.714  1.00  0.00     0.012 A 
ATOM     72  C   UNL     1       5.329  32.245  30.057  1.00  0.00     0.001 A 
ATOM     73  C   UNL     1       6.363  32.597  27.964  1.00  0.00     0.029 A 
ATOM     74  N   UNL     1       6.610  30.781  26.497  1.00  0.00    -0.248 NA
ATOM     75  C   UNL     1       6.903  29.053  24.979  1.00  0.00     0.029 A 
ATOM     76  C   UNL     1       6.175  26.868  25.472  1.00  0.00     0.001 A 
ATOM     77  C   UNL     1       5.939  33.121  29.162  1.00  0.00     0.002 A 
ATOM     78  C   UNL     1       6.780  27.733  24.585  1.00  0.00     0.002 A 
ENDBRANCH  63  65
ENDBRANCH  59  60
ENDBRANCH  58  59
ENDBRANCH  55  58
ENDBRANCH  53  54
ENDBRANCH  50  53
ENDBRANCH  47  50
ENDBRANCH   5  47
BRANCH   4  79
ATOM     79  N   UNL     1       8.528  31.442  33.413  1.00  0.00    -0.348 N 
ATOM     80  C   UNL     1       7.438  32.345  33.229  1.00  0.00     0.217 C 
ATOM     81  H   UNL     1       9.426  31.742  32.968  1.00  0.00     0.163 HD
ATOM     82  C   UNL     1       7.653  33.608  32.445  1.00  0.00     0.114 C 
ATOM     83  O   UNL     1       6.344  32.044  33.732  1.00  0.00    -0.275 OA
ENDBRANCH   4  79
TORSDOF 30
