REMARK VINA RESULT:    -5.470     21.361     26.333
REMARK INTER + INTRA:         -20.883
REMARK INTER:                 -13.355
REMARK INTRA:                  -7.528
REMARK UNBOUND:                -7.419
REMARK SMILES CC(=O)N[C@@H]1[C@@H](O)C[C@](OC[C@H]2O[C@@H](O[C@H]3[C@H](O)[C@@H](O)[C@H](OCCN=[N+]=[N-])O[C@@H]3CO)[C@H](O)[C@@H](O)[C@H]2O)(C(=O)O)O[C@H]1C(O)[C@H](O)CNC(=O)OCc1cn(-c2ccc(C)cc2)nn1
REMARK SMILES IDX 9 1 8 2 6 3 5 4 42 5 41 6 10 7 11 8 12 9 14 10 13 11 32 12
REMARK SMILES IDX 34 13 36 14 15 15 16 16 29 17 28 18 21 19 17 20 19 21 30 22
REMARK SMILES IDX 31 23 22 25 23 26 24 27 25 28 26 29 27 30 18 31 20 33 33 35
REMARK SMILES IDX 35 37 37 39 38 41 39 42 40 43 7 45 43 47 44 48 45 50 46 51
REMARK SMILES IDX 47 53 48 54 49 55 50 57 51 58 52 59 53 60 54 61 64 62 55 63
REMARK SMILES IDX 63 64 56 65 57 66 62 67 58 68 61 69 59 70 60 71 4 72 2 73
REMARK SMILES IDX 1 75 3 76
REMARK H PARENT 31 24 18 32 20 34 33 36 35 38 37 40 40 44 7 46 44 49 46 52
REMARK H PARENT 48 56 4 74
REMARK Flexibility Score: inf
ROOT
ATOM      1  C   UNL     1       4.664  23.434  32.825  1.00  0.00     0.272 C 
ATOM      2  C   UNL     1       3.497  23.313  33.799  1.00  0.00     0.113 C 
ATOM      3  C   UNL     1       3.924  23.513  35.203  1.00  0.00     0.145 C 
ATOM      4  C   UNL     1       5.052  24.461  35.402  1.00  0.00     0.142 C 
ATOM      5  C   UNL     1       5.515  25.221  34.163  1.00  0.00     0.178 C 
ATOM      6  O   UNL     1       5.468  24.445  33.054  1.00  0.00    -0.332 OA
ENDROOT
BRANCH   1   7
ATOM      7  O   UNL     1       4.028  23.668  31.567  1.00  0.00    -0.338 OA
BRANCH   7   8
ATOM      8  C   UNL     1       2.703  24.035  31.811  1.00  0.00     0.199 C 
BRANCH   8   9
ATOM      9  C   UNL     1       1.893  24.099  30.572  1.00  0.00     0.179 C 
ATOM     10  C   UNL     1       1.688  25.113  28.527  1.00  0.00     0.282 C 
ATOM     11  O   UNL     1       2.541  24.858  29.596  1.00  0.00    -0.341 OA
ATOM     12  C   UNL     1       1.433  23.869  27.764  1.00  0.00     0.202 C 
ATOM     13  C   UNL     1       1.864  22.665  28.555  1.00  0.00     0.179 C 
ATOM     14  C   UNL     1       1.506  22.753  30.024  1.00  0.00     0.177 C 
BRANCH  10  15
ATOM     15  O   UNL     1       2.272  26.060  27.690  1.00  0.00    -0.341 OA
BRANCH  15  16
ATOM     16  C   UNL     1       3.661  25.932  27.664  1.00  0.00     0.184 C 
ATOM     17  C   UNL     1       4.407  27.183  28.036  1.00  0.00     0.178 C 
ATOM     18  O   UNL     1       5.173  27.632  26.955  1.00  0.00    -0.341 OA
ATOM     19  C   UNL     1       4.329  28.003  25.924  1.00  0.00     0.281 C 
ATOM     20  C   UNL     1       4.014  25.592  26.232  1.00  0.00     0.180 C 
ATOM     21  C   UNL     1       3.565  26.803  25.400  1.00  0.00     0.202 C 
BRANCH  17  22
ATOM     22  C   UNL     1       5.441  26.876  29.133  1.00  0.00     0.191 C 
BRANCH  22  23
ATOM     23  O   UNL     1       5.049  25.766  29.877  1.00  0.00    -0.394 OA
ATOM     24  H   UNL     1       5.891  25.314  30.184  1.00  0.00     0.210 HD
ENDBRANCH  22  23
ENDBRANCH  17  22
BRANCH  19  25
ATOM     25  O   UNL     1       4.998  28.630  24.885  1.00  0.00    -0.350 OA
BRANCH  25  26
ATOM     26  C   UNL     1       6.365  28.589  25.002  1.00  0.00     0.169 C 
BRANCH  26  27
ATOM     27  C   UNL     1       7.079  27.833  23.917  1.00  0.00     0.119 C 
BRANCH  27  28
ATOM     28  N   UNL     1       7.750  26.662  24.427  1.00  0.00    -0.092 NA
ATOM     29  N   UNL     1       8.684  26.780  25.202  1.00  0.00     0.001 N 
ATOM     30  N   UNL     1       9.567  26.880  26.055  1.00  0.00    -0.003 NA
ENDBRANCH  27  28
ENDBRANCH  26  27
ENDBRANCH  25  26
ENDBRANCH  19  25
BRANCH  20  31
ATOM     31  O   UNL     1       5.371  25.370  26.047  1.00  0.00    -0.387 OA
ATOM     32  H   UNL     1       5.592  25.672  25.132  1.00  0.00     0.211 HD
ENDBRANCH  20  31
BRANCH  21  33
ATOM     33  O   UNL     1       2.213  26.996  25.750  1.00  0.00    -0.385 OA
ATOM     34  H   UNL     1       1.701  27.448  25.041  1.00  0.00     0.211 HD
ENDBRANCH  21  33
ENDBRANCH  15  16
ENDBRANCH  10  15
BRANCH  12  35
ATOM     35  O   UNL     1       0.084  23.750  27.378  1.00  0.00    -0.385 OA
ATOM     36  H   UNL     1      -0.071  24.547  26.773  1.00  0.00     0.211 HD
ENDBRANCH  12  35
BRANCH  13  37
ATOM     37  O   UNL     1       3.191  22.412  28.312  1.00  0.00    -0.387 OA
ATOM     38  H   UNL     1       3.357  21.790  27.534  1.00  0.00     0.211 HD
ENDBRANCH  13  37
BRANCH  14  39
ATOM     39  O   UNL     1       2.213  21.788  30.716  1.00  0.00    -0.387 OA
ATOM     40  H   UNL     1       2.992  22.119  31.208  1.00  0.00     0.211 HD
ENDBRANCH  14  39
ENDBRANCH   8   9
ENDBRANCH   7   8
ENDBRANCH   1   7
BRANCH   1  41
ATOM     41  C   UNL     1       5.305  22.104  32.824  1.00  0.00     0.364 C 
ATOM     42  O   UNL     1       6.488  21.904  33.181  1.00  0.00    -0.246 OA
BRANCH  41  43
ATOM     43  O   UNL     1       4.528  21.008  32.401  1.00  0.00    -0.477 OA
ATOM     44  H   UNL     1       4.535  20.761  31.411  1.00  0.00     0.296 HD
ENDBRANCH  41  43
ENDBRANCH   1  41
BRANCH   3  45
ATOM     45  O   UNL     1       2.812  23.809  36.025  1.00  0.00    -0.391 OA
ATOM     46  H   UNL     1       2.221  24.398  35.454  1.00  0.00     0.211 HD
ENDBRANCH   3  45
BRANCH   5  47
ATOM     47  C   UNL     1       4.710  26.499  34.047  1.00  0.00     0.176 C 
BRANCH  47  48
ATOM     48  O   UNL     1       4.520  27.160  35.251  1.00  0.00    -0.388 OA
ATOM     49  H   UNL     1       5.398  27.568  35.475  1.00  0.00     0.211 HD
ENDBRANCH  47  48
BRANCH  47  50
ATOM     50  C   UNL     1       4.927  27.400  32.926  1.00  0.00     0.165 C 
BRANCH  50  51
ATOM     51  O   UNL     1       6.188  27.321  32.299  1.00  0.00    -0.388 OA
ATOM     52  H   UNL     1       6.692  26.540  32.648  1.00  0.00     0.211 HD
ENDBRANCH  50  51
BRANCH  50  53
ATOM     53  C   UNL     1       4.558  28.841  32.991  1.00  0.00     0.154 C 
BRANCH  53  54
ATOM     54  N   UNL     1       5.677  29.745  33.039  1.00  0.00    -0.319 N 
ATOM     55  C   UNL     1       6.157  30.260  34.279  1.00  0.00     0.407 C 
ATOM     56  H   UNL     1       6.154  30.040  32.156  1.00  0.00     0.167 HD
ATOM     57  O   UNL     1       5.599  29.898  35.343  1.00  0.00    -0.225 OA
BRANCH  55  58
ATOM     58  O   UNL     1       7.216  31.142  34.291  1.00  0.00    -0.443 OA
BRANCH  58  59
ATOM     59  C   UNL     1       8.438  30.874  34.888  1.00  0.00     0.294 C 
BRANCH  59  60
ATOM     60  C   UNL     1       9.002  29.608  34.418  1.00  0.00     0.121 A 
ATOM     61  C   UNL     1       9.346  28.502  35.219  1.00  0.00     0.144 A 
ATOM     62  N   UNL     1       9.308  29.234  33.184  1.00  0.00    -0.131 NA
ATOM     63  N   UNL     1       9.830  27.547  34.427  1.00  0.00    -0.220 N 
ATOM     64  N   UNL     1       9.799  28.011  33.196  1.00  0.00    -0.062 NA
BRANCH  63  65
ATOM     65  C   UNL     1      10.290  26.267  34.899  1.00  0.00     0.066 A 
ATOM     66  C   UNL     1       9.570  25.129  34.614  1.00  0.00     0.029 A 
ATOM     67  C   UNL     1      11.455  26.131  35.625  1.00  0.00     0.029 A 
ATOM     68  C   UNL     1      10.017  23.879  35.054  1.00  0.00     0.005 A 
ATOM     69  C   UNL     1      11.904  24.881  36.066  1.00  0.00     0.005 A 
ATOM     70  C   UNL     1      11.180  23.747  35.779  1.00  0.00    -0.051 A 
ATOM     71  C   UNL     1      11.665  22.407  36.241  1.00  0.00     0.044 C 
ENDBRANCH  63  65
ENDBRANCH  59  60
ENDBRANCH  58  59
ENDBRANCH  55  58
ENDBRANCH  53  54
ENDBRANCH  50  53
ENDBRANCH  47  50
ENDBRANCH   5  47
BRANCH   4  72
ATOM     72  N   UNL     1       6.157  23.875  36.137  1.00  0.00    -0.348 N 
ATOM     73  C   UNL     1       6.822  24.525  37.220  1.00  0.00     0.217 C 
ATOM     74  H   UNL     1       6.520  22.934  35.890  1.00  0.00     0.163 HD
ATOM     75  C   UNL     1       7.964  23.879  37.938  1.00  0.00     0.114 C 
ATOM     76  O   UNL     1       6.381  25.663  37.517  1.00  0.00    -0.275 OA
ENDBRANCH   4  72
TORSDOF 30
