REMARK VINA RESULT:    -5.714     10.865     17.643
REMARK INTER + INTRA:         -21.118
REMARK INTER:                 -16.537
REMARK INTRA:                  -4.581
REMARK UNBOUND:                -6.052
REMARK SMILES CC(=O)N[C@@H]1[C@@H](O)C[C@](OC[C@H]2O[C@@H](O[C@H]3[C@H](O)[C@@H](O)[C@H](OCCN=[N+]=[N-])O[C@@H]3CO)[C@H](O)[C@@H](O)[C@H]2O)(C(=O)O)O[C@H]1C(O)[C@H](O)CNC(=O)OCc1cn(CC(O)CO)nn1
REMARK SMILES IDX 43 1 42 2 9 3 8 4 41 5 6 6 5 7 10 8 11 9 12 10 14 11 13 12
REMARK SMILES IDX 32 13 34 14 36 15 15 16 16 17 29 18 28 19 21 20 17 21 19 22
REMARK SMILES IDX 30 23 31 24 22 26 23 27 24 28 25 29 26 30 27 31 18 32 20 34
REMARK SMILES IDX 33 36 35 38 37 40 38 42 39 43 40 44 7 46 4 48 2 49 1 51 3 52
REMARK SMILES IDX 44 53 45 55 46 56 47 58 48 59 49 60 50 62 51 63 52 64 53 65
REMARK SMILES IDX 54 66 62 67 55 68 61 69 56 70 57 71 58 72 59 74 60 75
REMARK H PARENT 31 25 18 33 20 35 33 37 35 39 37 41 40 45 7 47 4 50 44 54
REMARK H PARENT 46 57 48 61 58 73 60 76
REMARK Flexibility Score: inf
ROOT
ATOM      1  C   UNL     1      15.041  29.705  22.295  1.00  0.00     0.176 C 
ENDROOT
BRANCH   1   2
ATOM      2  C   UNL     1      15.649  29.683  20.880  1.00  0.00     0.178 C 
ATOM      3  C   UNL     1      17.514  28.913  19.651  1.00  0.00     0.272 C 
ATOM      4  C   UNL     1      17.715  30.281  19.063  1.00  0.00     0.113 C 
ATOM      5  O   UNL     1      16.811  29.035  20.859  1.00  0.00    -0.332 OA
ATOM      6  C   UNL     1      16.986  31.406  19.696  1.00  0.00     0.145 C 
ATOM      7  C   UNL     1      15.707  31.073  20.369  1.00  0.00     0.142 C 
BRANCH   3   8
ATOM      8  O   UNL     1      18.670  28.340  19.918  1.00  0.00    -0.338 OA
BRANCH   8   9
ATOM      9  C   UNL     1      19.905  28.533  20.111  1.00  0.00     0.199 C 
BRANCH   9  10
ATOM     10  C   UNL     1      20.506  29.080  21.364  1.00  0.00     0.179 C 
ATOM     11  C   UNL     1      20.871  28.522  23.553  1.00  0.00     0.282 C 
ATOM     12  O   UNL     1      20.749  27.982  22.277  1.00  0.00    -0.341 OA
ATOM     13  C   UNL     1      21.325  29.941  23.603  1.00  0.00     0.202 C 
ATOM     14  C   UNL     1      22.221  30.372  22.483  1.00  0.00     0.179 C 
ATOM     15  C   UNL     1      21.928  29.617  21.197  1.00  0.00     0.177 C 
BRANCH  11  16
ATOM     16  O   UNL     1      21.632  27.769  24.423  1.00  0.00    -0.341 OA
BRANCH  16  17
ATOM     17  C   UNL     1      22.163  26.612  23.856  1.00  0.00     0.184 C 
ATOM     18  C   UNL     1      21.485  25.412  24.445  1.00  0.00     0.178 C 
ATOM     19  O   UNL     1      22.341  24.595  25.167  1.00  0.00    -0.341 OA
ATOM     20  C   UNL     1      23.199  25.357  25.978  1.00  0.00     0.281 C 
ATOM     21  C   UNL     1      23.632  26.630  23.941  1.00  0.00     0.180 C 
ATOM     22  C   UNL     1      24.273  25.868  25.049  1.00  0.00     0.202 C 
BRANCH  18  23
ATOM     23  C   UNL     1      20.821  24.555  23.386  1.00  0.00     0.191 C 
BRANCH  23  24
ATOM     24  O   UNL     1      20.519  25.287  22.246  1.00  0.00    -0.394 OA
ATOM     25  H   UNL     1      19.769  24.796  21.779  1.00  0.00     0.210 HD
ENDBRANCH  23  24
ENDBRANCH  18  23
BRANCH  20  26
ATOM     26  O   UNL     1      23.721  24.482  26.916  1.00  0.00    -0.350 OA
BRANCH  26  27
ATOM     27  C   UNL     1      22.927  24.307  28.038  1.00  0.00     0.169 C 
BRANCH  27  28
ATOM     28  C   UNL     1      22.230  25.577  28.473  1.00  0.00     0.119 C 
BRANCH  28  29
ATOM     29  N   UNL     1      22.852  26.182  29.620  1.00  0.00    -0.092 NA
ATOM     30  N   UNL     1      23.780  25.703  30.261  1.00  0.00     0.001 N 
ATOM     31  N   UNL     1      24.641  25.067  30.869  1.00  0.00    -0.003 NA
ENDBRANCH  28  29
ENDBRANCH  27  28
ENDBRANCH  26  27
ENDBRANCH  20  26
BRANCH  21  32
ATOM     32  O   UNL     1      24.234  26.213  22.728  1.00  0.00    -0.387 OA
ATOM     33  H   UNL     1      25.194  26.029  22.988  1.00  0.00     0.211 HD
ENDBRANCH  21  32
BRANCH  22  34
ATOM     34  O   UNL     1      25.253  26.586  25.731  1.00  0.00    -0.385 OA
ATOM     35  H   UNL     1      24.891  27.271  26.316  1.00  0.00     0.211 HD
ENDBRANCH  22  34
ENDBRANCH  16  17
ENDBRANCH  11  16
BRANCH  13  36
ATOM     36  O   UNL     1      20.249  30.834  23.819  1.00  0.00    -0.385 OA
ATOM     37  H   UNL     1      20.316  31.314  24.665  1.00  0.00     0.211 HD
ENDBRANCH  13  36
BRANCH  14  38
ATOM     38  O   UNL     1      23.576  30.309  22.799  1.00  0.00    -0.387 OA
ATOM     39  H   UNL     1      23.817  29.373  23.004  1.00  0.00     0.211 HD
ENDBRANCH  14  38
BRANCH  15  40
ATOM     40  O   UNL     1      22.777  28.478  21.202  1.00  0.00    -0.387 OA
ATOM     41  H   UNL     1      22.273  27.672  21.470  1.00  0.00     0.211 HD
ENDBRANCH  15  40
ENDBRANCH   9  10
ENDBRANCH   8   9
ENDBRANCH   3   8
BRANCH   3  42
ATOM     42  C   UNL     1      16.684  28.053  18.745  1.00  0.00     0.364 C 
ATOM     43  O   UNL     1      16.335  26.923  19.207  1.00  0.00    -0.246 OA
BRANCH  42  44
ATOM     44  O   UNL     1      16.301  28.424  17.482  1.00  0.00    -0.477 OA
ATOM     45  H   UNL     1      16.970  28.796  16.799  1.00  0.00     0.296 HD
ENDBRANCH  42  44
ENDBRANCH   3  42
BRANCH   6  46
ATOM     46  O   UNL     1      17.856  31.974  20.657  1.00  0.00    -0.391 OA
ATOM     47  H   UNL     1      17.494  31.822  21.552  1.00  0.00     0.211 HD
ENDBRANCH   6  46
BRANCH   7  48
ATOM     48  N   UNL     1      14.596  31.417  19.485  1.00  0.00    -0.348 N 
ATOM     49  C   UNL     1      13.509  32.216  19.919  1.00  0.00     0.217 C 
ATOM     50  H   UNL     1      14.562  31.084  18.501  1.00  0.00     0.163 HD
ATOM     51  C   UNL     1      12.376  32.567  19.024  1.00  0.00     0.114 C 
ATOM     52  O   UNL     1      13.528  32.629  21.106  1.00  0.00    -0.275 OA
ENDBRANCH   7  48
ENDBRANCH   1   2
BRANCH   1  53
ATOM     53  O   UNL     1      14.835  28.408  22.721  1.00  0.00    -0.388 OA
ATOM     54  H   UNL     1      14.291  28.394  23.548  1.00  0.00     0.211 HD
ENDBRANCH   1  53
BRANCH   1  55
ATOM     55  C   UNL     1      15.985  30.416  23.253  1.00  0.00     0.165 C 
BRANCH  55  56
ATOM     56  O   UNL     1      16.918  29.423  23.639  1.00  0.00    -0.388 OA
ATOM     57  H   UNL     1      16.520  28.854  24.342  1.00  0.00     0.211 HD
ENDBRANCH  55  56
BRANCH  55  58
ATOM     58  C   UNL     1      15.321  30.941  24.479  1.00  0.00     0.154 C 
BRANCH  58  59
ATOM     59  N   UNL     1      14.159  30.162  24.849  1.00  0.00    -0.319 N 
ATOM     60  C   UNL     1      12.857  30.694  24.710  1.00  0.00     0.407 C 
ATOM     61  H   UNL     1      14.241  29.179  25.231  1.00  0.00     0.167 HD
ATOM     62  O   UNL     1      12.655  31.853  24.278  1.00  0.00    -0.225 OA
BRANCH  60  63
ATOM     63  O   UNL     1      11.742  29.951  25.042  1.00  0.00    -0.443 OA
BRANCH  63  64
ATOM     64  C   UNL     1      10.577  29.796  24.310  1.00  0.00     0.294 C 
BRANCH  64  65
ATOM     65  C   UNL     1       9.784  28.584  24.615  1.00  0.00     0.120 A 
ATOM     66  C   UNL     1       8.420  28.536  24.675  1.00  0.00     0.138 A 
ATOM     67  N   UNL     1      10.280  27.341  24.894  1.00  0.00    -0.132 NA
ATOM     68  N   UNL     1       8.109  27.265  24.989  1.00  0.00    -0.249 N 
ATOM     69  N   UNL     1       9.218  26.577  25.115  1.00  0.00    -0.067 NA
BRANCH  68  70
ATOM     70  C   UNL     1       6.782  26.720  25.176  1.00  0.00     0.180 C 
BRANCH  70  71
ATOM     71  C   UNL     1       5.830  27.913  25.335  1.00  0.00     0.161 C 
BRANCH  71  72
ATOM     72  O   UNL     1       4.965  27.888  24.268  1.00  0.00    -0.389 OA
ATOM     73  H   UNL     1       5.017  28.710  23.721  1.00  0.00     0.211 HD
ENDBRANCH  71  72
BRANCH  71  74
ATOM     74  C   UNL     1       5.099  27.806  26.653  1.00  0.00     0.189 C 
BRANCH  74  75
ATOM     75  O   UNL     1       5.492  26.668  27.321  1.00  0.00    -0.394 OA
ATOM     76  H   UNL     1       6.022  26.092  26.712  1.00  0.00     0.210 HD
ENDBRANCH  74  75
ENDBRANCH  71  74
ENDBRANCH  70  71
ENDBRANCH  68  70
ENDBRANCH  64  65
ENDBRANCH  63  64
ENDBRANCH  60  63
ENDBRANCH  58  59
ENDBRANCH  55  58
ENDBRANCH   1  55
TORSDOF 34
