REMARK VINA RESULT:    -5.048      2.680      7.168
REMARK INTER + INTRA:         -21.059
REMARK INTER:                 -12.060
REMARK INTRA:                  -8.999
REMARK UNBOUND:                -8.339
REMARK SMILES CC(=O)N[C@@H]1[C@@H](O)C[C@](OC[C@H]2O[C@@H](O[C@H]3[C@H](O)[C@@H](O)[C@H](OCCN=[N+]=[N-])O[C@@H]3CO)[C@H](O)[C@@H](O)[C@H]2O)(C(=O)O)O[C@H]1C(O)[C@H](O)CNC(=O)OCc1cn(Cc2ccccc2)nn1
REMARK SMILES IDX 9 1 8 2 6 3 5 4 42 5 41 6 10 7 11 8 12 9 14 10 13 11 32 12
REMARK SMILES IDX 34 13 36 14 15 15 16 16 29 17 28 18 21 19 17 20 19 21 30 22
REMARK SMILES IDX 31 23 22 25 23 26 24 27 25 28 26 29 27 30 18 31 20 33 33 35
REMARK SMILES IDX 35 37 37 39 38 41 39 42 40 43 7 45 43 47 44 48 45 50 46 51
REMARK SMILES IDX 47 53 48 54 49 55 50 57 51 58 52 59 53 60 54 61 64 62 55 63
REMARK SMILES IDX 63 64 56 65 57 66 58 67 62 68 59 69 61 70 60 71 4 72 2 73
REMARK SMILES IDX 1 75 3 76
REMARK H PARENT 31 24 18 32 20 34 33 36 35 38 37 40 40 44 7 46 44 49 46 52
REMARK H PARENT 48 56 4 74
REMARK Flexibility Score: inf
ROOT
ATOM      1  C   UNL     1      17.620  33.016  14.526  1.00  0.00     0.272 C 
ATOM      2  C   UNL     1      16.376  33.523  13.896  1.00  0.00     0.113 C 
ATOM      3  C   UNL     1      15.235  32.670  14.299  1.00  0.00     0.145 C 
ATOM      4  C   UNL     1      15.632  31.445  15.138  1.00  0.00     0.142 C 
ATOM      5  C   UNL     1      16.848  30.809  14.611  1.00  0.00     0.178 C 
ATOM      6  O   UNL     1      17.797  31.696  14.070  1.00  0.00    -0.332 OA
ENDROOT
BRANCH   1   7
ATOM      7  O   UNL     1      17.682  33.088  15.902  1.00  0.00    -0.338 OA
BRANCH   7   8
ATOM      8  C   UNL     1      18.169  34.323  16.294  1.00  0.00     0.199 C 
BRANCH   8   9
ATOM      9  C   UNL     1      18.943  34.252  17.590  1.00  0.00     0.179 C 
ATOM     10  C   UNL     1      18.721  33.379  19.743  1.00  0.00     0.282 C 
ATOM     11  O   UNL     1      18.129  34.073  18.685  1.00  0.00    -0.341 OA
ATOM     12  C   UNL     1      20.145  33.738  19.950  1.00  0.00     0.202 C 
ATOM     13  C   UNL     1      20.957  33.382  18.745  1.00  0.00     0.179 C 
ATOM     14  C   UNL     1      20.070  33.256  17.529  1.00  0.00     0.177 C 
BRANCH  10  15
ATOM     15  O   UNL     1      18.573  32.011  19.589  1.00  0.00    -0.341 OA
BRANCH  15  16
ATOM     16  C   UNL     1      17.415  31.504  20.164  1.00  0.00     0.184 C 
ATOM     17  C   UNL     1      17.744  30.480  21.186  1.00  0.00     0.178 C 
ATOM     18  O   UNL     1      16.523  29.980  21.687  1.00  0.00    -0.341 OA
ATOM     19  C   UNL     1      16.059  29.091  20.697  1.00  0.00     0.281 C 
ATOM     20  C   UNL     1      16.679  30.804  19.010  1.00  0.00     0.180 C 
ATOM     21  C   UNL     1      15.601  29.887  19.485  1.00  0.00     0.202 C 
BRANCH  17  22
ATOM     22  C   UNL     1      18.566  31.049  22.338  1.00  0.00     0.191 C 
BRANCH  22  23
ATOM     23  O   UNL     1      19.924  30.897  21.980  1.00  0.00    -0.394 OA
ATOM     24  H   UNL     1      20.014  31.076  21.014  1.00  0.00     0.210 HD
ENDBRANCH  22  23
ENDBRANCH  17  22
BRANCH  19  25
ATOM     25  O   UNL     1      15.014  28.359  21.203  1.00  0.00    -0.350 OA
BRANCH  25  26
ATOM     26  C   UNL     1      14.385  29.068  22.208  1.00  0.00     0.169 C 
BRANCH  26  27
ATOM     27  C   UNL     1      12.928  29.337  21.977  1.00  0.00     0.119 C 
BRANCH  27  28
ATOM     28  N   UNL     1      12.772  30.800  21.984  1.00  0.00    -0.092 NA
ATOM     29  N   UNL     1      12.687  31.352  20.888  1.00  0.00     0.001 N 
ATOM     30  N   UNL     1      12.414  32.167  19.996  1.00  0.00    -0.003 NA
ENDBRANCH  27  28
ENDBRANCH  26  27
ENDBRANCH  25  26
ENDBRANCH  19  25
BRANCH  20  31
ATOM     31  O   UNL     1      16.087  31.854  18.279  1.00  0.00    -0.387 OA
ATOM     32  H   UNL     1      15.201  32.112  18.648  1.00  0.00     0.211 HD
ENDBRANCH  20  31
BRANCH  21  33
ATOM     33  O   UNL     1      15.294  28.974  18.477  1.00  0.00    -0.385 OA
ATOM     34  H   UNL     1      14.722  28.226  18.799  1.00  0.00     0.211 HD
ENDBRANCH  21  33
ENDBRANCH  15  16
ENDBRANCH  10  15
BRANCH  12  35
ATOM     35  O   UNL     1      20.310  35.088  20.307  1.00  0.00    -0.385 OA
ATOM     36  H   UNL     1      20.724  35.083  21.206  1.00  0.00     0.211 HD
ENDBRANCH  12  35
BRANCH  13  37
ATOM     37  O   UNL     1      21.622  32.187  18.988  1.00  0.00    -0.387 OA
ATOM     38  H   UNL     1      22.567  32.329  19.268  1.00  0.00     0.211 HD
ENDBRANCH  13  37
BRANCH  14  39
ATOM     39  O   UNL     1      19.700  31.971  17.239  1.00  0.00    -0.387 OA
ATOM     40  H   UNL     1      19.288  31.451  17.957  1.00  0.00     0.211 HD
ENDBRANCH  14  39
ENDBRANCH   8   9
ENDBRANCH   7   8
ENDBRANCH   1   7
BRANCH   1  41
ATOM     41  C   UNL     1      18.847  33.703  13.992  1.00  0.00     0.364 C 
ATOM     42  O   UNL     1      18.731  34.773  13.392  1.00  0.00    -0.246 OA
BRANCH  41  43
ATOM     43  O   UNL     1      20.088  33.135  14.178  1.00  0.00    -0.477 OA
ATOM     44  H   UNL     1      20.360  32.255  13.737  1.00  0.00     0.296 HD
ENDBRANCH  41  43
ENDBRANCH   1  41
BRANCH   3  45
ATOM     45  O   UNL     1      14.254  33.338  15.055  1.00  0.00    -0.391 OA
ATOM     46  H   UNL     1      13.586  33.783  14.512  1.00  0.00     0.211 HD
ENDBRANCH   3  45
BRANCH   5  47
ATOM     47  C   UNL     1      17.615  29.878  15.453  1.00  0.00     0.176 C 
BRANCH  47  48
ATOM     48  O   UNL     1      16.893  28.847  16.012  1.00  0.00    -0.388 OA
ATOM     49  H   UNL     1      17.261  27.949  15.860  1.00  0.00     0.211 HD
ENDBRANCH  47  48
BRANCH  47  50
ATOM     50  C   UNL     1      18.914  29.343  14.922  1.00  0.00     0.165 C 
BRANCH  50  51
ATOM     51  O   UNL     1      18.903  29.071  13.588  1.00  0.00    -0.388 OA
ATOM     52  H   UNL     1      18.032  29.169  13.157  1.00  0.00     0.211 HD
ENDBRANCH  50  51
BRANCH  50  53
ATOM     53  C   UNL     1      19.539  28.330  15.834  1.00  0.00     0.154 C 
BRANCH  53  54
ATOM     54  N   UNL     1      20.183  28.887  16.996  1.00  0.00    -0.319 N 
ATOM     55  C   UNL     1      19.733  28.707  18.344  1.00  0.00     0.407 C 
ATOM     56  H   UNL     1      21.060  29.484  16.922  1.00  0.00     0.167 HD
ATOM     57  O   UNL     1      18.705  28.026  18.563  1.00  0.00    -0.225 OA
BRANCH  55  58
ATOM     58  O   UNL     1      20.405  29.270  19.412  1.00  0.00    -0.443 OA
BRANCH  58  59
ATOM     59  C   UNL     1      21.608  28.690  19.856  1.00  0.00     0.294 C 
BRANCH  59  60
ATOM     60  C   UNL     1      21.390  27.849  21.052  1.00  0.00     0.120 A 
ATOM     61  C   UNL     1      21.696  26.482  21.112  1.00  0.00     0.138 A 
ATOM     62  N   UNL     1      20.899  28.146  22.260  1.00  0.00    -0.132 NA
ATOM     63  N   UNL     1      21.380  26.030  22.336  1.00  0.00    -0.248 N 
ATOM     64  N   UNL     1      20.904  27.035  23.011  1.00  0.00    -0.067 NA
BRANCH  63  65
ATOM     65  C   UNL     1      21.554  24.670  22.793  1.00  0.00     0.181 C 
BRANCH  65  66
ATOM     66  C   UNL     1      22.467  24.657  23.963  1.00  0.00    -0.026 A 
ATOM     67  C   UNL     1      21.993  24.638  25.263  1.00  0.00     0.005 A 
ATOM     68  C   UNL     1      23.835  24.663  23.739  1.00  0.00     0.005 A 
ATOM     69  C   UNL     1      22.886  24.627  26.321  1.00  0.00     0.000 A 
ATOM     70  C   UNL     1      24.717  24.651  24.803  1.00  0.00     0.000 A 
ATOM     71  C   UNL     1      24.238  24.633  26.087  1.00  0.00     0.000 A 
ENDBRANCH  65  66
ENDBRANCH  63  65
ENDBRANCH  59  60
ENDBRANCH  58  59
ENDBRANCH  55  58
ENDBRANCH  53  54
ENDBRANCH  50  53
ENDBRANCH  47  50
ENDBRANCH   5  47
BRANCH   4  72
ATOM     72  N   UNL     1      14.464  30.568  14.918  1.00  0.00    -0.348 N 
ATOM     73  C   UNL     1      13.454  30.370  15.885  1.00  0.00     0.217 C 
ATOM     74  H   UNL     1      14.375  30.066  14.008  1.00  0.00     0.163 HD
ATOM     75  C   UNL     1      12.286  29.472  15.637  1.00  0.00     0.114 C 
ATOM     76  O   UNL     1      13.549  30.972  16.983  1.00  0.00    -0.275 OA
ENDBRANCH   4  72
TORSDOF 31
