REMARK VINA RESULT:    -6.182      3.398     11.164
REMARK INTER + INTRA:         -21.995
REMARK INTER:                 -14.287
REMARK INTRA:                  -7.708
REMARK UNBOUND:                -6.778
REMARK SMILES CC(=O)N[C@@H]1[C@@H](O)C[C@](OC[C@H]2O[C@@H](O[C@H]3[C@H](O)[C@@H](O)[C@H](OCCN=[N+]=[N-])O[C@@H]3CO)[C@H](O)[C@@H](O)[C@H]2O)(C(=O)O)O[C@H]1C(O)[C@H](O)CNC(=O)OCc1cn(-c2ccc3c(c2)OCO3)nn1
REMARK SMILES IDX 9 1 8 2 6 3 5 4 42 5 41 6 10 7 11 8 12 9 14 10 13 11 32 12
REMARK SMILES IDX 34 13 36 14 15 15 16 16 29 17 28 18 21 19 17 20 19 21 30 22
REMARK SMILES IDX 31 23 22 25 23 26 24 27 25 28 26 29 27 30 18 31 20 33 33 35
REMARK SMILES IDX 35 37 37 39 38 41 39 42 40 43 7 45 43 47 44 48 45 50 46 51
REMARK SMILES IDX 47 53 48 54 49 55 50 57 51 58 52 59 53 60 54 61 66 62 55 63
REMARK SMILES IDX 65 64 56 65 57 66 61 67 58 68 60 69 59 70 62 71 64 72 63 73
REMARK SMILES IDX 4 74 2 75 1 77 3 78
REMARK H PARENT 31 24 18 32 20 34 33 36 35 38 37 40 40 44 7 46 44 49 46 52
REMARK H PARENT 48 56 4 76
REMARK Flexibility Score: inf
ROOT
ATOM      1  C   UNL     1      14.267  30.125  22.527  1.00  0.00     0.272 C 
ATOM      2  C   UNL     1      13.448  29.849  23.758  1.00  0.00     0.113 C 
ATOM      3  C   UNL     1      12.949  31.146  24.420  1.00  0.00     0.145 C 
ATOM      4  C   UNL     1      14.195  31.824  24.951  1.00  0.00     0.142 C 
ATOM      5  C   UNL     1      15.137  31.930  23.770  1.00  0.00     0.178 C 
ATOM      6  O   UNL     1      14.639  31.498  22.588  1.00  0.00    -0.332 OA
ENDROOT
BRANCH   1   7
ATOM      7  O   UNL     1      13.606  29.996  21.388  1.00  0.00    -0.338 OA
BRANCH   7   8
ATOM      8  C   UNL     1      13.207  30.831  20.478  1.00  0.00     0.199 C 
BRANCH   8   9
ATOM      9  C   UNL     1      14.008  31.106  19.233  1.00  0.00     0.179 C 
ATOM     10  C   UNL     1      16.241  31.312  18.607  1.00  0.00     0.282 C 
ATOM     11  O   UNL     1      15.301  31.369  19.603  1.00  0.00    -0.341 OA
ATOM     12  C   UNL     1      15.670  31.231  17.231  1.00  0.00     0.202 C 
ATOM     13  C   UNL     1      14.707  30.065  17.086  1.00  0.00     0.179 C 
ATOM     14  C   UNL     1      13.972  29.822  18.364  1.00  0.00     0.177 C 
BRANCH  10  15
ATOM     15  O   UNL     1      16.976  30.126  18.807  1.00  0.00    -0.341 OA
BRANCH  15  16
ATOM     16  C   UNL     1      18.115  30.062  18.046  1.00  0.00     0.184 C 
ATOM     17  C   UNL     1      18.486  28.619  17.818  1.00  0.00     0.178 C 
ATOM     18  O   UNL     1      19.248  28.074  18.824  1.00  0.00    -0.341 OA
ATOM     19  C   UNL     1      19.011  28.663  20.067  1.00  0.00     0.281 C 
ATOM     20  C   UNL     1      19.193  30.819  18.786  1.00  0.00     0.180 C 
ATOM     21  C   UNL     1      19.447  30.106  20.096  1.00  0.00     0.202 C 
BRANCH  17  22
ATOM     22  C   UNL     1      19.256  28.440  16.517  1.00  0.00     0.191 C 
BRANCH  22  23
ATOM     23  O   UNL     1      18.510  28.866  15.426  1.00  0.00    -0.394 OA
ATOM     24  H   UNL     1      17.523  28.713  15.553  1.00  0.00     0.210 HD
ENDBRANCH  22  23
ENDBRANCH  17  22
BRANCH  19  25
ATOM     25  O   UNL     1      19.796  27.960  20.971  1.00  0.00    -0.350 OA
BRANCH  25  26
ATOM     26  C   UNL     1      21.057  27.770  20.417  1.00  0.00     0.169 C 
BRANCH  26  27
ATOM     27  C   UNL     1      22.048  27.273  21.464  1.00  0.00     0.119 C 
BRANCH  27  28
ATOM     28  N   UNL     1      21.771  25.842  21.655  1.00  0.00    -0.092 NA
ATOM     29  N   UNL     1      22.089  25.042  20.748  1.00  0.00     0.001 N 
ATOM     30  N   UNL     1      22.432  24.427  19.723  1.00  0.00    -0.003 NA
ENDBRANCH  27  28
ENDBRANCH  26  27
ENDBRANCH  25  26
ENDBRANCH  19  25
BRANCH  20  31
ATOM     31  O   UNL     1      20.345  30.996  18.047  1.00  0.00    -0.387 OA
ATOM     32  H   UNL     1      21.041  30.294  18.208  1.00  0.00     0.211 HD
ENDBRANCH  20  31
BRANCH  21  33
ATOM     33  O   UNL     1      18.694  30.753  21.078  1.00  0.00    -0.385 OA
ATOM     34  H   UNL     1      17.754  30.905  20.805  1.00  0.00     0.211 HD
ENDBRANCH  21  33
ENDBRANCH  15  16
ENDBRANCH  10  15
BRANCH  12  35
ATOM     35  O   UNL     1      15.030  32.392  16.804  1.00  0.00    -0.385 OA
ATOM     36  H   UNL     1      14.115  32.133  16.470  1.00  0.00     0.211 HD
ENDBRANCH  12  35
BRANCH  13  37
ATOM     37  O   UNL     1      15.449  28.940  16.719  1.00  0.00    -0.387 OA
ATOM     38  H   UNL     1      14.913  28.133  16.604  1.00  0.00     0.211 HD
ENDBRANCH  13  37
BRANCH  14  39
ATOM     39  O   UNL     1      14.597  28.780  19.043  1.00  0.00    -0.387 OA
ATOM     40  H   UNL     1      15.398  28.446  18.606  1.00  0.00     0.211 HD
ENDBRANCH  14  39
ENDBRANCH   8   9
ENDBRANCH   7   8
ENDBRANCH   1   7
BRANCH   1  41
ATOM     41  C   UNL     1      15.558  29.365  22.563  1.00  0.00     0.364 C 
ATOM     42  O   UNL     1      15.929  28.956  23.719  1.00  0.00    -0.246 OA
BRANCH  41  43
ATOM     43  O   UNL     1      16.354  29.082  21.500  1.00  0.00    -0.477 OA
ATOM     44  H   UNL     1      16.239  28.277  20.905  1.00  0.00     0.296 HD
ENDBRANCH  41  43
ENDBRANCH   1  41
BRANCH   3  45
ATOM     45  O   UNL     1      12.371  31.891  23.383  1.00  0.00    -0.391 OA
ATOM     46  H   UNL     1      12.357  31.368  22.552  1.00  0.00     0.211 HD
ENDBRANCH   3  45
BRANCH   5  47
ATOM     47  C   UNL     1      15.360  33.446  23.589  1.00  0.00     0.176 C 
BRANCH  47  48
ATOM     48  O   UNL     1      15.265  34.145  24.757  1.00  0.00    -0.388 OA
ATOM     49  H   UNL     1      15.655  33.688  25.543  1.00  0.00     0.211 HD
ENDBRANCH  47  48
BRANCH  47  50
ATOM     50  C   UNL     1      16.702  33.726  22.924  1.00  0.00     0.165 C 
BRANCH  50  51
ATOM     51  O   UNL     1      16.851  33.080  21.743  1.00  0.00    -0.388 OA
ATOM     52  H   UNL     1      16.542  32.152  21.699  1.00  0.00     0.211 HD
ENDBRANCH  50  51
BRANCH  50  53
ATOM     53  C   UNL     1      17.750  33.332  23.918  1.00  0.00     0.154 C 
BRANCH  53  54
ATOM     54  N   UNL     1      18.376  32.089  23.591  1.00  0.00    -0.319 N 
ATOM     55  C   UNL     1      18.462  30.955  24.439  1.00  0.00     0.407 C 
ATOM     56  H   UNL     1      18.842  31.944  22.627  1.00  0.00     0.167 HD
ATOM     57  O   UNL     1      17.955  30.968  25.579  1.00  0.00    -0.225 OA
BRANCH  55  58
ATOM     58  O   UNL     1      19.113  29.788  24.030  1.00  0.00    -0.443 OA
BRANCH  58  59
ATOM     59  C   UNL     1      20.507  29.665  23.945  1.00  0.00     0.294 C 
BRANCH  59  60
ATOM     60  C   UNL     1      20.934  28.495  24.786  1.00  0.00     0.121 A 
ATOM     61  C   UNL     1      22.060  28.452  25.609  1.00  0.00     0.144 A 
ATOM     62  N   UNL     1      20.345  27.301  24.925  1.00  0.00    -0.131 NA
ATOM     63  N   UNL     1      22.110  27.242  26.208  1.00  0.00    -0.220 N 
ATOM     64  N   UNL     1      21.051  26.584  25.762  1.00  0.00    -0.062 NA
BRANCH  63  65
ATOM     65  C   UNL     1      23.065  26.762  27.121  1.00  0.00     0.070 A 
ATOM     66  C   UNL     1      24.262  26.269  26.681  1.00  0.00     0.032 A 
ATOM     67  C   UNL     1      22.811  26.784  28.470  1.00  0.00     0.079 A 
ATOM     68  C   UNL     1      25.207  25.797  27.604  1.00  0.00     0.053 A 
ATOM     69  C   UNL     1      23.728  26.324  29.391  1.00  0.00     0.167 A 
ATOM     70  C   UNL     1      24.927  25.830  28.947  1.00  0.00     0.165 A 
ATOM     71  O   UNL     1      23.686  26.252  30.766  1.00  0.00    -0.454 OA
ATOM     72  O   UNL     1      25.664  25.437  30.057  1.00  0.00    -0.454 OA
ATOM     73  C   UNL     1      24.791  25.424  31.152  1.00  0.00     0.468 C 
ENDBRANCH  63  65
ENDBRANCH  59  60
ENDBRANCH  58  59
ENDBRANCH  55  58
ENDBRANCH  53  54
ENDBRANCH  50  53
ENDBRANCH  47  50
ENDBRANCH   5  47
BRANCH   4  74
ATOM     74  N   UNL     1      14.712  31.071  26.052  1.00  0.00    -0.348 N 
ATOM     75  C   UNL     1      15.039  31.698  27.311  1.00  0.00     0.217 C 
ATOM     76  H   UNL     1      14.893  30.045  26.040  1.00  0.00     0.163 HD
ATOM     77  C   UNL     1      15.575  30.903  28.448  1.00  0.00     0.114 C 
ATOM     78  O   UNL     1      14.868  32.915  27.440  1.00  0.00    -0.275 OA
ENDBRANCH   4  74
TORSDOF 30
