REMARK VINA RESULT:    -5.977      5.888     13.914
REMARK INTER + INTRA:         -22.174
REMARK INTER:                 -12.956
REMARK INTRA:                  -9.218
REMARK UNBOUND:                -6.938
REMARK SMILES CC(=O)N[C@@H]1[C@@H](O)C[C@](OC[C@H]2O[C@@H](O[C@H]3[C@H](O)[C@@H](O)[C@H](OCCN=[N+]=[N-])O[C@@H]3CO)[C@H](O)[C@@H](O)[C@H]2O)(C(=O)O)O[C@H]1C(O)[C@H](O)CNC(=O)OCc1cn(Cc2cc(Br)cc(Br)c2O)nn1
REMARK SMILES IDX 9 1 8 2 6 3 5 4 42 5 41 6 10 7 11 8 12 9 14 10 13 11 32 12
REMARK SMILES IDX 34 13 36 14 15 15 16 16 29 17 28 18 21 19 17 20 19 21 30 22
REMARK SMILES IDX 31 23 22 25 23 26 24 27 25 28 26 29 27 30 18 31 20 33 33 35
REMARK SMILES IDX 35 37 37 39 38 41 39 42 40 43 7 45 43 47 44 48 45 50 46 51
REMARK SMILES IDX 47 53 48 54 49 55 50 57 51 58 52 59 53 60 54 61 67 62 55 63
REMARK SMILES IDX 66 64 56 65 57 66 58 67 64 68 59 69 62 70 60 71 61 72 63 73
REMARK SMILES IDX 65 74 4 76 2 77 1 79 3 80
REMARK H PARENT 31 24 18 32 20 34 33 36 35 38 37 40 40 44 7 46 44 49 46 52
REMARK H PARENT 48 56 65 75 4 78
REMARK Flexibility Score: inf
ROOT
ATOM      1  C   UNL     1      12.049  31.841  14.947  1.00  0.00     0.272 C 
ATOM      2  C   UNL     1      12.510  30.401  15.480  1.00  0.00     0.113 C 
ATOM      3  C   UNL     1      11.680  29.347  14.870  1.00  0.00     0.145 C 
ATOM      4  C   UNL     1      11.733  29.443  13.367  1.00  0.00     0.142 C 
ATOM      5  C   UNL     1      12.162  30.773  12.824  1.00  0.00     0.178 C 
ATOM      6  O   UNL     1      12.223  31.842  13.608  1.00  0.00    -0.332 OA
ENDROOT
BRANCH   1   7
ATOM      7  O   UNL     1      12.975  32.613  15.561  1.00  0.00    -0.338 OA
BRANCH   7   8
ATOM      8  C   UNL     1      13.797  32.239  16.522  1.00  0.00     0.199 C 
BRANCH   8   9
ATOM      9  C   UNL     1      14.729  33.198  17.177  1.00  0.00     0.179 C 
ATOM     10  C   UNL     1      15.539  31.783  18.840  1.00  0.00     0.282 C 
ATOM     11  O   UNL     1      14.936  32.947  18.489  1.00  0.00    -0.341 OA
ATOM     12  C   UNL     1      16.701  31.447  17.964  1.00  0.00     0.202 C 
ATOM     13  C   UNL     1      17.157  32.657  17.195  1.00  0.00     0.179 C 
ATOM     14  C   UNL     1      16.053  33.311  16.417  1.00  0.00     0.177 C 
BRANCH  10  15
ATOM     15  O   UNL     1      14.603  30.742  18.954  1.00  0.00    -0.341 OA
BRANCH  15  16
ATOM     16  C   UNL     1      14.406  30.297  20.241  1.00  0.00     0.184 C 
ATOM     17  C   UNL     1      14.272  28.792  20.295  1.00  0.00     0.178 C 
ATOM     18  O   UNL     1      13.826  28.307  21.490  1.00  0.00    -0.341 OA
ATOM     19  C   UNL     1      13.850  29.186  22.557  1.00  0.00     0.281 C 
ATOM     20  C   UNL     1      13.080  30.811  20.811  1.00  0.00     0.180 C 
ATOM     21  C   UNL     1      13.111  30.468  22.281  1.00  0.00     0.202 C 
BRANCH  17  22
ATOM     22  C   UNL     1      15.542  28.079  19.879  1.00  0.00     0.191 C 
BRANCH  22  23
ATOM     23  O   UNL     1      16.659  28.681  20.416  1.00  0.00    -0.394 OA
ATOM     24  H   UNL     1      17.274  27.975  20.725  1.00  0.00     0.210 HD
ENDBRANCH  22  23
ENDBRANCH  17  22
BRANCH  19  25
ATOM     25  O   UNL     1      15.166  29.397  22.935  1.00  0.00    -0.350 OA
BRANCH  25  26
ATOM     26  C   UNL     1      15.280  30.491  23.750  1.00  0.00     0.169 C 
BRANCH  26  27
ATOM     27  C   UNL     1      16.255  31.531  23.316  1.00  0.00     0.119 C 
BRANCH  27  28
ATOM     28  N   UNL     1      17.633  31.101  23.439  1.00  0.00    -0.092 NA
ATOM     29  N   UNL     1      18.241  30.570  22.531  1.00  0.00     0.001 N 
ATOM     30  N   UNL     1      19.047  30.269  21.655  1.00  0.00    -0.003 NA
ENDBRANCH  27  28
ENDBRANCH  26  27
ENDBRANCH  25  26
ENDBRANCH  19  25
BRANCH  20  31
ATOM     31  O   UNL     1      12.855  32.138  20.567  1.00  0.00    -0.387 OA
ATOM     32  H   UNL     1      13.514  32.644  21.142  1.00  0.00     0.211 HD
ENDBRANCH  20  31
BRANCH  21  33
ATOM     33  O   UNL     1      11.831  30.386  22.816  1.00  0.00    -0.385 OA
ATOM     34  H   UNL     1      11.863  30.379  23.788  1.00  0.00     0.211 HD
ENDBRANCH  21  33
ENDBRANCH  15  16
ENDBRANCH  10  15
BRANCH  12  35
ATOM     35  O   UNL     1      17.746  30.987  18.803  1.00  0.00    -0.385 OA
ATOM     36  H   UNL     1      17.571  31.409  19.677  1.00  0.00     0.211 HD
ENDBRANCH  12  35
BRANCH  13  37
ATOM     37  O   UNL     1      18.249  32.374  16.375  1.00  0.00    -0.387 OA
ATOM     38  H   UNL     1      19.028  32.813  16.802  1.00  0.00     0.211 HD
ENDBRANCH  13  37
BRANCH  14  39
ATOM     39  O   UNL     1      15.926  32.700  15.183  1.00  0.00    -0.387 OA
ATOM     40  H   UNL     1      16.646  32.028  15.046  1.00  0.00     0.211 HD
ENDBRANCH  14  39
ENDBRANCH   8   9
ENDBRANCH   7   8
ENDBRANCH   1   7
BRANCH   1  41
ATOM     41  C   UNL     1      10.659  31.973  15.370  1.00  0.00     0.364 C 
ATOM     42  O   UNL     1       9.724  32.210  14.516  1.00  0.00    -0.246 OA
BRANCH  41  43
ATOM     43  O   UNL     1      10.222  31.858  16.664  1.00  0.00    -0.477 OA
ATOM     44  H   UNL     1      10.809  31.452  17.378  1.00  0.00     0.296 HD
ENDBRANCH  41  43
ENDBRANCH   1  41
BRANCH   3  45
ATOM     45  O   UNL     1      12.137  28.095  15.320  1.00  0.00    -0.391 OA
ATOM     46  H   UNL     1      12.749  27.705  14.655  1.00  0.00     0.211 HD
ENDBRANCH   3  45
BRANCH   5  47
ATOM     47  C   UNL     1      13.399  30.543  11.977  1.00  0.00     0.176 C 
BRANCH  47  48
ATOM     48  O   UNL     1      13.224  31.169  10.717  1.00  0.00    -0.388 OA
ATOM     49  H   UNL     1      13.479  30.566   9.991  1.00  0.00     0.211 HD
ENDBRANCH  47  48
BRANCH  47  50
ATOM     50  C   UNL     1      14.684  30.907  12.597  1.00  0.00     0.165 C 
BRANCH  50  51
ATOM     51  O   UNL     1      14.927  32.262  12.560  1.00  0.00    -0.388 OA
ATOM     52  H   UNL     1      15.107  32.657  13.450  1.00  0.00     0.211 HD
ENDBRANCH  50  51
BRANCH  50  53
ATOM     53  C   UNL     1      15.898  30.144  12.195  1.00  0.00     0.154 C 
BRANCH  53  54
ATOM     54  N   UNL     1      16.669  29.568  13.242  1.00  0.00    -0.319 N 
ATOM     55  C   UNL     1      17.694  30.381  13.837  1.00  0.00     0.407 C 
ATOM     56  H   UNL     1      16.560  28.601  13.588  1.00  0.00     0.167 HD
ATOM     57  O   UNL     1      17.863  31.572  13.405  1.00  0.00    -0.225 OA
BRANCH  55  58
ATOM     58  O   UNL     1      18.464  29.880  14.847  1.00  0.00    -0.443 OA
BRANCH  58  59
ATOM     59  C   UNL     1      18.281  28.593  15.379  1.00  0.00     0.294 C 
BRANCH  59  60
ATOM     60  C   UNL     1      18.879  28.497  16.729  1.00  0.00     0.120 A 
ATOM     61  C   UNL     1      20.157  28.836  17.157  1.00  0.00     0.138 A 
ATOM     62  N   UNL     1      18.268  28.055  17.841  1.00  0.00    -0.132 NA
ATOM     63  N   UNL     1      20.285  28.596  18.470  1.00  0.00    -0.248 N 
ATOM     64  N   UNL     1      19.101  28.116  18.860  1.00  0.00    -0.067 NA
BRANCH  63  65
ATOM     65  C   UNL     1      21.439  28.792  19.354  1.00  0.00     0.185 C 
BRANCH  65  66
ATOM     66  C   UNL     1      21.910  27.451  19.772  1.00  0.00     0.018 A 
ATOM     67  C   UNL     1      22.858  26.808  19.001  1.00  0.00     0.025 A 
ATOM     68  C   UNL     1      21.432  26.817  20.913  1.00  0.00     0.134 A 
ATOM     69  C   UNL     1      23.345  25.553  19.334  1.00  0.00     0.019 A 
ATOM     70  C   UNL     1      21.899  25.563  21.272  1.00  0.00     0.061 A 
ATOM     71  Br  UNL     1      24.652  24.704  18.241  1.00  0.00    -0.051 Br
ATOM     72  C   UNL     1      22.857  24.948  20.467  1.00  0.00     0.035 A 
ATOM     73  Br  UNL     1      21.235  24.723  22.828  1.00  0.00    -0.047 Br
BRANCH  68  74
ATOM     74  O   UNL     1      20.485  27.512  21.640  1.00  0.00    -0.506 OA
ATOM     75  H   UNL     1      19.515  27.446  21.379  1.00  0.00     0.293 HD
ENDBRANCH  68  74
ENDBRANCH  65  66
ENDBRANCH  63  65
ENDBRANCH  59  60
ENDBRANCH  58  59
ENDBRANCH  55  58
ENDBRANCH  53  54
ENDBRANCH  50  53
ENDBRANCH  47  50
ENDBRANCH   5  47
BRANCH   4  76
ATOM     76  N   UNL     1      10.500  28.939  12.802  1.00  0.00    -0.348 N 
ATOM     77  C   UNL     1      10.563  27.963  11.774  1.00  0.00     0.217 C 
ATOM     78  H   UNL     1       9.554  29.262  13.112  1.00  0.00     0.163 HD
ATOM     79  C   UNL     1       9.287  27.441  11.190  1.00  0.00     0.114 C 
ATOM     80  O   UNL     1      11.695  27.542  11.363  1.00  0.00    -0.275 OA
ENDBRANCH   4  76
TORSDOF 32
