REMARK VINA RESULT:    -6.315      6.427     11.600
REMARK INTER + INTRA:         -21.618
REMARK INTER:                 -13.262
REMARK INTRA:                  -8.357
REMARK UNBOUND:                -5.152
REMARK SMILES CC(=O)N[C@@H]1[C@@H](O)C[C@](OC[C@H]2O[C@@H](O[C@H]3[C@H](O)[C@@H](O)[C@H](OCCN=[N+]=[N-])O[C@@H]3CO)[C@H](O)[C@@H](O)[C@H]2O)(C(=O)O)O[C@H]1C(O)[C@H](O)CNC(=O)OCc1cn(CC(O)c2ccccc2)nn1
REMARK SMILES IDX 9 1 8 2 6 3 5 4 42 5 41 6 10 7 11 8 12 9 14 10 13 11 32 12
REMARK SMILES IDX 34 13 36 14 15 15 16 16 29 17 28 18 21 19 17 20 19 21 30 22
REMARK SMILES IDX 31 23 22 25 23 26 24 27 25 28 26 29 27 30 18 31 20 33 33 35
REMARK SMILES IDX 35 37 37 39 38 41 39 42 40 43 7 45 43 47 44 48 45 50 46 51
REMARK SMILES IDX 47 53 48 54 49 55 50 57 51 58 52 59 53 60 54 61 66 62 55 63
REMARK SMILES IDX 65 64 56 65 57 66 58 67 59 69 60 70 64 71 61 72 63 73 62 74
REMARK SMILES IDX 4 75 2 76 1 78 3 79
REMARK H PARENT 31 24 18 32 20 34 33 36 35 38 37 40 40 44 7 46 44 49 46 52
REMARK H PARENT 48 56 58 68 4 77
REMARK Flexibility Score: inf
ROOT
ATOM      1  C   UNL     1      13.954  30.641  21.957  1.00  0.00     0.272 C 
ATOM      2  C   UNL     1      12.834  31.572  21.683  1.00  0.00     0.113 C 
ATOM      3  C   UNL     1      13.131  33.028  21.773  1.00  0.00     0.145 C 
ATOM      4  C   UNL     1      14.439  33.219  22.475  1.00  0.00     0.142 C 
ATOM      5  C   UNL     1      14.506  32.204  23.602  1.00  0.00     0.178 C 
ATOM      6  O   UNL     1      14.528  30.902  23.206  1.00  0.00    -0.332 OA
ENDROOT
BRANCH   1   7
ATOM      7  O   UNL     1      14.976  30.596  21.056  1.00  0.00    -0.338 OA
BRANCH   7   8
ATOM      8  C   UNL     1      14.666  30.593  19.731  1.00  0.00     0.199 C 
BRANCH   8   9
ATOM      9  C   UNL     1      15.908  30.498  18.875  1.00  0.00     0.179 C 
ATOM     10  C   UNL     1      18.121  29.924  19.132  1.00  0.00     0.282 C 
ATOM     11  O   UNL     1      17.046  30.591  19.653  1.00  0.00    -0.341 OA
ATOM     12  C   UNL     1      17.954  28.424  19.032  1.00  0.00     0.202 C 
ATOM     13  C   UNL     1      16.499  28.137  18.734  1.00  0.00     0.179 C 
ATOM     14  C   UNL     1      15.961  29.323  17.959  1.00  0.00     0.177 C 
BRANCH  10  15
ATOM     15  O   UNL     1      19.271  30.115  19.891  1.00  0.00    -0.341 OA
BRANCH  15  16
ATOM     16  C   UNL     1      19.326  29.417  21.066  1.00  0.00     0.184 C 
ATOM     17  C   UNL     1      19.079  30.423  22.184  1.00  0.00     0.178 C 
ATOM     18  O   UNL     1      20.262  30.816  22.773  1.00  0.00    -0.341 OA
ATOM     19  C   UNL     1      21.146  31.200  21.748  1.00  0.00     0.281 C 
ATOM     20  C   UNL     1      20.724  28.818  21.157  1.00  0.00     0.180 C 
ATOM     21  C   UNL     1      21.772  29.917  21.212  1.00  0.00     0.202 C 
BRANCH  17  22
ATOM     22  C   UNL     1      18.097  29.868  23.202  1.00  0.00     0.191 C 
BRANCH  22  23
ATOM     23  O   UNL     1      16.946  29.387  22.586  1.00  0.00    -0.394 OA
ATOM     24  H   UNL     1      16.240  30.083  22.520  1.00  0.00     0.210 HD
ENDBRANCH  22  23
ENDBRANCH  17  22
BRANCH  19  25
ATOM     25  O   UNL     1      22.065  32.049  22.313  1.00  0.00    -0.350 OA
BRANCH  25  26
ATOM     26  C   UNL     1      21.968  33.366  21.932  1.00  0.00     0.169 C 
BRANCH  26  27
ATOM     27  C   UNL     1      21.006  34.179  22.752  1.00  0.00     0.119 C 
BRANCH  27  28
ATOM     28  N   UNL     1      20.043  34.849  21.871  1.00  0.00    -0.092 NA
ATOM     29  N   UNL     1      19.154  34.109  21.421  1.00  0.00     0.001 N 
ATOM     30  N   UNL     1      18.108  33.622  20.992  1.00  0.00    -0.003 NA
ENDBRANCH  27  28
ENDBRANCH  26  27
ENDBRANCH  25  26
ENDBRANCH  19  25
BRANCH  20  31
ATOM     31  O   UNL     1      20.823  27.998  22.272  1.00  0.00    -0.387 OA
ATOM     32  H   UNL     1      19.922  27.633  22.501  1.00  0.00     0.211 HD
ENDBRANCH  20  31
BRANCH  21  33
ATOM     33  O   UNL     1      22.372  30.094  19.979  1.00  0.00    -0.385 OA
ATOM     34  H   UNL     1      22.105  30.982  19.637  1.00  0.00     0.211 HD
ENDBRANCH  21  33
ENDBRANCH  15  16
ENDBRANCH  10  15
BRANCH  12  35
ATOM     35  O   UNL     1      18.740  27.958  17.973  1.00  0.00    -0.385 OA
ATOM     36  H   UNL     1      19.111  27.075  18.249  1.00  0.00     0.211 HD
ENDBRANCH  12  35
BRANCH  13  37
ATOM     37  O   UNL     1      15.865  28.016  19.968  1.00  0.00    -0.387 OA
ATOM     38  H   UNL     1      14.894  28.055  19.924  1.00  0.00     0.211 HD
ENDBRANCH  13  37
BRANCH  14  39
ATOM     39  O   UNL     1      14.783  29.073  17.295  1.00  0.00    -0.387 OA
ATOM     40  H   UNL     1      14.108  28.596  17.843  1.00  0.00     0.211 HD
ENDBRANCH  14  39
ENDBRANCH   8   9
ENDBRANCH   7   8
ENDBRANCH   1   7
BRANCH   1  41
ATOM     41  C   UNL     1      13.311  29.275  22.136  1.00  0.00     0.364 C 
ATOM     42  O   UNL     1      13.593  28.364  21.375  1.00  0.00    -0.246 OA
BRANCH  41  43
ATOM     43  O   UNL     1      12.420  29.157  23.188  1.00  0.00    -0.477 OA
ATOM     44  H   UNL     1      12.641  29.658  24.023  1.00  0.00     0.296 HD
ENDBRANCH  41  43
ENDBRANCH   1  41
BRANCH   3  45
ATOM     45  O   UNL     1      13.071  33.653  20.527  1.00  0.00    -0.391 OA
ATOM     46  H   UNL     1      13.802  34.332  20.527  1.00  0.00     0.211 HD
ENDBRANCH   3  45
BRANCH   5  47
ATOM     47  C   UNL     1      15.667  32.624  24.468  1.00  0.00     0.176 C 
BRANCH  47  48
ATOM     48  O   UNL     1      16.791  32.805  23.648  1.00  0.00    -0.388 OA
ATOM     49  H   UNL     1      16.589  32.345  22.786  1.00  0.00     0.211 HD
ENDBRANCH  47  48
BRANCH  47  50
ATOM     50  C   UNL     1      15.927  31.665  25.581  1.00  0.00     0.165 C 
BRANCH  50  51
ATOM     51  O   UNL     1      14.798  31.013  25.996  1.00  0.00    -0.388 OA
ATOM     52  H   UNL     1      14.002  31.563  26.063  1.00  0.00     0.211 HD
ENDBRANCH  50  51
BRANCH  50  53
ATOM     53  C   UNL     1      16.811  32.200  26.677  1.00  0.00     0.154 C 
BRANCH  53  54
ATOM     54  N   UNL     1      17.965  31.409  26.988  1.00  0.00    -0.319 N 
ATOM     55  C   UNL     1      19.227  31.521  26.333  1.00  0.00     0.407 C 
ATOM     56  H   UNL     1      17.903  30.679  27.768  1.00  0.00     0.167 HD
ATOM     57  O   UNL     1      19.400  32.354  25.426  1.00  0.00    -0.225 OA
BRANCH  55  58
ATOM     58  O   UNL     1      20.287  30.715  26.683  1.00  0.00    -0.443 OA
BRANCH  58  59
ATOM     59  C   UNL     1      21.086  30.013  25.732  1.00  0.00     0.294 C 
BRANCH  59  60
ATOM     60  C   UNL     1      21.606  28.753  26.352  1.00  0.00     0.120 A 
ATOM     61  C   UNL     1      22.801  28.109  26.164  1.00  0.00     0.138 A 
ATOM     62  N   UNL     1      20.919  28.029  27.263  1.00  0.00    -0.132 NA
ATOM     63  N   UNL     1      22.830  27.001  26.964  1.00  0.00    -0.249 N 
ATOM     64  N   UNL     1      21.677  27.013  27.593  1.00  0.00    -0.067 NA
BRANCH  63  65
ATOM     65  C   UNL     1      23.927  26.051  27.062  1.00  0.00     0.182 C 
BRANCH  65  66
ATOM     66  C   UNL     1      23.474  24.684  26.582  1.00  0.00     0.166 C 
BRANCH  66  67
ATOM     67  O   UNL     1      22.438  24.316  27.472  1.00  0.00    -0.386 OA
ATOM     68  H   UNL     1      22.272  23.335  27.406  1.00  0.00     0.211 HD
ENDBRANCH  66  67
BRANCH  66  69
ATOM     69  C   UNL     1      22.986  24.664  25.200  1.00  0.00    -0.018 A 
ATOM     70  C   UNL     1      21.664  24.642  24.878  1.00  0.00     0.006 A 
ATOM     71  C   UNL     1      23.979  24.651  24.209  1.00  0.00     0.006 A 
ATOM     72  C   UNL     1      21.312  24.606  23.538  1.00  0.00     0.000 A 
ATOM     73  C   UNL     1      23.605  24.615  22.893  1.00  0.00     0.000 A 
ATOM     74  C   UNL     1      22.268  24.592  22.550  1.00  0.00     0.000 A 
ENDBRANCH  66  69
ENDBRANCH  65  66
ENDBRANCH  63  65
ENDBRANCH  59  60
ENDBRANCH  58  59
ENDBRANCH  55  58
ENDBRANCH  53  54
ENDBRANCH  50  53
ENDBRANCH  47  50
ENDBRANCH   5  47
BRANCH   4  75
ATOM     75  N   UNL     1      14.466  34.528  23.147  1.00  0.00    -0.348 N 
ATOM     76  C   UNL     1      14.942  35.700  22.506  1.00  0.00     0.217 C 
ATOM     77  H   UNL     1      14.130  34.619  24.129  1.00  0.00     0.163 HD
ATOM     78  C   UNL     1      14.985  37.037  23.151  1.00  0.00     0.114 C 
ATOM     79  O   UNL     1      15.350  35.597  21.316  1.00  0.00    -0.275 OA
ENDBRANCH   4  75
TORSDOF 33
