REMARK VINA RESULT:    -6.398      2.934      7.693
REMARK INTER + INTRA:         -21.584
REMARK INTER:                 -14.037
REMARK INTRA:                  -7.547
REMARK UNBOUND:                -5.087
REMARK SMILES CC(=O)N[C@@H]1[C@@H](O)C[C@](OC[C@H]2O[C@@H](O[C@H]3[C@H](O)[C@@H](O)[C@H](OCCN=[N+]=[N-])O[C@@H]3CO)[C@H](O)[C@@H](O)[C@H]2O)(C(=O)O)O[C@H]1C(O)[C@H](O)CNC(=O)OCc1cn(CS(=O)(=O)c2ccccc2)nn1
REMARK SMILES IDX 9 1 8 2 6 3 5 4 42 5 41 6 10 7 11 8 12 9 14 10 13 11 32 12
REMARK SMILES IDX 34 13 36 14 15 15 16 16 29 17 28 18 21 19 17 20 19 21 30 22
REMARK SMILES IDX 31 23 22 25 23 26 24 27 25 28 26 29 27 30 18 31 20 33 33 35
REMARK SMILES IDX 35 37 37 39 38 41 39 42 40 43 7 45 43 47 44 48 45 50 46 51
REMARK SMILES IDX 47 53 48 54 49 55 50 57 51 58 52 59 53 60 54 61 67 62 55 63
REMARK SMILES IDX 66 64 56 65 57 66 58 67 59 68 60 69 61 70 65 71 62 72 64 73
REMARK SMILES IDX 63 74 4 75 2 76 1 78 3 79
REMARK H PARENT 31 24 18 32 20 34 33 36 35 38 37 40 40 44 7 46 44 49 46 52
REMARK H PARENT 48 56 4 77
REMARK Flexibility Score: inf
ROOT
ATOM      1  C   UNL     1      20.314  29.741  23.933  1.00  0.00     0.272 C 
ATOM      2  C   UNL     1      18.968  30.240  24.271  1.00  0.00     0.113 C 
ATOM      3  C   UNL     1      18.240  30.941  23.141  1.00  0.00     0.145 C 
ATOM      4  C   UNL     1      19.183  31.951  22.587  1.00  0.00     0.142 C 
ATOM      5  C   UNL     1      20.542  31.391  22.274  1.00  0.00     0.178 C 
ATOM      6  O   UNL     1      21.118  30.599  23.199  1.00  0.00    -0.332 OA
ENDROOT
BRANCH   1   7
ATOM      7  O   UNL     1      20.320  28.454  23.439  1.00  0.00    -0.338 OA
BRANCH   7   8
ATOM      8  C   UNL     1      21.408  27.689  23.704  1.00  0.00     0.199 C 
BRANCH   8   9
ATOM      9  C   UNL     1      22.337  27.612  22.473  1.00  0.00     0.179 C 
ATOM     10  C   UNL     1      24.201  26.168  22.678  1.00  0.00     0.282 C 
ATOM     11  O   UNL     1      23.574  27.358  22.918  1.00  0.00    -0.341 OA
ATOM     12  C   UNL     1      23.242  25.043  22.583  1.00  0.00     0.202 C 
ATOM     13  C   UNL     1      22.139  25.321  21.608  1.00  0.00     0.179 C 
ATOM     14  C   UNL     1      21.840  26.748  21.389  1.00  0.00     0.177 C 
BRANCH  10  15
ATOM     15  O   UNL     1      25.110  26.018  23.738  1.00  0.00    -0.341 OA
BRANCH  15  16
ATOM     16  C   UNL     1      24.686  26.418  24.960  1.00  0.00     0.184 C 
ATOM     17  C   UNL     1      25.603  27.420  25.595  1.00  0.00     0.178 C 
ATOM     18  O   UNL     1      24.879  28.067  26.592  1.00  0.00    -0.341 OA
ATOM     19  C   UNL     1      24.173  27.245  27.426  1.00  0.00     0.281 C 
ATOM     20  C   UNL     1      24.694  25.243  25.969  1.00  0.00     0.180 C 
ATOM     21  C   UNL     1      24.466  25.799  27.319  1.00  0.00     0.202 C 
BRANCH  17  22
ATOM     22  C   UNL     1      26.186  28.442  24.685  1.00  0.00     0.191 C 
BRANCH  22  23
ATOM     23  O   UNL     1      25.165  29.227  24.160  1.00  0.00    -0.394 OA
ATOM     24  H   UNL     1      24.290  28.841  24.395  1.00  0.00     0.210 HD
ENDBRANCH  22  23
ENDBRANCH  17  22
BRANCH  19  25
ATOM     25  O   UNL     1      22.825  27.457  27.149  1.00  0.00    -0.350 OA
BRANCH  25  26
ATOM     26  C   UNL     1      22.005  26.548  27.857  1.00  0.00     0.169 C 
BRANCH  26  27
ATOM     27  C   UNL     1      21.308  27.283  28.981  1.00  0.00     0.119 C 
BRANCH  27  28
ATOM     28  N   UNL     1      21.555  26.541  30.214  1.00  0.00    -0.092 NA
ATOM     29  N   UNL     1      22.736  26.451  30.607  1.00  0.00     0.001 N 
ATOM     30  N   UNL     1      23.935  26.178  30.797  1.00  0.00    -0.003 NA
ENDBRANCH  27  28
ENDBRANCH  26  27
ENDBRANCH  25  26
ENDBRANCH  19  25
BRANCH  20  31
ATOM     31  O   UNL     1      23.708  24.326  25.645  1.00  0.00    -0.387 OA
ATOM     32  H   UNL     1      23.592  24.336  24.661  1.00  0.00     0.211 HD
ENDBRANCH  20  31
BRANCH  21  33
ATOM     33  O   UNL     1      25.635  25.559  28.085  1.00  0.00    -0.385 OA
ATOM     34  H   UNL     1      25.606  25.999  28.960  1.00  0.00     0.211 HD
ENDBRANCH  21  33
ENDBRANCH  15  16
ENDBRANCH  10  15
BRANCH  12  35
ATOM     35  O   UNL     1      23.878  23.871  22.062  1.00  0.00    -0.385 OA
ATOM     36  H   UNL     1      24.443  24.199  21.322  1.00  0.00     0.211 HD
ENDBRANCH  12  35
BRANCH  13  37
ATOM     37  O   UNL     1      20.968  24.605  21.961  1.00  0.00    -0.387 OA
ATOM     38  H   UNL     1      20.857  24.627  22.955  1.00  0.00     0.211 HD
ENDBRANCH  13  37
BRANCH  14  39
ATOM     39  O   UNL     1      20.459  26.903  21.163  1.00  0.00    -0.387 OA
ATOM     40  H   UNL     1      20.109  27.516  21.860  1.00  0.00     0.211 HD
ENDBRANCH  14  39
ENDBRANCH   8   9
ENDBRANCH   7   8
ENDBRANCH   1   7
BRANCH   1  41
ATOM     41  C   UNL     1      21.060  29.689  25.257  1.00  0.00     0.364 C 
ATOM     42  O   UNL     1      20.393  29.542  26.294  1.00  0.00    -0.246 OA
BRANCH  41  43
ATOM     43  O   UNL     1      22.440  29.801  25.288  1.00  0.00    -0.477 OA
ATOM     44  H   UNL     1      23.010  29.057  25.719  1.00  0.00     0.296 HD
ENDBRANCH  41  43
ENDBRANCH   1  41
BRANCH   3  45
ATOM     45  O   UNL     1      17.797  30.005  22.248  1.00  0.00    -0.391 OA
ATOM     46  H   UNL     1      17.297  30.484  21.530  1.00  0.00     0.211 HD
ENDBRANCH   3  45
BRANCH   5  47
ATOM     47  C   UNL     1      20.644  30.862  20.862  1.00  0.00     0.176 C 
BRANCH  47  48
ATOM     48  O   UNL     1      19.958  31.631  19.925  1.00  0.00    -0.388 OA
ATOM     49  H   UNL     1      19.302  32.237  20.300  1.00  0.00     0.211 HD
ENDBRANCH  47  48
BRANCH  47  50
ATOM     50  C   UNL     1      22.083  30.677  20.404  1.00  0.00     0.165 C 
BRANCH  50  51
ATOM     51  O   UNL     1      22.788  31.858  20.360  1.00  0.00    -0.388 OA
ATOM     52  H   UNL     1      23.626  31.830  19.873  1.00  0.00     0.211 HD
ENDBRANCH  50  51
BRANCH  50  53
ATOM     53  C   UNL     1      22.235  29.888  19.160  1.00  0.00     0.154 C 
BRANCH  53  54
ATOM     54  N   UNL     1      21.040  29.476  18.489  1.00  0.00    -0.319 N 
ATOM     55  C   UNL     1      20.735  28.170  18.044  1.00  0.00     0.407 C 
ATOM     56  H   UNL     1      20.304  30.225  18.302  1.00  0.00     0.167 HD
ATOM     57  O   UNL     1      21.525  27.226  18.225  1.00  0.00    -0.225 OA
BRANCH  55  58
ATOM     58  O   UNL     1      19.529  27.955  17.396  1.00  0.00    -0.443 OA
BRANCH  58  59
ATOM     59  C   UNL     1      18.467  28.862  17.372  1.00  0.00     0.294 C 
BRANCH  59  60
ATOM     60  C   UNL     1      17.560  28.594  18.504  1.00  0.00     0.120 A 
ATOM     61  C   UNL     1      16.213  28.916  18.510  1.00  0.00     0.139 A 
ATOM     62  N   UNL     1      17.792  28.020  19.695  1.00  0.00    -0.132 NA
ATOM     63  N   UNL     1      15.674  28.534  19.682  1.00  0.00    -0.237 N 
ATOM     64  N   UNL     1      16.667  27.993  20.380  1.00  0.00    -0.066 NA
BRANCH  63  65
ATOM     65  C   UNL     1      14.304  28.679  20.090  1.00  0.00     0.287 C 
BRANCH  65  66
ATOM     66  S   UNL     1      14.142  30.330  20.769  1.00  0.00     0.198 S 
ATOM     67  O   UNL     1      13.182  31.133  19.976  1.00  0.00    -0.222 OA
ATOM     68  O   UNL     1      15.531  30.946  20.756  1.00  0.00    -0.222 OA
BRANCH  66  69
ATOM     69  C   UNL     1      13.601  30.162  22.418  1.00  0.00     0.069 A 
ATOM     70  C   UNL     1      14.467  30.253  23.486  1.00  0.00     0.020 A 
ATOM     71  C   UNL     1      12.274  29.930  22.709  1.00  0.00     0.020 A 
ATOM     72  C   UNL     1      14.044  30.120  24.783  1.00  0.00     0.001 A 
ATOM     73  C   UNL     1      11.834  29.795  24.001  1.00  0.00     0.001 A 
ATOM     74  C   UNL     1      12.726  29.890  25.040  1.00  0.00     0.000 A 
ENDBRANCH  66  69
ENDBRANCH  65  66
ENDBRANCH  63  65
ENDBRANCH  59  60
ENDBRANCH  58  59
ENDBRANCH  55  58
ENDBRANCH  53  54
ENDBRANCH  50  53
ENDBRANCH  47  50
ENDBRANCH   5  47
BRANCH   4  75
ATOM     75  N   UNL     1      19.373  33.001  23.581  1.00  0.00    -0.348 N 
ATOM     76  C   UNL     1      19.528  34.365  23.208  1.00  0.00     0.217 C 
ATOM     77  H   UNL     1      19.408  32.794  24.626  1.00  0.00     0.163 HD
ATOM     78  C   UNL     1      19.722  35.410  24.275  1.00  0.00     0.114 C 
ATOM     79  O   UNL     1      19.503  34.710  21.991  1.00  0.00    -0.275 OA
ENDBRANCH   4  75
TORSDOF 32
