REMARK VINA RESULT:    -5.959      2.478      8.480
REMARK INTER + INTRA:         -21.703
REMARK INTER:                 -14.083
REMARK INTRA:                  -7.620
REMARK UNBOUND:                -7.035
REMARK SMILES CC(=O)N[C@@H]1[C@@H](O)C[C@](OC[C@H]2O[C@@H](O[C@H]3[C@H](O)[C@@H](O)[C@H](OCCN=[N+]=[N-])O[C@@H]3CO)[C@H](O)[C@@H](O)[C@H]2O)(C(=O)O)O[C@H]1C(O)[C@H](O)CNC(=O)OCc1cn([C@@H]2C[C@H]3CC[C@@H](C2)N3C)nn1
REMARK SMILES IDX 9 1 8 2 6 3 5 4 42 5 41 6 10 7 11 8 12 9 14 10 13 11 32 12
REMARK SMILES IDX 34 13 36 14 15 15 16 16 29 17 28 18 21 19 17 20 19 21 30 22
REMARK SMILES IDX 31 23 22 25 23 26 24 27 25 28 26 29 27 30 18 31 20 33 33 35
REMARK SMILES IDX 35 37 37 39 38 41 39 42 40 43 7 45 43 47 44 48 45 50 46 51
REMARK SMILES IDX 47 53 48 54 49 55 50 57 51 58 52 59 53 60 54 61 66 62 55 63
REMARK SMILES IDX 65 64 56 65 62 66 57 67 61 68 58 69 63 70 60 71 59 72 64 73
REMARK SMILES IDX 4 74 2 75 1 77 3 78
REMARK H PARENT 31 24 18 32 20 34 33 36 35 38 37 40 40 44 7 46 44 49 46 52
REMARK H PARENT 48 56 4 76
REMARK Flexibility Score: inf
ROOT
ATOM      1  C   UNL     1      20.507  28.305  18.998  1.00  0.00     0.272 C 
ATOM      2  C   UNL     1      20.624  29.548  19.786  1.00  0.00     0.113 C 
ATOM      3  C   UNL     1      19.270  30.029  20.289  1.00  0.00     0.145 C 
ATOM      4  C   UNL     1      18.295  30.141  19.095  1.00  0.00     0.142 C 
ATOM      5  C   UNL     1      18.430  28.993  18.176  1.00  0.00     0.178 C 
ATOM      6  O   UNL     1      19.130  27.994  18.822  1.00  0.00    -0.332 OA
ENDROOT
BRANCH   1   7
ATOM      7  O   UNL     1      21.159  27.175  19.340  1.00  0.00    -0.338 OA
BRANCH   7   8
ATOM      8  C   UNL     1      22.362  26.977  19.771  1.00  0.00     0.199 C 
BRANCH   8   9
ATOM      9  C   UNL     1      22.568  25.874  20.797  1.00  0.00     0.179 C 
ATOM     10  C   UNL     1      23.340  26.397  22.956  1.00  0.00     0.282 C 
ATOM     11  O   UNL     1      23.625  26.276  21.627  1.00  0.00    -0.341 OA
ATOM     12  C   UNL     1      22.756  25.170  23.570  1.00  0.00     0.202 C 
ATOM     13  C   UNL     1      21.577  24.753  22.761  1.00  0.00     0.179 C 
ATOM     14  C   UNL     1      21.317  25.611  21.573  1.00  0.00     0.177 C 
BRANCH  10  15
ATOM     15  O   UNL     1      22.670  27.565  23.277  1.00  0.00    -0.341 OA
BRANCH  15  16
ATOM     16  C   UNL     1      23.160  28.218  24.389  1.00  0.00     0.184 C 
ATOM     17  C   UNL     1      22.097  28.552  25.358  1.00  0.00     0.178 C 
ATOM     18  O   UNL     1      22.612  29.062  26.554  1.00  0.00    -0.341 OA
ATOM     19  C   UNL     1      23.948  29.457  26.455  1.00  0.00     0.281 C 
ATOM     20  C   UNL     1      23.715  29.610  23.935  1.00  0.00     0.180 C 
ATOM     21  C   UNL     1      24.268  30.216  25.184  1.00  0.00     0.202 C 
BRANCH  17  22
ATOM     22  C   UNL     1      21.081  27.505  25.652  1.00  0.00     0.191 C 
BRANCH  22  23
ATOM     23  O   UNL     1      20.046  27.553  24.722  1.00  0.00    -0.394 OA
ATOM     24  H   UNL     1      19.512  28.371  24.879  1.00  0.00     0.210 HD
ENDBRANCH  22  23
ENDBRANCH  17  22
BRANCH  19  25
ATOM     25  O   UNL     1      24.815  28.442  26.746  1.00  0.00    -0.350 OA
BRANCH  25  26
ATOM     26  C   UNL     1      24.688  27.753  27.900  1.00  0.00     0.169 C 
BRANCH  26  27
ATOM     27  C   UNL     1      24.980  26.301  27.818  1.00  0.00     0.119 C 
BRANCH  27  28
ATOM     28  N   UNL     1      25.582  25.725  28.970  1.00  0.00    -0.092 NA
ATOM     29  N   UNL     1      26.770  25.874  29.274  1.00  0.00     0.001 N 
ATOM     30  N   UNL     1      27.913  25.500  29.553  1.00  0.00    -0.003 NA
ENDBRANCH  27  28
ENDBRANCH  26  27
ENDBRANCH  25  26
ENDBRANCH  19  25
BRANCH  20  31
ATOM     31  O   UNL     1      24.711  29.464  23.003  1.00  0.00    -0.387 OA
ATOM     32  H   UNL     1      24.350  29.072  22.163  1.00  0.00     0.211 HD
ENDBRANCH  20  31
BRANCH  21  33
ATOM     33  O   UNL     1      23.823  31.534  25.332  1.00  0.00    -0.385 OA
ATOM     34  H   UNL     1      22.856  31.538  25.286  1.00  0.00     0.211 HD
ENDBRANCH  21  33
ENDBRANCH  15  16
ENDBRANCH  10  15
BRANCH  12  35
ATOM     35  O   UNL     1      23.724  24.144  23.566  1.00  0.00    -0.385 OA
ATOM     36  H   UNL     1      23.694  23.706  24.457  1.00  0.00     0.211 HD
ENDBRANCH  12  35
BRANCH  13  37
ATOM     37  O   UNL     1      20.405  24.731  23.555  1.00  0.00    -0.387 OA
ATOM     38  H   UNL     1      19.988  23.837  23.519  1.00  0.00     0.211 HD
ENDBRANCH  13  37
BRANCH  14  39
ATOM     39  O   UNL     1      20.634  26.772  21.960  1.00  0.00    -0.387 OA
ATOM     40  H   UNL     1      20.945  26.970  22.890  1.00  0.00     0.211 HD
ENDBRANCH  14  39
ENDBRANCH   8   9
ENDBRANCH   7   8
ENDBRANCH   1   7
BRANCH   1  41
ATOM     41  C   UNL     1      21.029  28.610  17.608  1.00  0.00     0.364 C 
ATOM     42  O   UNL     1      20.995  27.822  16.649  1.00  0.00    -0.246 OA
BRANCH  41  43
ATOM     43  O   UNL     1      21.598  29.860  17.345  1.00  0.00    -0.477 OA
ATOM     44  H   UNL     1      21.961  30.433  18.116  1.00  0.00     0.296 HD
ENDBRANCH  41  43
ENDBRANCH   1  41
BRANCH   3  45
ATOM     45  O   UNL     1      18.745  29.276  21.316  1.00  0.00    -0.391 OA
ATOM     46  H   UNL     1      19.127  29.618  22.180  1.00  0.00     0.211 HD
ENDBRANCH   3  45
BRANCH   5  47
ATOM     47  C   UNL     1      17.039  28.289  17.955  1.00  0.00     0.176 C 
BRANCH  47  48
ATOM     48  O   UNL     1      16.304  29.285  17.179  1.00  0.00    -0.388 OA
ATOM     49  H   UNL     1      15.885  29.882  17.870  1.00  0.00     0.211 HD
ENDBRANCH  47  48
BRANCH  47  50
ATOM     50  C   UNL     1      16.234  28.215  19.209  1.00  0.00     0.165 C 
BRANCH  50  51
ATOM     51  O   UNL     1      16.286  26.950  19.747  1.00  0.00    -0.388 OA
ATOM     52  H   UNL     1      15.502  26.394  19.609  1.00  0.00     0.211 HD
ENDBRANCH  50  51
BRANCH  50  53
ATOM     53  C   UNL     1      14.875  28.802  19.143  1.00  0.00     0.154 C 
BRANCH  53  54
ATOM     54  N   UNL     1      14.713  29.846  20.155  1.00  0.00    -0.319 N 
ATOM     55  C   UNL     1      14.095  29.577  21.381  1.00  0.00     0.407 C 
ATOM     56  H   UNL     1      15.072  30.787  19.937  1.00  0.00     0.167 HD
ATOM     57  O   UNL     1      13.672  28.404  21.602  1.00  0.00    -0.225 OA
BRANCH  55  58
ATOM     58  O   UNL     1      13.922  30.539  22.369  1.00  0.00    -0.443 OA
BRANCH  58  59
ATOM     59  C   UNL     1      14.354  30.296  23.702  1.00  0.00     0.294 C 
BRANCH  59  60
ATOM     60  C   UNL     1      15.843  30.414  23.776  1.00  0.00     0.120 A 
ATOM     61  C   UNL     1      16.593  31.571  23.741  1.00  0.00     0.138 A 
ATOM     62  N   UNL     1      16.722  29.423  23.884  1.00  0.00    -0.132 NA
ATOM     63  N   UNL     1      17.893  31.260  23.828  1.00  0.00    -0.249 N 
ATOM     64  N   UNL     1      17.933  29.918  23.914  1.00  0.00    -0.067 NA
BRANCH  63  65
ATOM     65  C   UNL     1      19.063  32.106  23.834  1.00  0.00     0.112 C 
ATOM     66  C   UNL     1      18.850  33.427  24.513  1.00  0.00     0.046 C 
ATOM     67  C   UNL     1      20.158  31.383  24.633  1.00  0.00     0.046 C 
ATOM     68  C   UNL     1      18.700  33.245  26.001  1.00  0.00     0.058 C 
ATOM     69  C   UNL     1      19.712  31.213  26.072  1.00  0.00     0.058 C 
ATOM     70  N   UNL     1      18.409  31.836  26.232  1.00  0.00    -0.300 NA
ATOM     71  C   UNL     1      19.998  33.457  26.734  1.00  0.00     0.021 C 
ATOM     72  C   UNL     1      20.561  32.084  26.977  1.00  0.00     0.021 C 
ATOM     73  C   UNL     1      17.899  31.704  27.562  1.00  0.00     0.105 C 
ENDBRANCH  63  65
ENDBRANCH  59  60
ENDBRANCH  58  59
ENDBRANCH  55  58
ENDBRANCH  53  54
ENDBRANCH  50  53
ENDBRANCH  47  50
ENDBRANCH   5  47
BRANCH   4  74
ATOM     74  N   UNL     1      18.511  31.463  18.494  1.00  0.00    -0.348 N 
ATOM     75  C   UNL     1      17.400  32.362  18.271  1.00  0.00     0.217 C 
ATOM     76  H   UNL     1      19.435  31.831  18.200  1.00  0.00     0.163 HD
ATOM     77  C   UNL     1      17.531  33.695  17.678  1.00  0.00     0.114 C 
ATOM     78  O   UNL     1      16.274  31.945  18.616  1.00  0.00    -0.275 OA
ENDBRANCH   4  74
TORSDOF 30
