REMARK VINA RESULT:    -6.572     12.345     18.289
REMARK INTER + INTRA:         -22.793
REMARK INTER:                 -15.763
REMARK INTRA:                  -7.030
REMARK UNBOUND:                -5.463
REMARK SMILES CC(=O)N[C@@H]1[C@@H](O)C[C@](OC[C@H]2O[C@@H](O[C@H]3[C@H](O)[C@@H](O)[C@H](OCCN=[N+]=[N-])O[C@@H]3CO)[C@H](O)[C@@H](O)[C@H]2O)(C(=O)O)O[C@H]1C(O)[C@H](O)CNC(=O)OCc1cn(COCc2ccccc2)nn1
REMARK SMILES IDX 43 1 42 2 9 3 8 4 41 5 6 6 5 7 10 8 11 9 12 10 14 11 13 12
REMARK SMILES IDX 32 13 34 14 36 15 15 16 16 17 29 18 28 19 21 20 17 21 19 22
REMARK SMILES IDX 30 23 31 24 22 26 23 27 24 28 25 29 26 30 27 31 18 32 20 34
REMARK SMILES IDX 33 36 35 38 37 40 38 42 39 43 40 44 7 46 4 48 2 49 1 51 3 52
REMARK SMILES IDX 44 53 45 55 46 56 47 58 48 59 49 60 50 62 51 63 52 64 53 65
REMARK SMILES IDX 54 66 66 67 55 68 65 69 56 70 57 71 58 72 59 73 60 74 64 75
REMARK SMILES IDX 61 76 63 77 62 78
REMARK H PARENT 31 25 18 33 20 35 33 37 35 39 37 41 40 45 7 47 4 50 44 54
REMARK H PARENT 46 57 48 61
REMARK Flexibility Score: inf
ROOT
ATOM      1  C   UNL     1       4.988  26.932  32.588  1.00  0.00     0.176 C 
ENDROOT
BRANCH   1   2
ATOM      2  C   UNL     1       5.941  25.981  33.345  1.00  0.00     0.178 C 
ATOM      3  C   UNL     1       5.788  23.893  34.356  1.00  0.00     0.272 C 
ATOM      4  C   UNL     1       6.650  24.400  35.507  1.00  0.00     0.113 C 
ATOM      5  O   UNL     1       5.125  24.983  33.882  1.00  0.00    -0.332 OA
ATOM      6  C   UNL     1       6.351  25.858  35.762  1.00  0.00     0.145 C 
ATOM      7  C   UNL     1       6.654  26.669  34.465  1.00  0.00     0.142 C 
BRANCH   3   8
ATOM      8  O   UNL     1       4.886  22.920  34.830  1.00  0.00    -0.338 OA
BRANCH   8   9
ATOM      9  C   UNL     1       3.592  23.264  34.911  1.00  0.00     0.199 C 
BRANCH   9  10
ATOM     10  C   UNL     1       2.730  22.271  34.166  1.00  0.00     0.179 C 
ATOM     11  C   UNL     1       2.301  21.218  32.206  1.00  0.00     0.282 C 
ATOM     12  O   UNL     1       3.182  22.125  32.838  1.00  0.00    -0.341 OA
ATOM     13  C   UNL     1       2.586  19.794  32.673  1.00  0.00     0.202 C 
ATOM     14  C   UNL     1       3.414  19.940  33.958  1.00  0.00     0.179 C 
ATOM     15  C   UNL     1       2.656  20.936  34.810  1.00  0.00     0.177 C 
BRANCH  11  16
ATOM     16  O   UNL     1       2.540  21.274  30.861  1.00  0.00    -0.341 OA
BRANCH  16  17
ATOM     17  C   UNL     1       1.651  22.081  30.163  1.00  0.00     0.184 C 
ATOM     18  C   UNL     1       0.679  21.318  29.337  1.00  0.00     0.178 C 
ATOM     19  O   UNL     1       1.309  20.784  28.254  1.00  0.00    -0.341 OA
ATOM     20  C   UNL     1       1.750  21.697  27.325  1.00  0.00     0.281 C 
ATOM     21  C   UNL     1       2.421  23.064  29.351  1.00  0.00     0.180 C 
ATOM     22  C   UNL     1       2.335  22.937  27.876  1.00  0.00     0.202 C 
BRANCH  18  23
ATOM     23  C   UNL     1      -0.502  22.197  28.995  1.00  0.00     0.191 C 
BRANCH  23  24
ATOM     24  O   UNL     1      -0.808  23.068  30.047  1.00  0.00    -0.394 OA
ATOM     25  H   UNL     1      -1.790  23.098  30.174  1.00  0.00     0.210 HD
ENDBRANCH  23  24
ENDBRANCH  18  23
BRANCH  20  26
ATOM     26  O   UNL     1       0.650  22.027  26.526  1.00  0.00    -0.350 OA
BRANCH  26  27
ATOM     27  C   UNL     1       0.782  21.670  25.208  1.00  0.00     0.169 C 
BRANCH  27  28
ATOM     28  C   UNL     1      -0.096  22.617  24.408  1.00  0.00     0.119 C 
BRANCH  28  29
ATOM     29  N   UNL     1      -0.423  23.815  25.147  1.00  0.00    -0.092 NA
ATOM     30  N   UNL     1       0.139  24.892  24.874  1.00  0.00     0.001 N 
ATOM     31  N   UNL     1       1.052  25.735  24.960  1.00  0.00    -0.003 NA
ENDBRANCH  28  29
ENDBRANCH  27  28
ENDBRANCH  26  27
ENDBRANCH  20  26
BRANCH  21  32
ATOM     32  O   UNL     1       1.998  24.383  29.670  1.00  0.00    -0.387 OA
ATOM     33  H   UNL     1       2.706  25.034  29.543  1.00  0.00     0.211 HD
ENDBRANCH  21  32
BRANCH  22  34
ATOM     34  O   UNL     1       3.655  23.023  27.359  1.00  0.00    -0.385 OA
ATOM     35  H   UNL     1       4.241  23.174  28.145  1.00  0.00     0.211 HD
ENDBRANCH  22  34
ENDBRANCH  16  17
ENDBRANCH  11  16
BRANCH  13  36
ATOM     36  O   UNL     1       1.421  19.127  33.052  1.00  0.00    -0.385 OA
ATOM     37  H   UNL     1       1.215  19.402  33.980  1.00  0.00     0.211 HD
ENDBRANCH  13  36
BRANCH  14  38
ATOM     38  O   UNL     1       4.608  20.523  33.556  1.00  0.00    -0.387 OA
ATOM     39  H   UNL     1       5.261  20.639  34.291  1.00  0.00     0.211 HD
ENDBRANCH  14  38
BRANCH  15  40
ATOM     40  O   UNL     1       3.072  20.920  36.132  1.00  0.00    -0.387 OA
ATOM     41  H   UNL     1       3.922  20.428  36.271  1.00  0.00     0.211 HD
ENDBRANCH  15  40
ENDBRANCH   9  10
ENDBRANCH   8   9
ENDBRANCH   3   8
BRANCH   3  42
ATOM     42  C   UNL     1       6.563  23.229  33.310  1.00  0.00     0.364 C 
ATOM     43  O   UNL     1       7.800  22.993  33.306  1.00  0.00    -0.246 OA
BRANCH  42  44
ATOM     44  O   UNL     1       5.892  22.780  32.147  1.00  0.00    -0.477 OA
ATOM     45  H   UNL     1       5.822  21.784  31.941  1.00  0.00     0.296 HD
ENDBRANCH  42  44
ENDBRANCH   3  42
BRANCH   6  46
ATOM     46  O   UNL     1       5.095  26.176  36.142  1.00  0.00    -0.391 OA
ATOM     47  H   UNL     1       5.002  27.137  36.429  1.00  0.00     0.211 HD
ENDBRANCH   6  46
BRANCH   7  48
ATOM     48  N   UNL     1       8.091  26.600  34.346  1.00  0.00    -0.348 N 
ATOM     49  C   UNL     1       8.774  27.669  33.729  1.00  0.00     0.217 C 
ATOM     50  H   UNL     1       8.608  25.791  34.697  1.00  0.00     0.163 HD
ATOM     51  C   UNL     1      10.256  27.628  33.607  1.00  0.00     0.114 C 
ATOM     52  O   UNL     1       8.141  28.676  33.279  1.00  0.00    -0.275 OA
ENDBRANCH   7  48
ENDBRANCH   1   2
BRANCH   1  53
ATOM     53  O   UNL     1       3.796  27.004  33.405  1.00  0.00    -0.388 OA
ATOM     54  H   UNL     1       3.159  27.583  32.890  1.00  0.00     0.211 HD
ENDBRANCH   1  53
BRANCH   1  55
ATOM     55  C   UNL     1       4.535  26.442  31.258  1.00  0.00     0.165 C 
BRANCH  55  56
ATOM     56  O   UNL     1       4.560  25.094  31.037  1.00  0.00    -0.388 OA
ATOM     57  H   UNL     1       4.448  24.540  31.841  1.00  0.00     0.211 HD
ENDBRANCH  55  56
BRANCH  55  58
ATOM     58  C   UNL     1       4.844  27.221  30.039  1.00  0.00     0.154 C 
BRANCH  58  59
ATOM     59  N   UNL     1       5.121  26.499  28.829  1.00  0.00    -0.319 N 
ATOM     60  C   UNL     1       4.171  26.251  27.803  1.00  0.00     0.407 C 
ATOM     61  H   UNL     1       6.080  26.127  28.652  1.00  0.00     0.167 HD
ATOM     62  O   UNL     1       3.016  26.676  27.911  1.00  0.00    -0.225 OA
BRANCH  60  63
ATOM     63  O   UNL     1       4.457  25.537  26.634  1.00  0.00    -0.443 OA
BRANCH  63  64
ATOM     64  C   UNL     1       4.507  26.221  25.380  1.00  0.00     0.294 C 
BRANCH  64  65
ATOM     65  C   UNL     1       5.737  27.029  25.225  1.00  0.00     0.120 A 
ATOM     66  C   UNL     1       5.746  28.408  25.185  1.00  0.00     0.141 A 
ATOM     67  N   UNL     1       7.010  26.640  25.089  1.00  0.00    -0.132 NA
ATOM     68  N   UNL     1       7.031  28.808  25.025  1.00  0.00    -0.226 N 
ATOM     69  N   UNL     1       7.772  27.711  24.970  1.00  0.00    -0.065 NA
BRANCH  68  70
ATOM     70  C   UNL     1       7.545  30.157  24.933  1.00  0.00     0.307 C 
BRANCH  70  71
ATOM     71  O   UNL     1       7.533  30.627  23.648  1.00  0.00    -0.355 OA
BRANCH  71  72
ATOM     72  C   UNL     1       6.231  30.874  23.245  1.00  0.00     0.198 C 
BRANCH  72  73
ATOM     73  C   UNL     1       6.126  30.623  21.763  1.00  0.00    -0.022 A 
ATOM     74  C   UNL     1       6.560  31.617  20.910  1.00  0.00     0.006 A 
ATOM     75  C   UNL     1       5.613  29.446  21.284  1.00  0.00     0.006 A 
ATOM     76  C   UNL     1       6.480  31.426  19.547  1.00  0.00     0.000 A 
ATOM     77  C   UNL     1       5.543  29.279  19.932  1.00  0.00     0.000 A 
ATOM     78  C   UNL     1       5.968  30.251  19.040  1.00  0.00     0.000 A 
ENDBRANCH  72  73
ENDBRANCH  71  72
ENDBRANCH  70  71
ENDBRANCH  68  70
ENDBRANCH  64  65
ENDBRANCH  63  64
ENDBRANCH  60  63
ENDBRANCH  58  59
ENDBRANCH  55  58
ENDBRANCH   1  55
TORSDOF 33
