REMARK VINA RESULT:    -6.567      2.171      2.776
REMARK INTER + INTRA:         -22.269
REMARK INTER:                 -12.770
REMARK INTRA:                  -9.499
REMARK UNBOUND:                -5.144
REMARK SMILES CC(=O)N[C@@H]1[C@@H](O)C[C@](OC[C@H]2O[C@@H](O[C@H]3[C@H](O)[C@@H](O)[C@H](OCCN=[N+]=[N-])O[C@@H]3CO)[C@H](O)[C@@H](O)[C@H]2O)(C(=O)O)O[C@H]1C(O)[C@H](O)CNC(=O)OCc1cn(-c2cccc(C=CC(=O)O)c2)nn1
REMARK SMILES IDX 43 1 42 2 9 3 8 4 41 5 6 6 5 7 10 8 11 9 12 10 14 11 13 12
REMARK SMILES IDX 32 13 34 14 36 15 15 16 16 17 29 18 28 19 21 20 17 21 19 22
REMARK SMILES IDX 30 23 31 24 22 26 23 27 24 28 25 29 26 30 27 31 18 32 20 34
REMARK SMILES IDX 33 36 35 38 37 40 38 42 39 43 40 44 7 46 4 48 2 49 1 51 3 52
REMARK SMILES IDX 44 53 45 55 46 56 47 58 48 59 49 60 50 62 51 63 52 64 53 65
REMARK SMILES IDX 54 66 68 67 55 68 67 69 56 70 66 71 57 72 60 73 58 74 59 75
REMARK SMILES IDX 61 76 62 77 63 78 64 79 65 80
REMARK H PARENT 31 25 18 33 20 35 33 37 35 39 37 41 40 45 7 47 4 50 44 54
REMARK H PARENT 46 57 48 61 65 81
REMARK Flexibility Score: inf
ROOT
ATOM      1  C   UNL     1      20.524  32.153  17.401  1.00  0.00     0.176 C 
ENDROOT
BRANCH   1   2
ATOM      2  C   UNL     1      20.931  31.185  16.308  1.00  0.00     0.178 C 
ATOM      3  C   UNL     1      20.228  30.625  14.129  1.00  0.00     0.272 C 
ATOM      4  C   UNL     1      21.447  29.628  14.432  1.00  0.00     0.113 C 
ATOM      5  O   UNL     1      20.020  31.325  15.299  1.00  0.00    -0.332 OA
ATOM      6  C   UNL     1      21.025  28.848  15.625  1.00  0.00     0.145 C 
ATOM      7  C   UNL     1      20.916  29.772  16.823  1.00  0.00     0.142 C 
BRANCH   3   8
ATOM      8  O   UNL     1      19.213  29.777  13.927  1.00  0.00    -0.338 OA
BRANCH   8   9
ATOM      9  C   UNL     1      18.268  29.878  13.010  1.00  0.00     0.199 C 
BRANCH   9  10
ATOM     10  C   UNL     1      16.868  29.397  13.329  1.00  0.00     0.179 C 
ATOM     11  C   UNL     1      15.955  28.746  15.411  1.00  0.00     0.282 C 
ATOM     12  O   UNL     1      16.930  28.641  14.439  1.00  0.00    -0.341 OA
ATOM     13  C   UNL     1      14.658  29.084  14.791  1.00  0.00     0.202 C 
ATOM     14  C   UNL     1      14.648  30.323  13.949  1.00  0.00     0.179 C 
ATOM     15  C   UNL     1      16.067  30.668  13.576  1.00  0.00     0.177 C 
BRANCH  11  16
ATOM     16  O   UNL     1      16.456  29.597  16.372  1.00  0.00    -0.341 OA
BRANCH  16  17
ATOM     17  C   UNL     1      16.282  29.216  17.658  1.00  0.00     0.184 C 
ATOM     18  C   UNL     1      15.780  30.346  18.503  1.00  0.00     0.178 C 
ATOM     19  O   UNL     1      15.288  29.732  19.679  1.00  0.00    -0.341 OA
ATOM     20  C   UNL     1      16.360  29.291  20.460  1.00  0.00     0.281 C 
ATOM     21  C   UNL     1      17.589  28.777  18.326  1.00  0.00     0.180 C 
ATOM     22  C   UNL     1      17.260  28.343  19.739  1.00  0.00     0.202 C 
BRANCH  18  23
ATOM     23  C   UNL     1      14.700  31.164  17.890  1.00  0.00     0.191 C 
BRANCH  23  24
ATOM     24  O   UNL     1      15.270  32.118  17.050  1.00  0.00    -0.394 OA
ATOM     25  H   UNL     1      16.177  31.808  16.740  1.00  0.00     0.210 HD
ENDBRANCH  23  24
ENDBRANCH  18  23
BRANCH  20  26
ATOM     26  O   UNL     1      15.826  28.645  21.571  1.00  0.00    -0.350 OA
BRANCH  26  27
ATOM     27  C   UNL     1      14.526  29.067  21.844  1.00  0.00     0.169 C 
BRANCH  27  28
ATOM     28  C   UNL     1      14.481  29.538  23.280  1.00  0.00     0.119 C 
BRANCH  28  29
ATOM     29  N   UNL     1      14.939  30.905  23.351  1.00  0.00    -0.092 NA
ATOM     30  N   UNL     1      14.505  31.757  22.555  1.00  0.00     0.001 N 
ATOM     31  N   UNL     1      14.410  32.495  21.562  1.00  0.00    -0.003 NA
ENDBRANCH  28  29
ENDBRANCH  27  28
ENDBRANCH  26  27
ENDBRANCH  20  26
BRANCH  21  32
ATOM     32  O   UNL     1      18.164  27.684  17.691  1.00  0.00    -0.387 OA
ATOM     33  H   UNL     1      18.759  27.270  18.366  1.00  0.00     0.211 HD
ENDBRANCH  21  32
BRANCH  22  34
ATOM     34  O   UNL     1      18.492  28.336  20.433  1.00  0.00    -0.385 OA
ATOM     35  H   UNL     1      18.838  29.244  20.582  1.00  0.00     0.211 HD
ENDBRANCH  22  34
ENDBRANCH  16  17
ENDBRANCH  11  16
BRANCH  13  36
ATOM     36  O   UNL     1      14.254  28.010  13.944  1.00  0.00    -0.385 OA
ATOM     37  H   UNL     1      13.258  27.995  13.890  1.00  0.00     0.211 HD
ENDBRANCH  13  36
BRANCH  14  38
ATOM     38  O   UNL     1      13.994  31.405  14.543  1.00  0.00    -0.387 OA
ATOM     39  H   UNL     1      13.197  31.685  14.025  1.00  0.00     0.211 HD
ENDBRANCH  14  38
BRANCH  15  40
ATOM     40  O   UNL     1      16.632  31.418  14.588  1.00  0.00    -0.387 OA
ATOM     41  H   UNL     1      15.979  31.607  15.331  1.00  0.00     0.211 HD
ENDBRANCH  15  40
ENDBRANCH   9  10
ENDBRANCH   8   9
ENDBRANCH   3   8
BRANCH   3  42
ATOM     42  C   UNL     1      20.711  31.500  13.073  1.00  0.00     0.364 C 
ATOM     43  O   UNL     1      20.315  32.635  12.756  1.00  0.00    -0.246 OA
BRANCH  42  44
ATOM     44  O   UNL     1      21.781  31.022  12.276  1.00  0.00    -0.477 OA
ATOM     45  H   UNL     1      22.674  30.825  12.753  1.00  0.00     0.296 HD
ENDBRANCH  42  44
ENDBRANCH   3  42
BRANCH   6  46
ATOM     46  O   UNL     1      19.713  28.351  15.324  1.00  0.00    -0.391 OA
ATOM     47  H   UNL     1      19.793  27.527  14.769  1.00  0.00     0.211 HD
ENDBRANCH   6  46
BRANCH   7  48
ATOM     48  N   UNL     1      21.803  29.489  17.893  1.00  0.00    -0.348 N 
ATOM     49  C   UNL     1      21.710  28.480  18.855  1.00  0.00     0.217 C 
ATOM     50  H   UNL     1      22.660  30.142  18.022  1.00  0.00     0.163 HD
ATOM     51  C   UNL     1      22.781  28.385  19.925  1.00  0.00     0.114 C 
ATOM     52  O   UNL     1      20.786  27.624  18.901  1.00  0.00    -0.275 OA
ENDBRANCH   7  48
ENDBRANCH   1   2
BRANCH   1  53
ATOM     53  O   UNL     1      20.529  33.442  16.899  1.00  0.00    -0.388 OA
ATOM     54  H   UNL     1      21.252  33.640  16.276  1.00  0.00     0.211 HD
ENDBRANCH   1  53
BRANCH   1  55
ATOM     55  C   UNL     1      19.097  31.894  17.887  1.00  0.00     0.165 C 
BRANCH  55  56
ATOM     56  O   UNL     1      18.132  32.355  17.035  1.00  0.00    -0.388 OA
ATOM     57  H   UNL     1      17.209  32.132  17.297  1.00  0.00     0.211 HD
ENDBRANCH  55  56
BRANCH  55  58
ATOM     58  C   UNL     1      18.901  32.399  19.281  1.00  0.00     0.154 C 
BRANCH  58  59
ATOM     59  N   UNL     1      19.873  31.886  20.179  1.00  0.00    -0.319 N 
ATOM     60  C   UNL     1      20.639  32.712  21.031  1.00  0.00     0.407 C 
ATOM     61  H   UNL     1      20.059  30.848  20.239  1.00  0.00     0.167 HD
ATOM     62  O   UNL     1      20.491  33.965  21.029  1.00  0.00    -0.225 OA
BRANCH  60  63
ATOM     63  O   UNL     1      21.588  32.200  21.914  1.00  0.00    -0.443 OA
BRANCH  63  64
ATOM     64  C   UNL     1      21.106  31.785  23.198  1.00  0.00     0.294 C 
BRANCH  64  65
ATOM     65  C   UNL     1      21.003  30.315  23.166  1.00  0.00     0.121 A 
ATOM     66  C   UNL     1      21.564  29.400  24.053  1.00  0.00     0.144 A 
ATOM     67  N   UNL     1      20.328  29.587  22.261  1.00  0.00    -0.131 NA
ATOM     68  N   UNL     1      21.204  28.159  23.653  1.00  0.00    -0.220 N 
ATOM     69  N   UNL     1      20.463  28.305  22.573  1.00  0.00    -0.062 NA
BRANCH  68  70
ATOM     70  C   UNL     1      21.587  26.973  24.330  1.00  0.00     0.067 A 
ATOM     71  C   UNL     1      22.000  27.039  25.661  1.00  0.00     0.036 A 
ATOM     72  C   UNL     1      21.560  25.767  23.714  1.00  0.00     0.028 A 
ATOM     73  C   UNL     1      22.376  25.930  26.353  1.00  0.00    -0.023 A 
ATOM     74  C   UNL     1      21.935  24.604  24.383  1.00  0.00     0.003 A 
ATOM     75  C   UNL     1      22.336  24.717  25.695  1.00  0.00     0.008 A 
BRANCH  73  76
ATOM     76  C   UNL     1      22.808  25.997  27.732  1.00  0.00     0.015 C 
ATOM     77  C   UNL     1      24.031  25.679  28.076  1.00  0.00     0.094 C 
BRANCH  77  78
ATOM     78  C   UNL     1      24.425  25.761  29.484  1.00  0.00     0.328 C 
ATOM     79  O   UNL     1      23.927  25.019  30.338  1.00  0.00    -0.247 OA
BRANCH  78  80
ATOM     80  O   UNL     1      25.381  26.689  29.893  1.00  0.00    -0.478 OA
ATOM     81  H   UNL     1      26.306  26.330  30.137  1.00  0.00     0.297 HD
ENDBRANCH  78  80
ENDBRANCH  77  78
ENDBRANCH  73  76
ENDBRANCH  68  70
ENDBRANCH  64  65
ENDBRANCH  63  64
ENDBRANCH  60  63
ENDBRANCH  58  59
ENDBRANCH  55  58
ENDBRANCH   1  55
TORSDOF 33
