REMARK VINA RESULT:    -6.159      0.000      0.000
REMARK INTER + INTRA:         -24.444
REMARK INTER:                 -14.343
REMARK INTRA:                 -10.101
REMARK UNBOUND:                -7.304
REMARK SMILES CC(=O)N[C@@H]1[C@@H](O)C[C@](OC[C@H]2O[C@@H](O[C@H]3[C@H](O)[C@@H](O)[C@H](OCCN=[N+]=[N-])O[C@@H]3CO)[C@H](O)[C@@H](O)[C@H]2O)(C(=O)O)O[C@H]1C(O)[C@H](O)CNC(=O)OCc1cn(CCCCCC(=O)O)nn1
REMARK SMILES IDX 47 1 45 2 43 3 42 4 9 5 8 6 41 7 6 8 5 9 10 10 11 11 12 12
REMARK SMILES IDX 14 13 13 14 32 15 34 16 36 17 15 18 16 19 29 20 28 21 21 22
REMARK SMILES IDX 17 23 19 24 30 25 31 26 22 28 23 29 24 30 25 31 26 32 27 33
REMARK SMILES IDX 18 34 20 36 33 38 35 40 37 42 38 44 39 45 40 46 7 48 4 50
REMARK SMILES IDX 2 51 1 53 3 54 44 55 46 57 48 59 49 60 50 62 51 63 52 64
REMARK SMILES IDX 53 65 54 66 65 67 55 68 64 69 56 70 57 71 58 72 59 73 60 74
REMARK SMILES IDX 61 75 62 76 63 77
REMARK H PARENT 31 27 18 35 20 37 33 39 35 41 37 43 40 47 7 49 4 52 44 56
REMARK H PARENT 46 58 48 61 63 78
REMARK Flexibility Score: inf
ROOT
ATOM      1  C   UNL     1      19.755  30.328  21.002  1.00  0.00     0.154 C 
ENDROOT
BRANCH   1   2
ATOM      2  C   UNL     1      18.744  31.344  21.475  1.00  0.00     0.165 C 
BRANCH   2   3
ATOM      3  C   UNL     1      18.148  30.808  22.736  1.00  0.00     0.176 C 
BRANCH   3   4
ATOM      4  C   UNL     1      19.104  30.516  23.840  1.00  0.00     0.178 C 
ATOM      5  C   UNL     1      20.432  28.961  24.787  1.00  0.00     0.272 C 
ATOM      6  C   UNL     1      21.079  30.159  25.403  1.00  0.00     0.113 C 
ATOM      7  O   UNL     1      19.191  29.183  24.206  1.00  0.00    -0.332 OA
ATOM      8  C   UNL     1      20.202  31.271  25.836  1.00  0.00     0.145 C 
ATOM      9  C   UNL     1      18.842  31.267  25.126  1.00  0.00     0.142 C 
BRANCH   5  10
ATOM     10  O   UNL     1      20.411  27.861  25.642  1.00  0.00    -0.338 OA
BRANCH  10  11
ATOM     11  C   UNL     1      21.197  27.915  26.748  1.00  0.00     0.199 C 
BRANCH  11  12
ATOM     12  C   UNL     1      22.091  26.690  26.707  1.00  0.00     0.179 C 
ATOM     13  C   UNL     1      22.686  24.802  25.667  1.00  0.00     0.282 C 
ATOM     14  O   UNL     1      22.231  26.135  25.445  1.00  0.00    -0.341 OA
ATOM     15  C   UNL     1      23.603  24.645  26.794  1.00  0.00     0.202 C 
ATOM     16  C   UNL     1      24.287  25.882  27.305  1.00  0.00     0.179 C 
ATOM     17  C   UNL     1      23.486  27.140  27.101  1.00  0.00     0.177 C 
BRANCH  13  18
ATOM     18  O   UNL     1      23.018  24.216  24.448  1.00  0.00    -0.341 OA
BRANCH  18  19
ATOM     19  C   UNL     1      23.291  25.067  23.443  1.00  0.00     0.184 C 
ATOM     20  C   UNL     1      22.673  24.663  22.140  1.00  0.00     0.178 C 
ATOM     21  O   UNL     1      22.710  25.822  21.336  1.00  0.00    -0.341 OA
ATOM     22  C   UNL     1      23.979  26.131  20.983  1.00  0.00     0.281 C 
ATOM     23  C   UNL     1      24.823  25.038  23.110  1.00  0.00     0.180 C 
ATOM     24  C   UNL     1      25.012  25.292  21.636  1.00  0.00     0.202 C 
BRANCH  20  25
ATOM     25  C   UNL     1      21.228  24.252  22.250  1.00  0.00     0.191 C 
BRANCH  25  26
ATOM     26  O   UNL     1      20.551  25.062  23.136  1.00  0.00    -0.394 OA
ATOM     27  H   UNL     1      20.730  24.720  24.052  1.00  0.00     0.210 HD
ENDBRANCH  25  26
ENDBRANCH  20  25
BRANCH  22  28
ATOM     28  O   UNL     1      24.284  27.491  21.127  1.00  0.00    -0.350 OA
BRANCH  28  29
ATOM     29  C   UNL     1      25.355  27.879  20.363  1.00  0.00     0.169 C 
BRANCH  29  30
ATOM     30  C   UNL     1      26.394  28.557  21.245  1.00  0.00     0.119 C 
BRANCH  30  31
ATOM     31  N   UNL     1      25.755  29.286  22.328  1.00  0.00    -0.092 NA
ATOM     32  N   UNL     1      26.261  29.262  23.466  1.00  0.00     0.001 N 
ATOM     33  N   UNL     1      26.414  28.931  24.643  1.00  0.00    -0.003 NA
ENDBRANCH  30  31
ENDBRANCH  29  30
ENDBRANCH  28  29
ENDBRANCH  22  28
BRANCH  23  34
ATOM     34  O   UNL     1      25.441  26.080  23.800  1.00  0.00    -0.387 OA
ATOM     35  H   UNL     1      25.184  26.947  23.370  1.00  0.00     0.211 HD
ENDBRANCH  23  34
BRANCH  24  36
ATOM     36  O   UNL     1      25.340  24.131  20.923  1.00  0.00    -0.385 OA
ATOM     37  H   UNL     1      25.203  24.236  19.949  1.00  0.00     0.211 HD
ENDBRANCH  24  36
ENDBRANCH  18  19
ENDBRANCH  13  18
BRANCH  15  38
ATOM     38  O   UNL     1      22.951  24.087  27.931  1.00  0.00    -0.385 OA
ATOM     39  H   UNL     1      23.417  24.343  28.748  1.00  0.00     0.211 HD
ENDBRANCH  15  38
BRANCH  16  40
ATOM     40  O   UNL     1      25.540  26.094  26.702  1.00  0.00    -0.387 OA
ATOM     41  H   UNL     1      25.608  26.961  26.262  1.00  0.00     0.211 HD
ENDBRANCH  16  40
BRANCH  17  42
ATOM     42  O   UNL     1      23.999  27.837  25.977  1.00  0.00    -0.387 OA
ATOM     43  H   UNL     1      24.939  28.090  26.240  1.00  0.00     0.211 HD
ENDBRANCH  17  42
ENDBRANCH  11  12
ENDBRANCH  10  11
ENDBRANCH   5  10
BRANCH   5  44
ATOM     44  C   UNL     1      21.310  28.543  23.658  1.00  0.00     0.364 C 
ATOM     45  O   UNL     1      22.497  28.931  23.594  1.00  0.00    -0.246 OA
BRANCH  44  46
ATOM     46  O   UNL     1      20.822  27.723  22.671  1.00  0.00    -0.477 OA
ATOM     47  H   UNL     1      19.828  27.444  22.607  1.00  0.00     0.296 HD
ENDBRANCH  44  46
ENDBRANCH   5  44
BRANCH   8  48
ATOM     48  O   UNL     1      20.072  31.428  27.213  1.00  0.00    -0.391 OA
ATOM     49  H   UNL     1      19.352  30.831  27.517  1.00  0.00     0.211 HD
ENDBRANCH   8  48
BRANCH   9  50
ATOM     50  N   UNL     1      18.330  32.583  24.961  1.00  0.00    -0.348 N 
ATOM     51  C   UNL     1      17.208  32.999  25.717  1.00  0.00     0.217 C 
ATOM     52  H   UNL     1      18.762  33.244  24.301  1.00  0.00     0.163 HD
ATOM     53  C   UNL     1      16.656  34.371  25.567  1.00  0.00     0.114 C 
ATOM     54  O   UNL     1      16.633  32.235  26.546  1.00  0.00    -0.275 OA
ENDBRANCH   9  50
ENDBRANCH   3   4
BRANCH   3  55
ATOM     55  O   UNL     1      17.381  29.648  22.483  1.00  0.00    -0.388 OA
ATOM     56  H   UNL     1      16.439  29.895  22.345  1.00  0.00     0.211 HD
ENDBRANCH   3  55
ENDBRANCH   2   3
BRANCH   2  57
ATOM     57  O   UNL     1      17.773  31.475  20.489  1.00  0.00    -0.388 OA
ATOM     58  H   UNL     1      17.070  30.806  20.685  1.00  0.00     0.211 HD
ENDBRANCH   2  57
ENDBRANCH   1   2
BRANCH   1  59
ATOM     59  N   UNL     1      19.184  29.165  20.402  1.00  0.00    -0.319 N 
ATOM     60  C   UNL     1      19.110  29.105  18.974  1.00  0.00     0.407 C 
ATOM     61  H   UNL     1      18.823  28.368  20.949  1.00  0.00     0.167 HD
ATOM     62  O   UNL     1      19.540  30.056  18.273  1.00  0.00    -0.225 OA
BRANCH  60  63
ATOM     63  O   UNL     1      18.572  28.024  18.316  1.00  0.00    -0.443 OA
BRANCH  63  64
ATOM     64  C   UNL     1      17.225  27.848  18.052  1.00  0.00     0.294 C 
BRANCH  64  65
ATOM     65  C   UNL     1      16.285  28.224  19.115  1.00  0.00     0.120 A 
ATOM     66  C   UNL     1      15.241  29.109  19.035  1.00  0.00     0.138 A 
ATOM     67  N   UNL     1      16.308  27.757  20.384  1.00  0.00    -0.132 NA
ATOM     68  N   UNL     1      14.662  29.160  20.236  1.00  0.00    -0.252 N 
ATOM     69  N   UNL     1      15.327  28.336  21.020  1.00  0.00    -0.067 NA
BRANCH  68  70
ATOM     70  C   UNL     1      13.505  29.971  20.591  1.00  0.00     0.146 C 
BRANCH  70  71
ATOM     71  C   UNL     1      13.988  31.399  20.841  1.00  0.00     0.024 C 
BRANCH  71  72
ATOM     72  C   UNL     1      13.449  31.940  22.133  1.00  0.00     0.002 C 
BRANCH  72  73
ATOM     73  C   UNL     1      14.499  31.848  23.202  1.00  0.00     0.012 C 
BRANCH  73  74
ATOM     74  C   UNL     1      13.970  31.370  24.514  1.00  0.00     0.122 C 
BRANCH  74  75
ATOM     75  C   UNL     1      13.689  29.909  24.434  1.00  0.00     0.303 C 
ATOM     76  O   UNL     1      12.630  29.450  24.915  1.00  0.00    -0.252 OA
BRANCH  75  77
ATOM     77  O   UNL     1      14.588  29.037  23.828  1.00  0.00    -0.481 OA
ATOM     78  H   UNL     1      14.363  28.634  22.916  1.00  0.00     0.296 HD
ENDBRANCH  75  77
ENDBRANCH  74  75
ENDBRANCH  73  74
ENDBRANCH  72  73
ENDBRANCH  71  72
ENDBRANCH  70  71
ENDBRANCH  68  70
ENDBRANCH  64  65
ENDBRANCH  63  64
ENDBRANCH  60  63
ENDBRANCH   1  59
TORSDOF 36
