REMARK VINA RESULT:    -6.672      3.772      6.813
REMARK INTER + INTRA:         -22.298
REMARK INTER:                 -14.745
REMARK INTRA:                  -7.553
REMARK UNBOUND:                -5.485
REMARK SMILES CC(=O)N[C@@H]1[C@@H](O)C[C@](OC[C@H]2O[C@@H](O[C@H]3[C@H](O)[C@@H](O)[C@H](OCCN=[N+]=[N-])O[C@@H]3CO)[C@H](O)[C@@H](O)[C@H]2O)(C(=O)O)O[C@H]1C(O)[C@H](O)CNC(=O)OCc1cn(Cc2ccc(Br)cc2)nn1
REMARK SMILES IDX 9 1 8 2 6 3 5 4 42 5 41 6 10 7 11 8 12 9 14 10 13 11 32 12
REMARK SMILES IDX 34 13 36 14 15 15 16 16 29 17 28 18 21 19 17 20 19 21 30 22
REMARK SMILES IDX 31 23 22 25 23 26 24 27 25 28 26 29 27 30 18 31 20 33 33 35
REMARK SMILES IDX 35 37 37 39 38 41 39 42 40 43 7 45 43 47 44 48 45 50 46 51
REMARK SMILES IDX 47 53 48 54 49 55 50 57 51 58 52 59 53 60 54 61 65 62 55 63
REMARK SMILES IDX 64 64 56 65 57 66 58 67 63 68 59 69 62 70 60 71 61 72 4 73
REMARK SMILES IDX 2 74 1 76 3 77
REMARK H PARENT 31 24 18 32 20 34 33 36 35 38 37 40 40 44 7 46 44 49 46 52
REMARK H PARENT 48 56 4 75
REMARK Flexibility Score: inf
ROOT
ATOM      1  C   UNL     1      23.278  24.777  23.165  1.00  0.00     0.272 C 
ATOM      2  C   UNL     1      23.823  23.876  22.116  1.00  0.00     0.113 C 
ATOM      3  C   UNL     1      24.871  24.392  21.211  1.00  0.00     0.145 C 
ATOM      4  C   UNL     1      24.935  25.942  21.143  1.00  0.00     0.142 C 
ATOM      5  C   UNL     1      23.509  26.333  21.415  1.00  0.00     0.178 C 
ATOM      6  O   UNL     1      23.395  26.135  22.820  1.00  0.00    -0.332 OA
ENDROOT
BRANCH   1   7
ATOM      7  O   UNL     1      23.508  24.540  24.452  1.00  0.00    -0.338 OA
BRANCH   7   8
ATOM      8  C   UNL     1      24.518  24.491  25.234  1.00  0.00     0.199 C 
BRANCH   8   9
ATOM      9  C   UNL     1      24.429  25.300  26.507  1.00  0.00     0.179 C 
ATOM     10  C   UNL     1      23.901  27.313  27.409  1.00  0.00     0.282 C 
ATOM     11  O   UNL     1      24.191  26.630  26.281  1.00  0.00    -0.341 OA
ATOM     12  C   UNL     1      24.178  26.607  28.723  1.00  0.00     0.202 C 
ATOM     13  C   UNL     1      23.591  25.213  28.742  1.00  0.00     0.179 C 
ATOM     14  C   UNL     1      23.237  24.780  27.327  1.00  0.00     0.177 C 
BRANCH  10  15
ATOM     15  O   UNL     1      22.674  27.879  27.513  1.00  0.00    -0.341 OA
BRANCH  15  16
ATOM     16  C   UNL     1      22.236  28.881  26.739  1.00  0.00     0.184 C 
ATOM     17  C   UNL     1      21.803  30.132  27.432  1.00  0.00     0.178 C 
ATOM     18  O   UNL     1      20.473  30.418  27.289  1.00  0.00    -0.341 OA
ATOM     19  C   UNL     1      20.067  30.626  25.978  1.00  0.00     0.281 C 
ATOM     20  C   UNL     1      21.099  28.386  25.870  1.00  0.00     0.180 C 
ATOM     21  C   UNL     1      20.600  29.551  25.052  1.00  0.00     0.202 C 
BRANCH  17  22
ATOM     22  C   UNL     1      22.681  31.279  26.987  1.00  0.00     0.191 C 
BRANCH  22  23
ATOM     23  O   UNL     1      23.982  30.837  26.672  1.00  0.00    -0.394 OA
ATOM     24  H   UNL     1      24.166  30.930  25.721  1.00  0.00     0.210 HD
ENDBRANCH  22  23
ENDBRANCH  17  22
BRANCH  19  25
ATOM     25  O   UNL     1      20.349  31.891  25.491  1.00  0.00    -0.350 OA
BRANCH  25  26
ATOM     26  C   UNL     1      19.279  32.740  25.394  1.00  0.00     0.169 C 
BRANCH  26  27
ATOM     27  C   UNL     1      17.951  32.046  25.319  1.00  0.00     0.119 C 
BRANCH  27  28
ATOM     28  N   UNL     1      17.147  32.379  26.489  1.00  0.00    -0.092 NA
ATOM     29  N   UNL     1      17.060  31.584  27.421  1.00  0.00     0.001 N 
ATOM     30  N   UNL     1      16.710  30.793  28.327  1.00  0.00    -0.003 NA
ENDBRANCH  27  28
ENDBRANCH  26  27
ENDBRANCH  25  26
ENDBRANCH  19  25
BRANCH  20  31
ATOM     31  O   UNL     1      21.659  27.460  24.968  1.00  0.00    -0.387 OA
ATOM     32  H   UNL     1      21.737  26.567  25.406  1.00  0.00     0.211 HD
ENDBRANCH  20  31
BRANCH  21  33
ATOM     33  O   UNL     1      19.654  29.164  24.109  1.00  0.00    -0.385 OA
ATOM     34  H   UNL     1      18.893  28.767  24.603  1.00  0.00     0.211 HD
ENDBRANCH  21  33
ENDBRANCH  15  16
ENDBRANCH  10  15
BRANCH  12  35
ATOM     35  O   UNL     1      25.522  26.540  29.045  1.00  0.00    -0.385 OA
ATOM     36  H   UNL     1      25.990  27.407  29.042  1.00  0.00     0.211 HD
ENDBRANCH  12  35
BRANCH  13  37
ATOM     37  O   UNL     1      22.493  25.093  29.584  1.00  0.00    -0.387 OA
ATOM     38  H   UNL     1      22.656  25.687  30.358  1.00  0.00     0.211 HD
ENDBRANCH  13  37
BRANCH  14  39
ATOM     39  O   UNL     1      22.112  25.462  26.849  1.00  0.00    -0.387 OA
ATOM     40  H   UNL     1      21.310  25.133  27.300  1.00  0.00     0.211 HD
ENDBRANCH  14  39
ENDBRANCH   8   9
ENDBRANCH   7   8
ENDBRANCH   1   7
BRANCH   1  41
ATOM     41  C   UNL     1      21.754  24.585  23.089  1.00  0.00     0.364 C 
ATOM     42  O   UNL     1      21.107  24.701  24.128  1.00  0.00    -0.246 OA
BRANCH  41  43
ATOM     43  O   UNL     1      21.103  24.296  21.919  1.00  0.00    -0.477 OA
ATOM     44  H   UNL     1      21.589  24.440  21.019  1.00  0.00     0.296 HD
ENDBRANCH  41  43
ENDBRANCH   1  41
BRANCH   3  45
ATOM     45  O   UNL     1      26.138  23.852  21.361  1.00  0.00    -0.391 OA
ATOM     46  H   UNL     1      26.067  23.039  21.906  1.00  0.00     0.211 HD
ENDBRANCH   3  45
BRANCH   5  47
ATOM     47  C   UNL     1      23.094  27.716  21.077  1.00  0.00     0.176 C 
BRANCH  47  48
ATOM     48  O   UNL     1      23.309  28.039  19.778  1.00  0.00    -0.388 OA
ATOM     49  H   UNL     1      23.630  28.940  19.659  1.00  0.00     0.211 HD
ENDBRANCH  47  48
BRANCH  47  50
ATOM     50  C   UNL     1      21.853  28.264  21.646  1.00  0.00     0.165 C 
BRANCH  50  51
ATOM     51  O   UNL     1      21.033  27.273  22.209  1.00  0.00    -0.388 OA
ATOM     52  H   UNL     1      21.482  26.670  22.819  1.00  0.00     0.211 HD
ENDBRANCH  50  51
BRANCH  50  53
ATOM     53  C   UNL     1      21.062  29.249  20.885  1.00  0.00     0.154 C 
BRANCH  53  54
ATOM     54  N   UNL     1      19.868  28.725  20.244  1.00  0.00    -0.319 N 
ATOM     55  C   UNL     1      19.848  28.389  18.865  1.00  0.00     0.407 C 
ATOM     56  H   UNL     1      18.969  28.567  20.762  1.00  0.00     0.167 HD
ATOM     57  O   UNL     1      20.899  28.533  18.162  1.00  0.00    -0.225 OA
BRANCH  55  58
ATOM     58  O   UNL     1      18.722  27.901  18.210  1.00  0.00    -0.443 OA
BRANCH  58  59
ATOM     59  C   UNL     1      17.585  28.758  17.995  1.00  0.00     0.294 C 
BRANCH  59  60
ATOM     60  C   UNL     1      16.590  28.650  19.074  1.00  0.00     0.120 A 
ATOM     61  C   UNL     1      15.399  29.348  19.133  1.00  0.00     0.138 A 
ATOM     62  N   UNL     1      16.647  27.891  20.169  1.00  0.00    -0.132 NA
ATOM     63  N   UNL     1      14.769  28.991  20.259  1.00  0.00    -0.248 N 
ATOM     64  N   UNL     1      15.545  28.113  20.862  1.00  0.00    -0.067 NA
BRANCH  63  65
ATOM     65  C   UNL     1      13.480  29.434  20.752  1.00  0.00     0.181 C 
BRANCH  65  66
ATOM     66  C   UNL     1      13.525  29.996  22.120  1.00  0.00    -0.026 A 
ATOM     67  C   UNL     1      12.538  29.594  23.025  1.00  0.00     0.007 A 
ATOM     68  C   UNL     1      14.475  30.871  22.563  1.00  0.00     0.007 A 
ATOM     69  C   UNL     1      12.543  30.080  24.322  1.00  0.00     0.016 A 
ATOM     70  C   UNL     1      14.493  31.367  23.868  1.00  0.00     0.016 A 
ATOM     71  C   UNL     1      13.521  30.964  24.743  1.00  0.00     0.017 A 
ATOM     72  Br  UNL     1      13.498  31.614  26.554  1.00  0.00    -0.051 Br
ENDBRANCH  65  66
ENDBRANCH  63  65
ENDBRANCH  59  60
ENDBRANCH  58  59
ENDBRANCH  55  58
ENDBRANCH  53  54
ENDBRANCH  50  53
ENDBRANCH  47  50
ENDBRANCH   5  47
BRANCH   4  73
ATOM     73  N   UNL     1      25.492  26.340  19.902  1.00  0.00    -0.348 N 
ATOM     74  C   UNL     1      26.711  27.060  19.858  1.00  0.00     0.217 C 
ATOM     75  H   UNL     1      25.023  26.094  19.014  1.00  0.00     0.163 HD
ATOM     76  C   UNL     1      27.379  27.516  18.636  1.00  0.00     0.114 C 
ATOM     77  O   UNL     1      27.284  27.340  20.971  1.00  0.00    -0.275 OA
ENDBRANCH   4  73
TORSDOF 31
