REMARK VINA RESULT:    -6.206      7.699     14.132
REMARK INTER + INTRA:         -21.573
REMARK INTER:                 -13.761
REMARK INTRA:                  -7.813
REMARK UNBOUND:                -6.298
REMARK SMILES CC(=O)N[C@@H]1[C@@H](O)C[C@](OC[C@H]2O[C@@H](O[C@H]3[C@H](O)[C@@H](O)[C@H](OCCN=[N+]=[N-])O[C@@H]3CO)[C@H](O)[C@@H](O)[C@H]2O)(C(=O)O)O[C@H]1C(O)[C@H](O)CNC(=O)OCc1cn(-c2c(C)cc(C)cc2C)nn1
REMARK SMILES IDX 9 1 8 2 6 3 5 4 42 5 41 6 10 7 11 8 12 9 14 10 13 11 32 12
REMARK SMILES IDX 34 13 36 14 15 15 16 16 29 17 28 18 21 19 17 20 19 21 30 22
REMARK SMILES IDX 31 23 22 25 23 26 24 27 25 28 26 29 27 30 18 31 20 33 33 35
REMARK SMILES IDX 35 37 37 39 38 41 39 42 40 43 7 45 43 47 44 48 45 50 46 51
REMARK SMILES IDX 47 53 48 54 49 55 50 57 51 58 52 59 53 60 54 61 66 62 55 63
REMARK SMILES IDX 65 64 56 65 57 66 63 67 58 68 59 69 62 70 64 71 60 72 61 73
REMARK SMILES IDX 4 74 2 75 1 77 3 78
REMARK H PARENT 31 24 18 32 20 34 33 36 35 38 37 40 40 44 7 46 44 49 46 52
REMARK H PARENT 48 56 4 76
REMARK Flexibility Score: inf
ROOT
ATOM      1  C   UNL     1      23.624  28.391  22.080  1.00  0.00     0.272 C 
ATOM      2  C   UNL     1      23.836  29.524  21.153  1.00  0.00     0.113 C 
ATOM      3  C   UNL     1      25.269  29.884  20.846  1.00  0.00     0.145 C 
ATOM      4  C   UNL     1      26.124  29.645  22.049  1.00  0.00     0.142 C 
ATOM      5  C   UNL     1      25.171  29.718  23.249  1.00  0.00     0.178 C 
ATOM      6  O   UNL     1      24.425  28.508  23.225  1.00  0.00    -0.332 OA
ENDROOT
BRANCH   1   7
ATOM      7  O   UNL     1      23.723  27.130  21.575  1.00  0.00    -0.338 OA
BRANCH   7   8
ATOM      8  C   UNL     1      24.747  26.329  21.924  1.00  0.00     0.199 C 
BRANCH   8   9
ATOM      9  C   UNL     1      24.157  25.118  22.662  1.00  0.00     0.179 C 
ATOM     10  C   UNL     1      22.504  24.735  24.218  1.00  0.00     0.282 C 
ATOM     11  O   UNL     1      23.604  25.504  23.868  1.00  0.00    -0.341 OA
ATOM     12  C   UNL     1      21.410  25.110  23.251  1.00  0.00     0.202 C 
ATOM     13  C   UNL     1      21.863  24.606  21.889  1.00  0.00     0.179 C 
ATOM     14  C   UNL     1      23.306  24.254  21.808  1.00  0.00     0.177 C 
BRANCH  10  15
ATOM     15  O   UNL     1      22.187  24.786  25.522  1.00  0.00    -0.341 OA
BRANCH  15  16
ATOM     16  C   UNL     1      22.634  25.811  26.275  1.00  0.00     0.184 C 
ATOM     17  C   UNL     1      23.532  25.275  27.376  1.00  0.00     0.178 C 
ATOM     18  O   UNL     1      22.922  25.230  28.593  1.00  0.00    -0.341 OA
ATOM     19  C   UNL     1      22.536  26.463  29.095  1.00  0.00     0.281 C 
ATOM     20  C   UNL     1      21.432  26.517  26.908  1.00  0.00     0.180 C 
ATOM     21  C   UNL     1      21.882  27.347  28.097  1.00  0.00     0.202 C 
BRANCH  17  22
ATOM     22  C   UNL     1      24.862  26.010  27.398  1.00  0.00     0.191 C 
BRANCH  22  23
ATOM     23  O   UNL     1      25.736  25.417  28.305  1.00  0.00    -0.394 OA
ATOM     24  H   UNL     1      25.340  25.264  29.193  1.00  0.00     0.210 HD
ENDBRANCH  22  23
ENDBRANCH  17  22
BRANCH  19  25
ATOM     25  O   UNL     1      23.625  27.137  29.668  1.00  0.00    -0.350 OA
BRANCH  25  26
ATOM     26  C   UNL     1      23.746  26.940  31.020  1.00  0.00     0.169 C 
BRANCH  26  27
ATOM     27  C   UNL     1      25.148  26.767  31.518  1.00  0.00     0.119 C 
BRANCH  27  28
ATOM     28  N   UNL     1      25.716  25.489  31.126  1.00  0.00    -0.092 NA
ATOM     29  N   UNL     1      26.884  25.186  31.440  1.00  0.00     0.001 N 
ATOM     30  N   UNL     1      28.025  25.053  31.899  1.00  0.00    -0.003 NA
ENDBRANCH  27  28
ENDBRANCH  26  27
ENDBRANCH  25  26
ENDBRANCH  19  25
BRANCH  20  31
ATOM     31  O   UNL     1      20.772  27.347  26.037  1.00  0.00    -0.387 OA
ATOM     32  H   UNL     1      21.186  27.424  25.139  1.00  0.00     0.211 HD
ENDBRANCH  20  31
BRANCH  21  33
ATOM     33  O   UNL     1      20.735  27.900  28.662  1.00  0.00    -0.385 OA
ATOM     34  H   UNL     1      19.913  27.453  28.315  1.00  0.00     0.211 HD
ENDBRANCH  21  33
ENDBRANCH  15  16
ENDBRANCH  10  15
BRANCH  12  35
ATOM     35  O   UNL     1      20.202  24.483  23.541  1.00  0.00    -0.385 OA
ATOM     36  H   UNL     1      19.494  24.957  23.007  1.00  0.00     0.211 HD
ENDBRANCH  12  35
BRANCH  13  37
ATOM     37  O   UNL     1      21.565  25.526  20.885  1.00  0.00    -0.387 OA
ATOM     38  H   UNL     1      22.370  25.961  20.502  1.00  0.00     0.211 HD
ENDBRANCH  13  37
BRANCH  14  39
ATOM     39  O   UNL     1      23.697  24.390  20.453  1.00  0.00    -0.387 OA
ATOM     40  H   UNL     1      24.173  25.240  20.313  1.00  0.00     0.211 HD
ENDBRANCH  14  39
ENDBRANCH   8   9
ENDBRANCH   7   8
ENDBRANCH   1   7
BRANCH   1  41
ATOM     41  C   UNL     1      22.231  28.567  22.642  1.00  0.00     0.364 C 
ATOM     42  O   UNL     1      22.098  28.769  23.853  1.00  0.00    -0.246 OA
BRANCH  41  43
ATOM     43  O   UNL     1      21.113  28.507  21.833  1.00  0.00    -0.477 OA
ATOM     44  H   UNL     1      21.016  27.911  21.030  1.00  0.00     0.296 HD
ENDBRANCH  41  43
ENDBRANCH   1  41
BRANCH   3  45
ATOM     45  O   UNL     1      25.647  29.143  19.727  1.00  0.00    -0.391 OA
ATOM     46  H   UNL     1      26.218  29.730  19.134  1.00  0.00     0.211 HD
ENDBRANCH   3  45
BRANCH   5  47
ATOM     47  C   UNL     1      25.830  29.716  24.571  1.00  0.00     0.176 C 
BRANCH  47  48
ATOM     48  O   UNL     1      25.914  28.334  24.976  1.00  0.00    -0.388 OA
ATOM     49  H   UNL     1      26.628  27.896  24.446  1.00  0.00     0.211 HD
ENDBRANCH  47  48
BRANCH  47  50
ATOM     50  C   UNL     1      25.074  30.330  25.733  1.00  0.00     0.165 C 
BRANCH  50  51
ATOM     51  O   UNL     1      24.006  29.372  25.925  1.00  0.00    -0.388 OA
ATOM     52  H   UNL     1      23.986  29.104  26.864  1.00  0.00     0.211 HD
ENDBRANCH  50  51
BRANCH  50  53
ATOM     53  C   UNL     1      24.328  31.575  25.320  1.00  0.00     0.154 C 
BRANCH  53  54
ATOM     54  N   UNL     1      22.900  31.506  25.383  1.00  0.00    -0.319 N 
ATOM     55  C   UNL     1      22.118  32.158  24.382  1.00  0.00     0.407 C 
ATOM     56  H   UNL     1      22.415  30.981  26.164  1.00  0.00     0.167 HD
ATOM     57  O   UNL     1      22.753  32.780  23.487  1.00  0.00    -0.225 OA
BRANCH  55  58
ATOM     58  O   UNL     1      20.729  32.120  24.375  1.00  0.00    -0.443 OA
BRANCH  58  59
ATOM     59  C   UNL     1      19.990  31.859  23.206  1.00  0.00     0.294 C 
BRANCH  59  60
ATOM     60  C   UNL     1      18.802  30.990  23.427  1.00  0.00     0.121 A 
ATOM     61  C   UNL     1      17.471  31.334  23.380  1.00  0.00     0.144 A 
ATOM     62  N   UNL     1      18.816  29.659  23.726  1.00  0.00    -0.131 NA
ATOM     63  N   UNL     1      16.728  30.246  23.642  1.00  0.00    -0.220 N 
ATOM     64  N   UNL     1      17.592  29.252  23.846  1.00  0.00    -0.062 NA
BRANCH  63  65
ATOM     65  C   UNL     1      15.294  30.129  23.709  1.00  0.00     0.072 A 
ATOM     66  C   UNL     1      14.694  30.520  24.880  1.00  0.00    -0.025 A 
ATOM     67  C   UNL     1      14.602  29.650  22.652  1.00  0.00    -0.025 A 
ATOM     68  C   UNL     1      15.501  31.047  26.035  1.00  0.00     0.047 C 
ATOM     69  C   UNL     1      13.320  30.412  24.965  1.00  0.00     0.009 A 
ATOM     70  C   UNL     1      13.212  29.559  22.786  1.00  0.00     0.009 A 
ATOM     71  C   UNL     1      15.216  29.220  21.369  1.00  0.00     0.047 C 
ATOM     72  C   UNL     1      12.556  29.935  23.932  1.00  0.00    -0.050 A 
ATOM     73  C   UNL     1      11.083  29.847  24.086  1.00  0.00     0.044 C 
ENDBRANCH  63  65
ENDBRANCH  59  60
ENDBRANCH  58  59
ENDBRANCH  55  58
ENDBRANCH  53  54
ENDBRANCH  50  53
ENDBRANCH  47  50
ENDBRANCH   5  47
BRANCH   4  74
ATOM     74  N   UNL     1      27.264  30.445  22.181  1.00  0.00    -0.348 N 
ATOM     75  C   UNL     1      28.553  30.059  21.712  1.00  0.00     0.217 C 
ATOM     76  H   UNL     1      27.194  31.381  22.619  1.00  0.00     0.163 HD
ATOM     77  C   UNL     1      29.751  30.940  21.867  1.00  0.00     0.114 C 
ATOM     78  O   UNL     1      28.654  28.952  21.159  1.00  0.00    -0.275 OA
ENDBRANCH   4  74
TORSDOF 30
