REMARK VINA RESULT:    -5.792      9.867     14.305
REMARK INTER + INTRA:         -24.978
REMARK INTER:                 -18.055
REMARK INTRA:                  -6.924
REMARK UNBOUND:                -7.166
REMARK SMILES CC(=O)N[C@@H]1[C@@H](O)C[C@](OC[C@H]2O[C@@H](O[C@H]3[C@H](O)[C@@H](O)[C@H](OCCN=[N+]=[N-])O[C@@H]3CO)[C@H](O)[C@@H](O)[C@H]2O)(C(=O)O)O[C@H]1C(O)[C@H](O)CNC(=O)OCc1cn(CCCCCCCCCCC(=O)O)nn1
REMARK SMILES IDX 51 1 49 2 48 3 50 5 47 6 45 7 43 8 42 9 9 10 8 11 41 12 6 13
REMARK SMILES IDX 5 14 10 15 11 16 12 17 14 18 13 19 32 20 34 21 36 22 15 23
REMARK SMILES IDX 16 24 29 25 28 26 21 27 17 28 19 29 30 30 31 31 22 33 23 34
REMARK SMILES IDX 24 35 25 36 26 37 27 38 18 39 20 41 33 43 35 45 37 47 38 49
REMARK SMILES IDX 39 50 40 51 7 53 4 55 2 56 1 58 3 59 44 60 46 62 52 64 53 65
REMARK SMILES IDX 54 66 70 67 55 68 69 69 56 70 57 71 58 72 59 73 60 74 61 75
REMARK SMILES IDX 62 76 63 77 64 78 65 79 66 80 67 81 68 82
REMARK H PARENT 48 4 31 32 18 40 20 42 33 44 35 46 37 48 40 52 7 54 4 57 44 61
REMARK H PARENT 46 63 68 83
REMARK Flexibility Score: inf
ROOT
ATOM      1  O   UNL     1       4.289  20.827  31.162  1.00  0.00    -0.443 OA
ENDROOT
BRANCH   1   2
ATOM      2  C   UNL     1       3.279  20.747  30.178  1.00  0.00     0.407 C 
ATOM      3  N   UNL     1       3.137  21.761  29.198  1.00  0.00    -0.319 N 
ATOM      4  H   UNL     1       3.798  22.581  29.227  1.00  0.00     0.167 HD
ATOM      5  O   UNL     1       2.487  19.778  30.145  1.00  0.00    -0.225 OA
BRANCH   3   6
ATOM      6  C   UNL     1       2.134  21.715  28.178  1.00  0.00     0.154 C 
BRANCH   6   7
ATOM      7  C   UNL     1       2.090  22.949  27.282  1.00  0.00     0.165 C 
BRANCH   7   8
ATOM      8  C   UNL     1       3.335  23.711  27.573  1.00  0.00     0.176 C 
BRANCH   8   9
ATOM      9  C   UNL     1       3.156  25.171  27.917  1.00  0.00     0.178 C 
ATOM     10  C   UNL     1       3.926  27.260  27.244  1.00  0.00     0.272 C 
ATOM     11  C   UNL     1       3.853  27.658  28.703  1.00  0.00     0.113 C 
ATOM     12  O   UNL     1       4.073  25.886  27.198  1.00  0.00    -0.332 OA
ATOM     13  C   UNL     1       4.138  26.537  29.650  1.00  0.00     0.145 C 
ATOM     14  C   UNL     1       3.145  25.423  29.393  1.00  0.00     0.142 C 
BRANCH  10  15
ATOM     15  O   UNL     1       5.012  27.888  26.613  1.00  0.00    -0.338 OA
BRANCH  15  16
ATOM     16  C   UNL     1       6.204  27.251  26.673  1.00  0.00     0.199 C 
BRANCH  16  17
ATOM     17  C   UNL     1       6.665  27.052  25.214  1.00  0.00     0.179 C 
ATOM     18  C   UNL     1       7.278  29.172  24.359  1.00  0.00     0.282 C 
ATOM     19  O   UNL     1       6.435  28.114  24.432  1.00  0.00    -0.341 OA
ATOM     20  C   UNL     1       8.624  28.915  24.923  1.00  0.00     0.202 C 
ATOM     21  C   UNL     1       9.038  27.489  24.581  1.00  0.00     0.179 C 
ATOM     22  C   UNL     1       8.070  26.494  25.188  1.00  0.00     0.177 C 
BRANCH  18  23
ATOM     23  O   UNL     1       6.606  30.266  24.962  1.00  0.00    -0.341 OA
BRANCH  23  24
ATOM     24  C   UNL     1       6.063  31.031  23.939  1.00  0.00     0.184 C 
ATOM     25  C   UNL     1       6.396  32.486  23.987  1.00  0.00     0.178 C 
ATOM     26  O   UNL     1       5.683  33.177  23.052  1.00  0.00    -0.341 OA
ATOM     27  C   UNL     1       4.954  32.537  22.121  1.00  0.00     0.281 C 
ATOM     28  C   UNL     1       4.529  30.943  23.988  1.00  0.00     0.180 C 
ATOM     29  C   UNL     1       4.040  31.459  22.654  1.00  0.00     0.202 C 
BRANCH  25  30
ATOM     30  C   UNL     1       7.876  32.777  23.823  1.00  0.00     0.191 C 
BRANCH  30  31
ATOM     31  O   UNL     1       8.488  32.012  22.866  1.00  0.00    -0.394 OA
ATOM     32  H   UNL     1       8.537  31.077  23.194  1.00  0.00     0.210 HD
ENDBRANCH  30  31
ENDBRANCH  25  30
BRANCH  27  33
ATOM     33  O   UNL     1       5.786  31.963  21.169  1.00  0.00    -0.350 OA
BRANCH  33  34
ATOM     34  C   UNL     1       5.075  31.228  20.222  1.00  0.00     0.169 C 
BRANCH  34  35
ATOM     35  C   UNL     1       5.825  30.005  19.774  1.00  0.00     0.119 C 
BRANCH  35  36
ATOM     36  N   UNL     1       6.106  30.128  18.343  1.00  0.00    -0.092 NA
ATOM     37  N   UNL     1       5.179  30.315  17.524  1.00  0.00     0.001 N 
ATOM     38  N   UNL     1       4.081  30.474  16.949  1.00  0.00    -0.003 NA
ENDBRANCH  35  36
ENDBRANCH  34  35
ENDBRANCH  33  34
ENDBRANCH  27  33
BRANCH  28  39
ATOM     39  O   UNL     1       4.078  29.655  24.185  1.00  0.00    -0.387 OA
ATOM     40  H   UNL     1       3.829  29.189  23.348  1.00  0.00     0.211 HD
ENDBRANCH  28  39
BRANCH  29  41
ATOM     41  O   UNL     1       2.790  32.033  22.863  1.00  0.00    -0.385 OA
ATOM     42  H   UNL     1       2.276  31.415  23.469  1.00  0.00     0.211 HD
ENDBRANCH  29  41
ENDBRANCH  23  24
ENDBRANCH  18  23
BRANCH  20  43
ATOM     43  O   UNL     1       9.614  29.722  24.346  1.00  0.00    -0.385 OA
ATOM     44  H   UNL     1      10.213  29.093  23.845  1.00  0.00     0.211 HD
ENDBRANCH  20  43
BRANCH  21  45
ATOM     45  O   UNL     1      10.326  27.228  25.044  1.00  0.00    -0.387 OA
ATOM     46  H   UNL     1      10.945  27.550  24.341  1.00  0.00     0.211 HD
ENDBRANCH  21  45
BRANCH  22  47
ATOM     47  O   UNL     1       8.497  26.214  26.463  1.00  0.00    -0.387 OA
ATOM     48  H   UNL     1       7.808  26.530  27.102  1.00  0.00     0.211 HD
ENDBRANCH  22  47
ENDBRANCH  16  17
ENDBRANCH  15  16
ENDBRANCH  10  15
BRANCH  10  49
ATOM     49  C   UNL     1       2.748  27.701  26.492  1.00  0.00     0.364 C 
ATOM     50  O   UNL     1       2.615  27.509  25.272  1.00  0.00    -0.246 OA
BRANCH  49  51
ATOM     51  O   UNL     1       1.714  28.365  27.132  1.00  0.00    -0.477 OA
ATOM     52  H   UNL     1       1.719  28.543  28.139  1.00  0.00     0.296 HD
ENDBRANCH  49  51
ENDBRANCH  10  49
BRANCH  13  53
ATOM     53  O   UNL     1       5.441  26.090  29.672  1.00  0.00    -0.391 OA
ATOM     54  H   UNL     1       6.063  26.631  29.105  1.00  0.00     0.211 HD
ENDBRANCH  13  53
BRANCH  14  55
ATOM     55  N   UNL     1       1.891  25.836  29.929  1.00  0.00    -0.348 N 
ATOM     56  C   UNL     1       0.983  24.975  30.609  1.00  0.00     0.217 C 
ATOM     57  H   UNL     1       1.577  26.833  29.839  1.00  0.00     0.163 HD
ATOM     58  C   UNL     1      -0.297  25.477  31.137  1.00  0.00     0.114 C 
ATOM     59  O   UNL     1       1.310  23.781  30.742  1.00  0.00    -0.275 OA
ENDBRANCH  14  55
ENDBRANCH   8   9
BRANCH   8  60
ATOM     60  O   UNL     1       4.249  23.469  26.583  1.00  0.00    -0.388 OA
ATOM     61  H   UNL     1       5.120  23.167  26.883  1.00  0.00     0.211 HD
ENDBRANCH   8  60
ENDBRANCH   7   8
BRANCH   7  62
ATOM     62  O   UNL     1       0.912  23.623  27.580  1.00  0.00    -0.388 OA
ATOM     63  H   UNL     1       0.738  24.366  26.953  1.00  0.00     0.211 HD
ENDBRANCH   7  62
ENDBRANCH   6   7
ENDBRANCH   3   6
ENDBRANCH   1   2
BRANCH   1  64
ATOM     64  C   UNL     1       4.066  21.761  32.228  1.00  0.00     0.294 C 
BRANCH  64  65
ATOM     65  C   UNL     1       5.390  22.103  32.789  1.00  0.00     0.120 A 
ATOM     66  C   UNL     1       5.699  23.294  33.422  1.00  0.00     0.138 A 
ATOM     67  N   UNL     1       6.502  21.356  32.801  1.00  0.00    -0.132 NA
ATOM     68  N   UNL     1       6.991  23.205  33.788  1.00  0.00    -0.252 N 
ATOM     69  N   UNL     1       7.463  22.006  33.395  1.00  0.00    -0.067 NA
BRANCH  68  70
ATOM     70  C   UNL     1       7.797  24.164  34.478  1.00  0.00     0.146 C 
BRANCH  70  71
ATOM     71  C   UNL     1       9.223  23.791  34.683  1.00  0.00     0.024 C 
BRANCH  71  72
ATOM     72  C   UNL     1       9.636  23.510  36.085  1.00  0.00     0.002 C 
BRANCH  72  73
ATOM     73  C   UNL     1      11.066  23.143  36.279  1.00  0.00     0.000 C 
BRANCH  73  74
ATOM     74  C   UNL     1      11.936  24.212  36.845  1.00  0.00     0.000 C 
BRANCH  74  75
ATOM     75  C   UNL     1      12.927  24.677  35.814  1.00  0.00     0.000 C 
BRANCH  75  76
ATOM     76  C   UNL     1      12.732  26.122  35.411  1.00  0.00     0.000 C 
BRANCH  76  77
ATOM     77  C   UNL     1      11.588  26.784  36.106  1.00  0.00     0.001 C 
BRANCH  77  78
ATOM     78  C   UNL     1      10.717  27.623  35.223  1.00  0.00     0.012 C 
BRANCH  78  79
ATOM     79  C   UNL     1       9.271  27.410  35.639  1.00  0.00     0.122 C 
BRANCH  79  80
ATOM     80  C   UNL     1       8.399  27.657  34.479  1.00  0.00     0.303 C 
ATOM     81  O   UNL     1       7.164  27.772  34.623  1.00  0.00    -0.252 OA
BRANCH  80  82
ATOM     82  O   UNL     1       8.915  27.767  33.195  1.00  0.00    -0.481 OA
ATOM     83  H   UNL     1       9.046  28.654  32.744  1.00  0.00     0.296 HD
ENDBRANCH  80  82
ENDBRANCH  79  80
ENDBRANCH  78  79
ENDBRANCH  77  78
ENDBRANCH  76  77
ENDBRANCH  75  76
ENDBRANCH  74  75
ENDBRANCH  73  74
ENDBRANCH  72  73
ENDBRANCH  71  72
ENDBRANCH  70  71
ENDBRANCH  68  70
ENDBRANCH  64  65
ENDBRANCH   1  64
TORSDOF 41
