REMARK VINA RESULT:    -5.635      2.870      7.502
REMARK INTER + INTRA:         -20.468
REMARK INTER:                 -12.267
REMARK INTRA:                  -8.200
REMARK UNBOUND:                -6.597
REMARK SMILES CC(=O)N[C@@H]1[C@@H](O)C[C@](OC[C@H]2O[C@@H](O[C@H]3[C@H](O)[C@@H](O)[C@H](OCCN=[N+]=[N-])O[C@@H]3CO)[C@H](O)[C@@H](O)[C@H]2O)(C(=O)O)O[C@H]1C(O)[C@H](O)CNC(=O)OCc1cn(-c2ccccc2)nn1
REMARK SMILES IDX 9 1 8 2 6 3 5 4 42 5 41 6 10 7 11 8 12 9 14 10 13 11 32 12
REMARK SMILES IDX 34 13 36 14 15 15 16 16 29 17 28 18 21 19 17 20 19 21 30 22
REMARK SMILES IDX 31 23 22 25 23 26 24 27 25 28 26 29 27 30 18 31 20 33 33 35
REMARK SMILES IDX 35 37 37 39 38 41 39 42 40 43 7 45 43 47 44 48 45 50 46 51
REMARK SMILES IDX 47 53 48 54 49 55 50 57 51 58 52 59 53 60 54 61 63 62 55 63
REMARK SMILES IDX 62 64 56 65 57 66 61 67 58 68 60 69 59 70 4 71 2 72 1 74
REMARK SMILES IDX 3 75
REMARK H PARENT 31 24 18 32 20 34 33 36 35 38 37 40 40 44 7 46 44 49 46 52
REMARK H PARENT 48 56 4 73
REMARK Flexibility Score: inf
ROOT
ATOM      1  C   UNL     1      16.417  31.541  23.304  1.00  0.00     0.272 C 
ATOM      2  C   UNL     1      15.354  32.544  23.561  1.00  0.00     0.113 C 
ATOM      3  C   UNL     1      15.177  32.926  24.983  1.00  0.00     0.145 C 
ATOM      4  C   UNL     1      16.524  33.090  25.663  1.00  0.00     0.142 C 
ATOM      5  C   UNL     1      17.234  31.764  25.509  1.00  0.00     0.178 C 
ATOM      6  O   UNL     1      17.541  31.662  24.177  1.00  0.00    -0.332 OA
ENDROOT
BRANCH   1   7
ATOM      7  O   UNL     1      17.009  31.617  22.077  1.00  0.00    -0.338 OA
BRANCH   7   8
ATOM      8  C   UNL     1      16.366  31.541  20.927  1.00  0.00     0.199 C 
BRANCH   8   9
ATOM      9  C   UNL     1      16.942  30.929  19.710  1.00  0.00     0.179 C 
ATOM     10  C   UNL     1      19.014  30.196  18.925  1.00  0.00     0.282 C 
ATOM     11  O   UNL     1      18.358  30.947  19.924  1.00  0.00    -0.341 OA
ATOM     12  C   UNL     1      18.125  29.742  17.815  1.00  0.00     0.202 C 
ATOM     13  C   UNL     1      16.983  28.897  18.336  1.00  0.00     0.179 C 
ATOM     14  C   UNL     1      16.565  29.443  19.670  1.00  0.00     0.177 C 
BRANCH  10  15
ATOM     15  O   UNL     1      19.568  29.121  19.516  1.00  0.00    -0.341 OA
BRANCH  15  16
ATOM     16  C   UNL     1      20.799  29.153  20.059  1.00  0.00     0.184 C 
ATOM     17  C   UNL     1      21.249  27.871  20.719  1.00  0.00     0.178 C 
ATOM     18  O   UNL     1      22.224  28.252  21.662  1.00  0.00    -0.341 OA
ATOM     19  C   UNL     1      21.494  28.659  22.799  1.00  0.00     0.281 C 
ATOM     20  C   UNL     1      20.980  30.293  21.063  1.00  0.00     0.180 C 
ATOM     21  C   UNL     1      20.595  29.828  22.452  1.00  0.00     0.202 C 
BRANCH  17  22
ATOM     22  C   UNL     1      21.925  26.927  19.748  1.00  0.00     0.191 C 
BRANCH  22  23
ATOM     23  O   UNL     1      21.457  27.210  18.462  1.00  0.00    -0.394 OA
ATOM     24  H   UNL     1      22.149  27.707  17.922  1.00  0.00     0.210 HD
ENDBRANCH  22  23
ENDBRANCH  17  22
BRANCH  19  25
ATOM     25  O   UNL     1      22.304  29.020  23.831  1.00  0.00    -0.350 OA
BRANCH  25  26
ATOM     26  C   UNL     1      23.623  28.663  23.764  1.00  0.00     0.169 C 
BRANCH  26  27
ATOM     27  C   UNL     1      24.320  28.541  25.081  1.00  0.00     0.119 C 
BRANCH  27  28
ATOM     28  N   UNL     1      25.329  27.547  25.062  1.00  0.00    -0.092 NA
ATOM     29  N   UNL     1      25.505  26.766  26.015  1.00  0.00     0.001 N 
ATOM     30  N   UNL     1      25.750  26.321  27.148  1.00  0.00    -0.003 NA
ENDBRANCH  27  28
ENDBRANCH  26  27
ENDBRANCH  25  26
ENDBRANCH  19  25
BRANCH  20  31
ATOM     31  O   UNL     1      22.288  30.752  21.133  1.00  0.00    -0.387 OA
ATOM     32  H   UNL     1      22.358  31.697  20.854  1.00  0.00     0.211 HD
ENDBRANCH  20  31
BRANCH  21  33
ATOM     33  O   UNL     1      19.265  29.473  22.542  1.00  0.00    -0.385 OA
ATOM     34  H   UNL     1      18.645  30.226  22.413  1.00  0.00     0.211 HD
ENDBRANCH  21  33
ENDBRANCH  15  16
ENDBRANCH  10  15
BRANCH  12  35
ATOM     35  O   UNL     1      17.725  30.744  16.941  1.00  0.00    -0.385 OA
ATOM     36  H   UNL     1      17.129  31.356  17.445  1.00  0.00     0.211 HD
ENDBRANCH  12  35
BRANCH  13  37
ATOM     37  O   UNL     1      17.433  27.601  18.508  1.00  0.00    -0.387 OA
ATOM     38  H   UNL     1      18.287  27.402  18.050  1.00  0.00     0.211 HD
ENDBRANCH  13  37
BRANCH  14  39
ATOM     39  O   UNL     1      17.301  28.840  20.717  1.00  0.00    -0.387 OA
ATOM     40  H   UNL     1      17.455  27.889  20.542  1.00  0.00     0.211 HD
ENDBRANCH  14  39
ENDBRANCH   8   9
ENDBRANCH   7   8
ENDBRANCH   1   7
BRANCH   1  41
ATOM     41  C   UNL     1      15.921  30.186  23.635  1.00  0.00     0.364 C 
ATOM     42  O   UNL     1      14.720  29.940  23.740  1.00  0.00    -0.246 OA
BRANCH  41  43
ATOM     43  O   UNL     1      16.832  29.131  23.844  1.00  0.00    -0.477 OA
ATOM     44  H   UNL     1      17.226  28.667  23.028  1.00  0.00     0.296 HD
ENDBRANCH  41  43
ENDBRANCH   1  41
BRANCH   3  45
ATOM     45  O   UNL     1      14.419  34.093  25.063  1.00  0.00    -0.391 OA
ATOM     46  H   UNL     1      13.539  33.841  25.392  1.00  0.00     0.211 HD
ENDBRANCH   3  45
BRANCH   5  47
ATOM     47  C   UNL     1      18.561  31.761  26.260  1.00  0.00     0.176 C 
BRANCH  47  48
ATOM     48  O   UNL     1      18.381  31.069  27.427  1.00  0.00    -0.388 OA
ATOM     49  H   UNL     1      18.507  30.098  27.351  1.00  0.00     0.211 HD
ENDBRANCH  47  48
BRANCH  47  50
ATOM     50  C   UNL     1      19.730  31.299  25.496  1.00  0.00     0.165 C 
BRANCH  50  51
ATOM     51  O   UNL     1      19.629  29.873  25.438  1.00  0.00    -0.388 OA
ATOM     52  H   UNL     1      20.059  29.606  24.606  1.00  0.00     0.211 HD
ENDBRANCH  50  51
BRANCH  50  53
ATOM     53  C   UNL     1      21.045  31.526  26.261  1.00  0.00     0.154 C 
BRANCH  53  54
ATOM     54  N   UNL     1      21.631  30.286  26.704  1.00  0.00    -0.319 N 
ATOM     55  C   UNL     1      21.613  29.895  28.088  1.00  0.00     0.407 C 
ATOM     56  H   UNL     1      22.093  29.611  26.060  1.00  0.00     0.167 HD
ATOM     57  O   UNL     1      21.071  30.622  28.952  1.00  0.00    -0.225 OA
BRANCH  55  58
ATOM     58  O   UNL     1      22.189  28.708  28.499  1.00  0.00    -0.443 OA
BRANCH  58  59
ATOM     59  C   UNL     1      21.394  27.576  28.834  1.00  0.00     0.294 C 
BRANCH  59  60
ATOM     60  C   UNL     1      21.861  26.478  27.937  1.00  0.00     0.121 A 
ATOM     61  C   UNL     1      21.695  26.496  26.559  1.00  0.00     0.144 A 
ATOM     62  N   UNL     1      22.487  25.330  28.208  1.00  0.00    -0.131 NA
ATOM     63  N   UNL     1      22.225  25.360  26.035  1.00  0.00    -0.220 N 
ATOM     64  N   UNL     1      22.693  24.682  27.058  1.00  0.00    -0.062 NA
BRANCH  63  65
ATOM     65  C   UNL     1      22.257  24.989  24.666  1.00  0.00     0.066 A 
ATOM     66  C   UNL     1      21.115  24.946  23.900  1.00  0.00     0.028 A 
ATOM     67  C   UNL     1      23.455  24.668  24.068  1.00  0.00     0.028 A 
ATOM     68  C   UNL     1      21.138  24.594  22.567  1.00  0.00     0.002 A 
ATOM     69  C   UNL     1      23.474  24.314  22.727  1.00  0.00     0.002 A 
ATOM     70  C   UNL     1      22.345  24.264  21.947  1.00  0.00     0.000 A 
ENDBRANCH  63  65
ENDBRANCH  59  60
ENDBRANCH  58  59
ENDBRANCH  55  58
ENDBRANCH  53  54
ENDBRANCH  50  53
ENDBRANCH  47  50
ENDBRANCH   5  47
BRANCH   4  71
ATOM     71  N   UNL     1      16.397  33.591  26.985  1.00  0.00    -0.348 N 
ATOM     72  C   UNL     1      16.574  34.979  27.219  1.00  0.00     0.217 C 
ATOM     73  H   UNL     1      16.165  32.982  27.791  1.00  0.00     0.163 HD
ATOM     74  C   UNL     1      16.446  35.533  28.601  1.00  0.00     0.114 C 
ATOM     75  O   UNL     1      16.843  35.798  26.288  1.00  0.00    -0.275 OA
ENDBRANCH   4  71
TORSDOF 30
