REMARK VINA RESULT:    -5.839      4.961     13.415
REMARK INTER + INTRA:         -22.298
REMARK INTER:                 -15.976
REMARK INTRA:                  -6.322
REMARK UNBOUND:                -7.585
REMARK SMILES COc1ccc(-n2cc(COC(=O)NC[C@@H](O)C(O)[C@@H]3O[C@@](OC[C@H]4O[C@@H](O[C@H]5[C@H](O)[C@@H](O)[C@H](OCCN=[N+]=[N-])O[C@@H]5CO)[C@H](O)[C@@H](O)[C@H]4O)(C(=O)O)C[C@H](O)[C@H]3NC(C)=O)nn2)cc1
REMARK SMILES IDX 22 1 54 2 55 3 57 4 20 5 21 6 23 7 24 8 25 9 27 10 26 11
REMARK SMILES IDX 45 12 47 13 49 14 28 15 29 16 42 17 41 18 34 19 30 20 32 21
REMARK SMILES IDX 43 22 44 23 35 25 36 26 37 27 38 28 39 29 40 30 31 31 33 33
REMARK SMILES IDX 46 35 48 37 50 39 51 41 52 42 53 43 56 45 18 47 19 48 16 50
REMARK SMILES IDX 17 51 15 53 14 54 12 55 13 57 11 58 10 59 9 60 8 61 62 62
REMARK SMILES IDX 7 63 63 64 6 65 5 66 64 67 4 68 65 69 3 70 2 71 1 72 58 73
REMARK SMILES IDX 59 74 60 76 61 77
REMARK H PARENT 44 24 31 32 33 34 46 36 48 38 50 40 53 44 56 46 19 49 17 52
REMARK H PARENT 14 56 58 75
REMARK Flexibility Score: inf
ROOT
ATOM      1  C   UNL     1      22.667  25.720  22.775  1.00  0.00     0.272 C 
ATOM      2  C   UNL     1      23.316  24.514  23.344  1.00  0.00     0.113 C 
ATOM      3  C   UNL     1      24.568  24.058  22.706  1.00  0.00     0.145 C 
ATOM      4  C   UNL     1      24.596  24.606  21.265  1.00  0.00     0.142 C 
ATOM      5  C   UNL     1      23.197  24.570  20.760  1.00  0.00     0.178 C 
ATOM      6  O   UNL     1      22.508  25.611  21.381  1.00  0.00    -0.332 OA
ENDROOT
BRANCH   1   7
ATOM      7  O   UNL     1      22.985  26.943  23.062  1.00  0.00    -0.338 OA
BRANCH   7   8
ATOM      8  C   UNL     1      23.122  28.101  22.534  1.00  0.00     0.199 C 
BRANCH   8   9
ATOM      9  C   UNL     1      21.984  29.007  22.161  1.00  0.00     0.179 C 
ATOM     10  C   UNL     1      20.114  29.326  20.888  1.00  0.00     0.282 C 
ATOM     11  O   UNL     1      21.080  28.415  21.347  1.00  0.00    -0.341 OA
ATOM     12  C   UNL     1      19.321  29.969  21.980  1.00  0.00     0.202 C 
ATOM     13  C   UNL     1      19.925  29.915  23.334  1.00  0.00     0.179 C 
ATOM     14  C   UNL     1      21.382  29.686  23.367  1.00  0.00     0.177 C 
BRANCH  10  15
ATOM     15  O   UNL     1      19.253  28.618  20.054  1.00  0.00    -0.341 OA
BRANCH  15  16
ATOM     16  C   UNL     1      18.784  29.363  19.007  1.00  0.00     0.184 C 
ATOM     17  C   UNL     1      17.334  29.162  18.759  1.00  0.00     0.178 C 
ATOM     18  O   UNL     1      16.918  29.877  17.604  1.00  0.00    -0.341 OA
ATOM     19  C   UNL     1      17.499  29.184  16.510  1.00  0.00     0.281 C 
ATOM     20  C   UNL     1      19.578  28.967  17.750  1.00  0.00     0.180 C 
ATOM     21  C   UNL     1      18.965  29.625  16.542  1.00  0.00     0.202 C 
BRANCH  17  22
ATOM     22  C   UNL     1      16.493  29.597  19.930  1.00  0.00     0.191 C 
BRANCH  22  23
ATOM     23  O   UNL     1      16.340  28.529  20.797  1.00  0.00    -0.394 OA
ATOM     24  H   UNL     1      16.845  28.637  21.634  1.00  0.00     0.210 HD
ENDBRANCH  22  23
ENDBRANCH  17  22
BRANCH  19  25
ATOM     25  O   UNL     1      16.895  29.500  15.344  1.00  0.00    -0.350 OA
BRANCH  25  26
ATOM     26  C   UNL     1      16.020  28.630  14.773  1.00  0.00     0.169 C 
BRANCH  26  27
ATOM     27  C   UNL     1      14.588  29.042  14.698  1.00  0.00     0.119 C 
BRANCH  27  28
ATOM     28  N   UNL     1      13.725  28.169  13.961  1.00  0.00    -0.092 NA
ATOM     29  N   UNL     1      12.529  28.411  13.837  1.00  0.00     0.001 N 
ATOM     30  N   UNL     1      11.332  28.711  13.893  1.00  0.00    -0.003 NA
ENDBRANCH  27  28
ENDBRANCH  26  27
ENDBRANCH  25  26
ENDBRANCH  19  25
BRANCH  20  31
ATOM     31  O   UNL     1      20.900  29.331  17.927  1.00  0.00    -0.387 OA
ATOM     32  H   UNL     1      21.131  29.132  18.888  1.00  0.00     0.211 HD
ENDBRANCH  20  31
BRANCH  21  33
ATOM     33  O   UNL     1      19.569  29.176  15.390  1.00  0.00    -0.385 OA
ATOM     34  H   UNL     1      19.422  28.206  15.258  1.00  0.00     0.211 HD
ENDBRANCH  21  33
ENDBRANCH  15  16
ENDBRANCH  10  15
BRANCH  12  35
ATOM     35  O   UNL     1      19.070  31.324  21.704  1.00  0.00    -0.385 OA
ATOM     36  H   UNL     1      19.904  31.841  21.652  1.00  0.00     0.211 HD
ENDBRANCH  12  35
BRANCH  13  37
ATOM     37  O   UNL     1      19.202  29.037  24.149  1.00  0.00    -0.387 OA
ATOM     38  H   UNL     1      18.597  29.494  24.769  1.00  0.00     0.211 HD
ENDBRANCH  13  37
BRANCH  14  39
ATOM     39  O   UNL     1      21.705  29.017  24.551  1.00  0.00    -0.387 OA
ATOM     40  H   UNL     1      21.629  29.679  25.284  1.00  0.00     0.211 HD
ENDBRANCH  14  39
ENDBRANCH   8   9
ENDBRANCH   7   8
ENDBRANCH   1   7
BRANCH   1  41
ATOM     41  C   UNL     1      21.184  25.547  23.232  1.00  0.00     0.364 C 
ATOM     42  O   UNL     1      20.738  26.216  24.167  1.00  0.00    -0.246 OA
BRANCH  41  43
ATOM     43  O   UNL     1      20.439  24.627  22.537  1.00  0.00    -0.477 OA
ATOM     44  H   UNL     1      20.312  24.693  21.516  1.00  0.00     0.296 HD
ENDBRANCH  41  43
ENDBRANCH   1  41
BRANCH   3  45
ATOM     45  O   UNL     1      25.732  24.301  23.377  1.00  0.00    -0.391 OA
ATOM     46  H   UNL     1      25.676  24.942  24.121  1.00  0.00     0.211 HD
ENDBRANCH   3  45
BRANCH   5  47
ATOM     47  C   UNL     1      23.084  24.874  19.248  1.00  0.00     0.176 C 
BRANCH  47  48
ATOM     48  O   UNL     1      22.331  23.931  18.618  1.00  0.00    -0.388 OA
ATOM     49  H   UNL     1      22.319  24.111  17.649  1.00  0.00     0.211 HD
ENDBRANCH  47  48
BRANCH  47  50
ATOM     50  C   UNL     1      22.953  26.283  18.971  1.00  0.00     0.165 C 
BRANCH  50  51
ATOM     51  O   UNL     1      21.639  26.818  19.056  1.00  0.00    -0.388 OA
ATOM     52  H   UNL     1      21.046  26.102  18.755  1.00  0.00     0.211 HD
ENDBRANCH  50  51
BRANCH  50  53
ATOM     53  C   UNL     1      23.553  26.968  17.815  1.00  0.00     0.154 C 
BRANCH  53  54
ATOM     54  N   UNL     1      23.513  26.360  16.562  1.00  0.00    -0.319 N 
ATOM     55  C   UNL     1      22.418  26.306  15.687  1.00  0.00     0.407 C 
ATOM     56  H   UNL     1      24.409  25.874  16.212  1.00  0.00     0.167 HD
ATOM     57  O   UNL     1      21.331  26.843  15.957  1.00  0.00    -0.225 OA
BRANCH  55  58
ATOM     58  O   UNL     1      22.552  25.622  14.457  1.00  0.00    -0.443 OA
BRANCH  58  59
ATOM     59  C   UNL     1      23.695  24.822  14.286  1.00  0.00     0.294 C 
BRANCH  59  60
ATOM     60  C   UNL     1      23.295  23.459  13.866  1.00  0.00     0.121 A 
ATOM     61  C   UNL     1      22.238  23.049  13.075  1.00  0.00     0.144 A 
ATOM     62  N   UNL     1      23.963  22.339  14.205  1.00  0.00    -0.131 NA
ATOM     63  N   UNL     1      22.307  21.717  12.969  1.00  0.00    -0.220 N 
ATOM     64  N   UNL     1      23.369  21.307  13.669  1.00  0.00    -0.062 NA
BRANCH  63  65
ATOM     65  C   UNL     1      21.494  20.781  12.278  1.00  0.00     0.067 A 
ATOM     66  C   UNL     1      21.968  19.646  11.678  1.00  0.00     0.032 A 
ATOM     67  C   UNL     1      20.124  21.025  12.186  1.00  0.00     0.032 A 
ATOM     68  C   UNL     1      21.117  18.778  11.009  1.00  0.00     0.048 A 
ATOM     69  C   UNL     1      19.278  20.161  11.520  1.00  0.00     0.048 A 
ATOM     70  C   UNL     1      19.758  19.018  10.917  1.00  0.00     0.119 A 
BRANCH  70  71
ATOM     71  O   UNL     1      18.906  18.128  10.233  1.00  0.00    -0.497 OA
ATOM     72  C   UNL     1      18.889  18.219   8.801  1.00  0.00     0.278 C 
ENDBRANCH  70  71
ENDBRANCH  63  65
ENDBRANCH  59  60
ENDBRANCH  58  59
ENDBRANCH  55  58
ENDBRANCH  53  54
ENDBRANCH  50  53
ENDBRANCH  47  50
ENDBRANCH   5  47
BRANCH   4  73
ATOM     73  N   UNL     1      25.599  23.894  20.524  1.00  0.00    -0.348 N 
ATOM     74  C   UNL     1      26.586  24.582  19.772  1.00  0.00     0.217 C 
ATOM     75  H   UNL     1      25.621  22.860  20.562  1.00  0.00     0.163 HD
ATOM     76  C   UNL     1      27.612  23.820  19.013  1.00  0.00     0.114 C 
ATOM     77  O   UNL     1      26.642  25.838  19.711  1.00  0.00    -0.275 OA
ENDBRANCH   4  73
TORSDOF 31
