REMARK VINA RESULT:    -5.702     15.450     21.292
REMARK INTER + INTRA:         -21.900
REMARK INTER:                 -15.068
REMARK INTRA:                  -6.832
REMARK UNBOUND:                -7.364
REMARK SMILES CC(=O)N[C@@H]1[C@@H](O)C[C@](OC[C@H]2O[C@@H](O[C@H]3[C@H](O)[C@@H](O)[C@H](OCCN=[N+]=[N-])O[C@@H]3CO)[C@H](O)[C@@H](O)[C@H]2O)(C(=O)O)O[C@H]1C(O)[C@H](O)CNC(=O)OCc1cn([C@@H](C)C(=O)O)nn1
REMARK SMILES IDX 9 1 8 2 6 3 5 4 42 5 41 6 10 7 11 8 12 9 14 10 13 11 32 12
REMARK SMILES IDX 34 13 36 14 15 15 16 16 29 17 28 18 21 19 17 20 19 21 30 22
REMARK SMILES IDX 31 23 22 25 23 26 24 27 25 28 26 29 27 30 18 31 20 33 33 35
REMARK SMILES IDX 35 37 37 39 38 41 39 42 40 43 7 45 43 47 44 48 45 50 46 51
REMARK SMILES IDX 47 53 48 54 49 55 50 57 51 58 52 59 53 60 54 61 62 62 55 63
REMARK SMILES IDX 61 64 56 65 57 66 58 67 59 68 60 69 4 71 2 72 1 74 3 75
REMARK H PARENT 31 24 18 32 20 34 33 36 35 38 37 40 40 44 7 46 44 49 46 52
REMARK H PARENT 48 56 60 70 4 73
REMARK Flexibility Score: inf
ROOT
ATOM      1  C   UNL     1      22.316  25.733  24.141  1.00  0.00     0.272 C 
ATOM      2  C   UNL     1      23.112  24.542  24.508  1.00  0.00     0.113 C 
ATOM      3  C   UNL     1      24.501  25.025  24.858  1.00  0.00     0.145 C 
ATOM      4  C   UNL     1      25.097  25.397  23.453  1.00  0.00     0.142 C 
ATOM      5  C   UNL     1      24.119  26.115  22.655  1.00  0.00     0.178 C 
ATOM      6  O   UNL     1      23.004  26.600  23.286  1.00  0.00    -0.332 OA
ENDROOT
BRANCH   1   7
ATOM      7  O   UNL     1      21.830  26.399  25.223  1.00  0.00    -0.338 OA
BRANCH   7   8
ATOM      8  C   UNL     1      21.192  27.571  25.049  1.00  0.00     0.199 C 
BRANCH   8   9
ATOM      9  C   UNL     1      21.716  28.641  26.039  1.00  0.00     0.179 C 
ATOM     10  C   UNL     1      22.763  28.775  28.092  1.00  0.00     0.282 C 
ATOM     11  O   UNL     1      22.377  27.964  27.030  1.00  0.00    -0.341 OA
ATOM     12  C   UNL     1      22.573  30.236  27.805  1.00  0.00     0.202 C 
ATOM     13  C   UNL     1      23.099  30.587  26.427  1.00  0.00     0.179 C 
ATOM     14  C   UNL     1      22.610  29.621  25.361  1.00  0.00     0.177 C 
BRANCH  10  15
ATOM     15  O   UNL     1      24.107  28.597  28.450  1.00  0.00    -0.341 OA
BRANCH  15  16
ATOM     16  C   UNL     1      24.384  27.276  28.767  1.00  0.00     0.184 C 
ATOM     17  C   UNL     1      23.882  26.958  30.140  1.00  0.00     0.178 C 
ATOM     18  O   UNL     1      24.920  26.755  31.050  1.00  0.00    -0.341 OA
ATOM     19  C   UNL     1      25.830  27.816  31.024  1.00  0.00     0.281 C 
ATOM     20  C   UNL     1      25.880  27.087  28.692  1.00  0.00     0.180 C 
ATOM     21  C   UNL     1      26.637  27.831  29.756  1.00  0.00     0.202 C 
BRANCH  17  22
ATOM     22  C   UNL     1      23.010  25.724  30.154  1.00  0.00     0.191 C 
BRANCH  22  23
ATOM     23  O   UNL     1      23.752  24.557  29.996  1.00  0.00    -0.394 OA
ATOM     24  H   UNL     1      24.291  24.395  30.796  1.00  0.00     0.210 HD
ENDBRANCH  22  23
ENDBRANCH  17  22
BRANCH  19  25
ATOM     25  O   UNL     1      26.686  27.620  32.094  1.00  0.00    -0.350 OA
BRANCH  25  26
ATOM     26  C   UNL     1      26.528  26.337  32.576  1.00  0.00     0.169 C 
BRANCH  26  27
ATOM     27  C   UNL     1      27.857  25.610  32.602  1.00  0.00     0.119 C 
BRANCH  27  28
ATOM     28  N   UNL     1      28.056  24.971  31.303  1.00  0.00    -0.092 NA
ATOM     29  N   UNL     1      28.962  25.307  30.538  1.00  0.00     0.001 N 
ATOM     30  N   UNL     1      30.015  25.534  29.970  1.00  0.00    -0.003 NA
ENDBRANCH  27  28
ENDBRANCH  26  27
ENDBRANCH  25  26
ENDBRANCH  19  25
BRANCH  20  31
ATOM     31  O   UNL     1      26.241  25.741  28.723  1.00  0.00    -0.387 OA
ATOM     32  H   UNL     1      25.920  25.227  27.951  1.00  0.00     0.211 HD
ENDBRANCH  20  31
BRANCH  21  33
ATOM     33  O   UNL     1      26.827  29.157  29.374  1.00  0.00    -0.385 OA
ATOM     34  H   UNL     1      26.435  29.779  30.028  1.00  0.00     0.211 HD
ENDBRANCH  21  33
ENDBRANCH  15  16
ENDBRANCH  10  15
BRANCH  12  35
ATOM     35  O   UNL     1      21.300  30.700  28.036  1.00  0.00    -0.385 OA
ATOM     36  H   UNL     1      21.337  31.567  28.548  1.00  0.00     0.211 HD
ENDBRANCH  12  35
BRANCH  13  37
ATOM     37  O   UNL     1      24.507  30.505  26.500  1.00  0.00    -0.387 OA
ATOM     38  H   UNL     1      24.883  31.298  26.966  1.00  0.00     0.211 HD
ENDBRANCH  13  37
BRANCH  14  39
ATOM     39  O   UNL     1      23.683  28.986  24.735  1.00  0.00    -0.387 OA
ATOM     40  H   UNL     1      24.007  28.242  25.306  1.00  0.00     0.211 HD
ENDBRANCH  14  39
ENDBRANCH   8   9
ENDBRANCH   7   8
ENDBRANCH   1   7
BRANCH   1  41
ATOM     41  C   UNL     1      21.181  25.270  23.300  1.00  0.00     0.364 C 
ATOM     42  O   UNL     1      20.532  24.267  23.628  1.00  0.00    -0.246 OA
BRANCH  41  43
ATOM     43  O   UNL     1      20.825  25.942  22.139  1.00  0.00    -0.477 OA
ATOM     44  H   UNL     1      19.988  25.664  21.604  1.00  0.00     0.296 HD
ENDBRANCH  41  43
ENDBRANCH   1  41
BRANCH   3  45
ATOM     45  O   UNL     1      24.376  26.239  25.522  1.00  0.00    -0.391 OA
ATOM     46  H   UNL     1      24.052  26.960  24.957  1.00  0.00     0.211 HD
ENDBRANCH   3  45
BRANCH   5  47
ATOM     47  C   UNL     1      24.649  27.241  21.782  1.00  0.00     0.176 C 
BRANCH  47  48
ATOM     48  O   UNL     1      25.272  28.188  22.672  1.00  0.00    -0.388 OA
ATOM     49  H   UNL     1      24.639  28.895  22.879  1.00  0.00     0.211 HD
ENDBRANCH  47  48
BRANCH  47  50
ATOM     50  C   UNL     1      23.565  28.070  21.122  1.00  0.00     0.165 C 
BRANCH  50  51
ATOM     51  O   UNL     1      22.688  28.680  21.964  1.00  0.00    -0.388 OA
ATOM     52  H   UNL     1      21.997  28.120  22.381  1.00  0.00     0.211 HD
ENDBRANCH  50  51
BRANCH  50  53
ATOM     53  C   UNL     1      22.971  27.387  19.937  1.00  0.00     0.154 C 
BRANCH  53  54
ATOM     54  N   UNL     1      21.571  27.487  19.761  1.00  0.00    -0.319 N 
ATOM     55  C   UNL     1      20.879  28.023  18.643  1.00  0.00     0.407 C 
ATOM     56  H   UNL     1      20.968  27.118  20.561  1.00  0.00     0.167 HD
ATOM     57  O   UNL     1      21.527  28.457  17.683  1.00  0.00    -0.225 OA
BRANCH  55  58
ATOM     58  O   UNL     1      19.474  28.055  18.643  1.00  0.00    -0.443 OA
BRANCH  58  59
ATOM     59  C   UNL     1      18.783  29.236  18.950  1.00  0.00     0.294 C 
BRANCH  59  60
ATOM     60  C   UNL     1      17.596  29.019  19.785  1.00  0.00     0.120 A 
ATOM     61  C   UNL     1      16.856  29.931  20.505  1.00  0.00     0.139 A 
ATOM     62  N   UNL     1      17.028  27.798  19.968  1.00  0.00    -0.132 NA
ATOM     63  N   UNL     1      15.873  29.249  21.095  1.00  0.00    -0.238 N 
ATOM     64  N   UNL     1      15.971  27.965  20.776  1.00  0.00    -0.066 NA
BRANCH  63  65
ATOM     65  C   UNL     1      14.853  29.813  21.956  1.00  0.00     0.215 C 
ATOM     66  C   UNL     1      13.536  29.161  21.672  1.00  0.00     0.046 C 
BRANCH  65  67
ATOM     67  C   UNL     1      15.206  29.651  23.386  1.00  0.00     0.328 C 
ATOM     68  O   UNL     1      14.345  29.941  24.253  1.00  0.00    -0.250 OA
BRANCH  67  69
ATOM     69  O   UNL     1      16.448  29.193  23.798  1.00  0.00    -0.480 OA
ATOM     70  H   UNL     1      16.576  28.720  24.685  1.00  0.00     0.296 HD
ENDBRANCH  67  69
ENDBRANCH  65  67
ENDBRANCH  63  65
ENDBRANCH  59  60
ENDBRANCH  58  59
ENDBRANCH  55  58
ENDBRANCH  53  54
ENDBRANCH  50  53
ENDBRANCH  47  50
ENDBRANCH   5  47
BRANCH   4  71
ATOM     71  N   UNL     1      25.629  24.176  22.877  1.00  0.00    -0.348 N 
ATOM     72  C   UNL     1      26.688  24.064  21.979  1.00  0.00     0.217 C 
ATOM     73  H   UNL     1      25.149  23.281  23.182  1.00  0.00     0.163 HD
ATOM     74  C   UNL     1      27.139  22.751  21.456  1.00  0.00     0.114 C 
ATOM     75  O   UNL     1      27.275  25.095  21.601  1.00  0.00    -0.275 OA
ENDBRANCH   4  71
TORSDOF 32
