REMARK VINA RESULT:    -6.812      3.774     10.904
REMARK INTER + INTRA:         -22.360
REMARK INTER:                 -16.768
REMARK INTRA:                  -5.593
REMARK UNBOUND:                -5.593
REMARK SMILES CC(=O)N[C@@H]1[C@@H](O)C[C@](OC[C@H]2O[C@@H](O[C@H]3[C@H](O)[C@@H](O)[C@H](OCCN=[N+]=[N-])O[C@@H]3CO)[C@H](O)[C@@H](O)[C@H]2O)(C(=O)O)O[C@H]1C(O)[C@H](O)CNC(=O)OCc1cn(C2c3ccccc3-c3ccccc32)nn1
REMARK SMILES IDX 9 1 8 2 6 3 5 4 42 5 41 6 10 7 11 8 12 9 14 10 13 11 32 12
REMARK SMILES IDX 34 13 36 14 15 15 16 16 29 17 28 18 21 19 17 20 19 21 30 22
REMARK SMILES IDX 31 23 22 25 23 26 24 27 25 28 26 29 27 30 18 31 20 33 33 35
REMARK SMILES IDX 35 37 37 39 38 41 39 42 40 43 7 45 43 47 44 48 45 50 46 51
REMARK SMILES IDX 47 53 48 54 49 55 50 57 51 58 52 59 53 60 54 61 70 62 55 63
REMARK SMILES IDX 69 64 56 65 57 66 68 67 58 68 62 69 63 70 67 71 59 72 61 73
REMARK SMILES IDX 64 74 66 75 60 76 65 77 4 78 2 79 1 81 3 82
REMARK H PARENT 31 24 18 32 20 34 33 36 35 38 37 40 40 44 7 46 44 49 46 52
REMARK H PARENT 48 56 4 80
REMARK Flexibility Score: inf
ROOT
ATOM      1  C   UNL     1      20.438  28.634  21.105  1.00  0.00     0.272 C 
ATOM      2  C   UNL     1      21.449  29.163  20.170  1.00  0.00     0.113 C 
ATOM      3  C   UNL     1      22.079  28.110  19.339  1.00  0.00     0.145 C 
ATOM      4  C   UNL     1      21.967  26.725  19.914  1.00  0.00     0.142 C 
ATOM      5  C   UNL     1      21.894  26.824  21.398  1.00  0.00     0.178 C 
ATOM      6  O   UNL     1      20.910  27.597  21.924  1.00  0.00    -0.332 OA
ENDROOT
BRANCH   1   7
ATOM      7  O   UNL     1      19.295  28.203  20.487  1.00  0.00    -0.338 OA
BRANCH   7   8
ATOM      8  C   UNL     1      18.697  29.070  19.614  1.00  0.00     0.199 C 
BRANCH   8   9
ATOM      9  C   UNL     1      18.092  28.306  18.458  1.00  0.00     0.179 C 
ATOM     10  C   UNL     1      15.997  28.124  19.495  1.00  0.00     0.282 C 
ATOM     11  O   UNL     1      17.089  27.506  18.953  1.00  0.00    -0.341 OA
ATOM     12  C   UNL     1      15.526  29.236  18.639  1.00  0.00     0.202 C 
ATOM     13  C   UNL     1      16.065  28.932  17.229  1.00  0.00     0.179 C 
ATOM     14  C   UNL     1      17.577  29.210  17.371  1.00  0.00     0.177 C 
BRANCH  10  15
ATOM     15  O   UNL     1      16.154  28.366  20.833  1.00  0.00    -0.341 OA
BRANCH  15  16
ATOM     16  C   UNL     1      15.478  29.437  21.351  1.00  0.00     0.184 C 
ATOM     17  C   UNL     1      16.389  30.322  22.117  1.00  0.00     0.178 C 
ATOM     18  O   UNL     1      15.818  30.835  23.277  1.00  0.00    -0.341 OA
ATOM     19  C   UNL     1      14.485  31.068  23.181  1.00  0.00     0.281 C 
ATOM     20  C   UNL     1      14.388  28.819  22.223  1.00  0.00     0.180 C 
ATOM     21  C   UNL     1      13.772  29.720  23.211  1.00  0.00     0.202 C 
BRANCH  17  22
ATOM     22  C   UNL     1      16.859  31.503  21.295  1.00  0.00     0.191 C 
BRANCH  22  23
ATOM     23  O   UNL     1      17.732  32.318  22.056  1.00  0.00    -0.394 OA
ATOM     24  H   UNL     1      18.260  32.909  21.439  1.00  0.00     0.210 HD
ENDBRANCH  22  23
ENDBRANCH  17  22
BRANCH  19  25
ATOM     25  O   UNL     1      14.047  31.719  22.043  1.00  0.00    -0.350 OA
BRANCH  25  26
ATOM     26  C   UNL     1      13.319  32.849  22.282  1.00  0.00     0.169 C 
BRANCH  26  27
ATOM     27  C   UNL     1      11.840  32.690  22.361  1.00  0.00     0.119 C 
BRANCH  27  28
ATOM     28  N   UNL     1      11.367  32.381  23.695  1.00  0.00    -0.092 NA
ATOM     29  N   UNL     1      10.350  31.679  23.768  1.00  0.00     0.001 N 
ATOM     30  N   UNL     1       9.284  31.072  23.922  1.00  0.00    -0.003 NA
ENDBRANCH  27  28
ENDBRANCH  26  27
ENDBRANCH  25  26
ENDBRANCH  19  25
BRANCH  20  31
ATOM     31  O   UNL     1      13.356  28.323  21.382  1.00  0.00    -0.387 OA
ATOM     32  H   UNL     1      13.690  28.221  20.456  1.00  0.00     0.211 HD
ENDBRANCH  20  31
BRANCH  21  33
ATOM     33  O   UNL     1      13.935  29.210  24.506  1.00  0.00    -0.385 OA
ATOM     34  H   UNL     1      14.106  28.233  24.512  1.00  0.00     0.211 HD
ENDBRANCH  21  33
ENDBRANCH  15  16
ENDBRANCH  10  15
BRANCH  12  35
ATOM     35  O   UNL     1      14.140  29.278  18.491  1.00  0.00    -0.385 OA
ATOM     36  H   UNL     1      13.918  29.036  17.561  1.00  0.00     0.211 HD
ENDBRANCH  12  35
BRANCH  13  37
ATOM     37  O   UNL     1      15.581  29.820  16.298  1.00  0.00    -0.387 OA
ATOM     38  H   UNL     1      15.095  30.538  16.770  1.00  0.00     0.211 HD
ENDBRANCH  13  37
BRANCH  14  39
ATOM     39  O   UNL     1      17.675  30.526  17.785  1.00  0.00    -0.387 OA
ATOM     40  H   UNL     1      16.861  30.846  18.247  1.00  0.00     0.211 HD
ENDBRANCH  14  39
ENDBRANCH   8   9
ENDBRANCH   7   8
ENDBRANCH   1   7
BRANCH   1  41
ATOM     41  C   UNL     1      20.076  29.701  22.138  1.00  0.00     0.364 C 
ATOM     42  O   UNL     1      20.322  30.878  21.856  1.00  0.00    -0.246 OA
BRANCH  41  43
ATOM     43  O   UNL     1      19.495  29.374  23.339  1.00  0.00    -0.477 OA
ATOM     44  H   UNL     1      20.041  28.955  24.101  1.00  0.00     0.296 HD
ENDBRANCH  41  43
ENDBRANCH   1  41
BRANCH   3  45
ATOM     45  O   UNL     1      21.659  28.081  18.009  1.00  0.00    -0.391 OA
ATOM     46  H   UNL     1      20.712  27.910  17.907  1.00  0.00     0.211 HD
ENDBRANCH   3  45
BRANCH   5  47
ATOM     47  C   UNL     1      21.766  25.414  21.972  1.00  0.00     0.176 C 
BRANCH  47  48
ATOM     48  O   UNL     1      20.463  25.184  22.330  1.00  0.00    -0.388 OA
ATOM     49  H   UNL     1      20.274  25.520  23.258  1.00  0.00     0.211 HD
ENDBRANCH  47  48
BRANCH  47  50
ATOM     50  C   UNL     1      22.703  25.295  23.136  1.00  0.00     0.165 C 
BRANCH  50  51
ATOM     51  O   UNL     1      23.642  24.279  22.881  1.00  0.00    -0.388 OA
ATOM     52  H   UNL     1      24.510  24.500  23.285  1.00  0.00     0.211 HD
ENDBRANCH  50  51
BRANCH  50  53
ATOM     53  C   UNL     1      21.875  24.781  24.320  1.00  0.00     0.154 C 
BRANCH  53  54
ATOM     54  N   UNL     1      22.018  25.714  25.396  1.00  0.00    -0.319 N 
ATOM     55  C   UNL     1      21.054  26.721  25.609  1.00  0.00     0.407 C 
ATOM     56  H   UNL     1      22.846  25.647  26.035  1.00  0.00     0.167 HD
ATOM     57  O   UNL     1      20.052  26.837  24.857  1.00  0.00    -0.225 OA
BRANCH  55  58
ATOM     58  O   UNL     1      21.160  27.625  26.647  1.00  0.00    -0.443 OA
BRANCH  58  59
ATOM     59  C   UNL     1      22.248  28.528  26.778  1.00  0.00     0.294 C 
BRANCH  59  60
ATOM     60  C   UNL     1      23.138  27.997  27.841  1.00  0.00     0.120 A 
ATOM     61  C   UNL     1      24.071  28.688  28.602  1.00  0.00     0.139 A 
ATOM     62  N   UNL     1      23.203  26.727  28.268  1.00  0.00    -0.132 NA
ATOM     63  N   UNL     1      24.661  27.834  29.454  1.00  0.00    -0.240 N 
ATOM     64  N   UNL     1      24.112  26.652  29.226  1.00  0.00    -0.066 NA
BRANCH  63  65
ATOM     65  C   UNL     1      25.700  28.151  30.435  1.00  0.00     0.170 C 
ATOM     66  C   UNL     1      26.850  27.279  30.181  1.00  0.00    -0.011 A 
ATOM     67  C   UNL     1      25.260  27.777  31.791  1.00  0.00    -0.011 A 
ATOM     68  C   UNL     1      27.696  27.152  29.086  1.00  0.00     0.007 A 
ATOM     69  C   UNL     1      27.088  26.461  31.253  1.00  0.00    -0.012 A 
ATOM     70  C   UNL     1      26.082  26.782  32.263  1.00  0.00    -0.012 A 
ATOM     71  C   UNL     1      24.238  28.230  32.604  1.00  0.00     0.007 A 
ATOM     72  C   UNL     1      28.726  26.239  29.094  1.00  0.00     0.000 A 
ATOM     73  C   UNL     1      28.127  25.541  31.258  1.00  0.00     0.009 A 
ATOM     74  C   UNL     1      25.898  26.242  33.516  1.00  0.00     0.009 A 
ATOM     75  C   UNL     1      24.037  27.704  33.860  1.00  0.00     0.000 A 
ATOM     76  C   UNL     1      28.968  25.410  30.179  1.00  0.00     0.001 A 
ATOM     77  C   UNL     1      24.871  26.706  34.317  1.00  0.00     0.001 A 
ENDBRANCH  63  65
ENDBRANCH  59  60
ENDBRANCH  58  59
ENDBRANCH  55  58
ENDBRANCH  53  54
ENDBRANCH  50  53
ENDBRANCH  47  50
ENDBRANCH   5  47
BRANCH   4  78
ATOM     78  N   UNL     1      23.243  26.050  19.611  1.00  0.00    -0.348 N 
ATOM     79  C   UNL     1      23.389  25.210  18.477  1.00  0.00     0.217 C 
ATOM     80  H   UNL     1      24.031  26.207  20.254  1.00  0.00     0.163 HD
ATOM     81  C   UNL     1      24.691  24.531  18.183  1.00  0.00     0.114 C 
ATOM     82  O   UNL     1      22.389  25.052  17.723  1.00  0.00    -0.275 OA
ENDBRANCH   4  78
TORSDOF 30
