REMARK VINA RESULT:    -5.426     10.929     20.659
REMARK INTER + INTRA:         -22.290
REMARK INTER:                 -15.042
REMARK INTRA:                  -7.248
REMARK UNBOUND:                -8.458
REMARK SMILES CC(=O)N[C@@H]1[C@@H](O)C[C@](OC[C@H]2O[C@@H](O[C@H]3[C@H](O)[C@@H](O)[C@H](OCCN=[N+]=[N-])O[C@@H]3CO)[C@H](O)[C@@H](O)[C@H]2O)(C(=O)O)O[C@H]1C(O)[C@H](O)CNC(=O)OCc1cn(-c2ccc(O)c([N+](=O)[O-])c2)nn1
REMARK SMILES IDX 9 1 8 2 6 3 5 4 42 5 41 6 10 7 11 8 12 9 14 10 13 11 32 12
REMARK SMILES IDX 34 13 36 14 15 15 16 16 29 17 28 18 21 19 17 20 19 21 30 22
REMARK SMILES IDX 31 23 22 25 23 26 24 27 25 28 26 29 27 30 18 31 20 33 33 35
REMARK SMILES IDX 35 37 37 39 38 41 39 42 40 43 7 45 43 47 44 48 45 50 46 51
REMARK SMILES IDX 47 53 48 54 49 55 50 57 51 58 52 59 53 60 54 61 67 62 55 63
REMARK SMILES IDX 66 64 56 65 57 66 65 67 58 68 61 69 59 70 62 71 63 72 64 73
REMARK SMILES IDX 60 74 4 76 2 77 1 79 3 80
REMARK H PARENT 31 24 18 32 20 34 33 36 35 38 37 40 40 44 7 46 44 49 46 52
REMARK H PARENT 48 56 60 75 4 78
REMARK Flexibility Score: inf
ROOT
ATOM      1  C   UNL     1      31.973  19.318  23.697  1.00  0.00     0.272 C 
ATOM      2  C   UNL     1      32.356  20.797  23.893  1.00  0.00     0.113 C 
ATOM      3  C   UNL     1      31.148  21.551  24.439  1.00  0.00     0.145 C 
ATOM      4  C   UNL     1      30.138  21.547  23.263  1.00  0.00     0.142 C 
ATOM      5  C   UNL     1      30.144  20.197  22.602  1.00  0.00     0.178 C 
ATOM      6  O   UNL     1      30.616  19.209  23.485  1.00  0.00    -0.332 OA
ENDROOT
BRANCH   1   7
ATOM      7  O   UNL     1      32.298  18.713  24.897  1.00  0.00    -0.338 OA
BRANCH   7   8
ATOM      8  C   UNL     1      33.564  18.224  25.017  1.00  0.00     0.199 C 
BRANCH   8   9
ATOM      9  C   UNL     1      33.838  18.154  26.540  1.00  0.00     0.179 C 
ATOM     10  C   UNL     1      33.254  19.354  28.374  1.00  0.00     0.282 C 
ATOM     11  O   UNL     1      33.543  19.399  27.008  1.00  0.00    -0.341 OA
ATOM     12  C   UNL     1      31.912  18.722  28.512  1.00  0.00     0.202 C 
ATOM     13  C   UNL     1      31.987  17.296  28.032  1.00  0.00     0.179 C 
ATOM     14  C   UNL     1      33.103  17.002  27.100  1.00  0.00     0.177 C 
BRANCH  10  15
ATOM     15  O   UNL     1      33.334  20.645  28.914  1.00  0.00    -0.341 OA
BRANCH  15  16
ATOM     16  C   UNL     1      33.725  21.514  27.914  1.00  0.00     0.184 C 
ATOM     17  C   UNL     1      35.092  22.087  28.060  1.00  0.00     0.178 C 
ATOM     18  O   UNL     1      35.425  22.679  26.848  1.00  0.00    -0.341 OA
ATOM     19  C   UNL     1      34.661  23.868  26.655  1.00  0.00     0.281 C 
ATOM     20  C   UNL     1      32.777  22.742  27.907  1.00  0.00     0.180 C 
ATOM     21  C   UNL     1      33.207  23.581  26.707  1.00  0.00     0.202 C 
BRANCH  17  22
ATOM     22  C   UNL     1      36.162  21.129  28.462  1.00  0.00     0.191 C 
BRANCH  22  23
ATOM     23  O   UNL     1      37.254  21.793  28.994  1.00  0.00    -0.394 OA
ATOM     24  H   UNL     1      36.976  22.749  29.156  1.00  0.00     0.210 HD
ENDBRANCH  22  23
ENDBRANCH  17  22
BRANCH  19  25
ATOM     25  O   UNL     1      35.032  24.281  25.380  1.00  0.00    -0.350 OA
BRANCH  25  26
ATOM     26  C   UNL     1      34.910  23.297  24.418  1.00  0.00     0.169 C 
BRANCH  26  27
ATOM     27  C   UNL     1      34.563  23.867  23.078  1.00  0.00     0.119 C 
BRANCH  27  28
ATOM     28  N   UNL     1      33.248  24.496  23.176  1.00  0.00    -0.092 NA
ATOM     29  N   UNL     1      33.138  25.720  22.943  1.00  0.00     0.001 N 
ATOM     30  N   UNL     1      32.772  26.753  22.353  1.00  0.00    -0.003 NA
ENDBRANCH  27  28
ENDBRANCH  26  27
ENDBRANCH  25  26
ENDBRANCH  19  25
BRANCH  20  31
ATOM     31  O   UNL     1      31.465  22.351  27.690  1.00  0.00    -0.387 OA
ATOM     32  H   UNL     1      31.406  21.482  27.206  1.00  0.00     0.211 HD
ENDBRANCH  20  31
BRANCH  21  33
ATOM     33  O   UNL     1      32.485  24.767  26.820  1.00  0.00    -0.385 OA
ATOM     34  H   UNL     1      32.979  25.528  26.458  1.00  0.00     0.211 HD
ENDBRANCH  21  33
ENDBRANCH  15  16
ENDBRANCH  10  15
BRANCH  12  35
ATOM     35  O   UNL     1      31.415  18.759  29.811  1.00  0.00    -0.385 OA
ATOM     36  H   UNL     1      31.838  18.053  30.378  1.00  0.00     0.211 HD
ENDBRANCH  12  35
BRANCH  13  37
ATOM     37  O   UNL     1      30.720  16.968  27.536  1.00  0.00    -0.387 OA
ATOM     38  H   UNL     1      30.863  16.505  26.667  1.00  0.00     0.211 HD
ENDBRANCH  13  37
BRANCH  14  39
ATOM     39  O   UNL     1      32.619  16.136  26.096  1.00  0.00    -0.387 OA
ATOM     40  H   UNL     1      31.679  15.894  26.230  1.00  0.00     0.211 HD
ENDBRANCH  14  39
ENDBRANCH   8   9
ENDBRANCH   7   8
ENDBRANCH   1   7
BRANCH   1  41
ATOM     41  C   UNL     1      32.844  18.820  22.639  1.00  0.00     0.364 C 
ATOM     42  O   UNL     1      32.794  17.677  22.113  1.00  0.00    -0.246 OA
BRANCH  41  43
ATOM     43  O   UNL     1      33.840  19.655  22.129  1.00  0.00    -0.477 OA
ATOM     44  H   UNL     1      34.779  19.330  21.927  1.00  0.00     0.296 HD
ENDBRANCH  41  43
ENDBRANCH   1  41
BRANCH   3  45
ATOM     45  O   UNL     1      30.613  20.924  25.533  1.00  0.00    -0.391 OA
ATOM     46  H   UNL     1      30.810  19.958  25.485  1.00  0.00     0.211 HD
ENDBRANCH   3  45
BRANCH   5  47
ATOM     47  C   UNL     1      28.729  19.806  22.250  1.00  0.00     0.176 C 
BRANCH  47  48
ATOM     48  O   UNL     1      27.937  20.941  22.324  1.00  0.00    -0.388 OA
ATOM     49  H   UNL     1      27.611  21.238  21.438  1.00  0.00     0.211 HD
ENDBRANCH  47  48
BRANCH  47  50
ATOM     50  C   UNL     1      28.579  19.189  20.883  1.00  0.00     0.165 C 
BRANCH  50  51
ATOM     51  O   UNL     1      29.106  17.878  21.029  1.00  0.00    -0.388 OA
ATOM     52  H   UNL     1      29.906  17.749  20.447  1.00  0.00     0.211 HD
ENDBRANCH  50  51
BRANCH  50  53
ATOM     53  C   UNL     1      29.445  19.871  19.862  1.00  0.00     0.154 C 
BRANCH  53  54
ATOM     54  N   UNL     1      28.774  21.026  19.330  1.00  0.00    -0.319 N 
ATOM     55  C   UNL     1      29.394  22.116  18.684  1.00  0.00     0.407 C 
ATOM     56  H   UNL     1      27.713  21.090  19.418  1.00  0.00     0.167 HD
ATOM     57  O   UNL     1      30.626  22.087  18.565  1.00  0.00    -0.225 OA
BRANCH  55  58
ATOM     58  O   UNL     1      28.729  23.206  18.175  1.00  0.00    -0.443 OA
BRANCH  58  59
ATOM     59  C   UNL     1      27.327  23.219  18.076  1.00  0.00     0.294 C 
BRANCH  59  60
ATOM     60  C   UNL     1      26.793  24.075  19.177  1.00  0.00     0.121 A 
ATOM     61  C   UNL     1      25.904  23.666  20.175  1.00  0.00     0.144 A 
ATOM     62  N   UNL     1      27.011  25.365  19.462  1.00  0.00    -0.131 NA
ATOM     63  N   UNL     1      25.648  24.697  20.971  1.00  0.00    -0.220 N 
ATOM     64  N   UNL     1      26.345  25.721  20.503  1.00  0.00    -0.062 NA
BRANCH  63  65
ATOM     65  C   UNL     1      24.777  24.704  22.116  1.00  0.00     0.073 A 
ATOM     66  C   UNL     1      25.278  24.608  23.379  1.00  0.00     0.033 A 
ATOM     67  C   UNL     1      23.419  24.810  21.983  1.00  0.00     0.118 A 
ATOM     68  C   UNL     1      24.487  24.613  24.504  1.00  0.00     0.056 A 
ATOM     69  C   UNL     1      22.583  24.818  23.118  1.00  0.00     0.312 A 
ATOM     70  C   UNL     1      23.083  24.723  24.389  1.00  0.00     0.194 A 
BRANCH  69  71
ATOM     71  N   UNL     1      21.201  24.935  22.890  1.00  0.00     0.066 N 
ATOM     72  O   UNL     1      20.834  25.613  21.880  1.00  0.00    -0.258 OA
ATOM     73  O   UNL     1      20.285  24.359  23.709  1.00  0.00    -0.258 OA
ENDBRANCH  69  71
BRANCH  70  74
ATOM     74  O   UNL     1      22.335  24.727  25.554  1.00  0.00    -0.502 OA
ATOM     75  H   UNL     1      22.540  24.175  26.324  1.00  0.00     0.293 HD
ENDBRANCH  70  74
ENDBRANCH  63  65
ENDBRANCH  59  60
ENDBRANCH  58  59
ENDBRANCH  55  58
ENDBRANCH  53  54
ENDBRANCH  50  53
ENDBRANCH  47  50
ENDBRANCH   5  47
BRANCH   4  76
ATOM     76  N   UNL     1      30.614  22.599  22.387  1.00  0.00    -0.348 N 
ATOM     77  C   UNL     1      29.730  23.613  21.893  1.00  0.00     0.217 C 
ATOM     78  H   UNL     1      31.607  22.646  22.094  1.00  0.00     0.163 HD
ATOM     79  C   UNL     1      30.239  24.679  20.998  1.00  0.00     0.114 C 
ATOM     80  O   UNL     1      28.512  23.573  22.241  1.00  0.00    -0.275 OA
ENDBRANCH   4  76
TORSDOF 32
