REMARK VINA RESULT:    -6.701      3.748      6.856
REMARK INTER + INTRA:         -22.617
REMARK INTER:                 -16.240
REMARK INTRA:                  -6.377
REMARK UNBOUND:                -5.144
REMARK SMILES CC(=O)N[C@@H]1[C@@H](O)C[C@](OC[C@H]2O[C@@H](O[C@H]3[C@H](O)[C@@H](O)[C@H](OCCN=[N+]=[N-])O[C@@H]3CO)[C@H](O)[C@@H](O)[C@H]2O)(C(=O)O)O[C@H]1C(O)[C@H](O)CNC(=O)OCc1cn(-c2cccc(C=CC(=O)O)c2)nn1
REMARK SMILES IDX 43 1 42 2 9 3 8 4 41 5 6 6 5 7 10 8 11 9 12 10 14 11 13 12
REMARK SMILES IDX 32 13 34 14 36 15 15 16 16 17 29 18 28 19 21 20 17 21 19 22
REMARK SMILES IDX 30 23 31 24 22 26 23 27 24 28 25 29 26 30 27 31 18 32 20 34
REMARK SMILES IDX 33 36 35 38 37 40 38 42 39 43 40 44 7 46 4 48 2 49 1 51 3 52
REMARK SMILES IDX 44 53 45 55 46 56 47 58 48 59 49 60 50 62 51 63 52 64 53 65
REMARK SMILES IDX 54 66 68 67 55 68 67 69 56 70 66 71 57 72 60 73 58 74 59 75
REMARK SMILES IDX 61 76 62 77 63 78 64 79 65 80
REMARK H PARENT 31 25 18 33 20 35 33 37 35 39 37 41 40 45 7 47 4 50 44 54
REMARK H PARENT 46 57 48 61 65 81
REMARK Flexibility Score: inf
ROOT
ATOM      1  C   UNL     1      15.887  32.257  20.683  1.00  0.00     0.176 C 
ENDROOT
BRANCH   1   2
ATOM      2  C   UNL     1      15.281  31.048  20.000  1.00  0.00     0.178 C 
ATOM      3  C   UNL     1      16.034  29.209  18.731  1.00  0.00     0.272 C 
ATOM      4  C   UNL     1      14.440  29.036  18.792  1.00  0.00     0.113 C 
ATOM      5  O   UNL     1      16.302  30.412  19.349  1.00  0.00    -0.332 OA
ATOM      6  C   UNL     1      13.891  30.264  18.159  1.00  0.00     0.145 C 
ATOM      7  C   UNL     1      14.227  31.470  19.015  1.00  0.00     0.142 C 
BRANCH   3   8
ATOM      8  O   UNL     1      16.255  29.322  17.416  1.00  0.00    -0.338 OA
BRANCH   8   9
ATOM      9  C   UNL     1      17.423  29.264  16.802  1.00  0.00     0.199 C 
BRANCH   9  10
ATOM     10  C   UNL     1      17.465  29.067  15.301  1.00  0.00     0.179 C 
ATOM     11  C   UNL     1      15.683  29.075  13.747  1.00  0.00     0.282 C 
ATOM     12  O   UNL     1      16.265  28.606  14.908  1.00  0.00    -0.341 OA
ATOM     13  C   UNL     1      16.728  29.419  12.761  1.00  0.00     0.202 C 
ATOM     14  C   UNL     1      17.757  30.402  13.228  1.00  0.00     0.179 C 
ATOM     15  C   UNL     1      17.732  30.453  14.733  1.00  0.00     0.177 C 
BRANCH  11  16
ATOM     16  O   UNL     1      14.801  30.063  14.127  1.00  0.00    -0.341 OA
BRANCH  16  17
ATOM     17  C   UNL     1      13.559  29.993  13.596  1.00  0.00     0.184 C 
ATOM     18  C   UNL     1      13.139  31.304  13.007  1.00  0.00     0.178 C 
ATOM     19  O   UNL     1      12.036  30.994  12.175  1.00  0.00    -0.341 OA
ATOM     20  C   UNL     1      10.921  30.704  12.966  1.00  0.00     0.281 C 
ATOM     21  C   UNL     1      12.487  29.670  14.641  1.00  0.00     0.180 C 
ATOM     22  C   UNL     1      11.156  29.584  13.924  1.00  0.00     0.202 C 
BRANCH  18  23
ATOM     23  C   UNL     1      14.178  31.999  12.203  1.00  0.00     0.191 C 
BRANCH  23  24
ATOM     24  O   UNL     1      14.984  32.754  13.051  1.00  0.00    -0.394 OA
ATOM     25  H   UNL     1      15.914  32.826  12.671  1.00  0.00     0.210 HD
ENDBRANCH  23  24
ENDBRANCH  18  23
BRANCH  20  26
ATOM     26  O   UNL     1       9.885  30.350  12.107  1.00  0.00    -0.350 OA
BRANCH  26  27
ATOM     27  C   UNL     1       9.986  29.026  11.687  1.00  0.00     0.169 C 
BRANCH  27  28
ATOM     28  C   UNL     1       8.597  28.430  11.686  1.00  0.00     0.119 C 
BRANCH  28  29
ATOM     29  N   UNL     1       8.693  26.992  11.599  1.00  0.00    -0.092 NA
ATOM     30  N   UNL     1       8.117  26.377  10.683  1.00  0.00     0.001 N 
ATOM     31  N   UNL     1       7.257  25.734  10.060  1.00  0.00    -0.003 NA
ENDBRANCH  28  29
ENDBRANCH  27  28
ENDBRANCH  26  27
ENDBRANCH  20  26
BRANCH  21  32
ATOM     32  O   UNL     1      12.698  28.440  15.252  1.00  0.00    -0.387 OA
ATOM     33  H   UNL     1      13.449  28.026  14.757  1.00  0.00     0.211 HD
ENDBRANCH  21  32
BRANCH  22  34
ATOM     34  O   UNL     1      10.170  29.690  14.933  1.00  0.00    -0.385 OA
ATOM     35  H   UNL     1       9.549  30.433  14.766  1.00  0.00     0.211 HD
ENDBRANCH  22  34
ENDBRANCH  16  17
ENDBRANCH  11  16
BRANCH  13  36
ATOM     36  O   UNL     1      17.430  28.233  12.396  1.00  0.00    -0.385 OA
ATOM     37  H   UNL     1      16.883  27.719  11.739  1.00  0.00     0.211 HD
ENDBRANCH  13  36
BRANCH  14  38
ATOM     38  O   UNL     1      17.619  31.674  12.666  1.00  0.00    -0.387 OA
ATOM     39  H   UNL     1      17.849  31.679  11.702  1.00  0.00     0.211 HD
ENDBRANCH  14  38
BRANCH  15  40
ATOM     40  O   UNL     1      16.763  31.349  15.140  1.00  0.00    -0.387 OA
ATOM     41  H   UNL     1      16.467  31.182  16.089  1.00  0.00     0.211 HD
ENDBRANCH  15  40
ENDBRANCH   9  10
ENDBRANCH   8   9
ENDBRANCH   3   8
BRANCH   3  42
ATOM     42  C   UNL     1      16.563  28.094  19.499  1.00  0.00     0.364 C 
ATOM     43  O   UNL     1      16.299  26.882  19.400  1.00  0.00    -0.246 OA
BRANCH  42  44
ATOM     44  O   UNL     1      17.512  28.395  20.506  1.00  0.00    -0.477 OA
ATOM     45  H   UNL     1      17.149  28.694  21.424  1.00  0.00     0.296 HD
ENDBRANCH  42  44
ENDBRANCH   3  42
BRANCH   6  46
ATOM     46  O   UNL     1      14.577  30.400  16.906  1.00  0.00    -0.391 OA
ATOM     47  H   UNL     1      15.187  31.187  16.949  1.00  0.00     0.211 HD
ENDBRANCH   6  46
BRANCH   7  48
ATOM     48  N   UNL     1      13.113  32.164  19.553  1.00  0.00    -0.348 N 
ATOM     49  C   UNL     1      12.013  32.700  18.878  1.00  0.00     0.217 C 
ATOM     50  H   UNL     1      13.100  32.340  20.624  1.00  0.00     0.163 HD
ATOM     51  C   UNL     1      10.944  33.423  19.674  1.00  0.00     0.114 C 
ATOM     52  O   UNL     1      11.838  32.624  17.632  1.00  0.00    -0.275 OA
ENDBRANCH   7  48
ENDBRANCH   1   2
BRANCH   1  53
ATOM     53  O   UNL     1      15.130  32.584  21.794  1.00  0.00    -0.388 OA
ATOM     54  H   UNL     1      15.633  32.678  22.623  1.00  0.00     0.211 HD
ENDBRANCH   1  53
BRANCH   1  55
ATOM     55  C   UNL     1      17.297  31.972  21.200  1.00  0.00     0.165 C 
BRANCH  55  56
ATOM     56  O   UNL     1      17.608  32.640  22.351  1.00  0.00    -0.388 OA
ATOM     57  H   UNL     1      17.051  32.406  23.129  1.00  0.00     0.211 HD
ENDBRANCH  55  56
BRANCH  55  58
ATOM     58  C   UNL     1      18.319  32.192  20.131  1.00  0.00     0.154 C 
BRANCH  58  59
ATOM     59  N   UNL     1      19.301  31.168  20.109  1.00  0.00    -0.319 N 
ATOM     60  C   UNL     1      20.097  30.894  18.974  1.00  0.00     0.407 C 
ATOM     61  H   UNL     1      19.472  30.565  20.959  1.00  0.00     0.167 HD
ATOM     62  O   UNL     1      19.964  31.560  17.910  1.00  0.00    -0.225 OA
BRANCH  60  63
ATOM     63  O   UNL     1      21.063  29.891  18.963  1.00  0.00    -0.443 OA
BRANCH  63  64
ATOM     64  C   UNL     1      20.600  28.562  18.693  1.00  0.00     0.294 C 
BRANCH  64  65
ATOM     65  C   UNL     1      20.915  27.746  19.880  1.00  0.00     0.121 A 
ATOM     66  C   UNL     1      22.039  26.953  20.097  1.00  0.00     0.144 A 
ATOM     67  N   UNL     1      20.160  27.630  20.985  1.00  0.00    -0.131 NA
ATOM     68  N   UNL     1      21.922  26.392  21.322  1.00  0.00    -0.220 N 
ATOM     69  N   UNL     1      20.782  26.818  21.829  1.00  0.00    -0.062 NA
BRANCH  68  70
ATOM     70  C   UNL     1      22.893  25.528  21.887  1.00  0.00     0.067 A 
ATOM     71  C   UNL     1      23.046  25.470  23.272  1.00  0.00     0.036 A 
ATOM     72  C   UNL     1      23.683  24.748  21.110  1.00  0.00     0.028 A 
ATOM     73  C   UNL     1      23.963  24.656  23.861  1.00  0.00    -0.023 A 
ATOM     74  C   UNL     1      24.635  23.898  21.668  1.00  0.00     0.003 A 
ATOM     75  C   UNL     1      24.751  23.874  23.039  1.00  0.00     0.008 A 
BRANCH  73  76
ATOM     76  C   UNL     1      24.126  24.597  25.298  1.00  0.00     0.015 C 
ATOM     77  C   UNL     1      23.097  24.675  26.102  1.00  0.00     0.094 C 
BRANCH  77  78
ATOM     78  C   UNL     1      23.309  24.611  27.550  1.00  0.00     0.328 C 
ATOM     79  O   UNL     1      23.989  25.457  28.140  1.00  0.00    -0.247 OA
BRANCH  78  80
ATOM     80  O   UNL     1      22.742  23.581  28.297  1.00  0.00    -0.478 OA
ATOM     81  H   UNL     1      22.084  22.963  27.817  1.00  0.00     0.297 HD
ENDBRANCH  78  80
ENDBRANCH  77  78
ENDBRANCH  73  76
ENDBRANCH  68  70
ENDBRANCH  64  65
ENDBRANCH  63  64
ENDBRANCH  60  63
ENDBRANCH  58  59
ENDBRANCH  55  58
ENDBRANCH   1  55
TORSDOF 33
