REMARK VINA RESULT:    -6.053      2.742      8.377
REMARK INTER + INTRA:         -22.456
REMARK INTER:                 -14.845
REMARK INTRA:                  -7.611
REMARK UNBOUND:                -7.203
REMARK SMILES CC(=O)N[C@@H]1[C@@H](O)C[C@](OC[C@H]2O[C@@H](O[C@H]3[C@H](O)[C@@H](O)[C@H](OCCN=[N+]=[N-])O[C@@H]3CO)[C@H](O)[C@@H](O)[C@H]2O)(C(=O)O)O[C@H]1C(O)[C@H](O)CNC(=O)OCc1cn(CC2=CC[C@H]3C[C@@H]2C3(C)C)nn1
REMARK SMILES IDX 9 1 8 2 6 3 5 4 42 5 41 6 10 7 11 8 12 9 14 10 13 11 32 12
REMARK SMILES IDX 34 13 36 14 15 15 16 16 29 17 28 18 21 19 17 20 19 21 30 22
REMARK SMILES IDX 31 23 22 25 23 26 24 27 25 28 26 29 27 30 18 31 20 33 33 35
REMARK SMILES IDX 35 37 37 39 38 41 39 42 40 43 7 45 43 47 44 48 45 50 46 51
REMARK SMILES IDX 47 53 48 54 49 55 50 57 51 58 52 59 53 60 54 61 67 62 55 63
REMARK SMILES IDX 66 64 56 65 57 66 58 67 62 68 59 69 61 70 63 71 60 72 64 73
REMARK SMILES IDX 65 74 4 75 2 76 1 78 3 79
REMARK H PARENT 31 24 18 32 20 34 33 36 35 38 37 40 40 44 7 46 44 49 46 52
REMARK H PARENT 48 56 4 77
REMARK Flexibility Score: inf
ROOT
ATOM      1  C   UNL     1      12.608  30.645  22.095  1.00  0.00     0.272 C 
ATOM      2  C   UNL     1      11.898  31.859  21.593  1.00  0.00     0.113 C 
ATOM      3  C   UNL     1      12.866  32.742  20.786  1.00  0.00     0.145 C 
ATOM      4  C   UNL     1      13.974  33.227  21.648  1.00  0.00     0.142 C 
ATOM      5  C   UNL     1      13.953  32.386  22.908  1.00  0.00     0.178 C 
ATOM      6  O   UNL     1      13.867  31.067  22.641  1.00  0.00    -0.332 OA
ENDROOT
BRANCH   1   7
ATOM      7  O   UNL     1      12.935  29.723  21.203  1.00  0.00    -0.338 OA
BRANCH   7   8
ATOM      8  C   UNL     1      13.820  28.762  21.274  1.00  0.00     0.199 C 
BRANCH   8   9
ATOM      9  C   UNL     1      15.031  28.614  20.453  1.00  0.00     0.179 C 
ATOM     10  C   UNL     1      15.734  29.065  18.296  1.00  0.00     0.282 C 
ATOM     11  O   UNL     1      14.814  29.403  19.281  1.00  0.00    -0.341 OA
ATOM     12  C   UNL     1      17.109  28.861  18.750  1.00  0.00     0.202 C 
ATOM     13  C   UNL     1      17.411  28.876  20.196  1.00  0.00     0.179 C 
ATOM     14  C   UNL     1      16.255  29.340  21.046  1.00  0.00     0.177 C 
BRANCH  10  15
ATOM     15  O   UNL     1      15.687  30.147  17.396  1.00  0.00    -0.341 OA
BRANCH  15  16
ATOM     16  C   UNL     1      15.018  29.837  16.226  1.00  0.00     0.184 C 
ATOM     17  C   UNL     1      15.892  30.120  15.038  1.00  0.00     0.178 C 
ATOM     18  O   UNL     1      15.209  30.190  13.836  1.00  0.00    -0.341 OA
ATOM     19  C   UNL     1      13.907  29.784  13.852  1.00  0.00     0.281 C 
ATOM     20  C   UNL     1      13.830  30.800  16.130  1.00  0.00     0.180 C 
ATOM     21  C   UNL     1      13.062  30.495  14.880  1.00  0.00     0.202 C 
BRANCH  17  22
ATOM     22  C   UNL     1      16.936  29.001  14.946  1.00  0.00     0.191 C 
BRANCH  22  23
ATOM     23  O   UNL     1      18.057  29.406  15.655  1.00  0.00    -0.394 OA
ATOM     24  H   UNL     1      17.937  29.121  16.612  1.00  0.00     0.210 HD
ENDBRANCH  22  23
ENDBRANCH  17  22
BRANCH  19  25
ATOM     25  O   UNL     1      13.791  28.402  14.054  1.00  0.00    -0.350 OA
BRANCH  25  26
ATOM     26  C   UNL     1      12.463  27.978  14.001  1.00  0.00     0.169 C 
BRANCH  26  27
ATOM     27  C   UNL     1      12.095  27.969  12.515  1.00  0.00     0.119 C 
BRANCH  27  28
ATOM     28  N   UNL     1      10.701  28.328  12.364  1.00  0.00    -0.092 NA
ATOM     29  N   UNL     1      10.262  29.403  12.730  1.00  0.00     0.001 N 
ATOM     30  N   UNL     1       9.831  30.445  13.240  1.00  0.00    -0.003 NA
ENDBRANCH  27  28
ENDBRANCH  26  27
ENDBRANCH  25  26
ENDBRANCH  19  25
BRANCH  20  31
ATOM     31  O   UNL     1      12.974  30.606  17.230  1.00  0.00    -0.387 OA
ATOM     32  H   UNL     1      12.603  31.464  17.530  1.00  0.00     0.211 HD
ENDBRANCH  20  31
BRANCH  21  33
ATOM     33  O   UNL     1      12.471  31.628  14.324  1.00  0.00    -0.385 OA
ATOM     34  H   UNL     1      11.486  31.466  14.268  1.00  0.00     0.211 HD
ENDBRANCH  21  33
ENDBRANCH  15  16
ENDBRANCH  10  15
BRANCH  12  35
ATOM     35  O   UNL     1      17.539  27.606  18.239  1.00  0.00    -0.385 OA
ATOM     36  H   UNL     1      17.983  27.066  18.940  1.00  0.00     0.211 HD
ENDBRANCH  12  35
BRANCH  13  37
ATOM     37  O   UNL     1      18.593  29.567  20.482  1.00  0.00    -0.387 OA
ATOM     38  H   UNL     1      18.514  30.027  21.362  1.00  0.00     0.211 HD
ENDBRANCH  13  37
BRANCH  14  39
ATOM     39  O   UNL     1      16.074  30.716  20.797  1.00  0.00    -0.387 OA
ATOM     40  H   UNL     1      15.856  30.862  19.843  1.00  0.00     0.211 HD
ENDBRANCH  14  39
ENDBRANCH   8   9
ENDBRANCH   7   8
ENDBRANCH   1   7
BRANCH   1  41
ATOM     41  C   UNL     1      11.934  30.123  23.313  1.00  0.00     0.364 C 
ATOM     42  O   UNL     1      10.805  30.608  23.674  1.00  0.00    -0.246 OA
BRANCH  41  43
ATOM     43  O   UNL     1      12.447  29.145  24.096  1.00  0.00    -0.477 OA
ATOM     44  H   UNL     1      12.848  28.267  23.812  1.00  0.00     0.296 HD
ENDBRANCH  41  43
ENDBRANCH   1  41
BRANCH   3  45
ATOM     45  O   UNL     1      13.427  31.853  19.857  1.00  0.00    -0.391 OA
ATOM     46  H   UNL     1      14.402  31.825  20.020  1.00  0.00     0.211 HD
ENDBRANCH   3  45
BRANCH   5  47
ATOM     47  C   UNL     1      15.231  32.612  23.720  1.00  0.00     0.176 C 
BRANCH  47  48
ATOM     48  O   UNL     1      16.233  33.095  22.919  1.00  0.00    -0.388 OA
ATOM     49  H   UNL     1      16.860  32.403  22.570  1.00  0.00     0.211 HD
ENDBRANCH  47  48
BRANCH  47  50
ATOM     50  C   UNL     1      15.648  31.349  24.415  1.00  0.00     0.165 C 
BRANCH  50  51
ATOM     51  O   UNL     1      14.872  31.300  25.608  1.00  0.00    -0.388 OA
ATOM     52  H   UNL     1      15.473  30.803  26.246  1.00  0.00     0.211 HD
ENDBRANCH  50  51
BRANCH  50  53
ATOM     53  C   UNL     1      17.075  31.396  24.860  1.00  0.00     0.154 C 
BRANCH  53  54
ATOM     54  N   UNL     1      18.010  30.799  23.963  1.00  0.00    -0.319 N 
ATOM     55  C   UNL     1      19.088  31.555  23.445  1.00  0.00     0.407 C 
ATOM     56  H   UNL     1      17.892  29.789  23.698  1.00  0.00     0.167 HD
ATOM     57  O   UNL     1      19.228  32.743  23.767  1.00  0.00    -0.225 OA
BRANCH  55  58
ATOM     58  O   UNL     1      20.001  30.986  22.578  1.00  0.00    -0.443 OA
BRANCH  58  59
ATOM     59  C   UNL     1      21.163  30.308  22.919  1.00  0.00     0.294 C 
BRANCH  59  60
ATOM     60  C   UNL     1      21.019  29.373  24.073  1.00  0.00     0.120 A 
ATOM     61  C   UNL     1      21.786  29.309  25.212  1.00  0.00     0.138 A 
ATOM     62  N   UNL     1      20.075  28.401  24.209  1.00  0.00    -0.132 NA
ATOM     63  N   UNL     1      21.312  28.334  25.993  1.00  0.00    -0.248 N 
ATOM     64  N   UNL     1      20.282  27.803  25.364  1.00  0.00    -0.067 NA
BRANCH  63  65
ATOM     65  C   UNL     1      21.829  27.921  27.311  1.00  0.00     0.177 C 
BRANCH  65  66
ATOM     66  C   UNL     1      22.315  26.514  27.116  1.00  0.00    -0.049 C 
ATOM     67  C   UNL     1      22.247  25.618  28.121  1.00  0.00    -0.025 C 
ATOM     68  C   UNL     1      22.877  26.042  25.842  1.00  0.00     0.023 C 
ATOM     69  C   UNL     1      22.877  24.292  27.942  1.00  0.00     0.031 C 
ATOM     70  C   UNL     1      22.280  24.651  25.589  1.00  0.00     0.013 C 
ATOM     71  C   UNL     1      24.187  25.360  26.094  1.00  0.00    -0.026 C 
ATOM     72  C   UNL     1      23.373  24.134  26.533  1.00  0.00    -0.000 C 
ATOM     73  C   UNL     1      24.968  25.016  24.849  1.00  0.00     0.012 C 
ATOM     74  C   UNL     1      25.075  25.940  27.142  1.00  0.00     0.012 C 
ENDBRANCH  65  66
ENDBRANCH  63  65
ENDBRANCH  59  60
ENDBRANCH  58  59
ENDBRANCH  55  58
ENDBRANCH  53  54
ENDBRANCH  50  53
ENDBRANCH  47  50
ENDBRANCH   5  47
BRANCH   4  75
ATOM     75  N   UNL     1      13.940  34.594  22.036  1.00  0.00    -0.348 N 
ATOM     76  C   UNL     1      14.476  35.682  21.331  1.00  0.00     0.217 C 
ATOM     77  H   UNL     1      13.456  34.797  22.959  1.00  0.00     0.163 HD
ATOM     78  C   UNL     1      14.369  37.068  21.855  1.00  0.00     0.114 C 
ATOM     79  O   UNL     1      15.041  35.430  20.252  1.00  0.00    -0.275 OA
ENDBRANCH   4  75
TORSDOF 31
