REMARK VINA RESULT:    -6.902      3.509      9.516
REMARK INTER + INTRA:         -22.142
REMARK INTER:                 -14.310
REMARK INTRA:                  -7.832
REMARK UNBOUND:                -4.749
REMARK SMILES CC(=O)N[C@@H]1[C@@H](O)C[C@](OC[C@H]2O[C@@H](O[C@H]3[C@H](O)[C@@H](O)[C@H](OCCN=[N+]=[N-])O[C@@H]3CO)[C@H](O)[C@@H](O)[C@H]2O)(C(=O)O)O[C@H]1C(O)[C@H](O)CNC(=O)OCc1cn(-c2ccccc2C(C)=O)nn1
REMARK SMILES IDX 9 1 8 2 6 3 5 4 42 5 41 6 10 7 11 8 12 9 14 10 13 11 32 12
REMARK SMILES IDX 34 13 36 14 15 15 16 16 29 17 28 18 21 19 17 20 19 21 30 22
REMARK SMILES IDX 31 23 22 25 23 26 24 27 25 28 26 29 27 30 18 31 20 33 33 35
REMARK SMILES IDX 35 37 37 39 38 41 39 42 40 43 7 45 43 47 44 48 45 50 46 51
REMARK SMILES IDX 47 53 48 54 49 55 50 57 51 58 52 59 53 60 54 61 66 62 55 63
REMARK SMILES IDX 65 64 56 65 61 66 57 67 60 68 58 69 59 70 62 71 64 72 63 73
REMARK SMILES IDX 4 74 2 75 1 77 3 78
REMARK H PARENT 31 24 18 32 20 34 33 36 35 38 37 40 40 44 7 46 44 49 46 52
REMARK H PARENT 48 56 4 76
REMARK Flexibility Score: inf
ROOT
ATOM      1  C   UNL     1      17.372  31.978  25.269  1.00  0.00     0.272 C 
ATOM      2  C   UNL     1      17.930  33.367  25.148  1.00  0.00     0.113 C 
ATOM      3  C   UNL     1      19.368  33.333  25.594  1.00  0.00     0.145 C 
ATOM      4  C   UNL     1      20.075  32.498  24.540  1.00  0.00     0.142 C 
ATOM      5  C   UNL     1      19.510  31.111  24.690  1.00  0.00     0.178 C 
ATOM      6  O   UNL     1      18.365  30.979  25.383  1.00  0.00    -0.332 OA
ENDROOT
BRANCH   1   7
ATOM      7  O   UNL     1      16.535  31.567  24.350  1.00  0.00    -0.338 OA
BRANCH   7   8
ATOM      8  C   UNL     1      16.095  32.048  23.230  1.00  0.00     0.199 C 
BRANCH   8   9
ATOM      9  C   UNL     1      15.118  31.403  22.322  1.00  0.00     0.179 C 
ATOM     10  C   UNL     1      14.976  30.581  20.163  1.00  0.00     0.282 C 
ATOM     11  O   UNL     1      15.840  31.036  21.144  1.00  0.00    -0.341 OA
ATOM     12  C   UNL     1      13.600  30.248  20.600  1.00  0.00     0.202 C 
ATOM     13  C   UNL     1      13.462  29.676  21.977  1.00  0.00     0.179 C 
ATOM     14  C   UNL     1      14.644  30.026  22.846  1.00  0.00     0.177 C 
BRANCH  10  15
ATOM     15  O   UNL     1      15.545  29.477  19.529  1.00  0.00    -0.341 OA
BRANCH  15  16
ATOM     16  C   UNL     1      16.790  29.778  18.982  1.00  0.00     0.184 C 
ATOM     17  C   UNL     1      16.672  29.685  17.480  1.00  0.00     0.178 C 
ATOM     18  O   UNL     1      17.474  28.735  16.905  1.00  0.00    -0.341 OA
ATOM     19  C   UNL     1      18.807  28.790  17.230  1.00  0.00     0.281 C 
ATOM     20  C   UNL     1      17.721  28.640  19.425  1.00  0.00     0.180 C 
ATOM     21  C   UNL     1      19.031  28.841  18.733  1.00  0.00     0.202 C 
BRANCH  17  22
ATOM     22  C   UNL     1      16.902  31.070  16.903  1.00  0.00     0.191 C 
BRANCH  22  23
ATOM     23  O   UNL     1      17.542  31.838  17.874  1.00  0.00    -0.394 OA
ATOM     24  H   UNL     1      17.036  31.955  18.699  1.00  0.00     0.210 HD
ENDBRANCH  22  23
ENDBRANCH  17  22
BRANCH  19  25
ATOM     25  O   UNL     1      19.522  29.775  16.576  1.00  0.00    -0.350 OA
BRANCH  25  26
ATOM     26  C   UNL     1      20.184  29.214  15.494  1.00  0.00     0.169 C 
BRANCH  26  27
ATOM     27  C   UNL     1      21.641  29.650  15.518  1.00  0.00     0.119 C 
BRANCH  27  28
ATOM     28  N   UNL     1      22.487  28.548  15.993  1.00  0.00    -0.092 NA
ATOM     29  N   UNL     1      22.251  27.440  15.513  1.00  0.00     0.001 N 
ATOM     30  N   UNL     1      22.061  26.273  15.216  1.00  0.00    -0.003 NA
ENDBRANCH  27  28
ENDBRANCH  26  27
ENDBRANCH  25  26
ENDBRANCH  19  25
BRANCH  20  31
ATOM     31  O   UNL     1      17.816  28.636  20.798  1.00  0.00    -0.387 OA
ATOM     32  H   UNL     1      18.298  27.820  21.139  1.00  0.00     0.211 HD
ENDBRANCH  20  31
BRANCH  21  33
ATOM     33  O   UNL     1      19.997  27.924  19.151  1.00  0.00    -0.385 OA
ATOM     34  H   UNL     1      20.909  28.325  19.008  1.00  0.00     0.211 HD
ENDBRANCH  21  33
ENDBRANCH  15  16
ENDBRANCH  10  15
BRANCH  12  35
ATOM     35  O   UNL     1      12.709  31.308  20.376  1.00  0.00    -0.385 OA
ATOM     36  H   UNL     1      11.831  31.139  20.804  1.00  0.00     0.211 HD
ENDBRANCH  12  35
BRANCH  13  37
ATOM     37  O   UNL     1      13.367  28.274  21.955  1.00  0.00    -0.387 OA
ATOM     38  H   UNL     1      13.629  27.994  21.039  1.00  0.00     0.211 HD
ENDBRANCH  13  37
BRANCH  14  39
ATOM     39  O   UNL     1      15.680  29.097  22.700  1.00  0.00    -0.387 OA
ATOM     40  H   UNL     1      16.565  29.471  22.945  1.00  0.00     0.211 HD
ENDBRANCH  14  39
ENDBRANCH   8   9
ENDBRANCH   7   8
ENDBRANCH   1   7
BRANCH   1  41
ATOM     41  C   UNL     1      16.786  31.933  26.639  1.00  0.00     0.364 C 
ATOM     42  O   UNL     1      15.948  32.825  27.011  1.00  0.00    -0.246 OA
BRANCH  41  43
ATOM     43  O   UNL     1      17.063  30.995  27.600  1.00  0.00    -0.477 OA
ATOM     44  H   UNL     1      17.934  30.976  28.114  1.00  0.00     0.296 HD
ENDBRANCH  41  43
ENDBRANCH   1  41
BRANCH   3  45
ATOM     45  O   UNL     1      19.819  34.651  25.587  1.00  0.00    -0.391 OA
ATOM     46  H   UNL     1      19.245  35.233  26.153  1.00  0.00     0.211 HD
ENDBRANCH   3  45
BRANCH   5  47
ATOM     47  C   UNL     1      19.475  30.413  23.292  1.00  0.00     0.176 C 
BRANCH  47  48
ATOM     48  O   UNL     1      18.422  29.434  23.452  1.00  0.00    -0.388 OA
ATOM     49  H   UNL     1      18.908  28.577  23.245  1.00  0.00     0.211 HD
ENDBRANCH  47  48
BRANCH  47  50
ATOM     50  C   UNL     1      20.710  29.658  23.036  1.00  0.00     0.165 C 
BRANCH  50  51
ATOM     51  O   UNL     1      20.594  28.823  21.897  1.00  0.00    -0.388 OA
ATOM     52  H   UNL     1      20.283  27.926  22.144  1.00  0.00     0.211 HD
ENDBRANCH  50  51
BRANCH  50  53
ATOM     53  C   UNL     1      21.584  29.173  24.102  1.00  0.00     0.154 C 
BRANCH  53  54
ATOM     54  N   UNL     1      21.824  27.778  24.156  1.00  0.00    -0.319 N 
ATOM     55  C   UNL     1      20.999  26.765  24.694  1.00  0.00     0.407 C 
ATOM     56  H   UNL     1      22.741  27.404  23.743  1.00  0.00     0.167 HD
ATOM     57  O   UNL     1      19.911  27.097  25.219  1.00  0.00    -0.225 OA
BRANCH  55  58
ATOM     58  O   UNL     1      21.316  25.414  24.679  1.00  0.00    -0.443 OA
BRANCH  58  59
ATOM     59  C   UNL     1      20.758  24.557  23.717  1.00  0.00     0.294 C 
BRANCH  59  60
ATOM     60  C   UNL     1      21.303  24.975  22.379  1.00  0.00     0.121 A 
ATOM     61  C   UNL     1      22.341  24.397  21.688  1.00  0.00     0.144 A 
ATOM     62  N   UNL     1      20.895  25.986  21.600  1.00  0.00    -0.131 NA
ATOM     63  N   UNL     1      22.517  25.088  20.515  1.00  0.00    -0.220 N 
ATOM     64  N   UNL     1      21.615  26.046  20.503  1.00  0.00    -0.062 NA
BRANCH  63  65
ATOM     65  C   UNL     1      23.533  24.793  19.565  1.00  0.00     0.077 A 
ATOM     66  C   UNL     1      24.861  24.777  19.798  1.00  0.00     0.043 A 
ATOM     67  C   UNL     1      23.066  24.486  18.272  1.00  0.00     0.029 A 
ATOM     68  C   UNL     1      25.716  24.453  18.722  1.00  0.00     0.014 A 
ATOM     69  C   UNL     1      23.924  24.173  17.241  1.00  0.00     0.002 A 
ATOM     70  C   UNL     1      25.279  24.153  17.464  1.00  0.00     0.001 A 
BRANCH  66  71
ATOM     71  C   UNL     1      25.429  25.084  21.089  1.00  0.00     0.161 C 
ATOM     72  O   UNL     1      25.473  26.341  21.379  1.00  0.00    -0.294 OA
ATOM     73  C   UNL     1      25.956  24.170  22.104  1.00  0.00     0.093 C 
ENDBRANCH  66  71
ENDBRANCH  63  65
ENDBRANCH  59  60
ENDBRANCH  58  59
ENDBRANCH  55  58
ENDBRANCH  53  54
ENDBRANCH  50  53
ENDBRANCH  47  50
ENDBRANCH   5  47
BRANCH   4  74
ATOM     74  N   UNL     1      21.500  32.546  24.671  1.00  0.00    -0.348 N 
ATOM     75  C   UNL     1      22.331  33.407  23.911  1.00  0.00     0.217 C 
ATOM     76  H   UNL     1      21.934  31.897  25.379  1.00  0.00     0.163 HD
ATOM     77  C   UNL     1      23.819  33.377  24.132  1.00  0.00     0.114 C 
ATOM     78  O   UNL     1      21.782  34.163  23.083  1.00  0.00    -0.275 OA
ENDBRANCH   4  74
TORSDOF 31
