REMARK VINA RESULT:    -6.584      3.419      6.070
REMARK INTER + INTRA:         -22.076
REMARK INTER:                 -17.299
REMARK INTRA:                  -4.777
REMARK UNBOUND:                -5.485
REMARK SMILES CC(=O)N[C@@H]1[C@@H](O)C[C@](OC[C@H]2O[C@@H](O[C@H]3[C@H](O)[C@@H](O)[C@H](OCCN=[N+]=[N-])O[C@@H]3CO)[C@H](O)[C@@H](O)[C@H]2O)(C(=O)O)O[C@H]1C(O)[C@H](O)CNC(=O)OCc1cn(Cc2ccc(Br)cc2)nn1
REMARK SMILES IDX 9 1 8 2 6 3 5 4 42 5 41 6 10 7 11 8 12 9 14 10 13 11 32 12
REMARK SMILES IDX 34 13 36 14 15 15 16 16 29 17 28 18 21 19 17 20 19 21 30 22
REMARK SMILES IDX 31 23 22 25 23 26 24 27 25 28 26 29 27 30 18 31 20 33 33 35
REMARK SMILES IDX 35 37 37 39 38 41 39 42 40 43 7 45 43 47 44 48 45 50 46 51
REMARK SMILES IDX 47 53 48 54 49 55 50 57 51 58 52 59 53 60 54 61 65 62 55 63
REMARK SMILES IDX 64 64 56 65 57 66 58 67 63 68 59 69 62 70 60 71 61 72 4 73
REMARK SMILES IDX 2 74 1 76 3 77
REMARK H PARENT 31 24 18 32 20 34 33 36 35 38 37 40 40 44 7 46 44 49 46 52
REMARK H PARENT 48 56 4 75
REMARK Flexibility Score: inf
ROOT
ATOM      1  C   UNL     1      20.705  28.289  19.521  1.00  0.00     0.272 C 
ATOM      2  C   UNL     1      21.230  29.466  20.261  1.00  0.00     0.113 C 
ATOM      3  C   UNL     1      20.393  30.073  21.317  1.00  0.00     0.145 C 
ATOM      4  C   UNL     1      18.885  29.723  21.201  1.00  0.00     0.142 C 
ATOM      5  C   UNL     1      18.714  29.529  19.720  1.00  0.00     0.178 C 
ATOM      6  O   UNL     1      19.299  28.249  19.505  1.00  0.00    -0.332 OA
ENDROOT
BRANCH   1   7
ATOM      7  O   UNL     1      21.263  27.092  19.662  1.00  0.00    -0.338 OA
BRANCH   7   8
ATOM      8  C   UNL     1      22.420  26.618  19.930  1.00  0.00     0.199 C 
BRANCH   8   9
ATOM      9  C   UNL     1      22.599  26.006  21.300  1.00  0.00     0.179 C 
ATOM     10  C   UNL     1      23.173  26.392  23.460  1.00  0.00     0.282 C 
ATOM     11  O   UNL     1      23.203  26.853  22.191  1.00  0.00    -0.341 OA
ATOM     12  C   UNL     1      22.776  24.940  23.648  1.00  0.00     0.202 C 
ATOM     13  C   UNL     1      21.506  24.606  22.897  1.00  0.00     0.179 C 
ATOM     14  C   UNL     1      21.208  25.693  21.874  1.00  0.00     0.177 C 
BRANCH  10  15
ATOM     15  O   UNL     1      22.491  27.113  24.382  1.00  0.00    -0.341 OA
BRANCH  15  16
ATOM     16  C   UNL     1      22.790  27.145  25.688  1.00  0.00     0.184 C 
ATOM     17  C   UNL     1      23.837  26.191  26.166  1.00  0.00     0.178 C 
ATOM     18  O   UNL     1      23.375  25.251  27.045  1.00  0.00    -0.341 OA
ATOM     19  C   UNL     1      22.858  25.769  28.224  1.00  0.00     0.281 C 
ATOM     20  C   UNL     1      21.529  26.932  26.498  1.00  0.00     0.180 C 
ATOM     21  C   UNL     1      21.911  26.923  27.957  1.00  0.00     0.202 C 
BRANCH  17  22
ATOM     22  C   UNL     1      25.002  26.971  26.730  1.00  0.00     0.191 C 
BRANCH  22  23
ATOM     23  O   UNL     1      25.997  26.111  27.238  1.00  0.00    -0.394 OA
ATOM     24  H   UNL     1      26.128  25.340  26.658  1.00  0.00     0.210 HD
ENDBRANCH  22  23
ENDBRANCH  17  22
BRANCH  19  25
ATOM     25  O   UNL     1      23.817  26.114  29.161  1.00  0.00    -0.350 OA
BRANCH  25  26
ATOM     26  C   UNL     1      23.596  25.653  30.431  1.00  0.00     0.169 C 
BRANCH  26  27
ATOM     27  C   UNL     1      24.849  25.370  31.206  1.00  0.00     0.119 C 
BRANCH  27  28
ATOM     28  N   UNL     1      26.015  25.523  30.344  1.00  0.00    -0.092 NA
ATOM     29  N   UNL     1      27.131  25.224  30.762  1.00  0.00     0.001 N 
ATOM     30  N   UNL     1      28.329  25.170  31.122  1.00  0.00    -0.003 NA
ENDBRANCH  27  28
ENDBRANCH  26  27
ENDBRANCH  25  26
ENDBRANCH  19  25
BRANCH  20  31
ATOM     31  O   UNL     1      20.724  28.069  26.291  1.00  0.00    -0.387 OA
ATOM     32  H   UNL     1      19.791  27.881  26.591  1.00  0.00     0.211 HD
ENDBRANCH  20  31
BRANCH  21  33
ATOM     33  O   UNL     1      20.800  26.886  28.792  1.00  0.00    -0.385 OA
ATOM     34  H   UNL     1      21.044  26.334  29.579  1.00  0.00     0.211 HD
ENDBRANCH  21  33
ENDBRANCH  15  16
ENDBRANCH  10  15
BRANCH  12  35
ATOM     35  O   UNL     1      23.766  24.042  23.289  1.00  0.00    -0.385 OA
ATOM     36  H   UNL     1      23.862  23.271  23.894  1.00  0.00     0.211 HD
ENDBRANCH  12  35
BRANCH  13  37
ATOM     37  O   UNL     1      20.414  24.402  23.733  1.00  0.00    -0.387 OA
ATOM     38  H   UNL     1      20.659  23.673  24.354  1.00  0.00     0.211 HD
ENDBRANCH  13  37
BRANCH  14  39
ATOM     39  O   UNL     1      20.771  26.871  22.491  1.00  0.00    -0.387 OA
ATOM     40  H   UNL     1      21.023  27.642  21.946  1.00  0.00     0.211 HD
ENDBRANCH  14  39
ENDBRANCH   8   9
ENDBRANCH   7   8
ENDBRANCH   1   7
BRANCH   1  41
ATOM     41  C   UNL     1      21.006  28.593  18.044  1.00  0.00     0.364 C 
ATOM     42  O   UNL     1      21.841  29.459  17.792  1.00  0.00    -0.246 OA
BRANCH  41  43
ATOM     43  O   UNL     1      20.384  27.938  17.014  1.00  0.00    -0.477 OA
ATOM     44  H   UNL     1      20.093  28.469  16.177  1.00  0.00     0.296 HD
ENDBRANCH  41  43
ENDBRANCH   1  41
BRANCH   3  45
ATOM     45  O   UNL     1      20.836  29.922  22.621  1.00  0.00    -0.391 OA
ATOM     46  H   UNL     1      21.300  29.060  22.693  1.00  0.00     0.211 HD
ENDBRANCH   3  45
BRANCH   5  47
ATOM     47  C   UNL     1      17.336  29.538  19.175  1.00  0.00     0.176 C 
BRANCH  47  48
ATOM     48  O   UNL     1      17.293  29.515  17.820  1.00  0.00    -0.388 OA
ATOM     49  H   UNL     1      18.128  29.250  17.418  1.00  0.00     0.211 HD
ENDBRANCH  47  48
BRANCH  47  50
ATOM     50  C   UNL     1      16.287  28.744  19.833  1.00  0.00     0.165 C 
BRANCH  50  51
ATOM     51  O   UNL     1      16.687  27.421  20.082  1.00  0.00    -0.388 OA
ATOM     52  H   UNL     1      16.486  26.794  19.371  1.00  0.00     0.211 HD
ENDBRANCH  50  51
BRANCH  50  53
ATOM     53  C   UNL     1      14.896  28.803  19.344  1.00  0.00     0.154 C 
BRANCH  53  54
ATOM     54  N   UNL     1      14.064  29.823  19.958  1.00  0.00    -0.319 N 
ATOM     55  C   UNL     1      13.310  29.565  21.132  1.00  0.00     0.407 C 
ATOM     56  H   UNL     1      13.980  30.796  19.570  1.00  0.00     0.167 HD
ATOM     57  O   UNL     1      13.365  28.418  21.681  1.00  0.00    -0.225 OA
BRANCH  55  58
ATOM     58  O   UNL     1      12.489  30.509  21.741  1.00  0.00    -0.443 OA
BRANCH  58  59
ATOM     59  C   UNL     1      13.070  31.641  22.417  1.00  0.00     0.294 C 
BRANCH  59  60
ATOM     60  C   UNL     1      13.131  31.451  23.875  1.00  0.00     0.120 A 
ATOM     61  C   UNL     1      13.408  32.441  24.797  1.00  0.00     0.138 A 
ATOM     62  N   UNL     1      12.944  30.324  24.564  1.00  0.00    -0.132 NA
ATOM     63  N   UNL     1      13.380  31.889  26.015  1.00  0.00    -0.248 N 
ATOM     64  N   UNL     1      13.099  30.613  25.843  1.00  0.00    -0.067 NA
BRANCH  63  65
ATOM     65  C   UNL     1      13.588  32.525  27.301  1.00  0.00     0.181 C 
BRANCH  65  66
ATOM     66  C   UNL     1      14.253  31.656  28.298  1.00  0.00    -0.026 A 
ATOM     67  C   UNL     1      15.627  31.438  28.164  1.00  0.00     0.007 A 
ATOM     68  C   UNL     1      13.615  31.063  29.350  1.00  0.00     0.007 A 
ATOM     69  C   UNL     1      16.299  30.645  29.078  1.00  0.00     0.016 A 
ATOM     70  C   UNL     1      14.280  30.261  30.279  1.00  0.00     0.016 A 
ATOM     71  C   UNL     1      15.626  30.058  30.135  1.00  0.00     0.017 A 
ATOM     72  Br  UNL     1      16.594  28.965  31.388  1.00  0.00    -0.051 Br
ENDBRANCH  65  66
ENDBRANCH  63  65
ENDBRANCH  59  60
ENDBRANCH  58  59
ENDBRANCH  55  58
ENDBRANCH  53  54
ENDBRANCH  50  53
ENDBRANCH  47  50
ENDBRANCH   5  47
BRANCH   4  73
ATOM     73  N   UNL     1      18.113  30.741  21.815  1.00  0.00    -0.348 N 
ATOM     74  C   UNL     1      17.680  30.606  23.157  1.00  0.00     0.217 C 
ATOM     75  H   UNL     1      17.871  31.601  21.296  1.00  0.00     0.163 HD
ATOM     76  C   UNL     1      16.887  31.594  23.893  1.00  0.00     0.114 C 
ATOM     77  O   UNL     1      18.006  29.539  23.789  1.00  0.00    -0.275 OA
ENDBRANCH   4  73
TORSDOF 31
