REMARK VINA RESULT:    -5.739      5.617      9.965
REMARK INTER + INTRA:         -21.895
REMARK INTER:                 -16.330
REMARK INTRA:                  -5.565
REMARK UNBOUND:                -6.761
REMARK SMILES CC(=O)N[C@@H]1[C@@H](O)C[C@](OC[C@H]2O[C@@H](O[C@H]3[C@H](O)[C@@H](O)[C@H](OCCN=[N+]=[N-])O[C@@H]3CO)[C@H](O)[C@@H](O)[C@H]2O)(C(=O)O)O[C@H]1C(O)[C@H](O)CNC(=O)OCc1cn(CCNS(C)(=O)=O)nn1
REMARK SMILES IDX 43 1 42 2 9 3 8 4 41 5 6 6 5 7 10 8 11 9 12 10 14 11 13 12
REMARK SMILES IDX 32 13 34 14 36 15 15 16 16 17 29 18 28 19 21 20 17 21 19 22
REMARK SMILES IDX 30 23 31 24 22 26 23 27 24 28 25 29 26 30 27 31 18 32 20 34
REMARK SMILES IDX 33 36 35 38 37 40 38 42 39 43 40 44 7 46 4 48 2 49 1 51 3 52
REMARK SMILES IDX 44 53 45 55 46 56 47 58 48 59 49 60 50 62 51 63 52 64 53 65
REMARK SMILES IDX 54 66 64 67 55 68 63 69 56 70 57 71 58 72 59 74 61 75 62 76
REMARK SMILES IDX 60 77
REMARK H PARENT 31 25 18 33 20 35 33 37 35 39 37 41 40 45 7 47 4 50 44 54
REMARK H PARENT 46 57 48 61 58 73
REMARK Flexibility Score: inf
ROOT
ATOM      1  C   UNL     1      23.350  27.835  22.870  1.00  0.00     0.176 C 
ENDROOT
BRANCH   1   2
ATOM      2  C   UNL     1      23.555  26.316  22.715  1.00  0.00     0.178 C 
ATOM      3  C   UNL     1      23.680  24.775  20.957  1.00  0.00     0.272 C 
ATOM      4  C   UNL     1      22.484  24.013  21.367  1.00  0.00     0.113 C 
ATOM      5  O   UNL     1      23.632  26.097  21.382  1.00  0.00    -0.332 OA
ATOM      6  C   UNL     1      21.748  24.556  22.561  1.00  0.00     0.145 C 
ATOM      7  C   UNL     1      22.454  25.584  23.375  1.00  0.00     0.142 C 
BRANCH   3   8
ATOM      8  O   UNL     1      23.906  24.871  19.580  1.00  0.00    -0.338 OA
BRANCH   8   9
ATOM      9  C   UNL     1      23.105  25.822  18.972  1.00  0.00     0.199 C 
BRANCH   9  10
ATOM     10  C   UNL     1      23.279  25.777  17.494  1.00  0.00     0.179 C 
ATOM     11  C   UNL     1      23.328  24.438  15.616  1.00  0.00     0.282 C 
ATOM     12  O   UNL     1      22.947  24.542  16.965  1.00  0.00    -0.341 OA
ATOM     13  C   UNL     1      22.603  25.419  14.762  1.00  0.00     0.202 C 
ATOM     14  C   UNL     1      22.990  26.802  15.241  1.00  0.00     0.179 C 
ATOM     15  C   UNL     1      22.745  26.926  16.707  1.00  0.00     0.177 C 
BRANCH  11  16
ATOM     16  O   UNL     1      23.093  23.150  15.236  1.00  0.00    -0.341 OA
BRANCH  16  17
ATOM     17  C   UNL     1      24.180  22.369  15.039  1.00  0.00     0.184 C 
ATOM     18  C   UNL     1      25.436  22.945  14.519  1.00  0.00     0.178 C 
ATOM     19  O   UNL     1      26.154  21.932  13.881  1.00  0.00    -0.341 OA
ATOM     20  C   UNL     1      25.631  21.614  12.660  1.00  0.00     0.281 C 
ATOM     21  C   UNL     1      23.825  21.124  14.180  1.00  0.00     0.180 C 
ATOM     22  C   UNL     1      24.120  21.569  12.763  1.00  0.00     0.202 C 
BRANCH  18  23
ATOM     23  C   UNL     1      26.340  23.381  15.668  1.00  0.00     0.191 C 
BRANCH  23  24
ATOM     24  O   UNL     1      27.212  22.323  16.013  1.00  0.00    -0.394 OA
ATOM     25  H   UNL     1      28.060  22.376  15.522  1.00  0.00     0.210 HD
ENDBRANCH  23  24
ENDBRANCH  18  23
BRANCH  20  26
ATOM     26  O   UNL     1      26.142  20.400  12.180  1.00  0.00    -0.350 OA
BRANCH  26  27
ATOM     27  C   UNL     1      27.506  20.282  12.270  1.00  0.00     0.169 C 
BRANCH  27  28
ATOM     28  C   UNL     1      27.858  18.829  12.281  1.00  0.00     0.119 C 
BRANCH  28  29
ATOM     29  N   UNL     1      28.368  18.397  13.577  1.00  0.00    -0.092 NA
ATOM     30  N   UNL     1      27.889  18.999  14.554  1.00  0.00     0.001 N 
ATOM     31  N   UNL     1      27.659  19.442  15.673  1.00  0.00    -0.003 NA
ENDBRANCH  28  29
ENDBRANCH  27  28
ENDBRANCH  26  27
ENDBRANCH  20  26
BRANCH  21  32
ATOM     32  O   UNL     1      24.700  20.077  14.486  1.00  0.00    -0.387 OA
ATOM     33  H   UNL     1      24.178  19.329  14.880  1.00  0.00     0.211 HD
ENDBRANCH  21  32
BRANCH  22  34
ATOM     34  O   UNL     1      23.526  22.760  12.413  1.00  0.00    -0.385 OA
ATOM     35  H   UNL     1      22.571  22.679  12.159  1.00  0.00     0.211 HD
ENDBRANCH  22  34
ENDBRANCH  16  17
ENDBRANCH  11  16
BRANCH  13  36
ATOM     36  O   UNL     1      23.046  25.355  13.433  1.00  0.00    -0.385 OA
ATOM     37  H   UNL     1      22.904  24.458  13.037  1.00  0.00     0.211 HD
ENDBRANCH  13  36
BRANCH  14  38
ATOM     38  O   UNL     1      22.431  27.796  14.476  1.00  0.00    -0.387 OA
ATOM     39  H   UNL     1      22.857  28.694  14.646  1.00  0.00     0.211 HD
ENDBRANCH  14  38
BRANCH  15  40
ATOM     40  O   UNL     1      21.373  27.007  16.923  1.00  0.00    -0.387 OA
ATOM     41  H   UNL     1      21.006  27.913  16.754  1.00  0.00     0.211 HD
ENDBRANCH  15  40
ENDBRANCH   9  10
ENDBRANCH   8   9
ENDBRANCH   3   8
BRANCH   3  42
ATOM     42  C   UNL     1      24.918  24.153  21.485  1.00  0.00     0.364 C 
ATOM     43  O   UNL     1      26.053  24.341  20.936  1.00  0.00    -0.246 OA
BRANCH  42  44
ATOM     44  O   UNL     1      24.961  23.331  22.594  1.00  0.00    -0.477 OA
ATOM     45  H   UNL     1      24.346  22.533  22.723  1.00  0.00     0.296 HD
ENDBRANCH  42  44
ENDBRANCH   3  42
BRANCH   6  46
ATOM     46  O   UNL     1      20.491  25.024  22.205  1.00  0.00    -0.391 OA
ATOM     47  H   UNL     1      19.745  24.419  22.390  1.00  0.00     0.211 HD
ENDBRANCH   6  46
BRANCH   7  48
ATOM     48  N   UNL     1      22.958  24.924  24.591  1.00  0.00    -0.348 N 
ATOM     49  C   UNL     1      22.632  25.260  25.908  1.00  0.00     0.217 C 
ATOM     50  H   UNL     1      23.619  24.077  24.475  1.00  0.00     0.163 HD
ATOM     51  C   UNL     1      23.226  24.516  27.075  1.00  0.00     0.114 C 
ATOM     52  O   UNL     1      21.832  26.196  26.179  1.00  0.00    -0.275 OA
ENDBRANCH   7  48
ENDBRANCH   1   2
BRANCH   1  53
ATOM     53  O   UNL     1      24.471  28.370  23.530  1.00  0.00    -0.388 OA
ATOM     54  H   UNL     1      25.180  28.452  22.867  1.00  0.00     0.211 HD
ENDBRANCH   1  53
BRANCH   1  55
ATOM     55  C   UNL     1      23.241  28.477  21.537  1.00  0.00     0.165 C 
BRANCH  55  56
ATOM     56  O   UNL     1      24.405  28.985  21.013  1.00  0.00    -0.388 OA
ATOM     57  H   UNL     1      25.214  28.740  21.535  1.00  0.00     0.211 HD
ENDBRANCH  55  56
BRANCH  55  58
ATOM     58  C   UNL     1      22.102  29.435  21.369  1.00  0.00     0.154 C 
BRANCH  58  59
ATOM     59  N   UNL     1      21.360  29.193  20.161  1.00  0.00    -0.319 N 
ATOM     60  C   UNL     1      20.320  28.188  20.204  1.00  0.00     0.407 C 
ATOM     61  H   UNL     1      21.521  29.687  19.268  1.00  0.00     0.167 HD
ATOM     62  O   UNL     1      20.132  27.619  21.309  1.00  0.00    -0.225 OA
BRANCH  60  63
ATOM     63  O   UNL     1      19.589  27.884  19.085  1.00  0.00    -0.443 OA
BRANCH  63  64
ATOM     64  C   UNL     1      18.582  28.758  18.634  1.00  0.00     0.294 C 
BRANCH  64  65
ATOM     65  C   UNL     1      17.429  28.756  19.553  1.00  0.00     0.120 A 
ATOM     66  C   UNL     1      16.733  29.853  20.032  1.00  0.00     0.138 A 
ATOM     67  N   UNL     1      16.816  27.699  20.067  1.00  0.00    -0.132 NA
ATOM     68  N   UNL     1      15.732  29.441  20.811  1.00  0.00    -0.251 N 
ATOM     69  N   UNL     1      15.792  28.109  20.828  1.00  0.00    -0.067 NA
BRANCH  68  70
ATOM     70  C   UNL     1      14.774  30.282  21.510  1.00  0.00     0.162 C 
BRANCH  70  71
ATOM     71  C   UNL     1      13.362  29.735  21.304  1.00  0.00     0.122 C 
BRANCH  71  72
ATOM     72  N   UNL     1      12.960  28.927  22.419  1.00  0.00    -0.214 NA
ATOM     73  H   UNL     1      13.818  28.494  22.855  1.00  0.00     0.141 HD
BRANCH  72  74
ATOM     74  S   UNL     1      12.178  29.832  23.655  1.00  0.00     0.208 S 
ATOM     75  O   UNL     1      11.053  29.011  24.266  1.00  0.00    -0.213 OA
ATOM     76  O   UNL     1      13.223  30.081  24.725  1.00  0.00    -0.213 OA
ATOM     77  C   UNL     1      11.567  31.367  23.031  1.00  0.00     0.176 C 
ENDBRANCH  72  74
ENDBRANCH  71  72
ENDBRANCH  70  71
ENDBRANCH  68  70
ENDBRANCH  64  65
ENDBRANCH  63  64
ENDBRANCH  60  63
ENDBRANCH  58  59
ENDBRANCH  55  58
ENDBRANCH   1  55
TORSDOF 33
