REMARK VINA RESULT:    -6.443      0.000      0.000
REMARK INTER + INTRA:         -23.247
REMARK INTER:                 -15.091
REMARK INTRA:                  -8.155
REMARK UNBOUND:                -7.387
REMARK SMILES CC(=O)N[C@@H]1[C@@H](O)C[C@](OC[C@H]2O[C@@H](O[C@H]3[C@H](O)[C@@H](O)[C@H](OCCN=[N+]=[N-])O[C@@H]3CO)[C@H](O)[C@@H](O)[C@H]2O)(C(=O)O)O[C@H]1C(O)[C@H](O)CNC(=O)OCc1cn(C23CC4CC(CC(C4)C2)C3)nn1
REMARK SMILES IDX 9 1 8 2 6 3 5 4 42 5 41 6 10 7 11 8 12 9 14 10 13 11 32 12
REMARK SMILES IDX 34 13 36 14 15 15 16 16 29 17 28 18 21 19 17 20 19 21 30 22
REMARK SMILES IDX 31 23 22 25 23 26 24 27 25 28 26 29 27 30 18 31 20 33 33 35
REMARK SMILES IDX 35 37 37 39 38 41 39 42 40 43 7 45 43 47 44 48 45 50 46 51
REMARK SMILES IDX 47 53 48 54 49 55 50 57 51 58 52 59 53 60 54 61 67 62 55 63
REMARK SMILES IDX 66 64 56 65 65 66 64 67 57 68 60 69 62 70 58 71 59 72 61 73
REMARK SMILES IDX 63 74 4 75 2 76 1 78 3 79
REMARK H PARENT 31 24 18 32 20 34 33 36 35 38 37 40 40 44 7 46 44 49 46 52
REMARK H PARENT 48 56 4 77
REMARK Flexibility Score: inf
ROOT
ATOM      1  C   UNL     1      22.846  24.856  22.765  1.00  0.00     0.272 C 
ATOM      2  C   UNL     1      22.937  23.891  21.634  1.00  0.00     0.113 C 
ATOM      3  C   UNL     1      24.335  23.882  21.048  1.00  0.00     0.145 C 
ATOM      4  C   UNL     1      24.445  25.199  20.265  1.00  0.00     0.142 C 
ATOM      5  C   UNL     1      23.899  26.254  21.180  1.00  0.00     0.178 C 
ATOM      6  O   UNL     1      23.806  25.900  22.502  1.00  0.00    -0.332 OA
ENDROOT
BRANCH   1   7
ATOM      7  O   UNL     1      23.168  24.423  23.976  1.00  0.00    -0.338 OA
BRANCH   7   8
ATOM      8  C   UNL     1      22.654  24.710  25.145  1.00  0.00     0.199 C 
BRANCH   8   9
ATOM      9  C   UNL     1      23.035  25.906  25.953  1.00  0.00     0.179 C 
ATOM     10  C   UNL     1      22.327  27.588  27.264  1.00  0.00     0.282 C 
ATOM     11  O   UNL     1      21.849  26.472  26.546  1.00  0.00    -0.341 OA
ATOM     12  C   UNL     1      22.679  27.072  28.621  1.00  0.00     0.202 C 
ATOM     13  C   UNL     1      23.272  25.687  28.441  1.00  0.00     0.179 C 
ATOM     14  C   UNL     1      23.965  25.547  27.107  1.00  0.00     0.177 C 
BRANCH  10  15
ATOM     15  O   UNL     1      21.396  28.620  27.260  1.00  0.00    -0.341 OA
BRANCH  15  16
ATOM     16  C   UNL     1      21.504  29.328  26.099  1.00  0.00     0.184 C 
ATOM     17  C   UNL     1      21.712  30.794  26.209  1.00  0.00     0.178 C 
ATOM     18  O   UNL     1      22.220  31.211  24.957  1.00  0.00    -0.341 OA
ATOM     19  C   UNL     1      21.213  31.160  23.965  1.00  0.00     0.281 C 
ATOM     20  C   UNL     1      20.268  29.165  25.207  1.00  0.00     0.180 C 
ATOM     21  C   UNL     1      20.565  29.817  23.902  1.00  0.00     0.202 C 
BRANCH  17  22
ATOM     22  C   UNL     1      22.564  31.269  27.326  1.00  0.00     0.191 C 
BRANCH  22  23
ATOM     23  O   UNL     1      21.841  31.087  28.516  1.00  0.00    -0.394 OA
ATOM     24  H   UNL     1      22.383  31.327  29.312  1.00  0.00     0.210 HD
ENDBRANCH  22  23
ENDBRANCH  17  22
BRANCH  19  25
ATOM     25  O   UNL     1      21.875  31.387  22.780  1.00  0.00    -0.350 OA
BRANCH  25  26
ATOM     26  C   UNL     1      21.788  32.624  22.259  1.00  0.00     0.169 C 
BRANCH  26  27
ATOM     27  C   UNL     1      20.431  32.934  21.711  1.00  0.00     0.119 C 
BRANCH  27  28
ATOM     28  N   UNL     1      20.019  31.901  20.752  1.00  0.00    -0.092 NA
ATOM     29  N   UNL     1      20.499  31.953  19.627  1.00  0.00     0.001 N 
ATOM     30  N   UNL     1      20.669  31.991  18.390  1.00  0.00    -0.003 NA
ENDBRANCH  27  28
ENDBRANCH  26  27
ENDBRANCH  25  26
ENDBRANCH  19  25
BRANCH  20  31
ATOM     31  O   UNL     1      19.980  27.820  24.981  1.00  0.00    -0.387 OA
ATOM     32  H   UNL     1      19.064  27.744  24.635  1.00  0.00     0.211 HD
ENDBRANCH  20  31
BRANCH  21  33
ATOM     33  O   UNL     1      19.356  29.929  23.218  1.00  0.00    -0.385 OA
ATOM     34  H   UNL     1      18.906  30.765  23.442  1.00  0.00     0.211 HD
ENDBRANCH  21  33
ENDBRANCH  15  16
ENDBRANCH  10  15
BRANCH  12  35
ATOM     35  O   UNL     1      23.487  27.885  29.375  1.00  0.00    -0.385 OA
ATOM     36  H   UNL     1      24.420  27.564  29.348  1.00  0.00     0.211 HD
ENDBRANCH  12  35
BRANCH  13  37
ATOM     37  O   UNL     1      22.339  24.677  28.638  1.00  0.00    -0.387 OA
ATOM     38  H   UNL     1      22.210  24.542  29.631  1.00  0.00     0.211 HD
ENDBRANCH  13  37
BRANCH  14  39
ATOM     39  O   UNL     1      24.331  24.217  26.954  1.00  0.00    -0.387 OA
ATOM     40  H   UNL     1      25.296  24.077  27.139  1.00  0.00     0.211 HD
ENDBRANCH  14  39
ENDBRANCH   8   9
ENDBRANCH   7   8
ENDBRANCH   1   7
BRANCH   1  41
ATOM     41  C   UNL     1      21.572  25.590  22.699  1.00  0.00     0.364 C 
ATOM     42  O   UNL     1      21.406  26.796  22.923  1.00  0.00    -0.246 OA
BRANCH  41  43
ATOM     43  O   UNL     1      20.440  24.799  22.343  1.00  0.00    -0.477 OA
ATOM     44  H   UNL     1      19.598  25.268  22.087  1.00  0.00     0.296 HD
ENDBRANCH  41  43
ENDBRANCH   1  41
BRANCH   3  45
ATOM     45  O   UNL     1      25.267  23.937  22.075  1.00  0.00    -0.391 OA
ATOM     46  H   UNL     1      24.768  24.099  22.916  1.00  0.00     0.211 HD
ENDBRANCH   3  45
BRANCH   5  47
ATOM     47  C   UNL     1      24.853  27.508  21.211  1.00  0.00     0.176 C 
BRANCH  47  48
ATOM     48  O   UNL     1      25.646  27.205  22.338  1.00  0.00    -0.388 OA
ATOM     49  H   UNL     1      26.147  28.036  22.532  1.00  0.00     0.211 HD
ENDBRANCH  47  48
BRANCH  47  50
ATOM     50  C   UNL     1      24.080  28.725  21.454  1.00  0.00     0.165 C 
BRANCH  50  51
ATOM     51  O   UNL     1      23.370  28.760  22.668  1.00  0.00    -0.388 OA
ATOM     52  H   UNL     1      22.681  29.489  22.619  1.00  0.00     0.211 HD
ENDBRANCH  50  51
BRANCH  50  53
ATOM     53  C   UNL     1      23.195  29.213  20.373  1.00  0.00     0.154 C 
BRANCH  53  54
ATOM     54  N   UNL     1      21.808  29.074  20.625  1.00  0.00    -0.319 N 
ATOM     55  C   UNL     1      20.912  28.157  20.059  1.00  0.00     0.407 C 
ATOM     56  H   UNL     1      21.397  29.781  21.356  1.00  0.00     0.167 HD
ATOM     57  O   UNL     1      21.288  27.335  19.208  1.00  0.00    -0.225 OA
BRANCH  55  58
ATOM     58  O   UNL     1      19.560  28.184  20.479  1.00  0.00    -0.443 OA
BRANCH  58  59
ATOM     59  C   UNL     1      18.640  28.891  19.687  1.00  0.00     0.294 C 
BRANCH  59  60
ATOM     60  C   UNL     1      17.295  28.779  20.271  1.00  0.00     0.120 A 
ATOM     61  C   UNL     1      16.725  29.679  21.133  1.00  0.00     0.138 A 
ATOM     62  N   UNL     1      16.384  27.806  20.084  1.00  0.00    -0.132 NA
ATOM     63  N   UNL     1      15.504  29.230  21.436  1.00  0.00    -0.246 N 
ATOM     64  N   UNL     1      15.326  28.096  20.787  1.00  0.00    -0.066 NA
BRANCH  63  65
ATOM     65  C   UNL     1      14.598  29.926  22.327  1.00  0.00     0.065 C 
ATOM     66  C   UNL     1      13.192  29.636  21.905  1.00  0.00     0.034 C 
ATOM     67  C   UNL     1      14.882  29.539  23.764  1.00  0.00     0.034 C 
ATOM     68  C   UNL     1      14.823  31.424  22.217  1.00  0.00     0.034 C 
ATOM     69  C   UNL     1      12.212  30.314  22.829  1.00  0.00    -0.008 C 
ATOM     70  C   UNL     1      13.857  30.172  24.658  1.00  0.00    -0.008 C 
ATOM     71  C   UNL     1      13.860  32.098  23.165  1.00  0.00    -0.008 C 
ATOM     72  C   UNL     1      12.440  31.804  22.771  1.00  0.00     0.007 C 
ATOM     73  C   UNL     1      12.469  29.806  24.229  1.00  0.00     0.007 C 
ATOM     74  C   UNL     1      14.056  31.680  24.595  1.00  0.00     0.007 C 
ENDBRANCH  63  65
ENDBRANCH  59  60
ENDBRANCH  58  59
ENDBRANCH  55  58
ENDBRANCH  53  54
ENDBRANCH  50  53
ENDBRANCH  47  50
ENDBRANCH   5  47
BRANCH   4  75
ATOM     75  N   UNL     1      23.600  25.080  19.072  1.00  0.00    -0.348 N 
ATOM     76  C   UNL     1      24.138  24.653  17.826  1.00  0.00     0.217 C 
ATOM     77  H   UNL     1      22.578  25.317  19.124  1.00  0.00     0.163 HD
ATOM     78  C   UNL     1      23.254  24.545  16.609  1.00  0.00     0.114 C 
ATOM     79  O   UNL     1      25.355  24.373  17.772  1.00  0.00    -0.275 OA
ENDBRANCH   4  75
TORSDOF 30
