REMARK VINA RESULT:    -6.083     10.204     17.471
REMARK INTER + INTRA:         -21.911
REMARK INTER:                 -16.883
REMARK INTRA:                  -5.028
REMARK UNBOUND:                -6.939
REMARK SMILES CC(=O)N[C@@H]1[C@@H](O)C[C@](OC[C@H]2O[C@@H](O[C@H]3[C@H](O)[C@@H](O)[C@H](OCCN=[N+]=[N-])O[C@@H]3CO)[C@H](O)[C@@H](O)[C@H]2O)(C(=O)O)O[C@H]1C(O)[C@H](O)CNC(=O)OCc1cn([C@H]2C[C@H]3CC[C@@H](C2)N3C)nn1
REMARK SMILES IDX 9 1 8 2 6 3 5 4 42 5 41 6 10 7 11 8 12 9 14 10 13 11 32 12
REMARK SMILES IDX 34 13 36 14 15 15 16 16 29 17 28 18 21 19 17 20 19 21 30 22
REMARK SMILES IDX 31 23 22 25 23 26 24 27 25 28 26 29 27 30 18 31 20 33 33 35
REMARK SMILES IDX 35 37 37 39 38 41 39 42 40 43 7 45 43 47 44 48 45 50 46 51
REMARK SMILES IDX 47 53 48 54 49 55 50 57 51 58 52 59 53 60 54 61 66 62 55 63
REMARK SMILES IDX 65 64 56 65 62 66 57 67 61 68 58 69 63 70 60 71 59 72 64 73
REMARK SMILES IDX 4 74 2 75 1 77 3 78
REMARK H PARENT 31 24 18 32 20 34 33 36 35 38 37 40 40 44 7 46 44 49 46 52
REMARK H PARENT 48 56 4 76
REMARK Flexibility Score: inf
ROOT
ATOM      1  C   UNL     1       3.016  21.524  31.813  1.00  0.00     0.272 C 
ATOM      2  C   UNL     1       2.647  20.824  33.109  1.00  0.00     0.113 C 
ATOM      3  C   UNL     1       2.442  21.738  34.279  1.00  0.00     0.145 C 
ATOM      4  C   UNL     1       3.336  22.911  34.124  1.00  0.00     0.142 C 
ATOM      5  C   UNL     1       4.551  22.457  33.310  1.00  0.00     0.178 C 
ATOM      6  O   UNL     1       4.002  22.459  31.963  1.00  0.00    -0.332 OA
ENDROOT
BRANCH   1   7
ATOM      7  O   UNL     1       1.870  21.995  31.246  1.00  0.00    -0.338 OA
BRANCH   7   8
ATOM      8  C   UNL     1       1.872  23.167  30.582  1.00  0.00     0.199 C 
BRANCH   8   9
ATOM      9  C   UNL     1       1.571  23.178  29.130  1.00  0.00     0.179 C 
ATOM     10  C   UNL     1       1.423  24.677  27.448  1.00  0.00     0.282 C 
ATOM     11  O   UNL     1       2.214  24.316  28.545  1.00  0.00    -0.341 OA
ATOM     12  C   UNL     1       1.182  23.583  26.497  1.00  0.00     0.202 C 
ATOM     13  C   UNL     1       1.495  22.198  26.916  1.00  0.00     0.179 C 
ATOM     14  C   UNL     1       2.077  22.042  28.304  1.00  0.00     0.177 C 
BRANCH  10  15
ATOM     15  O   UNL     1       2.027  25.777  26.887  1.00  0.00    -0.341 OA
BRANCH  15  16
ATOM     16  C   UNL     1       3.388  25.857  27.195  1.00  0.00     0.184 C 
ATOM     17  C   UNL     1       3.791  27.094  27.928  1.00  0.00     0.178 C 
ATOM     18  O   UNL     1       3.907  28.237  27.204  1.00  0.00    -0.341 OA
ATOM     19  C   UNL     1       4.531  28.110  26.011  1.00  0.00     0.281 C 
ATOM     20  C   UNL     1       4.099  25.748  25.865  1.00  0.00     0.180 C 
ATOM     21  C   UNL     1       3.816  27.069  25.152  1.00  0.00     0.202 C 
BRANCH  17  22
ATOM     22  C   UNL     1       4.971  26.822  28.870  1.00  0.00     0.191 C 
BRANCH  22  23
ATOM     23  O   UNL     1       4.801  25.708  29.661  1.00  0.00    -0.394 OA
ATOM     24  H   UNL     1       3.910  25.659  30.067  1.00  0.00     0.210 HD
ENDBRANCH  22  23
ENDBRANCH  17  22
BRANCH  19  25
ATOM     25  O   UNL     1       5.884  27.947  26.009  1.00  0.00    -0.350 OA
BRANCH  25  26
ATOM     26  C   UNL     1       6.655  28.948  25.503  1.00  0.00     0.169 C 
BRANCH  26  27
ATOM     27  C   UNL     1       7.546  28.484  24.402  1.00  0.00     0.119 C 
BRANCH  27  28
ATOM     28  N   UNL     1       7.746  27.029  24.444  1.00  0.00    -0.092 NA
ATOM     29  N   UNL     1       8.625  26.544  25.178  1.00  0.00     0.001 N 
ATOM     30  N   UNL     1       9.125  26.201  26.268  1.00  0.00    -0.003 NA
ENDBRANCH  27  28
ENDBRANCH  26  27
ENDBRANCH  25  26
ENDBRANCH  19  25
BRANCH  20  31
ATOM     31  O   UNL     1       5.458  25.575  25.975  1.00  0.00    -0.387 OA
ATOM     32  H   UNL     1       5.735  25.210  26.829  1.00  0.00     0.211 HD
ENDBRANCH  20  31
BRANCH  21  33
ATOM     33  O   UNL     1       2.450  27.338  25.121  1.00  0.00    -0.385 OA
ATOM     34  H   UNL     1       2.329  28.135  24.539  1.00  0.00     0.211 HD
ENDBRANCH  21  33
ENDBRANCH  15  16
ENDBRANCH  10  15
BRANCH  12  35
ATOM     35  O   UNL     1      -0.193  23.625  26.150  1.00  0.00    -0.385 OA
ATOM     36  H   UNL     1      -0.460  24.496  25.788  1.00  0.00     0.211 HD
ENDBRANCH  12  35
BRANCH  13  37
ATOM     37  O   UNL     1       2.421  21.590  26.031  1.00  0.00    -0.387 OA
ATOM     38  H   UNL     1       2.399  20.598  26.223  1.00  0.00     0.211 HD
ENDBRANCH  13  37
BRANCH  14  39
ATOM     39  O   UNL     1       3.478  22.166  28.145  1.00  0.00    -0.387 OA
ATOM     40  H   UNL     1       3.672  21.582  27.346  1.00  0.00     0.211 HD
ENDBRANCH  14  39
ENDBRANCH   8   9
ENDBRANCH   7   8
ENDBRANCH   1   7
BRANCH   1  41
ATOM     41  C   UNL     1       3.591  20.429  30.968  1.00  0.00     0.364 C 
ATOM     42  O   UNL     1       2.967  19.401  30.724  1.00  0.00    -0.246 OA
BRANCH  41  43
ATOM     43  O   UNL     1       4.876  20.553  30.425  1.00  0.00    -0.477 OA
ATOM     44  H   UNL     1       5.424  21.372  30.720  1.00  0.00     0.296 HD
ENDBRANCH  41  43
ENDBRANCH   1  41
BRANCH   3  45
ATOM     45  O   UNL     1       1.074  22.097  34.267  1.00  0.00    -0.391 OA
ATOM     46  H   UNL     1       0.511  21.292  34.141  1.00  0.00     0.211 HD
ENDBRANCH   3  45
BRANCH   5  47
ATOM     47  C   UNL     1       5.681  23.407  33.303  1.00  0.00     0.176 C 
BRANCH  47  48
ATOM     48  O   UNL     1       5.587  24.131  32.036  1.00  0.00    -0.388 OA
ATOM     49  H   UNL     1       4.862  23.706  31.511  1.00  0.00     0.211 HD
ENDBRANCH  47  48
BRANCH  47  50
ATOM     50  C   UNL     1       7.061  22.795  33.105  1.00  0.00     0.165 C 
BRANCH  50  51
ATOM     51  O   UNL     1       6.836  21.412  32.903  1.00  0.00    -0.388 OA
ATOM     52  H   UNL     1       7.687  20.908  32.894  1.00  0.00     0.211 HD
ENDBRANCH  50  51
BRANCH  50  53
ATOM     53  C   UNL     1       8.061  22.999  34.170  1.00  0.00     0.154 C 
BRANCH  53  54
ATOM     54  N   UNL     1       8.571  24.376  34.014  1.00  0.00    -0.319 N 
ATOM     55  C   UNL     1       9.829  24.761  34.541  1.00  0.00     0.407 C 
ATOM     56  H   UNL     1       7.986  25.064  33.508  1.00  0.00     0.167 HD
ATOM     57  O   UNL     1      10.531  23.890  35.148  1.00  0.00    -0.225 OA
BRANCH  55  58
ATOM     58  O   UNL     1      10.287  26.061  34.397  1.00  0.00    -0.443 OA
BRANCH  58  59
ATOM     59  C   UNL     1      11.676  26.292  34.457  1.00  0.00     0.294 C 
BRANCH  59  60
ATOM     60  C   UNL     1      12.086  27.586  33.876  1.00  0.00     0.120 A 
ATOM     61  C   UNL     1      13.342  28.142  34.003  1.00  0.00     0.138 A 
ATOM     62  N   UNL     1      11.377  28.466  33.162  1.00  0.00    -0.132 NA
ATOM     63  N   UNL     1      13.371  29.325  33.378  1.00  0.00    -0.249 N 
ATOM     64  N   UNL     1      12.155  29.511  32.864  1.00  0.00    -0.067 NA
BRANCH  63  65
ATOM     65  C   UNL     1      14.537  30.194  33.318  1.00  0.00     0.112 C 
ATOM     66  C   UNL     1      14.188  31.339  32.428  1.00  0.00     0.046 C 
ATOM     67  C   UNL     1      15.712  29.374  32.897  1.00  0.00     0.046 C 
ATOM     68  C   UNL     1      15.254  31.729  31.456  1.00  0.00     0.058 C 
ATOM     69  C   UNL     1      16.643  30.035  31.927  1.00  0.00     0.058 C 
ATOM     70  N   UNL     1      16.568  31.480  31.961  1.00  0.00    -0.300 NA
ATOM     71  C   UNL     1      15.176  30.797  30.249  1.00  0.00     0.021 C 
ATOM     72  C   UNL     1      16.183  29.705  30.523  1.00  0.00     0.021 C 
ATOM     73  C   UNL     1      16.832  32.025  33.270  1.00  0.00     0.105 C 
ENDBRANCH  63  65
ENDBRANCH  59  60
ENDBRANCH  58  59
ENDBRANCH  55  58
ENDBRANCH  53  54
ENDBRANCH  50  53
ENDBRANCH  47  50
ENDBRANCH   5  47
BRANCH   4  74
ATOM     74  N   UNL     1       3.537  23.721  35.248  1.00  0.00    -0.348 N 
ATOM     75  C   UNL     1       2.677  24.825  35.574  1.00  0.00     0.217 C 
ATOM     76  H   UNL     1       4.309  23.532  35.926  1.00  0.00     0.163 HD
ATOM     77  C   UNL     1       2.965  25.626  36.810  1.00  0.00     0.114 C 
ATOM     78  O   UNL     1       1.711  25.124  34.862  1.00  0.00    -0.275 OA
ENDBRANCH   4  74
TORSDOF 30
