REMARK VINA RESULT:    -5.727      2.539      3.520
REMARK INTER + INTRA:         -21.636
REMARK INTER:                 -15.043
REMARK INTRA:                  -6.593
REMARK UNBOUND:                -7.203
REMARK SMILES CC(=O)N[C@@H]1[C@@H](O)C[C@](OC[C@H]2O[C@@H](O[C@H]3[C@H](O)[C@@H](O)[C@H](OCCN=[N+]=[N-])O[C@@H]3CO)[C@H](O)[C@@H](O)[C@H]2O)(C(=O)O)O[C@H]1C(O)[C@H](O)CNC(=O)OCc1cn(CC2=CC[C@H]3C[C@@H]2C3(C)C)nn1
REMARK SMILES IDX 9 1 8 2 6 3 5 4 42 5 41 6 10 7 11 8 12 9 14 10 13 11 32 12
REMARK SMILES IDX 34 13 36 14 15 15 16 16 29 17 28 18 21 19 17 20 19 21 30 22
REMARK SMILES IDX 31 23 22 25 23 26 24 27 25 28 26 29 27 30 18 31 20 33 33 35
REMARK SMILES IDX 35 37 37 39 38 41 39 42 40 43 7 45 43 47 44 48 45 50 46 51
REMARK SMILES IDX 47 53 48 54 49 55 50 57 51 58 52 59 53 60 54 61 67 62 55 63
REMARK SMILES IDX 66 64 56 65 57 66 58 67 62 68 59 69 61 70 63 71 60 72 64 73
REMARK SMILES IDX 65 74 4 75 2 76 1 78 3 79
REMARK H PARENT 31 24 18 32 20 34 33 36 35 38 37 40 40 44 7 46 44 49 46 52
REMARK H PARENT 48 56 4 77
REMARK Flexibility Score: inf
ROOT
ATOM      1  C   UNL     1      14.813  32.542  17.186  1.00  0.00     0.272 C 
ATOM      2  C   UNL     1      13.598  32.543  16.316  1.00  0.00     0.113 C 
ATOM      3  C   UNL     1      12.986  31.132  16.262  1.00  0.00     0.145 C 
ATOM      4  C   UNL     1      13.941  30.171  15.653  1.00  0.00     0.142 C 
ATOM      5  C   UNL     1      15.298  30.843  15.644  1.00  0.00     0.178 C 
ATOM      6  O   UNL     1      15.604  31.396  16.834  1.00  0.00    -0.332 OA
ENDROOT
BRANCH   1   7
ATOM      7  O   UNL     1      14.623  32.416  18.490  1.00  0.00    -0.338 OA
BRANCH   7   8
ATOM      8  C   UNL     1      15.494  32.366  19.465  1.00  0.00     0.199 C 
BRANCH   8   9
ATOM      9  C   UNL     1      16.267  31.193  19.898  1.00  0.00     0.179 C 
ATOM     10  C   UNL     1      16.669  29.996  21.836  1.00  0.00     0.282 C 
ATOM     11  O   UNL     1      15.786  30.861  21.202  1.00  0.00    -0.341 OA
ATOM     12  C   UNL     1      17.221  28.926  21.007  1.00  0.00     0.202 C 
ATOM     13  C   UNL     1      16.939  28.906  19.557  1.00  0.00     0.179 C 
ATOM     14  C   UNL     1      15.894  29.908  19.134  1.00  0.00     0.177 C 
BRANCH  10  15
ATOM     15  O   UNL     1      15.914  29.440  22.887  1.00  0.00    -0.341 OA
BRANCH  15  16
ATOM     16  C   UNL     1      14.741  30.134  23.125  1.00  0.00     0.184 C 
ATOM     17  C   UNL     1      14.770  30.745  24.496  1.00  0.00     0.178 C 
ATOM     18  O   UNL     1      13.531  31.143  24.965  1.00  0.00    -0.341 OA
ATOM     19  C   UNL     1      12.508  31.137  24.062  1.00  0.00     0.281 C 
ATOM     20  C   UNL     1      13.611  29.099  23.134  1.00  0.00     0.180 C 
ATOM     21  C   UNL     1      12.313  29.806  23.377  1.00  0.00     0.202 C 
BRANCH  17  22
ATOM     22  C   UNL     1      15.693  31.969  24.446  1.00  0.00     0.191 C 
BRANCH  22  23
ATOM     23  O   UNL     1      16.941  31.579  24.911  1.00  0.00    -0.394 OA
ATOM     24  H   UNL     1      17.636  32.086  24.390  1.00  0.00     0.210 HD
ENDBRANCH  22  23
ENDBRANCH  17  22
BRANCH  19  25
ATOM     25  O   UNL     1      12.666  32.127  23.084  1.00  0.00    -0.350 OA
BRANCH  25  26
ATOM     26  C   UNL     1      11.669  32.059  22.110  1.00  0.00     0.169 C 
BRANCH  26  27
ATOM     27  C   UNL     1      12.198  32.874  20.927  1.00  0.00     0.119 C 
BRANCH  27  28
ATOM     28  N   UNL     1      11.429  32.554  19.743  1.00  0.00    -0.092 NA
ATOM     29  N   UNL     1      11.133  33.393  18.911  1.00  0.00     0.001 N 
ATOM     30  N   UNL     1      10.737  34.297  18.166  1.00  0.00    -0.003 NA
ENDBRANCH  27  28
ENDBRANCH  26  27
ENDBRANCH  25  26
ENDBRANCH  19  25
BRANCH  20  31
ATOM     31  O   UNL     1      13.540  28.467  21.880  1.00  0.00    -0.387 OA
ATOM     32  H   UNL     1      12.610  28.230  21.668  1.00  0.00     0.211 HD
ENDBRANCH  20  31
BRANCH  21  33
ATOM     33  O   UNL     1      11.400  29.025  24.084  1.00  0.00    -0.385 OA
ATOM     34  H   UNL     1      11.873  28.643  24.877  1.00  0.00     0.211 HD
ENDBRANCH  21  33
ENDBRANCH  15  16
ENDBRANCH  10  15
BRANCH  12  35
ATOM     35  O   UNL     1      18.633  28.955  21.165  1.00  0.00    -0.385 OA
ATOM     36  H   UNL     1      18.899  28.664  22.074  1.00  0.00     0.211 HD
ENDBRANCH  12  35
BRANCH  13  37
ATOM     37  O   UNL     1      16.662  27.617  19.089  1.00  0.00    -0.387 OA
ATOM     38  H   UNL     1      17.363  26.983  19.403  1.00  0.00     0.211 HD
ENDBRANCH  13  37
BRANCH  14  39
ATOM     39  O   UNL     1      14.658  29.469  19.652  1.00  0.00    -0.387 OA
ATOM     40  H   UNL     1      14.558  28.495  19.511  1.00  0.00     0.211 HD
ENDBRANCH  14  39
ENDBRANCH   8   9
ENDBRANCH   7   8
ENDBRANCH   1   7
BRANCH   1  41
ATOM     41  C   UNL     1      15.727  33.646  16.792  1.00  0.00     0.364 C 
ATOM     42  O   UNL     1      16.995  33.470  16.832  1.00  0.00    -0.246 OA
BRANCH  41  43
ATOM     43  O   UNL     1      15.302  34.866  16.386  1.00  0.00    -0.477 OA
ATOM     44  H   UNL     1      14.382  35.133  16.076  1.00  0.00     0.296 HD
ENDBRANCH  41  43
ENDBRANCH   1  41
BRANCH   3  45
ATOM     45  O   UNL     1      12.851  30.778  17.612  1.00  0.00    -0.391 OA
ATOM     46  H   UNL     1      13.446  30.007  17.782  1.00  0.00     0.211 HD
ENDBRANCH   3  45
BRANCH   5  47
ATOM     47  C   UNL     1      16.394  29.827  15.310  1.00  0.00     0.176 C 
BRANCH  47  48
ATOM     48  O   UNL     1      16.006  28.563  15.674  1.00  0.00    -0.388 OA
ATOM     49  H   UNL     1      16.319  27.838  15.064  1.00  0.00     0.211 HD
ENDBRANCH  47  48
BRANCH  47  50
ATOM     50  C   UNL     1      17.689  30.210  15.963  1.00  0.00     0.165 C 
BRANCH  50  51
ATOM     51  O   UNL     1      18.179  31.315  15.209  1.00  0.00    -0.388 OA
ATOM     52  H   UNL     1      18.396  31.994  15.921  1.00  0.00     0.211 HD
ENDBRANCH  50  51
BRANCH  50  53
ATOM     53  C   UNL     1      18.724  29.138  15.833  1.00  0.00     0.154 C 
BRANCH  53  54
ATOM     54  N   UNL     1      18.940  28.359  17.010  1.00  0.00    -0.319 N 
ATOM     55  C   UNL     1      20.072  28.595  17.825  1.00  0.00     0.407 C 
ATOM     56  H   UNL     1      18.244  27.615  17.266  1.00  0.00     0.167 HD
ATOM     57  O   UNL     1      20.885  29.479  17.524  1.00  0.00    -0.225 OA
BRANCH  55  58
ATOM     58  O   UNL     1      20.290  27.849  18.968  1.00  0.00    -0.443 OA
BRANCH  58  59
ATOM     59  C   UNL     1      21.486  27.716  19.660  1.00  0.00     0.294 C 
BRANCH  59  60
ATOM     60  C   UNL     1      21.558  26.521  20.551  1.00  0.00     0.120 A 
ATOM     61  C   UNL     1      21.224  26.435  21.881  1.00  0.00     0.138 A 
ATOM     62  N   UNL     1      21.967  25.273  20.192  1.00  0.00    -0.132 NA
ATOM     63  N   UNL     1      21.429  25.182  22.294  1.00  0.00    -0.248 N 
ATOM     64  N   UNL     1      21.877  24.502  21.257  1.00  0.00    -0.067 NA
BRANCH  63  65
ATOM     65  C   UNL     1      21.200  24.643  23.648  1.00  0.00     0.177 C 
BRANCH  65  66
ATOM     66  C   UNL     1      22.358  25.135  24.465  1.00  0.00    -0.049 C 
ATOM     67  C   UNL     1      23.593  24.625  24.283  1.00  0.00    -0.025 C 
ATOM     68  C   UNL     1      22.216  26.182  25.487  1.00  0.00     0.023 C 
ATOM     69  C   UNL     1      24.675  25.019  25.212  1.00  0.00     0.031 C 
ATOM     70  C   UNL     1      23.416  27.123  25.319  1.00  0.00     0.013 C 
ATOM     71  C   UNL     1      22.843  25.721  26.768  1.00  0.00    -0.026 C 
ATOM     72  C   UNL     1      24.197  26.093  26.146  1.00  0.00    -0.000 C 
ATOM     73  C   UNL     1      22.581  26.615  27.956  1.00  0.00     0.012 C 
ATOM     74  C   UNL     1      22.687  24.284  27.134  1.00  0.00     0.012 C 
ENDBRANCH  65  66
ENDBRANCH  63  65
ENDBRANCH  59  60
ENDBRANCH  58  59
ENDBRANCH  55  58
ENDBRANCH  53  54
ENDBRANCH  50  53
ENDBRANCH  47  50
ENDBRANCH   5  47
BRANCH   4  75
ATOM     75  N   UNL     1      13.662  29.732  14.330  1.00  0.00    -0.348 N 
ATOM     76  C   UNL     1      12.730  28.757  13.946  1.00  0.00     0.217 C 
ATOM     77  H   UNL     1      14.227  30.201  13.564  1.00  0.00     0.163 HD
ATOM     78  C   UNL     1      12.538  28.394  12.519  1.00  0.00     0.114 C 
ATOM     79  O   UNL     1      12.075  28.216  14.855  1.00  0.00    -0.275 OA
ENDBRANCH   4  75
TORSDOF 31
