REMARK VINA RESULT:    -5.075     14.827     19.271
REMARK INTER + INTRA:         -20.144
REMARK INTER:                 -12.492
REMARK INTRA:                  -7.652
REMARK UNBOUND:                -7.652
REMARK SMILES CC(=O)N[C@@H]1[C@@H](O)C[C@](OC[C@H]2O[C@@H](O[C@H]3[C@H](O)[C@@H](O)[C@H](OCCN=[N+]=[N-])O[C@@H]3CO)[C@H](O)[C@@H](O)[C@H]2O)(C(=O)O)O[C@H]1C(O)[C@H](O)CNC(=O)OCc1cn(-c2ccc(Br)cc2)nn1
REMARK SMILES IDX 9 1 8 2 6 3 5 4 42 5 41 6 10 7 11 8 12 9 14 10 13 11 32 12
REMARK SMILES IDX 34 13 36 14 15 15 16 16 29 17 28 18 21 19 17 20 19 21 30 22
REMARK SMILES IDX 31 23 22 25 23 26 24 27 25 28 26 29 27 30 18 31 20 33 33 35
REMARK SMILES IDX 35 37 37 39 38 41 39 42 40 43 7 45 43 47 44 48 45 50 46 51
REMARK SMILES IDX 47 53 48 54 49 55 50 57 51 58 52 59 53 60 54 61 64 62 55 63
REMARK SMILES IDX 63 64 56 65 57 66 62 67 58 68 61 69 59 70 60 71 4 72 2 73
REMARK SMILES IDX 1 75 3 76
REMARK H PARENT 31 24 18 32 20 34 33 36 35 38 37 40 40 44 7 46 44 49 46 52
REMARK H PARENT 48 56 4 74
REMARK Flexibility Score: inf
ROOT
ATOM      1  C   UNL     1      16.343  29.501  18.927  1.00  0.00     0.272 C 
ATOM      2  C   UNL     1      17.844  29.134  18.769  1.00  0.00     0.113 C 
ATOM      3  C   UNL     1      18.025  28.518  17.432  1.00  0.00     0.145 C 
ATOM      4  C   UNL     1      17.537  29.550  16.395  1.00  0.00     0.142 C 
ATOM      5  C   UNL     1      16.045  29.633  16.614  1.00  0.00     0.178 C 
ATOM      6  O   UNL     1      15.879  30.206  17.854  1.00  0.00    -0.332 OA
ENDROOT
BRANCH   1   7
ATOM      7  O   UNL     1      16.359  30.346  20.041  1.00  0.00    -0.338 OA
BRANCH   7   8
ATOM      8  C   UNL     1      16.810  29.792  21.201  1.00  0.00     0.199 C 
BRANCH   8   9
ATOM      9  C   UNL     1      16.037  30.477  22.346  1.00  0.00     0.179 C 
ATOM     10  C   UNL     1      14.082  31.712  22.586  1.00  0.00     0.282 C 
ATOM     11  O   UNL     1      15.233  31.474  21.876  1.00  0.00    -0.341 OA
ATOM     12  C   UNL     1      14.130  31.281  23.995  1.00  0.00     0.202 C 
ATOM     13  C   UNL     1      14.624  29.891  24.244  1.00  0.00     0.179 C 
ATOM     14  C   UNL     1      15.250  29.352  23.000  1.00  0.00     0.177 C 
BRANCH  10  15
ATOM     15  O   UNL     1      13.032  31.214  21.815  1.00  0.00    -0.341 OA
BRANCH  15  16
ATOM     16  C   UNL     1      12.484  32.183  20.994  1.00  0.00     0.184 C 
ATOM     17  C   UNL     1      11.034  32.407  21.282  1.00  0.00     0.178 C 
ATOM     18  O   UNL     1      10.576  33.475  20.564  1.00  0.00    -0.341 OA
ATOM     19  C   UNL     1      11.295  33.902  19.490  1.00  0.00     0.281 C 
ATOM     20  C   UNL     1      12.529  31.728  19.526  1.00  0.00     0.180 C 
ATOM     21  C   UNL     1      11.939  32.817  18.657  1.00  0.00     0.202 C 
BRANCH  17  22
ATOM     22  C   UNL     1      10.855  32.721  22.755  1.00  0.00     0.191 C 
BRANCH  22  23
ATOM     23  O   UNL     1      10.607  31.574  23.472  1.00  0.00    -0.394 OA
ATOM     24  H   UNL     1      10.031  30.964  22.978  1.00  0.00     0.210 HD
ENDBRANCH  22  23
ENDBRANCH  17  22
BRANCH  19  25
ATOM     25  O   UNL     1      12.190  34.921  19.799  1.00  0.00    -0.350 OA
BRANCH  25  26
ATOM     26  C   UNL     1      13.050  35.251  18.770  1.00  0.00     0.169 C 
BRANCH  26  27
ATOM     27  C   UNL     1      14.467  35.460  19.189  1.00  0.00     0.119 C 
BRANCH  27  28
ATOM     28  N   UNL     1      14.978  34.255  19.817  1.00  0.00    -0.092 NA
ATOM     29  N   UNL     1      16.195  34.060  19.755  1.00  0.00     0.001 N 
ATOM     30  N   UNL     1      17.422  33.844  19.849  1.00  0.00    -0.003 NA
ENDBRANCH  27  28
ENDBRANCH  26  27
ENDBRANCH  25  26
ENDBRANCH  19  25
BRANCH  20  31
ATOM     31  O   UNL     1      13.817  31.370  19.172  1.00  0.00    -0.387 OA
ATOM     32  H   UNL     1      14.447  32.134  19.265  1.00  0.00     0.211 HD
ENDBRANCH  20  31
BRANCH  21  33
ATOM     33  O   UNL     1      11.058  32.355  17.705  1.00  0.00    -0.385 OA
ATOM     34  H   UNL     1      10.342  33.024  17.591  1.00  0.00     0.211 HD
ENDBRANCH  21  33
ENDBRANCH  15  16
ENDBRANCH  10  15
BRANCH  12  35
ATOM     35  O   UNL     1      14.933  32.232  24.685  1.00  0.00    -0.385 OA
ATOM     36  H   UNL     1      14.466  33.117  24.684  1.00  0.00     0.211 HD
ENDBRANCH  12  35
BRANCH  13  37
ATOM     37  O   UNL     1      13.553  29.043  24.614  1.00  0.00    -0.387 OA
ATOM     38  H   UNL     1      13.402  29.217  25.577  1.00  0.00     0.211 HD
ENDBRANCH  13  37
BRANCH  14  39
ATOM     39  O   UNL     1      14.315  28.801  22.127  1.00  0.00    -0.387 OA
ATOM     40  H   UNL     1      14.123  27.860  22.364  1.00  0.00     0.211 HD
ENDBRANCH  14  39
ENDBRANCH   8   9
ENDBRANCH   7   8
ENDBRANCH   1   7
BRANCH   1  41
ATOM     41  C   UNL     1      15.649  28.263  19.275  1.00  0.00     0.364 C 
ATOM     42  O   UNL     1      16.237  27.187  19.538  1.00  0.00    -0.246 OA
BRANCH  41  43
ATOM     43  O   UNL     1      14.269  28.228  19.334  1.00  0.00    -0.477 OA
ATOM     44  H   UNL     1      13.667  28.143  18.517  1.00  0.00     0.296 HD
ENDBRANCH  41  43
ENDBRANCH   1  41
BRANCH   3  45
ATOM     45  O   UNL     1      19.363  28.306  17.131  1.00  0.00    -0.391 OA
ATOM     46  H   UNL     1      19.907  28.475  17.928  1.00  0.00     0.211 HD
ENDBRANCH   3  45
BRANCH   5  47
ATOM     47  C   UNL     1      15.307  30.475  15.629  1.00  0.00     0.176 C 
BRANCH  47  48
ATOM     48  O   UNL     1      15.923  31.757  15.702  1.00  0.00    -0.388 OA
ATOM     49  H   UNL     1      16.666  31.780  15.047  1.00  0.00     0.211 HD
ENDBRANCH  47  48
BRANCH  47  50
ATOM     50  C   UNL     1      13.859  30.760  15.998  1.00  0.00     0.165 C 
BRANCH  50  51
ATOM     51  O   UNL     1      13.484  29.610  16.748  1.00  0.00    -0.388 OA
ATOM     52  H   UNL     1      13.460  28.813  16.131  1.00  0.00     0.211 HD
ENDBRANCH  50  51
BRANCH  50  53
ATOM     53  C   UNL     1      12.974  30.789  14.801  1.00  0.00     0.154 C 
BRANCH  53  54
ATOM     54  N   UNL     1      11.598  30.928  15.155  1.00  0.00    -0.319 N 
ATOM     55  C   UNL     1      10.534  30.116  14.648  1.00  0.00     0.407 C 
ATOM     56  H   UNL     1      11.292  31.683  15.848  1.00  0.00     0.167 HD
ATOM     57  O   UNL     1      10.808  29.212  13.825  1.00  0.00    -0.225 OA
BRANCH  55  58
ATOM     58  O   UNL     1       9.228  30.296  15.039  1.00  0.00    -0.443 OA
BRANCH  58  59
ATOM     59  C   UNL     1       8.616  31.553  14.901  1.00  0.00     0.294 C 
BRANCH  59  60
ATOM     60  C   UNL     1       7.595  31.704  15.961  1.00  0.00     0.121 A 
ATOM     61  C   UNL     1       7.680  31.115  17.229  1.00  0.00     0.144 A 
ATOM     62  N   UNL     1       6.434  32.377  15.971  1.00  0.00    -0.131 NA
ATOM     63  N   UNL     1       6.586  31.452  17.933  1.00  0.00    -0.220 N 
ATOM     64  N   UNL     1       5.854  32.215  17.146  1.00  0.00    -0.062 NA
BRANCH  63  65
ATOM     65  C   UNL     1       6.345  31.018  19.265  1.00  0.00     0.066 A 
ATOM     66  C   UNL     1       6.561  31.765  20.379  1.00  0.00     0.029 A 
ATOM     67  C   UNL     1       5.842  29.729  19.408  1.00  0.00     0.029 A 
ATOM     68  C   UNL     1       6.275  31.228  21.617  1.00  0.00     0.018 A 
ATOM     69  C   UNL     1       5.562  29.207  20.650  1.00  0.00     0.018 A 
ATOM     70  C   UNL     1       5.778  29.959  21.786  1.00  0.00     0.018 A 
ATOM     71  Br  UNL     1       5.393  29.255  23.517  1.00  0.00    -0.051 Br
ENDBRANCH  63  65
ENDBRANCH  59  60
ENDBRANCH  58  59
ENDBRANCH  55  58
ENDBRANCH  53  54
ENDBRANCH  50  53
ENDBRANCH  47  50
ENDBRANCH   5  47
BRANCH   4  72
ATOM     72  N   UNL     1      17.939  29.055  15.114  1.00  0.00    -0.348 N 
ATOM     73  C   UNL     1      18.443  29.907  14.094  1.00  0.00     0.217 C 
ATOM     74  H   UNL     1      17.863  28.043  14.913  1.00  0.00     0.163 HD
ATOM     75  C   UNL     1      18.864  29.424  12.757  1.00  0.00     0.114 C 
ATOM     76  O   UNL     1      18.546  31.158  14.315  1.00  0.00    -0.275 OA
ENDBRANCH   4  72
TORSDOF 30
