REMARK VINA RESULT:    -6.457     17.063     22.817
REMARK INTER + INTRA:         -23.450
REMARK INTER:                 -15.960
REMARK INTRA:                  -7.490
REMARK UNBOUND:                -6.425
REMARK SMILES CC(=O)N[C@@H]1[C@@H](O)C[C@](OC[C@H]2O[C@@H](O[C@H]3[C@H](O)[C@@H](O)[C@H](OCCN=[N+]=[N-])O[C@@H]3CO)[C@H](O)[C@@H](O)[C@H]2O)(C(=O)O)O[C@H]1C(O)[C@H](O)CNC(=O)OCc1cn(-c2ccc(S(=O)(=O)Nc3nccs3)cc2)nn1
REMARK SMILES IDX 43 1 42 2 9 3 8 4 41 5 6 6 5 7 10 8 11 9 12 10 14 11 13 12
REMARK SMILES IDX 32 13 34 14 36 15 15 16 16 17 29 18 28 19 21 20 17 21 19 22
REMARK SMILES IDX 30 23 31 24 22 26 23 27 24 28 25 29 26 30 27 31 18 32 20 34
REMARK SMILES IDX 33 36 35 38 37 40 38 42 39 43 40 44 7 46 4 48 2 49 1 51 3 52
REMARK SMILES IDX 44 53 45 55 46 56 47 58 48 59 49 60 50 62 51 63 52 64 53 65
REMARK SMILES IDX 54 66 72 67 55 68 71 69 56 70 57 71 70 72 58 73 69 74 59 75
REMARK SMILES IDX 60 76 61 77 62 78 63 79 64 81 65 82 68 83 66 84 67 85
REMARK H PARENT 31 25 18 33 20 35 33 37 35 39 37 41 40 45 7 47 4 50 44 54
REMARK H PARENT 46 57 48 61 63 80
REMARK Flexibility Score: inf
ROOT
ATOM      1  C   UNL     1       5.259  23.197  32.947  1.00  0.00     0.176 C 
ENDROOT
BRANCH   1   2
ATOM      2  C   UNL     1       3.792  22.942  33.034  1.00  0.00     0.178 C 
ATOM      3  C   UNL     1       2.274  21.640  31.823  1.00  0.00     0.272 C 
ATOM      4  C   UNL     1       1.390  22.240  32.938  1.00  0.00     0.113 C 
ATOM      5  O   UNL     1       3.500  22.244  31.821  1.00  0.00    -0.332 OA
ATOM      6  C   UNL     1       1.474  23.717  33.022  1.00  0.00     0.145 C 
ATOM      7  C   UNL     1       2.931  24.179  32.942  1.00  0.00     0.142 C 
BRANCH   3   8
ATOM      8  O   UNL     1       1.687  21.843  30.600  1.00  0.00    -0.338 OA
BRANCH   8   9
ATOM      9  C   UNL     1       2.519  22.343  29.630  1.00  0.00     0.199 C 
BRANCH   9  10
ATOM     10  C   UNL     1       1.779  22.960  28.466  1.00  0.00     0.179 C 
ATOM     11  C   UNL     1       1.772  24.431  26.788  1.00  0.00     0.282 C 
ATOM     12  O   UNL     1       2.623  23.632  27.588  1.00  0.00    -0.341 OA
ATOM     13  C   UNL     1       1.184  23.510  25.747  1.00  0.00     0.202 C 
ATOM     14  C   UNL     1       1.390  22.051  26.168  1.00  0.00     0.179 C 
ATOM     15  C   UNL     1       1.072  21.895  27.643  1.00  0.00     0.177 C 
BRANCH  11  16
ATOM     16  O   UNL     1       2.418  25.468  26.205  1.00  0.00    -0.341 OA
BRANCH  16  17
ATOM     17  C   UNL     1       3.722  25.676  26.616  1.00  0.00     0.184 C 
ATOM     18  C   UNL     1       3.950  26.642  27.705  1.00  0.00     0.178 C 
ATOM     19  O   UNL     1       5.250  27.197  27.532  1.00  0.00    -0.341 OA
ATOM     20  C   UNL     1       5.249  28.142  26.497  1.00  0.00     0.281 C 
ATOM     21  C   UNL     1       4.626  25.982  25.428  1.00  0.00     0.180 C 
ATOM     22  C   UNL     1       4.785  27.488  25.209  1.00  0.00     0.202 C 
BRANCH  18  23
ATOM     23  C   UNL     1       4.027  26.029  29.104  1.00  0.00     0.191 C 
BRANCH  23  24
ATOM     24  O   UNL     1       2.829  25.930  29.743  1.00  0.00    -0.394 OA
ATOM     25  H   UNL     1       2.582  24.985  29.861  1.00  0.00     0.210 HD
ENDBRANCH  23  24
ENDBRANCH  18  23
BRANCH  20  26
ATOM     26  O   UNL     1       6.531  28.626  26.364  1.00  0.00    -0.350 OA
BRANCH  26  27
ATOM     27  C   UNL     1       6.814  29.236  25.170  1.00  0.00     0.169 C 
BRANCH  27  28
ATOM     28  C   UNL     1       7.488  28.328  24.168  1.00  0.00     0.119 C 
BRANCH  28  29
ATOM     29  N   UNL     1       8.783  27.992  24.700  1.00  0.00    -0.092 NA
ATOM     30  N   UNL     1       8.933  26.931  25.300  1.00  0.00     0.001 N 
ATOM     31  N   UNL     1       9.089  26.137  26.230  1.00  0.00    -0.003 NA
ENDBRANCH  28  29
ENDBRANCH  27  28
ENDBRANCH  26  27
ENDBRANCH  20  26
BRANCH  21  32
ATOM     32  O   UNL     1       5.907  25.473  25.634  1.00  0.00    -0.387 OA
ATOM     33  H   UNL     1       6.111  25.389  26.593  1.00  0.00     0.211 HD
ENDBRANCH  21  32
BRANCH  22  34
ATOM     34  O   UNL     1       3.624  28.052  24.697  1.00  0.00    -0.385 OA
ATOM     35  H   UNL     1       3.847  28.969  24.424  1.00  0.00     0.211 HD
ENDBRANCH  22  34
ENDBRANCH  16  17
ENDBRANCH  11  16
BRANCH  13  36
ATOM     36  O   UNL     1      -0.226  23.632  25.665  1.00  0.00    -0.385 OA
ATOM     37  H   UNL     1      -0.627  23.783  26.533  1.00  0.00     0.211 HD
ENDBRANCH  13  36
BRANCH  14  38
ATOM     38  O   UNL     1       2.668  21.623  25.842  1.00  0.00    -0.387 OA
ATOM     39  H   UNL     1       3.168  21.302  26.638  1.00  0.00     0.211 HD
ENDBRANCH  14  38
BRANCH  15  40
ATOM     40  O   UNL     1       1.447  20.617  28.025  1.00  0.00    -0.387 OA
ATOM     41  H   UNL     1       2.216  20.578  28.616  1.00  0.00     0.211 HD
ENDBRANCH  15  40
ENDBRANCH   9  10
ENDBRANCH   8   9
ENDBRANCH   3   8
BRANCH   3  42
ATOM     42  C   UNL     1       2.382  20.215  32.142  1.00  0.00     0.364 C 
ATOM     43  O   UNL     1       1.647  19.661  33.022  1.00  0.00    -0.246 OA
BRANCH  42  44
ATOM     44  O   UNL     1       3.282  19.372  31.514  1.00  0.00    -0.477 OA
ATOM     45  H   UNL     1       4.292  19.550  31.601  1.00  0.00     0.296 HD
ENDBRANCH  42  44
ENDBRANCH   3  42
BRANCH   6  46
ATOM     46  O   UNL     1       0.696  24.368  32.064  1.00  0.00    -0.391 OA
ATOM     47  H   UNL     1       1.020  24.132  31.162  1.00  0.00     0.211 HD
ENDBRANCH   6  46
BRANCH   7  48
ATOM     48  N   UNL     1       3.179  25.185  33.912  1.00  0.00    -0.348 N 
ATOM     49  C   UNL     1       3.014  26.558  33.576  1.00  0.00     0.217 C 
ATOM     50  H   UNL     1       3.480  24.959  34.879  1.00  0.00     0.163 HD
ATOM     51  C   UNL     1       3.248  27.662  34.521  1.00  0.00     0.114 C 
ATOM     52  O   UNL     1       2.641  26.864  32.391  1.00  0.00    -0.275 OA
ENDBRANCH   7  48
ENDBRANCH   1   2
BRANCH   1  53
ATOM     53  O   UNL     1       5.470  24.283  32.040  1.00  0.00    -0.388 OA
ATOM     54  H   UNL     1       4.677  24.436  31.495  1.00  0.00     0.211 HD
ENDBRANCH   1  53
BRANCH   1  55
ATOM     55  C   UNL     1       6.122  22.044  32.524  1.00  0.00     0.165 C 
BRANCH  55  56
ATOM     56  O   UNL     1       5.520  20.914  33.176  1.00  0.00    -0.388 OA
ATOM     57  H   UNL     1       5.029  20.381  32.499  1.00  0.00     0.211 HD
ENDBRANCH  55  56
BRANCH  55  58
ATOM     58  C   UNL     1       7.504  22.108  33.163  1.00  0.00     0.154 C 
BRANCH  58  59
ATOM     59  N   UNL     1       7.418  23.048  34.250  1.00  0.00    -0.319 N 
ATOM     60  C   UNL     1       8.489  23.894  34.642  1.00  0.00     0.407 C 
ATOM     61  H   UNL     1       6.513  23.146  34.816  1.00  0.00     0.167 HD
ATOM     62  O   UNL     1       9.568  23.871  34.037  1.00  0.00    -0.225 OA
BRANCH  60  63
ATOM     63  O   UNL     1       8.365  24.768  35.715  1.00  0.00    -0.443 OA
BRANCH  63  64
ATOM     64  C   UNL     1       8.960  26.032  35.823  1.00  0.00     0.294 C 
BRANCH  64  65
ATOM     65  C   UNL     1       8.648  26.966  34.729  1.00  0.00     0.121 A 
ATOM     66  C   UNL     1       7.371  27.363  34.319  1.00  0.00     0.144 A 
ATOM     67  N   UNL     1       9.476  27.623  33.918  1.00  0.00    -0.131 NA
ATOM     68  N   UNL     1       7.469  28.238  33.286  1.00  0.00    -0.220 N 
ATOM     69  N   UNL     1       8.763  28.376  33.065  1.00  0.00    -0.062 NA
BRANCH  68  70
ATOM     70  C   UNL     1       6.356  28.857  32.617  1.00  0.00     0.066 A 
ATOM     71  C   UNL     1       5.825  28.357  31.463  1.00  0.00     0.030 A 
ATOM     72  C   UNL     1       5.821  30.008  33.167  1.00  0.00     0.030 A 
ATOM     73  C   UNL     1       4.754  29.002  30.846  1.00  0.00     0.024 A 
ATOM     74  C   UNL     1       4.766  30.680  32.597  1.00  0.00     0.024 A 
ATOM     75  C   UNL     1       4.251  30.144  31.424  1.00  0.00     0.088 A 
BRANCH  75  76
ATOM     76  S   UNL     1       2.914  30.979  30.672  1.00  0.00     0.263 S 
ATOM     77  O   UNL     1       1.877  29.939  30.293  1.00  0.00    -0.201 OA
ATOM     78  O   UNL     1       3.436  31.581  29.398  1.00  0.00    -0.201 OA
BRANCH  76  79
ATOM     79  N   UNL     1       2.290  32.157  31.731  1.00  0.00    -0.255 N 
ATOM     80  H   UNL     1       2.814  33.043  31.844  1.00  0.00     0.182 HD
BRANCH  79  81
ATOM     81  C   UNL     1       1.111  31.915  32.416  1.00  0.00     0.196 A 
ATOM     82  N   UNL     1      -0.110  32.285  32.418  1.00  0.00    -0.228 NA
ATOM     83  S   UNL     1       1.058  30.706  33.825  1.00  0.00    -0.105 S 
ATOM     84  C   UNL     1      -1.026  31.871  33.214  1.00  0.00     0.125 A 
ATOM     85  C   UNL     1      -0.719  30.944  34.173  1.00  0.00     0.089 A 
ENDBRANCH  79  81
ENDBRANCH  76  79
ENDBRANCH  75  76
ENDBRANCH  68  70
ENDBRANCH  64  65
ENDBRANCH  63  64
ENDBRANCH  60  63
ENDBRANCH  58  59
ENDBRANCH  55  58
ENDBRANCH   1  55
TORSDOF 33
