REMARK VINA RESULT:    -6.669      4.106      9.629
REMARK INTER + INTRA:         -22.291
REMARK INTER:                 -13.499
REMARK INTRA:                  -8.793
REMARK UNBOUND:                -5.485
REMARK SMILES CC(=O)N[C@@H]1[C@@H](O)C[C@](OC[C@H]2O[C@@H](O[C@H]3[C@H](O)[C@@H](O)[C@H](OCCN=[N+]=[N-])O[C@@H]3CO)[C@H](O)[C@@H](O)[C@H]2O)(C(=O)O)O[C@H]1C(O)[C@H](O)CNC(=O)OCc1cn(Cc2ccc(Br)cc2)nn1
REMARK SMILES IDX 9 1 8 2 6 3 5 4 42 5 41 6 10 7 11 8 12 9 14 10 13 11 32 12
REMARK SMILES IDX 34 13 36 14 15 15 16 16 29 17 28 18 21 19 17 20 19 21 30 22
REMARK SMILES IDX 31 23 22 25 23 26 24 27 25 28 26 29 27 30 18 31 20 33 33 35
REMARK SMILES IDX 35 37 37 39 38 41 39 42 40 43 7 45 43 47 44 48 45 50 46 51
REMARK SMILES IDX 47 53 48 54 49 55 50 57 51 58 52 59 53 60 54 61 65 62 55 63
REMARK SMILES IDX 64 64 56 65 57 66 58 67 63 68 59 69 62 70 60 71 61 72 4 73
REMARK SMILES IDX 2 74 1 76 3 77
REMARK H PARENT 31 24 18 32 20 34 33 36 35 38 37 40 40 44 7 46 44 49 46 52
REMARK H PARENT 48 56 4 75
REMARK Flexibility Score: inf
ROOT
ATOM      1  C   UNL     1      14.353  30.541  21.016  1.00  0.00     0.272 C 
ATOM      2  C   UNL     1      13.505  31.072  22.115  1.00  0.00     0.113 C 
ATOM      3  C   UNL     1      13.991  32.233  22.889  1.00  0.00     0.145 C 
ATOM      4  C   UNL     1      15.524  32.458  22.790  1.00  0.00     0.142 C 
ATOM      5  C   UNL     1      16.038  31.061  22.574  1.00  0.00     0.178 C 
ATOM      6  O   UNL     1      15.717  30.819  21.208  1.00  0.00    -0.332 OA
ENDROOT
BRANCH   1   7
ATOM      7  O   UNL     1      13.969  30.646  19.748  1.00  0.00    -0.338 OA
BRANCH   7   8
ATOM      8  C   UNL     1      13.977  31.539  18.833  1.00  0.00     0.199 C 
BRANCH   8   9
ATOM      9  C   UNL     1      14.770  31.222  17.587  1.00  0.00     0.179 C 
ATOM     10  C   UNL     1      16.823  30.745  16.748  1.00  0.00     0.282 C 
ATOM     11  O   UNL     1      16.124  31.231  17.797  1.00  0.00    -0.341 OA
ATOM     12  C   UNL     1      16.064  30.568  15.446  1.00  0.00     0.202 C 
ATOM     13  C   UNL     1      14.766  29.818  15.655  1.00  0.00     0.179 C 
ATOM     14  C   UNL     1      14.411  29.798  17.134  1.00  0.00     0.177 C 
BRANCH  10  15
ATOM     15  O   UNL     1      17.555  29.620  16.938  1.00  0.00    -0.341 OA
BRANCH  15  16
ATOM     16  C   UNL     1      18.703  29.574  17.627  1.00  0.00     0.184 C 
ATOM     17  C   UNL     1      19.907  29.064  16.903  1.00  0.00     0.178 C 
ATOM     18  O   UNL     1      20.409  27.896  17.407  1.00  0.00    -0.341 OA
ATOM     19  C   UNL     1      20.842  27.977  18.723  1.00  0.00     0.281 C 
ATOM     20  C   UNL     1      18.503  28.748  18.881  1.00  0.00     0.180 C 
ATOM     21  C   UNL     1      19.825  28.675  19.603  1.00  0.00     0.202 C 
BRANCH  17  22
ATOM     22  C   UNL     1      20.952  30.154  16.846  1.00  0.00     0.191 C 
BRANCH  22  23
ATOM     23  O   UNL     1      22.068  29.755  16.081  1.00  0.00    -0.394 OA
ATOM     24  H   UNL     1      21.845  29.698  15.135  1.00  0.00     0.210 HD
ENDBRANCH  22  23
ENDBRANCH  17  22
BRANCH  19  25
ATOM     25  O   UNL     1      22.101  28.535  18.873  1.00  0.00    -0.350 OA
BRANCH  25  26
ATOM     26  C   UNL     1      23.117  27.648  19.109  1.00  0.00     0.169 C 
BRANCH  26  27
ATOM     27  C   UNL     1      22.682  26.213  19.145  1.00  0.00     0.119 C 
BRANCH  27  28
ATOM     28  N   UNL     1      22.803  25.688  20.500  1.00  0.00    -0.092 NA
ATOM     29  N   UNL     1      21.797  25.523  21.187  1.00  0.00     0.001 N 
ATOM     30  N   UNL     1      20.898  25.514  22.059  1.00  0.00    -0.003 NA
ENDBRANCH  27  28
ENDBRANCH  26  27
ENDBRANCH  25  26
ENDBRANCH  19  25
BRANCH  20  31
ATOM     31  O   UNL     1      17.624  29.480  19.705  1.00  0.00    -0.387 OA
ATOM     32  H   UNL     1      17.808  30.455  19.611  1.00  0.00     0.211 HD
ENDBRANCH  20  31
BRANCH  21  33
ATOM     33  O   UNL     1      19.711  28.066  20.848  1.00  0.00    -0.385 OA
ATOM     34  H   UNL     1      18.805  27.667  20.897  1.00  0.00     0.211 HD
ENDBRANCH  21  33
ENDBRANCH  15  16
ENDBRANCH  10  15
BRANCH  12  35
ATOM     35  O   UNL     1      15.802  31.757  14.789  1.00  0.00    -0.385 OA
ATOM     36  H   UNL     1      16.276  31.868  13.933  1.00  0.00     0.211 HD
ENDBRANCH  12  35
BRANCH  13  37
ATOM     37  O   UNL     1      14.790  28.530  15.135  1.00  0.00    -0.387 OA
ATOM     38  H   UNL     1      15.678  28.402  14.719  1.00  0.00     0.211 HD
ENDBRANCH  13  37
BRANCH  14  39
ATOM     39  O   UNL     1      15.253  28.941  17.852  1.00  0.00    -0.387 OA
ATOM     40  H   UNL     1      15.063  28.013  17.609  1.00  0.00     0.211 HD
ENDBRANCH  14  39
ENDBRANCH   8   9
ENDBRANCH   7   8
ENDBRANCH   1   7
BRANCH   1  41
ATOM     41  C   UNL     1      14.334  29.016  21.213  1.00  0.00     0.364 C 
ATOM     42  O   UNL     1      15.271  28.365  20.755  1.00  0.00    -0.246 OA
BRANCH  41  43
ATOM     43  O   UNL     1      13.324  28.369  21.874  1.00  0.00    -0.477 OA
ATOM     44  H   UNL     1      13.491  28.006  22.826  1.00  0.00     0.296 HD
ENDBRANCH  41  43
ENDBRANCH   1  41
BRANCH   3  45
ATOM     45  O   UNL     1      13.305  33.425  22.712  1.00  0.00    -0.391 OA
ATOM     46  H   UNL     1      13.850  34.016  22.149  1.00  0.00     0.211 HD
ENDBRANCH   3  45
BRANCH   5  47
ATOM     47  C   UNL     1      17.483  30.814  22.792  1.00  0.00     0.176 C 
BRANCH  47  48
ATOM     48  O   UNL     1      17.842  29.521  22.604  1.00  0.00    -0.388 OA
ATOM     49  H   UNL     1      17.095  28.912  22.625  1.00  0.00     0.211 HD
ENDBRANCH  47  48
BRANCH  47  50
ATOM     50  C   UNL     1      18.470  31.797  22.318  1.00  0.00     0.165 C 
BRANCH  50  51
ATOM     51  O   UNL     1      18.512  31.888  20.917  1.00  0.00    -0.388 OA
ATOM     52  H   UNL     1      18.884  31.114  20.470  1.00  0.00     0.211 HD
ENDBRANCH  50  51
BRANCH  50  53
ATOM     53  C   UNL     1      19.825  31.827  22.900  1.00  0.00     0.154 C 
BRANCH  53  54
ATOM     54  N   UNL     1      20.541  30.563  22.873  1.00  0.00    -0.319 N 
ATOM     55  C   UNL     1      21.751  30.407  22.149  1.00  0.00     0.407 C 
ATOM     56  H   UNL     1      20.205  29.710  23.384  1.00  0.00     0.167 HD
ATOM     57  O   UNL     1      22.241  31.394  21.513  1.00  0.00    -0.225 OA
BRANCH  55  58
ATOM     58  O   UNL     1      22.458  29.210  22.084  1.00  0.00    -0.443 OA
BRANCH  58  59
ATOM     59  C   UNL     1      23.833  29.161  22.510  1.00  0.00     0.294 C 
BRANCH  59  60
ATOM     60  C   UNL     1      24.250  27.804  22.899  1.00  0.00     0.120 A 
ATOM     61  C   UNL     1      23.610  27.010  23.830  1.00  0.00     0.138 A 
ATOM     62  N   UNL     1      25.294  27.106  22.449  1.00  0.00    -0.132 NA
ATOM     63  N   UNL     1      24.281  25.855  23.917  1.00  0.00    -0.248 N 
ATOM     64  N   UNL     1      25.291  25.943  23.074  1.00  0.00    -0.067 NA
BRANCH  63  65
ATOM     65  C   UNL     1      23.987  24.699  24.740  1.00  0.00     0.181 C 
BRANCH  65  66
ATOM     66  C   UNL     1      23.999  24.981  26.193  1.00  0.00    -0.026 A 
ATOM     67  C   UNL     1      22.870  24.629  26.937  1.00  0.00     0.007 A 
ATOM     68  C   UNL     1      25.048  25.549  26.858  1.00  0.00     0.007 A 
ATOM     69  C   UNL     1      22.837  24.858  28.303  1.00  0.00     0.016 A 
ATOM     70  C   UNL     1      25.028  25.784  28.234  1.00  0.00     0.016 A 
ATOM     71  C   UNL     1      23.915  25.435  28.950  1.00  0.00     0.017 A 
ATOM     72  Br  UNL     1      23.834  25.734  30.849  1.00  0.00    -0.051 Br
ENDBRANCH  65  66
ENDBRANCH  63  65
ENDBRANCH  59  60
ENDBRANCH  58  59
ENDBRANCH  55  58
ENDBRANCH  53  54
ENDBRANCH  50  53
ENDBRANCH  47  50
ENDBRANCH   5  47
BRANCH   4  73
ATOM     73  N   UNL     1      15.979  33.146  23.942  1.00  0.00    -0.348 N 
ATOM     74  C   UNL     1      16.229  34.539  23.897  1.00  0.00     0.217 C 
ATOM     75  H   UNL     1      16.116  32.641  24.834  1.00  0.00     0.163 HD
ATOM     76  C   UNL     1      16.693  35.351  25.025  1.00  0.00     0.114 C 
ATOM     77  O   UNL     1      16.035  35.149  22.785  1.00  0.00    -0.275 OA
ENDBRANCH   4  73
TORSDOF 31
