REMARK VINA RESULT:    -6.316      4.446      7.861
REMARK INTER + INTRA:         -23.319
REMARK INTER:                 -14.369
REMARK INTRA:                  -8.950
REMARK UNBOUND:                -7.033
REMARK SMILES CC(=O)N[C@@H]1[C@@H](O)C[C@](OC[C@H]2O[C@@H](O[C@H]3[C@H](O)[C@@H](O)[C@H](OCCN=[N+]=[N-])O[C@@H]3CO)[C@H](O)[C@@H](O)[C@H]2O)(C(=O)O)O[C@H]1C(O)[C@H](O)CNC(=O)OCc1cn(C(C)(C)C(=O)c2c[nH]c3ccccc23)nn1
REMARK SMILES IDX 9 1 8 2 6 3 5 4 42 5 41 6 10 7 11 8 12 9 14 10 13 11 32 12
REMARK SMILES IDX 34 13 36 14 15 15 16 16 29 17 28 18 21 19 17 20 19 21 30 22
REMARK SMILES IDX 31 23 22 25 23 26 24 27 25 28 26 29 27 30 18 31 20 33 33 35
REMARK SMILES IDX 35 37 37 39 38 41 39 42 40 43 7 45 43 47 44 48 45 50 46 51
REMARK SMILES IDX 47 53 48 54 49 55 50 57 51 58 52 59 53 60 54 61 71 62 55 63
REMARK SMILES IDX 70 64 56 65 57 66 58 67 59 68 60 69 61 70 62 71 69 72 63 73
REMARK SMILES IDX 64 74 68 75 65 77 67 78 66 79 4 80 2 81 1 83 3 84
REMARK H PARENT 31 24 18 32 20 34 33 36 35 38 37 40 40 44 7 46 44 49 46 52
REMARK H PARENT 48 56 63 76 4 82
REMARK Flexibility Score: inf
ROOT
ATOM      1  C   UNL     1      21.022  29.967  19.469  1.00  0.00     0.272 C 
ATOM      2  C   UNL     1      21.687  28.651  19.099  1.00  0.00     0.113 C 
ATOM      3  C   UNL     1      21.583  27.639  20.212  1.00  0.00     0.145 C 
ATOM      4  C   UNL     1      22.463  28.135  21.412  1.00  0.00     0.142 C 
ATOM      5  C   UNL     1      22.307  29.621  21.414  1.00  0.00     0.178 C 
ATOM      6  O   UNL     1      21.099  29.993  20.863  1.00  0.00    -0.332 OA
ENDROOT
BRANCH   1   7
ATOM      7  O   UNL     1      19.780  30.173  19.024  1.00  0.00    -0.338 OA
BRANCH   7   8
ATOM      8  C   UNL     1      19.168  30.033  17.896  1.00  0.00     0.199 C 
BRANCH   8   9
ATOM      9  C   UNL     1      18.332  28.758  17.765  1.00  0.00     0.179 C 
ATOM     10  C   UNL     1      16.485  29.308  19.149  1.00  0.00     0.282 C 
ATOM     11  O   UNL     1      17.570  28.556  18.865  1.00  0.00    -0.341 OA
ATOM     12  C   UNL     1      15.597  29.579  17.966  1.00  0.00     0.202 C 
ATOM     13  C   UNL     1      16.045  28.735  16.778  1.00  0.00     0.179 C 
ATOM     14  C   UNL     1      17.498  28.856  16.517  1.00  0.00     0.177 C 
BRANCH  10  15
ATOM     15  O   UNL     1      16.862  30.516  19.709  1.00  0.00    -0.341 OA
BRANCH  15  16
ATOM     16  C   UNL     1      16.500  30.652  21.018  1.00  0.00     0.184 C 
ATOM     17  C   UNL     1      15.837  31.917  21.424  1.00  0.00     0.178 C 
ATOM     18  O   UNL     1      15.177  31.651  22.641  1.00  0.00    -0.341 OA
ATOM     19  C   UNL     1      16.017  31.305  23.659  1.00  0.00     0.281 C 
ATOM     20  C   UNL     1      17.647  30.417  21.981  1.00  0.00     0.180 C 
ATOM     21  C   UNL     1      17.002  30.203  23.333  1.00  0.00     0.202 C 
BRANCH  17  22
ATOM     22  C   UNL     1      14.754  32.392  20.476  1.00  0.00     0.191 C 
BRANCH  22  23
ATOM     23  O   UNL     1      13.569  32.486  21.216  1.00  0.00    -0.394 OA
ATOM     24  H   UNL     1      12.870  33.000  20.750  1.00  0.00     0.210 HD
ENDBRANCH  22  23
ENDBRANCH  17  22
BRANCH  19  25
ATOM     25  O   UNL     1      15.233  30.816  24.709  1.00  0.00    -0.350 OA
BRANCH  25  26
ATOM     26  C   UNL     1      14.486  29.753  24.239  1.00  0.00     0.169 C 
BRANCH  26  27
ATOM     27  C   UNL     1      13.013  30.060  24.186  1.00  0.00     0.119 C 
BRANCH  27  28
ATOM     28  N   UNL     1      12.353  29.517  23.019  1.00  0.00    -0.092 NA
ATOM     29  N   UNL     1      12.999  29.235  21.990  1.00  0.00     0.001 N 
ATOM     30  N   UNL     1      13.704  28.553  21.243  1.00  0.00    -0.003 NA
ENDBRANCH  27  28
ENDBRANCH  26  27
ENDBRANCH  25  26
ENDBRANCH  19  25
BRANCH  20  31
ATOM     31  O   UNL     1      18.413  29.323  21.652  1.00  0.00    -0.387 OA
ATOM     32  H   UNL     1      17.873  28.516  21.791  1.00  0.00     0.211 HD
ENDBRANCH  20  31
BRANCH  21  33
ATOM     33  O   UNL     1      18.008  30.253  24.297  1.00  0.00    -0.385 OA
ATOM     34  H   UNL     1      17.900  29.543  24.986  1.00  0.00     0.211 HD
ENDBRANCH  21  33
ENDBRANCH  15  16
ENDBRANCH  10  15
BRANCH  12  35
ATOM     35  O   UNL     1      14.241  29.377  18.222  1.00  0.00    -0.385 OA
ATOM     36  H   UNL     1      13.973  29.914  18.997  1.00  0.00     0.211 HD
ENDBRANCH  12  35
BRANCH  13  37
ATOM     37  O   UNL     1      15.285  29.215  15.686  1.00  0.00    -0.387 OA
ATOM     38  H   UNL     1      15.455  30.177  15.536  1.00  0.00     0.211 HD
ENDBRANCH  13  37
BRANCH  14  39
ATOM     39  O   UNL     1      17.793  30.109  15.923  1.00  0.00    -0.387 OA
ATOM     40  H   UNL     1      17.821  30.806  16.629  1.00  0.00     0.211 HD
ENDBRANCH  14  39
ENDBRANCH   8   9
ENDBRANCH   7   8
ENDBRANCH   1   7
BRANCH   1  41
ATOM     41  C   UNL     1      21.856  31.057  18.917  1.00  0.00     0.364 C 
ATOM     42  O   UNL     1      21.603  32.242  19.255  1.00  0.00    -0.246 OA
BRANCH  41  43
ATOM     43  O   UNL     1      22.887  30.861  18.054  1.00  0.00    -0.477 OA
ATOM     44  H   UNL     1      23.859  31.128  18.190  1.00  0.00     0.296 HD
ENDBRANCH  41  43
ENDBRANCH   1  41
BRANCH   3  45
ATOM     45  O   UNL     1      20.335  27.496  20.771  1.00  0.00    -0.391 OA
ATOM     46  H   UNL     1      20.136  28.172  21.480  1.00  0.00     0.211 HD
ENDBRANCH   3  45
BRANCH   5  47
ATOM     47  C   UNL     1      22.413  30.319  22.720  1.00  0.00     0.176 C 
BRANCH  47  48
ATOM     48  O   UNL     1      22.554  29.468  23.792  1.00  0.00    -0.388 OA
ATOM     49  H   UNL     1      22.219  28.541  23.638  1.00  0.00     0.211 HD
ENDBRANCH  47  48
BRANCH  47  50
ATOM     50  C   UNL     1      23.311  31.536  22.772  1.00  0.00     0.165 C 
BRANCH  50  51
ATOM     51  O   UNL     1      22.967  32.503  21.886  1.00  0.00    -0.388 OA
ATOM     52  H   UNL     1      22.187  33.010  22.157  1.00  0.00     0.211 HD
ENDBRANCH  50  51
BRANCH  50  53
ATOM     53  C   UNL     1      24.731  31.074  22.765  1.00  0.00     0.154 C 
BRANCH  53  54
ATOM     54  N   UNL     1      25.191  30.352  23.891  1.00  0.00    -0.319 N 
ATOM     55  C   UNL     1      25.929  30.942  24.975  1.00  0.00     0.407 C 
ATOM     56  H   UNL     1      24.999  29.308  23.975  1.00  0.00     0.167 HD
ATOM     57  O   UNL     1      26.232  32.153  24.976  1.00  0.00    -0.225 OA
BRANCH  55  58
ATOM     58  O   UNL     1      26.329  30.180  26.056  1.00  0.00    -0.443 OA
BRANCH  58  59
ATOM     59  C   UNL     1      27.006  28.965  25.903  1.00  0.00     0.294 C 
BRANCH  59  60
ATOM     60  C   UNL     1      26.163  27.885  26.504  1.00  0.00     0.120 A 
ATOM     61  C   UNL     1      24.757  27.846  26.474  1.00  0.00     0.139 A 
ATOM     62  N   UNL     1      26.505  26.787  27.190  1.00  0.00    -0.132 NA
ATOM     63  N   UNL     1      24.324  26.759  27.126  1.00  0.00    -0.239 N 
ATOM     64  N   UNL     1      25.391  26.127  27.553  1.00  0.00    -0.066 NA
BRANCH  63  65
ATOM     65  C   UNL     1      22.934  26.391  27.297  1.00  0.00     0.122 C 
ATOM     66  C   UNL     1      22.094  27.590  26.735  1.00  0.00     0.046 C 
ATOM     67  C   UNL     1      22.503  26.312  28.743  1.00  0.00     0.046 C 
BRANCH  65  68
ATOM     68  C   UNL     1      22.569  25.228  26.511  1.00  0.00     0.192 C 
ATOM     69  O   UNL     1      22.516  24.115  27.195  1.00  0.00    -0.291 OA
BRANCH  68  70
ATOM     70  C   UNL     1      22.259  25.093  25.121  1.00  0.00     0.045 A 
ATOM     71  C   UNL     1      20.998  25.373  24.578  1.00  0.00     0.095 A 
ATOM     72  C   UNL     1      23.049  24.668  24.073  1.00  0.00     0.010 A 
ATOM     73  N   UNL     1      21.050  25.123  23.284  1.00  0.00    -0.360 N 
ATOM     74  C   UNL     1      22.259  24.695  22.920  1.00  0.00     0.046 A 
ATOM     75  C   UNL     1      24.347  24.256  23.946  1.00  0.00     0.011 A 
ATOM     76  H   UNL     1      20.219  25.255  22.641  1.00  0.00     0.166 HD
ATOM     77  C   UNL     1      22.769  24.319  21.690  1.00  0.00     0.027 A 
ATOM     78  C   UNL     1      24.857  23.877  22.705  1.00  0.00     0.001 A 
ATOM     79  C   UNL     1      24.068  23.911  21.593  1.00  0.00     0.002 A 
ENDBRANCH  68  70
ENDBRANCH  65  68
ENDBRANCH  63  65
ENDBRANCH  59  60
ENDBRANCH  58  59
ENDBRANCH  55  58
ENDBRANCH  53  54
ENDBRANCH  50  53
ENDBRANCH  47  50
ENDBRANCH   5  47
BRANCH   4  80
ATOM     80  N   UNL     1      23.809  27.755  20.992  1.00  0.00    -0.348 N 
ATOM     81  C   UNL     1      24.870  27.475  21.890  1.00  0.00     0.217 C 
ATOM     82  H   UNL     1      24.017  27.684  19.959  1.00  0.00     0.163 HD
ATOM     83  C   UNL     1      26.240  27.092  21.458  1.00  0.00     0.114 C 
ATOM     84  O   UNL     1      24.595  27.567  23.135  1.00  0.00    -0.275 OA
ENDBRANCH   4  80
TORSDOF 32
