REMARK VINA RESULT:    -5.067      8.650     13.357
REMARK INTER + INTRA:         -21.852
REMARK INTER:                 -14.528
REMARK INTRA:                  -7.324
REMARK UNBOUND:                -8.936
REMARK SMILES CC(=O)N[C@@H]1[C@@H](O)C[C@](OC[C@H]2O[C@@H](O[C@H]3[C@H](O)[C@@H](O)[C@H](OCCN=[N+]=[N-])O[C@@H]3CO)[C@H](O)[C@@H](O)[C@H]2O)(C(=O)O)O[C@H]1C(O)[C@H](O)CNC(=O)OCc1cn(-c2ccc(S(N)(=O)=O)cc2)nn1
REMARK SMILES IDX 9 1 8 2 6 3 5 4 42 5 41 6 10 7 11 8 12 9 14 10 13 11 32 12
REMARK SMILES IDX 34 13 36 14 15 15 16 16 29 17 28 18 21 19 17 20 19 21 30 22
REMARK SMILES IDX 31 23 22 25 23 26 24 27 25 28 26 29 27 30 18 31 20 33 33 35
REMARK SMILES IDX 35 37 37 39 38 41 39 42 40 43 7 45 43 47 44 48 45 50 46 51
REMARK SMILES IDX 47 53 48 54 49 55 50 57 51 58 52 59 53 60 54 61 67 62 55 63
REMARK SMILES IDX 66 64 56 65 57 66 65 67 58 68 64 69 59 70 60 71 62 72 63 73
REMARK SMILES IDX 61 74 4 77 2 78 1 80 3 81
REMARK H PARENT 31 24 18 32 20 34 33 36 35 38 37 40 40 44 7 46 44 49 46 52
REMARK H PARENT 48 56 61 75 61 76 4 79
REMARK Flexibility Score: inf
ROOT
ATOM      1  C   UNL     1      24.801  27.353  21.542  1.00  0.00     0.272 C 
ATOM      2  C   UNL     1      25.277  28.798  21.767  1.00  0.00     0.113 C 
ATOM      3  C   UNL     1      24.441  29.515  22.766  1.00  0.00     0.145 C 
ATOM      4  C   UNL     1      22.996  29.139  22.563  1.00  0.00     0.142 C 
ATOM      5  C   UNL     1      22.912  28.630  21.119  1.00  0.00     0.178 C 
ATOM      6  O   UNL     1      23.487  27.361  21.139  1.00  0.00    -0.332 OA
ENDROOT
BRANCH   1   7
ATOM      7  O   UNL     1      25.031  26.696  22.744  1.00  0.00    -0.338 OA
BRANCH   7   8
ATOM      8  C   UNL     1      24.727  25.364  22.730  1.00  0.00     0.199 C 
BRANCH   8   9
ATOM      9  C   UNL     1      23.760  25.100  23.898  1.00  0.00     0.179 C 
ATOM     10  C   UNL     1      22.611  26.395  25.470  1.00  0.00     0.282 C 
ATOM     11  O   UNL     1      23.792  26.204  24.688  1.00  0.00    -0.341 OA
ATOM     12  C   UNL     1      21.557  26.686  24.442  1.00  0.00     0.202 C 
ATOM     13  C   UNL     1      21.257  25.424  23.642  1.00  0.00     0.179 C 
ATOM     14  C   UNL     1      22.456  24.567  23.463  1.00  0.00     0.177 C 
BRANCH  10  15
ATOM     15  O   UNL     1      22.835  27.456  26.276  1.00  0.00    -0.341 OA
BRANCH  15  16
ATOM     16  C   UNL     1      23.093  27.135  27.634  1.00  0.00     0.184 C 
ATOM     17  C   UNL     1      24.490  26.726  27.747  1.00  0.00     0.178 C 
ATOM     18  O   UNL     1      24.768  25.659  28.578  1.00  0.00    -0.341 OA
ATOM     19  C   UNL     1      23.877  25.414  29.584  1.00  0.00     0.281 C 
ATOM     20  C   UNL     1      22.069  26.130  28.110  1.00  0.00     0.180 C 
ATOM     21  C   UNL     1      22.570  25.021  28.949  1.00  0.00     0.202 C 
BRANCH  17  22
ATOM     22  C   UNL     1      25.433  27.838  28.156  1.00  0.00     0.191 C 
BRANCH  22  23
ATOM     23  O   UNL     1      24.844  28.652  29.114  1.00  0.00    -0.394 OA
ATOM     24  H   UNL     1      25.515  29.169  29.626  1.00  0.00     0.210 HD
ENDBRANCH  22  23
ENDBRANCH  17  22
BRANCH  19  25
ATOM     25  O   UNL     1      23.735  26.407  30.524  1.00  0.00    -0.350 OA
BRANCH  25  26
ATOM     26  C   UNL     1      24.304  26.014  31.729  1.00  0.00     0.169 C 
BRANCH  26  27
ATOM     27  C   UNL     1      25.272  27.109  32.168  1.00  0.00     0.119 C 
BRANCH  27  28
ATOM     28  N   UNL     1      26.502  26.937  31.447  1.00  0.00    -0.092 NA
ATOM     29  N   UNL     1      27.069  25.825  31.356  1.00  0.00     0.001 N 
ATOM     30  N   UNL     1      27.927  24.992  31.694  1.00  0.00    -0.003 NA
ENDBRANCH  27  28
ENDBRANCH  26  27
ENDBRANCH  25  26
ENDBRANCH  19  25
BRANCH  20  31
ATOM     31  O   UNL     1      21.035  26.760  28.808  1.00  0.00    -0.387 OA
ATOM     32  H   UNL     1      21.059  27.726  28.618  1.00  0.00     0.211 HD
ENDBRANCH  20  31
BRANCH  21  33
ATOM     33  O   UNL     1      22.721  23.815  28.273  1.00  0.00    -0.385 OA
ATOM     34  H   UNL     1      23.371  24.025  27.527  1.00  0.00     0.211 HD
ENDBRANCH  21  33
ENDBRANCH  15  16
ENDBRANCH  10  15
BRANCH  12  35
ATOM     35  O   UNL     1      20.434  27.305  24.907  1.00  0.00    -0.385 OA
ATOM     36  H   UNL     1      19.753  26.716  25.286  1.00  0.00     0.211 HD
ENDBRANCH  12  35
BRANCH  13  37
ATOM     37  O   UNL     1      20.560  25.714  22.481  1.00  0.00    -0.387 OA
ATOM     38  H   UNL     1      19.866  25.068  22.235  1.00  0.00     0.211 HD
ENDBRANCH  13  37
BRANCH  14  39
ATOM     39  O   UNL     1      22.557  24.277  22.080  1.00  0.00    -0.387 OA
ATOM     40  H   UNL     1      22.125  25.056  21.623  1.00  0.00     0.211 HD
ENDBRANCH  14  39
ENDBRANCH   8   9
ENDBRANCH   7   8
ENDBRANCH   1   7
BRANCH   1  41
ATOM     41  C   UNL     1      25.727  26.832  20.469  1.00  0.00     0.364 C 
ATOM     42  O   UNL     1      26.937  27.165  20.440  1.00  0.00    -0.246 OA
BRANCH  41  43
ATOM     43  O   UNL     1      25.275  25.971  19.488  1.00  0.00    -0.477 OA
ATOM     44  H   UNL     1      24.617  26.326  18.811  1.00  0.00     0.296 HD
ENDBRANCH  41  43
ENDBRANCH   1  41
BRANCH   3  45
ATOM     45  O   UNL     1      24.915  29.217  24.041  1.00  0.00    -0.391 OA
ATOM     46  H   UNL     1      25.164  30.055  24.497  1.00  0.00     0.211 HD
ENDBRANCH   3  45
BRANCH   5  47
ATOM     47  C   UNL     1      21.480  28.514  20.672  1.00  0.00     0.176 C 
BRANCH  47  48
ATOM     48  O   UNL     1      20.887  29.718  20.355  1.00  0.00    -0.388 OA
ATOM     49  H   UNL     1      21.323  30.176  19.593  1.00  0.00     0.211 HD
ENDBRANCH  47  48
BRANCH  47  50
ATOM     50  C   UNL     1      21.371  27.567  19.499  1.00  0.00     0.165 C 
BRANCH  50  51
ATOM     51  O   UNL     1      21.586  26.238  19.923  1.00  0.00    -0.388 OA
ATOM     52  H   UNL     1      20.799  25.913  20.446  1.00  0.00     0.211 HD
ENDBRANCH  50  51
BRANCH  50  53
ATOM     53  C   UNL     1      22.343  27.915  18.400  1.00  0.00     0.154 C 
BRANCH  53  54
ATOM     54  N   UNL     1      23.009  26.745  17.878  1.00  0.00    -0.319 N 
ATOM     55  C   UNL     1      22.575  26.177  16.652  1.00  0.00     0.407 C 
ATOM     56  H   UNL     1      23.804  26.292  18.368  1.00  0.00     0.167 HD
ATOM     57  O   UNL     1      21.604  26.715  16.044  1.00  0.00    -0.225 OA
BRANCH  55  58
ATOM     58  O   UNL     1      23.148  25.061  16.066  1.00  0.00    -0.443 OA
BRANCH  58  59
ATOM     59  C   UNL     1      24.352  25.120  15.340  1.00  0.00     0.294 C 
BRANCH  59  60
ATOM     60  C   UNL     1      25.478  24.749  16.239  1.00  0.00     0.121 A 
ATOM     61  C   UNL     1      25.761  23.462  16.712  1.00  0.00     0.144 A 
ATOM     62  N   UNL     1      26.436  25.518  16.783  1.00  0.00    -0.131 NA
ATOM     63  N   UNL     1      26.858  23.513  17.507  1.00  0.00    -0.220 N 
ATOM     64  N   UNL     1      27.243  24.754  17.533  1.00  0.00    -0.062 NA
BRANCH  63  65
ATOM     65  C   UNL     1      27.471  22.413  18.189  1.00  0.00     0.066 A 
ATOM     66  C   UNL     1      27.848  21.276  17.512  1.00  0.00     0.030 A 
ATOM     67  C   UNL     1      27.705  22.460  19.546  1.00  0.00     0.030 A 
ATOM     68  C   UNL     1      28.447  20.208  18.179  1.00  0.00     0.024 A 
ATOM     69  C   UNL     1      28.303  21.399  20.221  1.00  0.00     0.024 A 
ATOM     70  C   UNL     1      28.680  20.259  19.539  1.00  0.00     0.082 A 
BRANCH  70  71
ATOM     71  S   UNL     1      29.440  18.892  20.352  1.00  0.00     0.238 S 
ATOM     72  O   UNL     1      30.519  19.359  21.298  1.00  0.00    -0.207 OA
ATOM     73  O   UNL     1      28.431  18.142  21.166  1.00  0.00    -0.207 OA
BRANCH  71  74
ATOM     74  N   UNL     1      30.137  17.797  19.200  1.00  0.00    -0.225 NA
ATOM     75  H   UNL     1      30.995  18.269  18.796  1.00  0.00     0.137 HD
ATOM     76  H   UNL     1      29.466  17.545  18.437  1.00  0.00     0.137 HD
ENDBRANCH  71  74
ENDBRANCH  70  71
ENDBRANCH  63  65
ENDBRANCH  59  60
ENDBRANCH  58  59
ENDBRANCH  55  58
ENDBRANCH  53  54
ENDBRANCH  50  53
ENDBRANCH  47  50
ENDBRANCH   5  47
BRANCH   4  77
ATOM     77  N   UNL     1      22.064  30.213  22.782  1.00  0.00    -0.348 N 
ATOM     78  C   UNL     1      21.689  30.573  24.094  1.00  0.00     0.217 C 
ATOM     79  H   UNL     1      21.659  30.739  21.986  1.00  0.00     0.163 HD
ATOM     80  C   UNL     1      20.725  31.685  24.278  1.00  0.00     0.114 C 
ATOM     81  O   UNL     1      22.133  29.993  25.111  1.00  0.00    -0.275 OA
ENDBRANCH   4  77
TORSDOF 32
