REMARK VINA RESULT:    -6.389      7.113     11.658
REMARK INTER + INTRA:         -21.451
REMARK INTER:                 -16.088
REMARK INTRA:                  -5.363
REMARK UNBOUND:                -5.351
REMARK SMILES CC(=O)N[C@@H]1[C@@H](O)C[C@](OC[C@H]2O[C@@H](O[C@H]3[C@H](O)[C@@H](O)[C@H](OCCN=[N+]=[N-])O[C@@H]3CO)[C@H](O)[C@@H](O)[C@H]2O)(C(=O)O)O[C@H]1C(O)[C@H](O)CNC(=O)OCc1cn(-c2ccc([N+](=O)[O-])cc2)nn1
REMARK SMILES IDX 9 1 8 2 6 3 5 4 42 5 41 6 10 7 11 8 12 9 14 10 13 11 32 12
REMARK SMILES IDX 34 13 36 14 15 15 16 16 29 17 28 18 21 19 17 20 19 21 30 22
REMARK SMILES IDX 31 23 22 25 23 26 24 27 25 28 26 29 27 30 18 31 20 33 33 35
REMARK SMILES IDX 35 37 37 39 38 41 39 42 40 43 7 45 43 47 44 48 45 50 46 51
REMARK SMILES IDX 47 53 48 54 49 55 50 57 51 58 52 59 53 60 54 61 66 62 55 63
REMARK SMILES IDX 65 64 56 65 57 66 64 67 58 68 63 69 59 70 60 71 61 72 62 73
REMARK SMILES IDX 4 74 2 75 1 77 3 78
REMARK H PARENT 31 24 18 32 20 34 33 36 35 38 37 40 40 44 7 46 44 49 46 52
REMARK H PARENT 48 56 4 76
REMARK Flexibility Score: inf
ROOT
ATOM      1  C   UNL     1      29.132  20.039  20.218  1.00  0.00     0.272 C 
ATOM      2  C   UNL     1      28.715  18.786  19.519  1.00  0.00     0.113 C 
ATOM      3  C   UNL     1      28.715  18.991  18.065  1.00  0.00     0.145 C 
ATOM      4  C   UNL     1      28.811  20.454  17.594  1.00  0.00     0.142 C 
ATOM      5  C   UNL     1      28.079  21.300  18.526  1.00  0.00     0.178 C 
ATOM      6  O   UNL     1      28.235  21.039  19.884  1.00  0.00    -0.332 OA
ENDROOT
BRANCH   1   7
ATOM      7  O   UNL     1      30.437  20.391  20.072  1.00  0.00    -0.338 OA
BRANCH   7   8
ATOM      8  C   UNL     1      30.925  21.319  20.935  1.00  0.00     0.199 C 
BRANCH   8   9
ATOM      9  C   UNL     1      32.424  21.155  21.153  1.00  0.00     0.179 C 
ATOM     10  C   UNL     1      32.800  19.123  22.249  1.00  0.00     0.282 C 
ATOM     11  O   UNL     1      32.734  20.480  22.304  1.00  0.00    -0.341 OA
ATOM     12  C   UNL     1      32.595  18.455  20.951  1.00  0.00     0.202 C 
ATOM     13  C   UNL     1      33.239  19.222  19.826  1.00  0.00     0.179 C 
ATOM     14  C   UNL     1      33.184  20.702  19.958  1.00  0.00     0.177 C 
BRANCH  10  15
ATOM     15  O   UNL     1      32.010  18.624  23.279  1.00  0.00    -0.341 OA
BRANCH  15  16
ATOM     16  C   UNL     1      32.376  18.928  24.547  1.00  0.00     0.184 C 
ATOM     17  C   UNL     1      32.581  17.725  25.441  1.00  0.00     0.178 C 
ATOM     18  O   UNL     1      32.896  18.188  26.735  1.00  0.00    -0.341 OA
ATOM     19  C   UNL     1      31.744  18.710  27.323  1.00  0.00     0.281 C 
ATOM     20  C   UNL     1      31.176  19.663  25.177  1.00  0.00     0.180 C 
ATOM     21  C   UNL     1      31.518  20.046  26.604  1.00  0.00     0.202 C 
BRANCH  17  22
ATOM     22  C   UNL     1      33.724  16.835  25.029  1.00  0.00     0.191 C 
BRANCH  22  23
ATOM     23  O   UNL     1      34.776  17.146  25.926  1.00  0.00    -0.394 OA
ATOM     24  H   UNL     1      34.484  17.839  26.576  1.00  0.00     0.210 HD
ENDBRANCH  22  23
ENDBRANCH  17  22
BRANCH  19  25
ATOM     25  O   UNL     1      31.958  18.966  28.652  1.00  0.00    -0.350 OA
BRANCH  25  26
ATOM     26  C   UNL     1      32.075  17.868  29.466  1.00  0.00     0.169 C 
BRANCH  26  27
ATOM     27  C   UNL     1      32.934  18.066  30.683  1.00  0.00     0.119 C 
BRANCH  27  28
ATOM     28  N   UNL     1      34.059  17.131  30.607  1.00  0.00    -0.092 NA
ATOM     29  N   UNL     1      34.775  17.131  29.616  1.00  0.00     0.001 N 
ATOM     30  N   UNL     1      35.600  17.314  28.736  1.00  0.00    -0.003 NA
ENDBRANCH  27  28
ENDBRANCH  26  27
ENDBRANCH  25  26
ENDBRANCH  19  25
BRANCH  20  31
ATOM     31  O   UNL     1      30.763  20.721  24.417  1.00  0.00    -0.387 OA
ATOM     32  H   UNL     1      31.465  21.339  24.132  1.00  0.00     0.211 HD
ENDBRANCH  20  31
BRANCH  21  33
ATOM     33  O   UNL     1      30.493  20.767  27.153  1.00  0.00    -0.385 OA
ATOM     34  H   UNL     1      29.921  21.117  26.429  1.00  0.00     0.211 HD
ENDBRANCH  21  33
ENDBRANCH  15  16
ENDBRANCH  10  15
BRANCH  12  35
ATOM     35  O   UNL     1      33.271  17.219  20.965  1.00  0.00    -0.385 OA
ATOM     36  H   UNL     1      34.025  17.223  21.584  1.00  0.00     0.211 HD
ENDBRANCH  12  35
BRANCH  13  37
ATOM     37  O   UNL     1      32.678  18.787  18.601  1.00  0.00    -0.387 OA
ATOM     38  H   UNL     1      33.392  18.373  18.087  1.00  0.00     0.211 HD
ENDBRANCH  13  37
BRANCH  14  39
ATOM     39  O   UNL     1      32.733  21.373  18.829  1.00  0.00    -0.387 OA
ATOM     40  H   UNL     1      32.036  22.017  19.132  1.00  0.00     0.211 HD
ENDBRANCH  14  39
ENDBRANCH   8   9
ENDBRANCH   7   8
ENDBRANCH   1   7
BRANCH   1  41
ATOM     41  C   UNL     1      28.857  19.848  21.695  1.00  0.00     0.364 C 
ATOM     42  O   UNL     1      28.227  20.713  22.333  1.00  0.00    -0.246 OA
BRANCH  41  43
ATOM     43  O   UNL     1      29.310  18.724  22.327  1.00  0.00    -0.477 OA
ATOM     44  H   UNL     1      30.187  18.653  22.835  1.00  0.00     0.296 HD
ENDBRANCH  41  43
ENDBRANCH   1  41
BRANCH   3  45
ATOM     45  O   UNL     1      29.779  18.324  17.462  1.00  0.00    -0.391 OA
ATOM     46  H   UNL     1      29.494  17.464  17.096  1.00  0.00     0.211 HD
ENDBRANCH   3  45
BRANCH   5  47
ATOM     47  C   UNL     1      28.085  22.763  18.441  1.00  0.00     0.176 C 
BRANCH  47  48
ATOM     48  O   UNL     1      27.881  23.313  17.172  1.00  0.00    -0.388 OA
ATOM     49  H   UNL     1      27.435  22.727  16.537  1.00  0.00     0.211 HD
ENDBRANCH  47  48
BRANCH  47  50
ATOM     50  C   UNL     1      27.262  23.588  19.376  1.00  0.00     0.165 C 
BRANCH  50  51
ATOM     51  O   UNL     1      27.085  23.098  20.633  1.00  0.00    -0.388 OA
ATOM     52  H   UNL     1      26.546  23.700  21.210  1.00  0.00     0.211 HD
ENDBRANCH  50  51
BRANCH  50  53
ATOM     53  C   UNL     1      26.074  24.231  18.713  1.00  0.00     0.154 C 
BRANCH  53  54
ATOM     54  N   UNL     1      25.007  24.603  19.604  1.00  0.00    -0.319 N 
ATOM     55  C   UNL     1      23.645  24.694  19.231  1.00  0.00     0.407 C 
ATOM     56  H   UNL     1      25.213  24.830  20.613  1.00  0.00     0.167 HD
ATOM     57  O   UNL     1      23.311  24.454  18.067  1.00  0.00    -0.225 OA
BRANCH  55  58
ATOM     58  O   UNL     1      22.654  25.054  20.146  1.00  0.00    -0.443 OA
BRANCH  58  59
ATOM     59  C   UNL     1      22.182  24.217  21.168  1.00  0.00     0.294 C 
BRANCH  59  60
ATOM     60  C   UNL     1      23.037  24.329  22.368  1.00  0.00     0.121 A 
ATOM     61  C   UNL     1      22.664  24.666  23.668  1.00  0.00     0.144 A 
ATOM     62  N   UNL     1      24.382  24.107  22.456  1.00  0.00    -0.131 NA
ATOM     63  N   UNL     1      23.746  24.638  24.468  1.00  0.00    -0.220 N 
ATOM     64  N   UNL     1      24.762  24.298  23.707  1.00  0.00    -0.062 NA
BRANCH  63  65
ATOM     65  C   UNL     1      23.792  24.907  25.874  1.00  0.00     0.067 A 
ATOM     66  C   UNL     1      24.859  25.502  26.503  1.00  0.00     0.035 A 
ATOM     67  C   UNL     1      22.712  24.548  26.668  1.00  0.00     0.035 A 
ATOM     68  C   UNL     1      24.856  25.732  27.878  1.00  0.00     0.088 A 
ATOM     69  C   UNL     1      22.705  24.775  28.028  1.00  0.00     0.088 A 
ATOM     70  C   UNL     1      23.775  25.371  28.661  1.00  0.00     0.269 A 
BRANCH  70  71
ATOM     71  N   UNL     1      23.784  25.609  30.064  1.00  0.00     0.062 N 
ATOM     72  O   UNL     1      24.481  24.976  30.874  1.00  0.00    -0.258 OA
ATOM     73  O   UNL     1      22.968  26.599  30.550  1.00  0.00    -0.258 OA
ENDBRANCH  70  71
ENDBRANCH  63  65
ENDBRANCH  59  60
ENDBRANCH  58  59
ENDBRANCH  55  58
ENDBRANCH  53  54
ENDBRANCH  50  53
ENDBRANCH  47  50
ENDBRANCH   5  47
BRANCH   4  74
ATOM     74  N   UNL     1      28.079  20.373  16.319  1.00  0.00    -0.348 N 
ATOM     75  C   UNL     1      28.684  20.643  15.080  1.00  0.00     0.217 C 
ATOM     76  H   UNL     1      27.083  20.096  16.360  1.00  0.00     0.163 HD
ATOM     77  C   UNL     1      27.850  20.536  13.845  1.00  0.00     0.114 C 
ATOM     78  O   UNL     1      29.878  20.964  14.974  1.00  0.00    -0.275 OA
ENDBRANCH   4  74
TORSDOF 31
