REMARK VINA RESULT:    -6.125      2.281      4.174
REMARK INTER + INTRA:         -22.202
REMARK INTER:                 -16.610
REMARK INTRA:                  -5.592
REMARK UNBOUND:                -6.052
REMARK SMILES CC(=O)N[C@@H]1[C@@H](O)C[C@](OC[C@H]2O[C@@H](O[C@H]3[C@H](O)[C@@H](O)[C@H](OCCN=[N+]=[N-])O[C@@H]3CO)[C@H](O)[C@@H](O)[C@H]2O)(C(=O)O)O[C@H]1C(O)[C@H](O)CNC(=O)OCc1cn(CC(O)CO)nn1
REMARK SMILES IDX 43 1 42 2 9 3 8 4 41 5 6 6 5 7 10 8 11 9 12 10 14 11 13 12
REMARK SMILES IDX 32 13 34 14 36 15 15 16 16 17 29 18 28 19 21 20 17 21 19 22
REMARK SMILES IDX 30 23 31 24 22 26 23 27 24 28 25 29 26 30 27 31 18 32 20 34
REMARK SMILES IDX 33 36 35 38 37 40 38 42 39 43 40 44 7 46 4 48 2 49 1 51 3 52
REMARK SMILES IDX 44 53 45 55 46 56 47 58 48 59 49 60 50 62 51 63 52 64 53 65
REMARK SMILES IDX 54 66 62 67 55 68 61 69 56 70 57 71 58 72 59 74 60 75
REMARK H PARENT 31 25 18 33 20 35 33 37 35 39 37 41 40 45 7 47 4 50 44 54
REMARK H PARENT 46 57 48 61 58 73 60 76
REMARK Flexibility Score: inf
ROOT
ATOM      1  C   UNL     1       5.145  22.716  32.961  1.00  0.00     0.176 C 
ENDROOT
BRANCH   1   2
ATOM      2  C   UNL     1       3.856  22.257  33.670  1.00  0.00     0.178 C 
ATOM      3  C   UNL     1       2.937  21.839  35.806  1.00  0.00     0.272 C 
ATOM      4  C   UNL     1       2.451  20.491  35.353  1.00  0.00     0.113 C 
ATOM      5  O   UNL     1       4.009  22.234  34.991  1.00  0.00    -0.332 OA
ATOM      6  C   UNL     1       2.995  19.966  34.078  1.00  0.00     0.145 C 
ATOM      7  C   UNL     1       3.422  20.971  33.075  1.00  0.00     0.142 C 
BRANCH   3   8
ATOM      8  O   UNL     1       3.375  21.790  37.047  1.00  0.00    -0.338 OA
BRANCH   8   9
ATOM      9  C   UNL     1       3.536  22.443  38.118  1.00  0.00     0.199 C 
BRANCH   9  10
ATOM     10  C   UNL     1       4.649  23.405  38.383  1.00  0.00     0.179 C 
ATOM     11  C   UNL     1       6.741  23.954  37.637  1.00  0.00     0.282 C 
ATOM     12  O   UNL     1       5.518  23.434  37.225  1.00  0.00    -0.341 OA
ATOM     13  C   UNL     1       6.684  24.847  38.829  1.00  0.00     0.202 C 
ATOM     14  C   UNL     1       5.411  25.620  38.997  1.00  0.00     0.179 C 
ATOM     15  C   UNL     1       4.213  24.870  38.438  1.00  0.00     0.177 C 
BRANCH  11  16
ATOM     16  O   UNL     1       7.467  24.569  36.639  1.00  0.00    -0.341 OA
BRANCH  16  17
ATOM     17  C   UNL     1       8.491  23.783  36.115  1.00  0.00     0.184 C 
ATOM     18  C   UNL     1       9.665  23.808  37.046  1.00  0.00     0.178 C 
ATOM     19  O   UNL     1      10.795  24.389  36.492  1.00  0.00    -0.341 OA
ATOM     20  C   UNL     1      10.464  25.556  35.783  1.00  0.00     0.281 C 
ATOM     21  C   UNL     1       8.764  24.164  34.720  1.00  0.00     0.180 C 
ATOM     22  C   UNL     1       9.913  25.076  34.462  1.00  0.00     0.202 C 
BRANCH  18  23
ATOM     23  C   UNL     1      10.050  22.420  37.517  1.00  0.00     0.191 C 
BRANCH  23  24
ATOM     24  O   UNL     1      10.838  21.759  36.585  1.00  0.00    -0.394 OA
ATOM     25  H   UNL     1      11.155  20.908  37.028  1.00  0.00     0.210 HD
ENDBRANCH  23  24
ENDBRANCH  18  23
BRANCH  20  26
ATOM     26  O   UNL     1      11.650  26.252  35.609  1.00  0.00    -0.350 OA
BRANCH  26  27
ATOM     27  C   UNL     1      12.776  25.449  35.530  1.00  0.00     0.169 C 
BRANCH  27  28
ATOM     28  C   UNL     1      13.923  25.957  36.375  1.00  0.00     0.119 C 
BRANCH  28  29
ATOM     29  N   UNL     1      15.121  26.167  35.609  1.00  0.00    -0.092 NA
ATOM     30  N   UNL     1      15.419  27.202  35.024  1.00  0.00     0.001 N 
ATOM     31  N   UNL     1      15.547  28.259  34.407  1.00  0.00    -0.003 NA
ENDBRANCH  28  29
ENDBRANCH  27  28
ENDBRANCH  26  27
ENDBRANCH  20  26
BRANCH  21  32
ATOM     32  O   UNL     1       8.921  23.029  33.886  1.00  0.00    -0.387 OA
ATOM     33  H   UNL     1       9.730  22.560  34.270  1.00  0.00     0.211 HD
ENDBRANCH  21  32
BRANCH  22  34
ATOM     34  O   UNL     1       9.609  26.134  33.609  1.00  0.00    -0.385 OA
ATOM     35  H   UNL     1       8.931  26.732  33.963  1.00  0.00     0.211 HD
ENDBRANCH  22  34
ENDBRANCH  16  17
ENDBRANCH  11  16
BRANCH  13  36
ATOM     36  O   UNL     1       7.081  24.181  40.012  1.00  0.00    -0.385 OA
ATOM     37  H   UNL     1       6.843  24.668  40.822  1.00  0.00     0.211 HD
ENDBRANCH  13  36
BRANCH  14  38
ATOM     38  O   UNL     1       5.473  26.913  38.483  1.00  0.00    -0.387 OA
ATOM     39  H   UNL     1       5.213  27.553  39.187  1.00  0.00     0.211 HD
ENDBRANCH  14  38
BRANCH  15  40
ATOM     40  O   UNL     1       4.079  25.286  37.085  1.00  0.00    -0.387 OA
ATOM     41  H   UNL     1       3.936  24.506  36.496  1.00  0.00     0.211 HD
ENDBRANCH  15  40
ENDBRANCH   9  10
ENDBRANCH   8   9
ENDBRANCH   3   8
BRANCH   3  42
ATOM     42  C   UNL     1       1.865  22.877  35.654  1.00  0.00     0.364 C 
ATOM     43  O   UNL     1       0.670  22.449  35.610  1.00  0.00    -0.246 OA
BRANCH  42  44
ATOM     44  O   UNL     1       2.114  24.222  35.562  1.00  0.00    -0.477 OA
ATOM     45  H   UNL     1       2.961  24.588  35.114  1.00  0.00     0.296 HD
ENDBRANCH  42  44
ENDBRANCH   3  42
BRANCH   6  46
ATOM     46  O   UNL     1       4.116  19.165  34.405  1.00  0.00    -0.391 OA
ATOM     47  H   UNL     1       4.046  18.306  33.945  1.00  0.00     0.211 HD
ENDBRANCH   6  46
BRANCH   7  48
ATOM     48  N   UNL     1       2.375  21.118  32.068  1.00  0.00    -0.348 N 
ATOM     49  C   UNL     1       2.477  20.526  30.784  1.00  0.00     0.217 C 
ATOM     50  H   UNL     1       1.513  21.667  32.257  1.00  0.00     0.163 HD
ATOM     51  C   UNL     1       1.415  20.673  29.756  1.00  0.00     0.114 C 
ATOM     52  O   UNL     1       3.511  19.857  30.532  1.00  0.00    -0.275 OA
ENDBRANCH   7  48
ENDBRANCH   1   2
BRANCH   1  53
ATOM     53  O   UNL     1       5.141  22.244  31.663  1.00  0.00    -0.388 OA
ATOM     54  H   UNL     1       5.882  21.605  31.522  1.00  0.00     0.211 HD
ENDBRANCH   1  53
BRANCH   1  55
ATOM     55  C   UNL     1       5.220  24.234  32.956  1.00  0.00     0.165 C 
BRANCH  55  56
ATOM     56  O   UNL     1       5.366  24.590  34.319  1.00  0.00    -0.388 OA
ATOM     57  H   UNL     1       4.688  24.115  34.857  1.00  0.00     0.211 HD
ENDBRANCH  55  56
BRANCH  55  58
ATOM     58  C   UNL     1       3.997  24.899  32.425  1.00  0.00     0.154 C 
BRANCH  58  59
ATOM     59  N   UNL     1       3.959  24.904  30.978  1.00  0.00    -0.319 N 
ATOM     60  C   UNL     1       4.206  26.091  30.251  1.00  0.00     0.407 C 
ATOM     61  H   UNL     1       3.751  24.030  30.419  1.00  0.00     0.167 HD
ATOM     62  O   UNL     1       4.451  27.180  30.820  1.00  0.00    -0.225 OA
BRANCH  60  63
ATOM     63  O   UNL     1       4.192  26.099  28.871  1.00  0.00    -0.443 OA
BRANCH  63  64
ATOM     64  C   UNL     1       3.496  26.955  28.034  1.00  0.00     0.294 C 
BRANCH  64  65
ATOM     65  C   UNL     1       4.243  27.449  26.856  1.00  0.00     0.120 A 
ATOM     66  C   UNL     1       5.585  27.291  26.657  1.00  0.00     0.138 A 
ATOM     67  N   UNL     1       3.721  28.143  25.800  1.00  0.00    -0.132 NA
ATOM     68  N   UNL     1       5.857  27.891  25.484  1.00  0.00    -0.249 N 
ATOM     69  N   UNL     1       4.747  28.387  24.995  1.00  0.00    -0.067 NA
BRANCH  68  70
ATOM     70  C   UNL     1       7.152  27.997  24.848  1.00  0.00     0.180 C 
BRANCH  70  71
ATOM     71  C   UNL     1       7.832  26.629  24.990  1.00  0.00     0.161 C 
BRANCH  71  72
ATOM     72  O   UNL     1       7.951  26.100  23.728  1.00  0.00    -0.389 OA
ATOM     73  H   UNL     1       7.083  25.809  23.357  1.00  0.00     0.211 HD
ENDBRANCH  71  72
BRANCH  71  74
ATOM     74  C   UNL     1       9.177  26.798  25.657  1.00  0.00     0.189 C 
BRANCH  74  75
ATOM     75  O   UNL     1      10.116  27.202  24.735  1.00  0.00    -0.394 OA
ATOM     76  H   UNL     1       9.852  28.080  24.357  1.00  0.00     0.210 HD
ENDBRANCH  74  75
ENDBRANCH  71  74
ENDBRANCH  70  71
ENDBRANCH  68  70
ENDBRANCH  64  65
ENDBRANCH  63  64
ENDBRANCH  60  63
ENDBRANCH  58  59
ENDBRANCH  55  58
ENDBRANCH   1  55
TORSDOF 34
