REMARK VINA RESULT:    -5.571      6.054     11.167
REMARK INTER + INTRA:         -21.808
REMARK INTER:                 -14.158
REMARK INTRA:                  -7.650
REMARK UNBOUND:                -7.606
REMARK SMILES CC(=O)N[C@@H]1[C@@H](O)C[C@](OC[C@H]2O[C@@H](O[C@H]3[C@H](O)[C@@H](O)[C@H](OCCN=[N+]=[N-])O[C@@H]3CO)[C@H](O)[C@@H](O)[C@H]2O)(C(=O)O)O[C@H]1C(O)[C@H](O)CNC(=O)OCc1cn(-c2ccc(CO)cn2)nn1
REMARK SMILES IDX 9 1 8 2 6 3 5 4 42 5 41 6 10 7 11 8 12 9 14 10 13 11 32 12
REMARK SMILES IDX 34 13 36 14 15 15 16 16 29 17 28 18 21 19 17 20 19 21 30 22
REMARK SMILES IDX 31 23 22 25 23 26 24 27 25 28 26 29 27 30 18 31 20 33 33 35
REMARK SMILES IDX 35 37 37 39 38 41 39 42 40 43 7 45 43 47 44 48 45 50 46 51
REMARK SMILES IDX 47 53 48 54 49 55 50 57 51 58 52 59 53 60 54 61 65 62 55 63
REMARK SMILES IDX 64 64 56 65 57 66 63 67 58 68 62 69 59 70 60 71 61 72 4 74
REMARK SMILES IDX 2 75 1 77 3 78
REMARK H PARENT 31 24 18 32 20 34 33 36 35 38 37 40 40 44 7 46 44 49 46 52
REMARK H PARENT 48 56 61 73 4 76
REMARK Flexibility Score: inf
ROOT
ATOM      1  C   UNL     1      22.039  29.077  19.206  1.00  0.00     0.272 C 
ATOM      2  C   UNL     1      22.858  30.086  18.492  1.00  0.00     0.113 C 
ATOM      3  C   UNL     1      22.081  31.331  18.164  1.00  0.00     0.145 C 
ATOM      4  C   UNL     1      21.324  31.808  19.388  1.00  0.00     0.142 C 
ATOM      5  C   UNL     1      20.551  30.704  19.983  1.00  0.00     0.178 C 
ATOM      6  O   UNL     1      21.279  29.591  20.226  1.00  0.00    -0.332 OA
ENDROOT
BRANCH   1   7
ATOM      7  O   UNL     1      22.775  28.032  19.736  1.00  0.00    -0.338 OA
BRANCH   7   8
ATOM      8  C   UNL     1      22.999  28.157  21.092  1.00  0.00     0.199 C 
BRANCH   8   9
ATOM      9  C   UNL     1      22.965  26.804  21.736  1.00  0.00     0.179 C 
ATOM     10  C   UNL     1      23.550  25.699  23.619  1.00  0.00     0.282 C 
ATOM     11  O   UNL     1      22.952  26.894  23.141  1.00  0.00    -0.341 OA
ATOM     12  C   UNL     1      22.914  24.528  22.991  1.00  0.00     0.202 C 
ATOM     13  C   UNL     1      21.613  24.796  22.255  1.00  0.00     0.179 C 
ATOM     14  C   UNL     1      21.753  26.018  21.353  1.00  0.00     0.177 C 
BRANCH  10  15
ATOM     15  O   UNL     1      23.535  25.705  25.018  1.00  0.00    -0.341 OA
BRANCH  15  16
ATOM     16  C   UNL     1      22.911  26.818  25.539  1.00  0.00     0.184 C 
ATOM     17  C   UNL     1      23.750  27.674  26.435  1.00  0.00     0.178 C 
ATOM     18  O   UNL     1      23.347  27.649  27.767  1.00  0.00    -0.341 OA
ATOM     19  C   UNL     1      23.320  26.388  28.305  1.00  0.00     0.281 C 
ATOM     20  C   UNL     1      21.745  26.289  26.394  1.00  0.00     0.180 C 
ATOM     21  C   UNL     1      22.430  25.447  27.479  1.00  0.00     0.202 C 
BRANCH  17  22
ATOM     22  C   UNL     1      23.535  29.132  25.988  1.00  0.00     0.191 C 
BRANCH  22  23
ATOM     23  O   UNL     1      22.240  29.278  25.467  1.00  0.00    -0.394 OA
ATOM     24  H   UNL     1      22.252  29.878  24.661  1.00  0.00     0.210 HD
ENDBRANCH  22  23
ENDBRANCH  17  22
BRANCH  19  25
ATOM     25  O   UNL     1      22.806  26.472  29.596  1.00  0.00    -0.350 OA
BRANCH  25  26
ATOM     26  C   UNL     1      23.773  26.578  30.562  1.00  0.00     0.169 C 
BRANCH  26  27
ATOM     27  C   UNL     1      24.435  25.215  30.718  1.00  0.00     0.119 C 
BRANCH  27  28
ATOM     28  N   UNL     1      25.883  25.360  30.774  1.00  0.00    -0.092 NA
ATOM     29  N   UNL     1      26.581  25.578  29.799  1.00  0.00     0.001 N 
ATOM     30  N   UNL     1      27.288  26.168  28.981  1.00  0.00    -0.003 NA
ENDBRANCH  27  28
ENDBRANCH  26  27
ENDBRANCH  25  26
ENDBRANCH  19  25
BRANCH  20  31
ATOM     31  O   UNL     1      20.958  27.287  26.900  1.00  0.00    -0.387 OA
ATOM     32  H   UNL     1      20.024  27.056  26.786  1.00  0.00     0.211 HD
ENDBRANCH  20  31
BRANCH  21  33
ATOM     33  O   UNL     1      23.218  24.517  26.806  1.00  0.00    -0.385 OA
ATOM     34  H   UNL     1      23.826  25.021  26.208  1.00  0.00     0.211 HD
ENDBRANCH  21  33
ENDBRANCH  15  16
ENDBRANCH  10  15
BRANCH  12  35
ATOM     35  O   UNL     1      23.820  23.955  22.067  1.00  0.00    -0.385 OA
ATOM     36  H   UNL     1      24.018  24.577  21.321  1.00  0.00     0.211 HD
ENDBRANCH  12  35
BRANCH  13  37
ATOM     37  O   UNL     1      20.533  24.885  23.117  1.00  0.00    -0.387 OA
ATOM     38  H   UNL     1      20.094  25.749  23.118  1.00  0.00     0.211 HD
ENDBRANCH  13  37
BRANCH  14  39
ATOM     39  O   UNL     1      20.598  26.759  21.479  1.00  0.00    -0.387 OA
ATOM     40  H   UNL     1      20.825  27.701  21.602  1.00  0.00     0.211 HD
ENDBRANCH  14  39
ENDBRANCH   8   9
ENDBRANCH   7   8
ENDBRANCH   1   7
BRANCH   1  41
ATOM     41  C   UNL     1      21.043  28.417  18.276  1.00  0.00     0.364 C 
ATOM     42  O   UNL     1      21.240  28.288  17.044  1.00  0.00    -0.246 OA
BRANCH  41  43
ATOM     43  O   UNL     1      19.851  27.923  18.767  1.00  0.00    -0.477 OA
ATOM     44  H   UNL     1      19.468  28.298  19.644  1.00  0.00     0.296 HD
ENDBRANCH  41  43
ENDBRANCH   1  41
BRANCH   3  45
ATOM     45  O   UNL     1      23.035  32.331  17.890  1.00  0.00    -0.391 OA
ATOM     46  H   UNL     1      23.869  32.216  18.380  1.00  0.00     0.211 HD
ENDBRANCH   3  45
BRANCH   5  47
ATOM     47  C   UNL     1      19.771  31.106  21.220  1.00  0.00     0.176 C 
BRANCH  47  48
ATOM     48  O   UNL     1      20.590  31.852  22.067  1.00  0.00    -0.388 OA
ATOM     49  H   UNL     1      21.487  31.963  21.674  1.00  0.00     0.211 HD
ENDBRANCH  47  48
BRANCH  47  50
ATOM     50  C   UNL     1      19.187  29.990  21.999  1.00  0.00     0.165 C 
BRANCH  50  51
ATOM     51  O   UNL     1      18.707  28.949  21.192  1.00  0.00    -0.388 OA
ATOM     52  H   UNL     1      18.512  29.221  20.282  1.00  0.00     0.211 HD
ENDBRANCH  50  51
BRANCH  50  53
ATOM     53  C   UNL     1      18.174  30.368  23.042  1.00  0.00     0.154 C 
BRANCH  53  54
ATOM     54  N   UNL     1      16.864  29.890  22.686  1.00  0.00    -0.319 N 
ATOM     55  C   UNL     1      15.911  30.779  22.134  1.00  0.00     0.407 C 
ATOM     56  H   UNL     1      16.612  28.860  22.842  1.00  0.00     0.167 HD
ATOM     57  O   UNL     1      16.149  31.989  21.928  1.00  0.00    -0.225 OA
BRANCH  55  58
ATOM     58  O   UNL     1      14.632  30.335  21.783  1.00  0.00    -0.443 OA
BRANCH  58  59
ATOM     59  C   UNL     1      14.469  29.038  21.286  1.00  0.00     0.294 C 
BRANCH  59  60
ATOM     60  C   UNL     1      15.348  28.659  20.188  1.00  0.00     0.121 A 
ATOM     61  C   UNL     1      15.358  29.183  18.919  1.00  0.00     0.146 A 
ATOM     62  N   UNL     1      16.313  27.724  20.208  1.00  0.00    -0.131 NA
ATOM     63  N   UNL     1      16.317  28.559  18.206  1.00  0.00    -0.202 N 
ATOM     64  N   UNL     1      16.871  27.683  19.024  1.00  0.00    -0.061 NA
BRANCH  63  65
ATOM     65  C   UNL     1      16.621  28.830  16.847  1.00  0.00     0.155 A 
ATOM     66  C   UNL     1      15.631  29.164  15.929  1.00  0.00     0.049 A 
ATOM     67  N   UNL     1      17.883  28.766  16.392  1.00  0.00    -0.237 NA
ATOM     68  C   UNL     1      15.947  29.418  14.600  1.00  0.00     0.011 A 
ATOM     69  C   UNL     1      18.214  29.010  15.101  1.00  0.00     0.119 A 
ATOM     70  C   UNL     1      17.251  29.344  14.163  1.00  0.00    -0.004 A 
BRANCH  70  71
ATOM     71  C   UNL     1      17.582  29.615  12.738  1.00  0.00     0.193 C 
BRANCH  71  72
ATOM     72  O   UNL     1      18.338  28.576  12.197  1.00  0.00    -0.392 OA
ATOM     73  H   UNL     1      18.882  28.864  11.436  1.00  0.00     0.211 HD
ENDBRANCH  71  72
ENDBRANCH  70  71
ENDBRANCH  63  65
ENDBRANCH  59  60
ENDBRANCH  58  59
ENDBRANCH  55  58
ENDBRANCH  53  54
ENDBRANCH  50  53
ENDBRANCH  47  50
ENDBRANCH   5  47
BRANCH   4  74
ATOM     74  N   UNL     1      20.480  32.945  19.020  1.00  0.00    -0.348 N 
ATOM     75  C   UNL     1      20.592  34.192  19.630  1.00  0.00     0.217 C 
ATOM     76  H   UNL     1      19.778  32.803  18.267  1.00  0.00     0.163 HD
ATOM     77  C   UNL     1      19.652  35.278  19.158  1.00  0.00     0.114 C 
ATOM     78  O   UNL     1      21.407  34.459  20.524  1.00  0.00    -0.275 OA
ENDBRANCH   4  74
TORSDOF 32
