REMARK VINA RESULT:    -4.794      4.366     10.869
REMARK INTER + INTRA:         -20.950
REMARK INTER:                 -14.536
REMARK INTRA:                  -6.414
REMARK UNBOUND:                -8.028
REMARK SMILES CCN(CC)CCn1cc(COC(=O)NC[C@@H](O)C(O)[C@@H]2O[C@@](OC[C@H]3O[C@@H](O[C@H]4[C@H](O)[C@@H](O)[C@H](OCCN=[N+]=[N-])O[C@@H]4CO)[C@H](O)[C@@H](O)[C@H]3O)(C(=O)O)C[C@H](O)[C@H]2NC(C)=O)nn1
REMARK SMILES IDX 19 1 21 2 23 3 55 4 22 5 56 6 58 7 24 8 25 9 26 10 28 11
REMARK SMILES IDX 27 12 46 13 48 14 50 15 29 16 30 17 43 18 42 19 35 20 31 21
REMARK SMILES IDX 33 22 44 23 45 24 36 26 37 27 38 28 39 29 40 30 41 31 32 32
REMARK SMILES IDX 34 34 47 36 49 38 51 40 52 42 53 43 54 44 57 46 59 48 60 49
REMARK SMILES IDX 61 51 62 52 20 53 17 55 18 56 16 58 15 59 13 60 14 62 12 63
REMARK SMILES IDX 11 64 10 65 9 66 63 67 8 68 64 69 7 70 6 71 3 72 2 73 1 74
REMARK SMILES IDX 4 75 5 76
REMARK H PARENT 45 25 32 33 34 35 47 37 49 39 51 41 54 45 57 47 59 50 20 54
REMARK H PARENT 18 57 15 61
REMARK Flexibility Score: inf
ROOT
ATOM      1  C   UNL     1      22.709  25.328  21.707  1.00  0.00     0.176 C 
ENDROOT
BRANCH   1   2
ATOM      2  C   UNL     1      22.723  25.220  23.209  1.00  0.00     0.178 C 
ATOM      3  C   UNL     1      22.440  26.408  25.160  1.00  0.00     0.272 C 
ATOM      4  C   UNL     1      22.552  24.969  25.687  1.00  0.00     0.113 C 
ATOM      5  O   UNL     1      22.398  26.426  23.784  1.00  0.00    -0.332 OA
ATOM      6  C   UNL     1      23.741  24.231  25.161  1.00  0.00     0.145 C 
ATOM      7  C   UNL     1      24.065  24.811  23.776  1.00  0.00     0.142 C 
BRANCH   3   8
ATOM      8  O   UNL     1      23.485  27.108  25.713  1.00  0.00    -0.338 OA
BRANCH   8   9
ATOM      9  C   UNL     1      23.957  28.170  24.982  1.00  0.00     0.199 C 
BRANCH   9  10
ATOM     10  C   UNL     1      24.949  29.013  25.803  1.00  0.00     0.179 C 
ATOM     11  C   UNL     1      25.360  29.090  28.118  1.00  0.00     0.282 C 
ATOM     12  O   UNL     1      24.463  29.051  27.061  1.00  0.00    -0.341 OA
ATOM     13  C   UNL     1      26.654  29.692  27.741  1.00  0.00     0.202 C 
ATOM     14  C   UNL     1      27.313  29.041  26.558  1.00  0.00     0.179 C 
ATOM     15  C   UNL     1      26.273  28.314  25.734  1.00  0.00     0.177 C 
BRANCH  11  16
ATOM     16  O   UNL     1      25.365  27.798  28.626  1.00  0.00    -0.341 OA
BRANCH  16  17
ATOM     17  C   UNL     1      25.283  27.717  29.971  1.00  0.00     0.184 C 
ATOM     18  C   UNL     1      26.199  26.672  30.555  1.00  0.00     0.178 C 
ATOM     19  O   UNL     1      26.107  26.758  31.974  1.00  0.00    -0.341 OA
ATOM     20  C   UNL     1      24.966  26.093  32.367  1.00  0.00     0.281 C 
ATOM     21  C   UNL     1      23.881  27.395  30.477  1.00  0.00     0.180 C 
ATOM     22  C   UNL     1      23.850  26.243  31.429  1.00  0.00     0.202 C 
BRANCH  18  23
ATOM     23  C   UNL     1      27.612  26.719  30.100  1.00  0.00     0.191 C 
BRANCH  23  24
ATOM     24  O   UNL     1      27.666  26.204  28.810  1.00  0.00    -0.394 OA
ATOM     25  H   UNL     1      28.585  26.113  28.456  1.00  0.00     0.210 HD
ENDBRANCH  23  24
ENDBRANCH  18  23
BRANCH  20  26
ATOM     26  O   UNL     1      24.648  26.348  33.698  1.00  0.00    -0.350 OA
BRANCH  26  27
ATOM     27  C   UNL     1      25.091  27.544  34.176  1.00  0.00     0.169 C 
BRANCH  27  28
ATOM     28  C   UNL     1      24.048  28.276  35.000  1.00  0.00     0.119 C 
BRANCH  28  29
ATOM     29  N   UNL     1      23.208  29.110  34.164  1.00  0.00    -0.092 NA
ATOM     30  N   UNL     1      22.039  28.816  33.882  1.00  0.00     0.001 N 
ATOM     31  N   UNL     1      21.106  28.317  33.250  1.00  0.00    -0.003 NA
ENDBRANCH  28  29
ENDBRANCH  27  28
ENDBRANCH  26  27
ENDBRANCH  20  26
BRANCH  21  32
ATOM     32  O   UNL     1      23.374  28.520  31.099  1.00  0.00    -0.387 OA
ATOM     33  H   UNL     1      22.408  28.638  30.996  1.00  0.00     0.211 HD
ENDBRANCH  21  32
BRANCH  22  34
ATOM     34  O   UNL     1      23.643  25.019  30.744  1.00  0.00    -0.385 OA
ATOM     35  H   UNL     1      23.085  25.243  29.955  1.00  0.00     0.211 HD
ENDBRANCH  22  34
ENDBRANCH  16  17
ENDBRANCH  11  16
BRANCH  13  36
ATOM     36  O   UNL     1      26.421  31.051  27.375  1.00  0.00    -0.385 OA
ATOM     37  H   UNL     1      26.460  31.634  28.153  1.00  0.00     0.211 HD
ENDBRANCH  13  36
BRANCH  14  38
ATOM     38  O   UNL     1      28.378  28.216  26.887  1.00  0.00    -0.387 OA
ATOM     39  H   UNL     1      28.118  27.295  27.049  1.00  0.00     0.211 HD
ENDBRANCH  14  38
BRANCH  15  40
ATOM     40  O   UNL     1      26.131  27.036  26.259  1.00  0.00    -0.387 OA
ATOM     41  H   UNL     1      26.876  26.841  26.897  1.00  0.00     0.211 HD
ENDBRANCH  15  40
ENDBRANCH   9  10
ENDBRANCH   8   9
ENDBRANCH   3   8
BRANCH   3  42
ATOM     42  C   UNL     1      21.139  26.889  25.688  1.00  0.00     0.364 C 
ATOM     43  O   UNL     1      20.998  27.154  26.930  1.00  0.00    -0.246 OA
BRANCH  42  44
ATOM     44  O   UNL     1      20.007  27.086  24.922  1.00  0.00    -0.477 OA
ATOM     45  H   UNL     1      20.056  27.655  24.083  1.00  0.00     0.296 HD
ENDBRANCH  42  44
ENDBRANCH   3  42
BRANCH   6  46
ATOM     46  O   UNL     1      24.829  24.201  25.998  1.00  0.00    -0.391 OA
ATOM     47  H   UNL     1      24.535  23.792  26.851  1.00  0.00     0.211 HD
ENDBRANCH   6  46
BRANCH   7  48
ATOM     48  N   UNL     1      24.794  23.885  22.977  1.00  0.00    -0.348 N 
ATOM     49  C   UNL     1      25.984  24.352  22.308  1.00  0.00     0.217 C 
ATOM     50  H   UNL     1      24.554  22.889  22.829  1.00  0.00     0.163 HD
ATOM     51  C   UNL     1      26.794  23.444  21.457  1.00  0.00     0.114 C 
ATOM     52  O   UNL     1      26.375  25.544  22.421  1.00  0.00    -0.275 OA
ENDBRANCH   7  48
ENDBRANCH   1   2
BRANCH   1  53
ATOM     53  O   UNL     1      22.048  24.219  21.196  1.00  0.00    -0.388 OA
ATOM     54  H   UNL     1      21.894  24.354  20.208  1.00  0.00     0.211 HD
ENDBRANCH   1  53
BRANCH   1  55
ATOM     55  C   UNL     1      21.924  26.568  21.367  1.00  0.00     0.165 C 
BRANCH  55  56
ATOM     56  O   UNL     1      20.595  26.394  21.769  1.00  0.00    -0.388 OA
ATOM     57  H   UNL     1      20.033  26.355  20.958  1.00  0.00     0.211 HD
ENDBRANCH  55  56
BRANCH  55  58
ATOM     58  C   UNL     1      21.962  26.981  19.942  1.00  0.00     0.154 C 
BRANCH  58  59
ATOM     59  N   UNL     1      20.803  27.677  19.500  1.00  0.00    -0.319 N 
ATOM     60  C   UNL     1      20.820  29.113  19.455  1.00  0.00     0.407 C 
ATOM     61  H   UNL     1      19.953  27.187  19.220  1.00  0.00     0.167 HD
ATOM     62  O   UNL     1      21.832  29.754  19.803  1.00  0.00    -0.225 OA
BRANCH  60  63
ATOM     63  O   UNL     1      19.682  29.769  19.017  1.00  0.00    -0.443 OA
BRANCH  63  64
ATOM     64  C   UNL     1      18.804  30.342  20.000  1.00  0.00     0.294 C 
BRANCH  64  65
ATOM     65  C   UNL     1      17.672  29.422  20.173  1.00  0.00     0.120 A 
ATOM     66  C   UNL     1      16.371  29.841  20.471  1.00  0.00     0.138 A 
ATOM     67  N   UNL     1      17.603  28.096  20.095  1.00  0.00    -0.132 NA
ATOM     68  N   UNL     1      15.579  28.757  20.559  1.00  0.00    -0.251 N 
ATOM     69  N   UNL     1      16.343  27.722  20.330  1.00  0.00    -0.067 NA
BRANCH  68  70
ATOM     70  C   UNL     1      14.159  28.723  20.851  1.00  0.00     0.161 C 
BRANCH  70  71
ATOM     71  C   UNL     1      13.947  29.406  22.185  1.00  0.00     0.108 C 
BRANCH  71  72
ATOM     72  N   UNL     1      12.670  30.048  22.300  1.00  0.00    -0.302 NA
BRANCH  72  73
ATOM     73  C   UNL     1      12.740  31.456  22.017  1.00  0.00     0.081 C 
ATOM     74  C   UNL     1      11.335  32.038  22.117  1.00  0.00     0.021 C 
ENDBRANCH  72  73
BRANCH  72  75
ATOM     75  C   UNL     1      11.996  29.747  23.525  1.00  0.00     0.081 C 
ATOM     76  C   UNL     1      12.933  29.879  24.708  1.00  0.00     0.021 C 
ENDBRANCH  72  75
ENDBRANCH  71  72
ENDBRANCH  70  71
ENDBRANCH  68  70
ENDBRANCH  64  65
ENDBRANCH  63  64
ENDBRANCH  60  63
ENDBRANCH  58  59
ENDBRANCH  55  58
ENDBRANCH   1  55
TORSDOF 34
