REMARK VINA RESULT:    -6.413      5.570      7.641
REMARK INTER + INTRA:         -22.022
REMARK INTER:                 -17.005
REMARK INTRA:                  -5.018
REMARK UNBOUND:                -5.863
REMARK SMILES CC(=O)N[C@@H]1[C@@H](O)C[C@](OC[C@H]2O[C@@H](O[C@H]3[C@H](O)[C@@H](O)[C@H](OCCN=[N+]=[N-])O[C@@H]3CO)[C@H](O)[C@@H](O)[C@H]2O)(C(=O)O)O[C@H]1C(O)[C@H](O)CNC(=O)OCc1cn(-c2ncccc2C#N)nn1
REMARK SMILES IDX 9 1 8 2 6 3 5 4 42 5 41 6 10 7 11 8 12 9 14 10 13 11 32 12
REMARK SMILES IDX 34 13 36 14 15 15 16 16 29 17 28 18 21 19 17 20 19 21 30 22
REMARK SMILES IDX 31 23 22 25 23 26 24 27 25 28 26 29 27 30 18 31 20 33 33 35
REMARK SMILES IDX 35 37 37 39 38 41 39 42 40 43 7 45 43 47 44 48 45 50 46 51
REMARK SMILES IDX 47 53 48 54 49 55 50 57 51 58 52 59 53 60 54 61 65 62 55 63
REMARK SMILES IDX 64 64 56 65 57 66 61 67 58 68 60 69 59 70 62 71 63 72 4 73
REMARK SMILES IDX 2 74 1 76 3 77
REMARK H PARENT 31 24 18 32 20 34 33 36 35 38 37 40 40 44 7 46 44 49 46 52
REMARK H PARENT 48 56 4 75
REMARK Flexibility Score: inf
ROOT
ATOM      1  C   UNL     1      23.682  25.010  21.008  1.00  0.00     0.272 C 
ATOM      2  C   UNL     1      22.464  24.267  21.358  1.00  0.00     0.113 C 
ATOM      3  C   UNL     1      21.717  24.851  22.492  1.00  0.00     0.145 C 
ATOM      4  C   UNL     1      21.835  26.327  22.683  1.00  0.00     0.142 C 
ATOM      5  C   UNL     1      22.630  27.072  21.649  1.00  0.00     0.178 C 
ATOM      6  O   UNL     1      23.576  26.381  21.054  1.00  0.00    -0.332 OA
ENDROOT
BRANCH   1   7
ATOM      7  O   UNL     1      24.334  24.775  19.864  1.00  0.00    -0.338 OA
BRANCH   7   8
ATOM      8  C   UNL     1      25.401  25.239  19.293  1.00  0.00     0.199 C 
BRANCH   8   9
ATOM      9  C   UNL     1      25.189  25.133  17.779  1.00  0.00     0.179 C 
ATOM     10  C   UNL     1      24.161  23.958  16.135  1.00  0.00     0.282 C 
ATOM     11  O   UNL     1      24.770  23.876  17.441  1.00  0.00    -0.341 OA
ATOM     12  C   UNL     1      22.845  24.638  16.244  1.00  0.00     0.202 C 
ATOM     13  C   UNL     1      22.979  25.980  16.970  1.00  0.00     0.179 C 
ATOM     14  C   UNL     1      24.420  26.252  17.181  1.00  0.00     0.177 C 
BRANCH  10  15
ATOM     15  O   UNL     1      24.069  22.730  15.578  1.00  0.00    -0.341 OA
BRANCH  15  16
ATOM     16  C   UNL     1      24.981  22.451  14.600  1.00  0.00     0.184 C 
ATOM     17  C   UNL     1      24.563  23.153  13.275  1.00  0.00     0.178 C 
ATOM     18  O   UNL     1      24.164  22.167  12.374  1.00  0.00    -0.341 OA
ATOM     19  C   UNL     1      23.168  21.355  12.937  1.00  0.00     0.281 C 
ATOM     20  C   UNL     1      25.164  20.985  14.306  1.00  0.00     0.180 C 
ATOM     21  C   UNL     1      23.823  20.380  13.875  1.00  0.00     0.202 C 
BRANCH  17  22
ATOM     22  C   UNL     1      25.720  23.955  12.775  1.00  0.00     0.191 C 
BRANCH  22  23
ATOM     23  O   UNL     1      26.135  23.539  11.497  1.00  0.00    -0.394 OA
ATOM     24  H   UNL     1      26.687  22.722  11.536  1.00  0.00     0.210 HD
ENDBRANCH  22  23
ENDBRANCH  17  22
BRANCH  19  25
ATOM     25  O   UNL     1      22.519  20.743  11.889  1.00  0.00    -0.350 OA
BRANCH  25  26
ATOM     26  C   UNL     1      21.717  21.653  11.176  1.00  0.00     0.169 C 
BRANCH  26  27
ATOM     27  C   UNL     1      20.436  20.983  10.723  1.00  0.00     0.119 C 
BRANCH  27  28
ATOM     28  N   UNL     1      19.712  20.612  11.946  1.00  0.00    -0.092 NA
ATOM     29  N   UNL     1      19.126  19.498  11.906  1.00  0.00     0.001 N 
ATOM     30  N   UNL     1      18.253  18.621  11.827  1.00  0.00    -0.003 NA
ENDBRANCH  27  28
ENDBRANCH  26  27
ENDBRANCH  25  26
ENDBRANCH  19  25
BRANCH  20  31
ATOM     31  O   UNL     1      26.112  20.742  13.340  1.00  0.00    -0.387 OA
ATOM     32  H   UNL     1      26.892  20.223  13.596  1.00  0.00     0.211 HD
ENDBRANCH  20  31
BRANCH  21  33
ATOM     33  O   UNL     1      23.041  20.123  14.997  1.00  0.00    -0.385 OA
ATOM     34  H   UNL     1      22.304  20.793  14.996  1.00  0.00     0.211 HD
ENDBRANCH  21  33
ENDBRANCH  15  16
ENDBRANCH  10  15
BRANCH  12  35
ATOM     35  O   UNL     1      22.298  24.859  14.992  1.00  0.00    -0.385 OA
ATOM     36  H   UNL     1      23.067  25.029  14.355  1.00  0.00     0.211 HD
ENDBRANCH  12  35
BRANCH  13  37
ATOM     37  O   UNL     1      22.276  25.910  18.195  1.00  0.00    -0.387 OA
ATOM     38  H   UNL     1      22.920  25.838  18.954  1.00  0.00     0.211 HD
ENDBRANCH  13  37
BRANCH  14  39
ATOM     39  O   UNL     1      24.671  27.432  17.889  1.00  0.00    -0.387 OA
ATOM     40  H   UNL     1      25.605  27.761  17.690  1.00  0.00     0.211 HD
ENDBRANCH  14  39
ENDBRANCH   8   9
ENDBRANCH   7   8
ENDBRANCH   1   7
BRANCH   1  41
ATOM     41  C   UNL     1      24.689  24.666  22.105  1.00  0.00     0.364 C 
ATOM     42  O   UNL     1      25.222  25.480  22.840  1.00  0.00    -0.246 OA
BRANCH  41  43
ATOM     43  O   UNL     1      25.041  23.316  22.300  1.00  0.00    -0.477 OA
ATOM     44  H   UNL     1      24.936  22.618  21.580  1.00  0.00     0.296 HD
ENDBRANCH  41  43
ENDBRANCH   1  41
BRANCH   3  45
ATOM     45  O   UNL     1      20.370  24.443  22.460  1.00  0.00    -0.391 OA
ATOM     46  H   UNL     1      20.398  23.520  22.044  1.00  0.00     0.211 HD
ENDBRANCH   3  45
BRANCH   5  47
ATOM     47  C   UNL     1      21.694  27.814  20.653  1.00  0.00     0.176 C 
BRANCH  47  48
ATOM     48  O   UNL     1      22.532  28.234  19.577  1.00  0.00    -0.388 OA
ATOM     49  H   UNL     1      22.130  28.019  18.719  1.00  0.00     0.211 HD
ENDBRANCH  47  48
BRANCH  47  50
ATOM     50  C   UNL     1      21.035  28.994  21.149  1.00  0.00     0.165 C 
BRANCH  50  51
ATOM     51  O   UNL     1      19.872  28.804  21.936  1.00  0.00    -0.388 OA
ATOM     52  H   UNL     1      19.777  29.590  22.562  1.00  0.00     0.211 HD
ENDBRANCH  50  51
BRANCH  50  53
ATOM     53  C   UNL     1      20.586  29.959  20.099  1.00  0.00     0.154 C 
BRANCH  53  54
ATOM     54  N   UNL     1      19.360  29.767  19.430  1.00  0.00    -0.319 N 
ATOM     55  C   UNL     1      19.029  28.877  18.409  1.00  0.00     0.407 C 
ATOM     56  H   UNL     1      18.531  30.407  19.738  1.00  0.00     0.167 HD
ATOM     57  O   UNL     1      19.923  28.099  17.995  1.00  0.00    -0.225 OA
BRANCH  55  58
ATOM     58  O   UNL     1      17.721  28.872  17.885  1.00  0.00    -0.443 OA
BRANCH  58  59
ATOM     59  C   UNL     1      16.780  27.999  18.436  1.00  0.00     0.294 C 
BRANCH  59  60
ATOM     60  C   UNL     1      15.794  28.678  19.255  1.00  0.00     0.121 A 
ATOM     61  C   UNL     1      15.583  28.488  20.568  1.00  0.00     0.146 A 
ATOM     62  N   UNL     1      14.839  29.608  18.816  1.00  0.00    -0.131 NA
ATOM     63  N   UNL     1      14.564  29.231  20.978  1.00  0.00    -0.201 N 
ATOM     64  N   UNL     1      14.179  29.858  19.907  1.00  0.00    -0.060 NA
BRANCH  63  65
ATOM     65  C   UNL     1      14.009  29.415  22.264  1.00  0.00     0.173 A 
ATOM     66  N   UNL     1      12.652  29.397  22.326  1.00  0.00    -0.236 NA
ATOM     67  C   UNL     1      14.796  29.744  23.375  1.00  0.00     0.097 A 
ATOM     68  C   UNL     1      12.034  29.742  23.586  1.00  0.00     0.113 A 
ATOM     69  C   UNL     1      14.136  30.070  24.540  1.00  0.00     0.025 A 
ATOM     70  C   UNL     1      12.806  30.057  24.597  1.00  0.00     0.022 A 
BRANCH  67  71
ATOM     71  C   UNL     1      16.222  29.681  23.413  1.00  0.00     0.103 C 
ATOM     72  N   UNL     1      17.429  29.629  23.467  1.00  0.00    -0.192 NA
ENDBRANCH  67  71
ENDBRANCH  63  65
ENDBRANCH  59  60
ENDBRANCH  58  59
ENDBRANCH  55  58
ENDBRANCH  53  54
ENDBRANCH  50  53
ENDBRANCH  47  50
ENDBRANCH   5  47
BRANCH   4  73
ATOM     73  N   UNL     1      22.215  26.516  24.066  1.00  0.00    -0.348 N 
ATOM     74  C   UNL     1      21.388  26.808  25.154  1.00  0.00     0.217 C 
ATOM     75  H   UNL     1      23.268  26.440  24.311  1.00  0.00     0.163 HD
ATOM     76  C   UNL     1      21.963  26.923  26.553  1.00  0.00     0.114 C 
ATOM     77  O   UNL     1      20.152  26.991  25.089  1.00  0.00    -0.275 OA
ENDBRANCH   4  73
TORSDOF 31
