REMARK VINA RESULT:    -4.535     11.315     15.176
REMARK INTER + INTRA:         -22.267
REMARK INTER:                 -13.204
REMARK INTRA:                  -9.062
REMARK UNBOUND:               -10.839
REMARK SMILES CC(=O)N[C@@H]1[C@@H](O)C[C@](OC[C@H]2O[C@@H](O[C@H]3[C@H](O)[C@@H](O)[C@H](OCCN=[N+]=[N-])O[C@@H]3CO)[C@H](O)[C@@H](O)[C@H]2O)(C(=O)O)O[C@H]1C(O)[C@H](O)CNC(=O)OCc1cn(-c2ccccc2C(C)C)nn1
REMARK SMILES IDX 9 1 8 2 6 3 5 4 42 5 41 6 10 7 11 8 12 9 14 10 13 11 32 12
REMARK SMILES IDX 34 13 36 14 15 15 16 16 29 17 28 18 21 19 17 20 19 21 30 22
REMARK SMILES IDX 31 23 22 25 23 26 24 27 25 28 26 29 27 30 18 31 20 33 33 35
REMARK SMILES IDX 35 37 37 39 38 41 39 42 40 43 7 45 43 47 44 48 45 50 46 51
REMARK SMILES IDX 47 53 48 54 49 55 50 57 51 58 52 59 53 60 54 61 66 62 55 63
REMARK SMILES IDX 65 64 56 65 61 66 57 67 60 68 58 69 59 70 62 71 63 72 64 73
REMARK SMILES IDX 4 74 2 75 1 77 3 78
REMARK H PARENT 31 24 18 32 20 34 33 36 35 38 37 40 40 44 7 46 44 49 46 52
REMARK H PARENT 48 56 4 76
REMARK Flexibility Score: inf
ROOT
ATOM      1  C   UNL     1      15.266  31.729  23.686  1.00  0.00     0.272 C 
ATOM      2  C   UNL     1      14.256  31.151  24.651  1.00  0.00     0.113 C 
ATOM      3  C   UNL     1      13.843  32.264  25.602  1.00  0.00     0.145 C 
ATOM      4  C   UNL     1      15.067  32.575  26.480  1.00  0.00     0.142 C 
ATOM      5  C   UNL     1      16.223  32.774  25.574  1.00  0.00     0.178 C 
ATOM      6  O   UNL     1      15.775  32.927  24.270  1.00  0.00    -0.332 OA
ENDROOT
BRANCH   1   7
ATOM      7  O   UNL     1      14.698  32.155  22.542  1.00  0.00    -0.338 OA
BRANCH   7   8
ATOM      8  C   UNL     1      14.044  31.536  21.622  1.00  0.00     0.199 C 
BRANCH   8   9
ATOM      9  C   UNL     1      14.398  31.545  20.170  1.00  0.00     0.179 C 
ATOM     10  C   UNL     1      16.101  31.380  18.674  1.00  0.00     0.282 C 
ATOM     11  O   UNL     1      15.744  31.672  19.932  1.00  0.00    -0.341 OA
ATOM     12  C   UNL     1      14.985  31.346  17.640  1.00  0.00     0.202 C 
ATOM     13  C   UNL     1      13.868  30.427  18.058  1.00  0.00     0.179 C 
ATOM     14  C   UNL     1      13.953  30.205  19.540  1.00  0.00     0.177 C 
BRANCH  10  15
ATOM     15  O   UNL     1      16.892  30.292  18.466  1.00  0.00    -0.341 OA
BRANCH  15  16
ATOM     16  C   UNL     1      18.060  30.159  19.173  1.00  0.00     0.184 C 
ATOM     17  C   UNL     1      19.252  30.724  18.476  1.00  0.00     0.178 C 
ATOM     18  O   UNL     1      20.238  29.827  18.261  1.00  0.00    -0.341 OA
ATOM     19  C   UNL     1      20.751  29.109  19.297  1.00  0.00     0.281 C 
ATOM     20  C   UNL     1      18.330  28.812  19.709  1.00  0.00     0.180 C 
ATOM     21  C   UNL     1      19.697  28.834  20.371  1.00  0.00     0.202 C 
BRANCH  17  22
ATOM     22  C   UNL     1      19.862  31.937  19.198  1.00  0.00     0.191 C 
BRANCH  22  23
ATOM     23  O   UNL     1      18.944  32.329  20.198  1.00  0.00    -0.394 OA
ATOM     24  H   UNL     1      18.897  33.335  20.144  1.00  0.00     0.210 HD
ENDBRANCH  22  23
ENDBRANCH  17  22
BRANCH  19  25
ATOM     25  O   UNL     1      21.784  29.784  19.891  1.00  0.00    -0.350 OA
BRANCH  25  26
ATOM     26  C   UNL     1      23.032  29.252  19.812  1.00  0.00     0.169 C 
BRANCH  26  27
ATOM     27  C   UNL     1      23.427  28.232  20.814  1.00  0.00     0.119 C 
BRANCH  27  28
ATOM     28  N   UNL     1      23.600  26.945  20.231  1.00  0.00    -0.092 NA
ATOM     29  N   UNL     1      22.794  26.036  20.201  1.00  0.00     0.001 N 
ATOM     30  N   UNL     1      21.829  25.285  20.123  1.00  0.00    -0.003 NA
ENDBRANCH  27  28
ENDBRANCH  26  27
ENDBRANCH  25  26
ENDBRANCH  19  25
BRANCH  20  31
ATOM     31  O   UNL     1      17.434  28.388  20.688  1.00  0.00    -0.387 OA
ATOM     32  H   UNL     1      17.096  29.182  21.158  1.00  0.00     0.211 HD
ENDBRANCH  20  31
BRANCH  21  33
ATOM     33  O   UNL     1      19.987  27.595  20.946  1.00  0.00    -0.385 OA
ATOM     34  H   UNL     1      20.365  27.028  20.228  1.00  0.00     0.211 HD
ENDBRANCH  21  33
ENDBRANCH  15  16
ENDBRANCH  10  15
BRANCH  12  35
ATOM     35  O   UNL     1      14.525  32.640  17.467  1.00  0.00    -0.385 OA
ATOM     36  H   UNL     1      14.913  33.029  16.621  1.00  0.00     0.211 HD
ENDBRANCH  12  35
BRANCH  13  37
ATOM     37  O   UNL     1      13.978  29.221  17.352  1.00  0.00    -0.387 OA
ATOM     38  H   UNL     1      14.047  29.463  16.396  1.00  0.00     0.211 HD
ENDBRANCH  13  37
BRANCH  14  39
ATOM     39  O   UNL     1      14.937  29.280  19.819  1.00  0.00    -0.387 OA
ATOM     40  H   UNL     1      14.685  28.427  19.385  1.00  0.00     0.211 HD
ENDBRANCH  14  39
ENDBRANCH   8   9
ENDBRANCH   7   8
ENDBRANCH   1   7
BRANCH   1  41
ATOM     41  C   UNL     1      16.398  30.820  23.471  1.00  0.00     0.364 C 
ATOM     42  O   UNL     1      16.474  29.811  24.260  1.00  0.00    -0.246 OA
BRANCH  41  43
ATOM     43  O   UNL     1      17.398  30.898  22.538  1.00  0.00    -0.477 OA
ATOM     44  H   UNL     1      17.600  30.233  21.815  1.00  0.00     0.296 HD
ENDBRANCH  41  43
ENDBRANCH   1  41
BRANCH   3  45
ATOM     45  O   UNL     1      13.613  33.439  24.879  1.00  0.00    -0.391 OA
ATOM     46  H   UNL     1      14.044  34.177  25.378  1.00  0.00     0.211 HD
ENDBRANCH   3  45
BRANCH   5  47
ATOM     47  C   UNL     1      17.102  33.961  25.829  1.00  0.00     0.176 C 
BRANCH  47  48
ATOM     48  O   UNL     1      17.443  34.408  24.504  1.00  0.00    -0.388 OA
ATOM     49  H   UNL     1      18.386  34.741  24.644  1.00  0.00     0.211 HD
ENDBRANCH  47  48
BRANCH  47  50
ATOM     50  C   UNL     1      18.411  33.699  26.504  1.00  0.00     0.165 C 
BRANCH  50  51
ATOM     51  O   UNL     1      18.503  34.217  27.768  1.00  0.00    -0.388 OA
ATOM     52  H   UNL     1      19.417  34.012  28.094  1.00  0.00     0.211 HD
ENDBRANCH  50  51
BRANCH  50  53
ATOM     53  C   UNL     1      19.586  33.828  25.610  1.00  0.00     0.154 C 
BRANCH  53  54
ATOM     54  N   UNL     1      19.938  32.634  24.868  1.00  0.00    -0.319 N 
ATOM     55  C   UNL     1      19.924  32.609  23.451  1.00  0.00     0.407 C 
ATOM     56  H   UNL     1      20.216  31.746  25.338  1.00  0.00     0.167 HD
ATOM     57  O   UNL     1      19.610  33.592  22.742  1.00  0.00    -0.225 OA
BRANCH  55  58
ATOM     58  O   UNL     1      20.270  31.458  22.704  1.00  0.00    -0.443 OA
BRANCH  58  59
ATOM     59  C   UNL     1      21.465  30.789  22.969  1.00  0.00     0.294 C 
BRANCH  59  60
ATOM     60  C   UNL     1      21.159  29.576  23.779  1.00  0.00     0.121 A 
ATOM     61  C   UNL     1      21.988  28.758  24.514  1.00  0.00     0.144 A 
ATOM     62  N   UNL     1      19.916  29.023  23.950  1.00  0.00    -0.131 NA
ATOM     63  N   UNL     1      21.295  27.767  25.099  1.00  0.00    -0.220 N 
ATOM     64  N   UNL     1      20.023  27.965  24.726  1.00  0.00    -0.062 NA
BRANCH  63  65
ATOM     65  C   UNL     1      21.751  26.716  25.944  1.00  0.00     0.070 A 
ATOM     66  C   UNL     1      22.144  25.521  25.383  1.00  0.00    -0.020 A 
ATOM     67  C   UNL     1      21.814  26.820  27.315  1.00  0.00     0.029 A 
ATOM     68  C   UNL     1      22.580  24.472  26.169  1.00  0.00     0.006 A 
ATOM     69  C   UNL     1      22.249  25.781  28.117  1.00  0.00     0.002 A 
ATOM     70  C   UNL     1      22.637  24.590  27.537  1.00  0.00     0.000 A 
BRANCH  66  71
ATOM     71  C   UNL     1      22.102  25.371  23.914  1.00  0.00     0.015 C 
ATOM     72  C   UNL     1      20.875  24.544  23.559  1.00  0.00     0.012 C 
ATOM     73  C   UNL     1      23.341  24.590  23.447  1.00  0.00     0.012 C 
ENDBRANCH  66  71
ENDBRANCH  63  65
ENDBRANCH  59  60
ENDBRANCH  58  59
ENDBRANCH  55  58
ENDBRANCH  53  54
ENDBRANCH  50  53
ENDBRANCH  47  50
ENDBRANCH   5  47
BRANCH   4  74
ATOM     74  N   UNL     1      15.237  31.454  27.376  1.00  0.00    -0.348 N 
ATOM     75  C   UNL     1      15.827  31.518  28.648  1.00  0.00     0.217 C 
ATOM     76  H   UNL     1      14.893  30.503  27.046  1.00  0.00     0.163 HD
ATOM     77  C   UNL     1      15.933  30.258  29.458  1.00  0.00     0.114 C 
ATOM     78  O   UNL     1      16.254  32.589  29.099  1.00  0.00    -0.275 OA
ENDBRANCH   4  74
TORSDOF 31
