REMARK VINA RESULT:    -5.445      3.098      6.129
REMARK INTER + INTRA:         -21.687
REMARK INTER:                 -16.323
REMARK INTRA:                  -5.364
REMARK UNBOUND:                -7.010
REMARK SMILES CC(=O)N[C@@H]1[C@@H](O)C[C@](OC[C@H]2O[C@@H](O[C@H]3[C@H](O)[C@@H](O)[C@H](OCCN=[N+]=[N-])O[C@@H]3CO)[C@H](O)[C@@H](O)[C@H]2O)(C(=O)O)O[C@H]1C(O)[C@H](O)CNC(=O)OCc1cn([C@@H](CC(=O)O)C(=O)O)nn1
REMARK SMILES IDX 43 1 42 2 9 3 8 4 41 5 6 6 5 7 10 8 11 9 12 10 14 11 13 12
REMARK SMILES IDX 32 13 34 14 36 15 15 16 16 17 29 18 28 19 21 20 17 21 19 22
REMARK SMILES IDX 30 23 31 24 22 26 23 27 24 28 25 29 26 30 27 31 18 32 20 34
REMARK SMILES IDX 33 36 35 38 37 40 38 42 39 43 40 44 7 46 4 48 2 49 1 51 3 52
REMARK SMILES IDX 44 53 45 55 46 56 47 58 48 59 49 60 50 62 51 63 52 64 53 65
REMARK SMILES IDX 54 66 65 67 55 68 64 69 56 70 57 71 58 72 59 73 60 74 61 76
REMARK SMILES IDX 62 77 63 78
REMARK H PARENT 31 25 18 33 20 35 33 37 35 39 37 41 40 45 7 47 4 50 44 54
REMARK H PARENT 46 57 48 61 60 75 63 79
REMARK Flexibility Score: inf
ROOT
ATOM      1  C   UNL     1      14.331  29.195  20.902  1.00  0.00     0.176 C 
ENDROOT
BRANCH   1   2
ATOM      2  C   UNL     1      15.092  30.227  21.715  1.00  0.00     0.178 C 
ATOM      3  C   UNL     1      17.293  30.892  22.208  1.00  0.00     0.272 C 
ATOM      4  C   UNL     1      16.465  31.540  23.326  1.00  0.00     0.113 C 
ATOM      5  O   UNL     1      16.422  29.974  21.579  1.00  0.00    -0.332 OA
ATOM      6  C   UNL     1      15.758  30.387  24.025  1.00  0.00     0.145 C 
ATOM      7  C   UNL     1      14.538  30.128  23.125  1.00  0.00     0.142 C 
BRANCH   3   8
ATOM      8  O   UNL     1      18.321  30.337  22.658  1.00  0.00    -0.338 OA
BRANCH   8   9
ATOM      9  C   UNL     1      19.345  29.781  23.096  1.00  0.00     0.199 C 
BRANCH   9  10
ATOM     10  C   UNL     1      20.531  29.624  22.144  1.00  0.00     0.179 C 
ATOM     11  C   UNL     1      21.454  27.625  22.814  1.00  0.00     0.282 C 
ATOM     12  O   UNL     1      21.604  28.972  22.646  1.00  0.00    -0.341 OA
ATOM     13  C   UNL     1      21.049  26.932  21.571  1.00  0.00     0.202 C 
ATOM     14  C   UNL     1      21.148  27.976  20.448  1.00  0.00     0.179 C 
ATOM     15  C   UNL     1      20.125  29.035  20.813  1.00  0.00     0.177 C 
BRANCH  11  16
ATOM     16  O   UNL     1      20.823  27.225  23.981  1.00  0.00    -0.341 OA
BRANCH  16  17
ATOM     17  C   UNL     1      21.677  26.678  24.911  1.00  0.00     0.184 C 
ATOM     18  C   UNL     1      22.718  27.642  25.354  1.00  0.00     0.178 C 
ATOM     19  O   UNL     1      23.534  27.092  26.334  1.00  0.00    -0.341 OA
ATOM     20  C   UNL     1      23.822  25.738  26.140  1.00  0.00     0.281 C 
ATOM     21  C   UNL     1      22.342  25.490  24.222  1.00  0.00     0.180 C 
ATOM     22  C   UNL     1      23.772  25.407  24.652  1.00  0.00     0.202 C 
BRANCH  18  23
ATOM     23  C   UNL     1      22.002  28.813  26.026  1.00  0.00     0.191 C 
BRANCH  23  24
ATOM     24  O   UNL     1      20.767  28.355  26.527  1.00  0.00    -0.394 OA
ATOM     25  H   UNL     1      20.366  27.835  25.769  1.00  0.00     0.210 HD
ENDBRANCH  23  24
ENDBRANCH  18  23
BRANCH  20  26
ATOM     26  O   UNL     1      22.825  25.009  26.761  1.00  0.00    -0.350 OA
BRANCH  26  27
ATOM     27  C   UNL     1      23.090  24.546  28.013  1.00  0.00     0.169 C 
BRANCH  27  28
ATOM     28  C   UNL     1      22.793  25.590  29.045  1.00  0.00     0.119 C 
BRANCH  28  29
ATOM     29  N   UNL     1      21.506  26.203  28.714  1.00  0.00    -0.092 NA
ATOM     30  N   UNL     1      20.906  26.814  29.622  1.00  0.00     0.001 N 
ATOM     31  N   UNL     1      19.933  27.110  30.341  1.00  0.00    -0.003 NA
ENDBRANCH  28  29
ENDBRANCH  27  28
ENDBRANCH  26  27
ENDBRANCH  20  26
BRANCH  21  32
ATOM     32  O   UNL     1      21.680  24.317  24.564  1.00  0.00    -0.387 OA
ATOM     33  H   UNL     1      21.444  23.801  23.739  1.00  0.00     0.211 HD
ENDBRANCH  21  32
BRANCH  22  34
ATOM     34  O   UNL     1      24.630  26.241  23.933  1.00  0.00    -0.385 OA
ATOM     35  H   UNL     1      24.648  25.844  23.005  1.00  0.00     0.211 HD
ENDBRANCH  22  34
ENDBRANCH  16  17
ENDBRANCH  11  16
BRANCH  13  36
ATOM     36  O   UNL     1      21.912  25.900  21.195  1.00  0.00    -0.385 OA
ATOM     37  H   UNL     1      21.972  25.913  20.196  1.00  0.00     0.211 HD
ENDBRANCH  13  36
BRANCH  14  38
ATOM     38  O   UNL     1      20.915  27.446  19.203  1.00  0.00    -0.387 OA
ATOM     39  H   UNL     1      21.616  26.786  18.938  1.00  0.00     0.211 HD
ENDBRANCH  14  38
BRANCH  15  40
ATOM     40  O   UNL     1      18.872  28.463  20.850  1.00  0.00    -0.387 OA
ATOM     41  H   UNL     1      18.138  29.093  20.748  1.00  0.00     0.211 HD
ENDBRANCH  15  40
ENDBRANCH   9  10
ENDBRANCH   8   9
ENDBRANCH   3   8
BRANCH   3  42
ATOM     42  C   UNL     1      17.521  32.036  21.224  1.00  0.00     0.364 C 
ATOM     43  O   UNL     1      17.370  33.209  21.595  1.00  0.00    -0.246 OA
BRANCH  42  44
ATOM     44  O   UNL     1      17.895  31.789  19.916  1.00  0.00    -0.477 OA
ATOM     45  H   UNL     1      17.234  31.865  19.131  1.00  0.00     0.296 HD
ENDBRANCH  42  44
ENDBRANCH   3  42
BRANCH   6  46
ATOM     46  O   UNL     1      16.517  29.204  23.881  1.00  0.00    -0.391 OA
ATOM     47  H   UNL     1      17.247  29.301  23.248  1.00  0.00     0.211 HD
ENDBRANCH   6  46
BRANCH   7  48
ATOM     48  N   UNL     1      13.583  31.164  23.441  1.00  0.00    -0.348 N 
ATOM     49  C   UNL     1      12.214  30.831  23.676  1.00  0.00     0.217 C 
ATOM     50  H   UNL     1      13.843  32.175  23.508  1.00  0.00     0.163 HD
ATOM     51  C   UNL     1      11.271  31.954  23.998  1.00  0.00     0.114 C 
ATOM     52  O   UNL     1      11.799  29.643  23.620  1.00  0.00    -0.275 OA
ENDBRANCH   7  48
ENDBRANCH   1   2
BRANCH   1  53
ATOM     53  O   UNL     1      13.628  28.316  21.717  1.00  0.00    -0.388 OA
ATOM     54  H   UNL     1      13.333  28.751  22.566  1.00  0.00     0.211 HD
ENDBRANCH   1  53
BRANCH   1  55
ATOM     55  C   UNL     1      15.124  28.457  19.890  1.00  0.00     0.165 C 
BRANCH  55  56
ATOM     56  O   UNL     1      16.152  27.679  20.372  1.00  0.00    -0.388 OA
ATOM     57  H   UNL     1      16.790  27.364  19.678  1.00  0.00     0.211 HD
ENDBRANCH  55  56
BRANCH  55  58
ATOM     58  C   UNL     1      15.504  29.334  18.746  1.00  0.00     0.154 C 
BRANCH  58  59
ATOM     59  N   UNL     1      16.105  28.686  17.622  1.00  0.00    -0.319 N 
ATOM     60  C   UNL     1      17.477  28.896  17.348  1.00  0.00     0.407 C 
ATOM     61  H   UNL     1      15.563  28.064  17.007  1.00  0.00     0.167 HD
ATOM     62  O   UNL     1      18.135  29.658  18.138  1.00  0.00    -0.225 OA
BRANCH  60  63
ATOM     63  O   UNL     1      18.189  28.357  16.291  1.00  0.00    -0.443 OA
BRANCH  63  64
ATOM     64  C   UNL     1      18.424  29.150  15.116  1.00  0.00     0.294 C 
BRANCH  64  65
ATOM     65  C   UNL     1      17.116  29.551  14.548  1.00  0.00     0.120 A 
ATOM     66  C   UNL     1      16.093  28.779  14.045  1.00  0.00     0.139 A 
ATOM     67  N   UNL     1      16.679  30.846  14.396  1.00  0.00    -0.132 NA
ATOM     68  N   UNL     1      15.091  29.599  13.613  1.00  0.00    -0.237 N 
ATOM     69  N   UNL     1      15.495  30.814  13.847  1.00  0.00    -0.066 NA
BRANCH  68  70
ATOM     70  C   UNL     1      13.847  29.186  13.005  1.00  0.00     0.229 C 
BRANCH  70  71
ATOM     71  C   UNL     1      12.706  29.752  13.833  1.00  0.00     0.161 C 
BRANCH  71  72
ATOM     72  C   UNL     1      12.079  28.715  14.674  1.00  0.00     0.306 C 
ATOM     73  O   UNL     1      11.226  29.015  15.546  1.00  0.00    -0.252 OA
BRANCH  72  74
ATOM     74  O   UNL     1      12.420  27.390  14.517  1.00  0.00    -0.481 OA
ATOM     75  H   UNL     1      11.814  26.673  14.932  1.00  0.00     0.296 HD
ENDBRANCH  72  74
ENDBRANCH  71  72
ENDBRANCH  70  71
BRANCH  70  76
ATOM     76  C   UNL     1      13.777  29.728  11.637  1.00  0.00     0.329 C 
ATOM     77  O   UNL     1      12.956  30.640  11.386  1.00  0.00    -0.250 OA
BRANCH  76  78
ATOM     78  O   UNL     1      14.584  29.275  10.601  1.00  0.00    -0.480 OA
ATOM     79  H   UNL     1      14.143  28.788   9.826  1.00  0.00     0.296 HD
ENDBRANCH  76  78
ENDBRANCH  70  76
ENDBRANCH  68  70
ENDBRANCH  64  65
ENDBRANCH  63  64
ENDBRANCH  60  63
ENDBRANCH  58  59
ENDBRANCH  55  58
ENDBRANCH   1  55
TORSDOF 35
