REMARK VINA RESULT:    -5.393      9.049     17.036
REMARK INTER + INTRA:         -22.952
REMARK INTER:                 -17.480
REMARK INTRA:                  -5.472
REMARK UNBOUND:                -8.417
REMARK SMILES CC(=O)N[C@@H]1[C@@H](O)C[C@](OC[C@H]2O[C@@H](O[C@H]3[C@H](O)[C@@H](O)[C@H](OCCN=[N+]=[N-])O[C@@H]3CO)[C@H](O)[C@@H](O)[C@H]2O)(C(=O)O)O[C@H]1C(O)[C@H](O)CNC(=O)OCc1cn(CCNC(=O)NCc2ccco2)nn1
REMARK SMILES IDX 43 1 42 2 9 3 8 4 41 5 6 6 5 7 10 8 11 9 12 10 14 11 13 12
REMARK SMILES IDX 32 13 34 14 36 15 15 16 16 17 29 18 28 19 21 20 17 21 19 22
REMARK SMILES IDX 30 23 31 24 22 26 23 27 24 28 25 29 26 30 27 31 18 32 20 34
REMARK SMILES IDX 33 36 35 38 37 40 38 42 39 43 40 44 7 46 4 48 2 49 1 51 3 52
REMARK SMILES IDX 44 53 45 55 46 56 47 58 48 59 49 60 50 62 51 63 52 64 53 65
REMARK SMILES IDX 54 66 69 67 55 68 68 69 56 70 57 71 58 72 59 73 60 75 61 76
REMARK SMILES IDX 62 78 63 79 64 80 67 81 65 82 66 83
REMARK H PARENT 31 25 18 33 20 35 33 37 35 39 37 41 40 45 7 47 4 50 44 54
REMARK H PARENT 46 57 48 61 58 74 61 77
REMARK Flexibility Score: inf
ROOT
ATOM      1  C   UNL     1      32.701  19.836  26.445  1.00  0.00     0.176 C 
ENDROOT
BRANCH   1   2
ATOM      2  C   UNL     1      33.535  18.651  26.813  1.00  0.00     0.178 C 
ATOM      3  C   UNL     1      32.847  16.839  25.437  1.00  0.00     0.272 C 
ATOM      4  C   UNL     1      31.693  16.770  26.489  1.00  0.00     0.113 C 
ATOM      5  O   UNL     1      33.746  17.780  25.789  1.00  0.00    -0.332 OA
ATOM      6  C   UNL     1      32.177  16.913  27.877  1.00  0.00     0.145 C 
ATOM      7  C   UNL     1      33.203  17.996  28.104  1.00  0.00     0.142 C 
BRANCH   3   8
ATOM      8  O   UNL     1      32.206  17.258  24.290  1.00  0.00    -0.338 OA
BRANCH   8   9
ATOM      9  C   UNL     1      32.811  18.055  23.414  1.00  0.00     0.199 C 
BRANCH   9  10
ATOM     10  C   UNL     1      32.369  19.357  22.956  1.00  0.00     0.179 C 
ATOM     11  C   UNL     1      32.043  20.861  21.256  1.00  0.00     0.282 C 
ATOM     12  O   UNL     1      32.219  19.518  21.590  1.00  0.00    -0.341 OA
ATOM     13  C   UNL     1      31.552  21.727  22.357  1.00  0.00     0.202 C 
ATOM     14  C   UNL     1      30.664  21.064  23.369  1.00  0.00     0.179 C 
ATOM     15  C   UNL     1      30.959  19.602  23.529  1.00  0.00     0.177 C 
BRANCH  11  16
ATOM     16  O   UNL     1      31.231  21.023  20.145  1.00  0.00    -0.341 OA
BRANCH  16  17
ATOM     17  C   UNL     1      30.828  19.794  19.584  1.00  0.00     0.184 C 
ATOM     18  C   UNL     1      31.366  19.746  18.184  1.00  0.00     0.178 C 
ATOM     19  O   UNL     1      30.515  19.067  17.314  1.00  0.00    -0.341 OA
ATOM     20  C   UNL     1      29.367  19.842  17.200  1.00  0.00     0.281 C 
ATOM     21  C   UNL     1      29.343  19.707  19.705  1.00  0.00     0.180 C 
ATOM     22  C   UNL     1      28.560  19.719  18.448  1.00  0.00     0.202 C 
BRANCH  18  23
ATOM     23  C   UNL     1      32.671  18.950  18.206  1.00  0.00     0.191 C 
BRANCH  23  24
ATOM     24  O   UNL     1      32.606  18.087  19.321  1.00  0.00    -0.394 OA
ATOM     25  H   UNL     1      33.526  17.696  19.385  1.00  0.00     0.210 HD
ENDBRANCH  23  24
ENDBRANCH  18  23
BRANCH  20  26
ATOM     26  O   UNL     1      28.622  19.283  16.158  1.00  0.00    -0.350 OA
BRANCH  26  27
ATOM     27  C   UNL     1      29.371  19.189  14.985  1.00  0.00     0.169 C 
BRANCH  27  28
ATOM     28  C   UNL     1      28.605  18.244  14.056  1.00  0.00     0.119 C 
BRANCH  28  29
ATOM     29  N   UNL     1      27.541  19.029  13.457  1.00  0.00    -0.092 NA
ATOM     30  N   UNL     1      26.382  18.593  13.403  1.00  0.00     0.001 N 
ATOM     31  N   UNL     1      25.203  18.277  13.638  1.00  0.00    -0.003 NA
ENDBRANCH  28  29
ENDBRANCH  27  28
ENDBRANCH  26  27
ENDBRANCH  20  26
BRANCH  21  32
ATOM     32  O   UNL     1      29.055  18.540  20.442  1.00  0.00    -0.387 OA
ATOM     33  H   UNL     1      29.651  18.427  21.204  1.00  0.00     0.211 HD
ENDBRANCH  21  32
BRANCH  22  34
ATOM     34  O   UNL     1      27.705  20.851  18.472  1.00  0.00    -0.385 OA
ATOM     35  H   UNL     1      28.237  21.567  18.936  1.00  0.00     0.211 HD
ENDBRANCH  22  34
ENDBRANCH  16  17
ENDBRANCH  11  16
BRANCH  13  36
ATOM     36  O   UNL     1      32.574  22.473  22.961  1.00  0.00    -0.385 OA
ATOM     37  H   UNL     1      33.445  22.321  22.531  1.00  0.00     0.211 HD
ENDBRANCH  13  36
BRANCH  14  38
ATOM     38  O   UNL     1      29.307  21.266  23.086  1.00  0.00    -0.387 OA
ATOM     39  H   UNL     1      28.892  20.361  23.147  1.00  0.00     0.211 HD
ENDBRANCH  14  38
BRANCH  15  40
ATOM     40  O   UNL     1      30.032  18.775  22.941  1.00  0.00    -0.387 OA
ATOM     41  H   UNL     1      29.671  18.183  23.626  1.00  0.00     0.211 HD
ENDBRANCH  15  40
ENDBRANCH   9  10
ENDBRANCH   8   9
ENDBRANCH   3   8
BRANCH   3  42
ATOM     42  C   UNL     1      33.294  15.452  25.335  1.00  0.00     0.364 C 
ATOM     43  O   UNL     1      34.495  15.164  25.231  1.00  0.00    -0.246 OA
BRANCH  42  44
ATOM     44  O   UNL     1      32.420  14.360  25.345  1.00  0.00    -0.477 OA
ATOM     45  H   UNL     1      31.414  14.531  25.336  1.00  0.00     0.296 HD
ENDBRANCH  42  44
ENDBRANCH   3  42
BRANCH   6  46
ATOM     46  O   UNL     1      31.058  17.178  28.689  1.00  0.00    -0.391 OA
ATOM     47  H   UNL     1      30.454  17.801  28.212  1.00  0.00     0.211 HD
ENDBRANCH   6  46
BRANCH   7  48
ATOM     48  N   UNL     1      34.385  17.394  28.723  1.00  0.00    -0.348 N 
ATOM     49  C   UNL     1      34.573  17.417  30.111  1.00  0.00     0.217 C 
ATOM     50  H   UNL     1      35.086  16.943  28.098  1.00  0.00     0.163 HD
ATOM     51  C   UNL     1      35.762  16.819  30.789  1.00  0.00     0.114 C 
ATOM     52  O   UNL     1      33.675  17.984  30.813  1.00  0.00    -0.275 OA
ENDBRANCH   7  48
ENDBRANCH   1   2
BRANCH   1  53
ATOM     53  O   UNL     1      33.596  20.919  26.130  1.00  0.00    -0.388 OA
ATOM     54  H   UNL     1      34.343  20.508  25.668  1.00  0.00     0.211 HD
ENDBRANCH   1  53
BRANCH   1  55
ATOM     55  C   UNL     1      31.854  20.422  27.537  1.00  0.00     0.165 C 
BRANCH  55  56
ATOM     56  O   UNL     1      30.580  20.810  27.196  1.00  0.00    -0.388 OA
ATOM     57  H   UNL     1      30.056  20.100  26.747  1.00  0.00     0.211 HD
ENDBRANCH  55  56
BRANCH  55  58
ATOM     58  C   UNL     1      32.588  21.558  28.258  1.00  0.00     0.154 C 
BRANCH  58  59
ATOM     59  N   UNL     1      31.848  22.793  28.162  1.00  0.00    -0.319 N 
ATOM     60  C   UNL     1      32.373  23.968  27.578  1.00  0.00     0.407 C 
ATOM     61  H   UNL     1      30.880  22.818  28.538  1.00  0.00     0.167 HD
ATOM     62  O   UNL     1      33.543  23.956  27.113  1.00  0.00    -0.225 OA
BRANCH  60  63
ATOM     63  O   UNL     1      31.637  25.146  27.501  1.00  0.00    -0.443 OA
BRANCH  63  64
ATOM     64  C   UNL     1      31.624  26.021  28.625  1.00  0.00     0.294 C 
BRANCH  64  65
ATOM     65  C   UNL     1      30.212  26.006  29.116  1.00  0.00     0.120 A 
ATOM     66  C   UNL     1      29.799  25.501  30.320  1.00  0.00     0.138 A 
ATOM     67  N   UNL     1      29.120  26.484  28.470  1.00  0.00    -0.132 NA
ATOM     68  N   UNL     1      28.487  25.682  30.369  1.00  0.00    -0.250 N 
ATOM     69  N   UNL     1      28.082  26.277  29.247  1.00  0.00    -0.067 NA
BRANCH  68  70
ATOM     70  C   UNL     1      27.631  25.275  31.483  1.00  0.00     0.167 C 
BRANCH  70  71
ATOM     71  C   UNL     1      26.290  25.985  31.296  1.00  0.00     0.141 C 
BRANCH  71  72
ATOM     72  N   UNL     1      25.436  25.087  30.574  1.00  0.00    -0.336 N 
ATOM     73  C   UNL     1      24.434  25.505  29.675  1.00  0.00     0.315 C 
ATOM     74  H   UNL     1      25.588  24.057  30.746  1.00  0.00     0.165 HD
ATOM     75  O   UNL     1      24.216  26.718  29.467  1.00  0.00    -0.249 OA
ATOM     76  N   UNL     1      23.661  24.506  28.992  1.00  0.00    -0.331 N 
ATOM     77  H   UNL     1      23.880  23.499  29.199  1.00  0.00     0.165 HD
BRANCH  76  78
ATOM     78  C   UNL     1      22.633  24.893  28.067  1.00  0.00     0.193 C 
BRANCH  78  79
ATOM     79  C   UNL     1      23.122  24.769  26.668  1.00  0.00     0.122 A 
ATOM     80  C   UNL     1      22.298  24.726  25.550  1.00  0.00     0.047 A 
ATOM     81  O   UNL     1      24.349  24.684  26.277  1.00  0.00    -0.467 OA
ATOM     82  C   UNL     1      23.129  24.610  24.474  1.00  0.00     0.042 A 
ATOM     83  C   UNL     1      24.406  24.587  24.966  1.00  0.00     0.195 A 
ENDBRANCH  78  79
ENDBRANCH  76  78
ENDBRANCH  71  72
ENDBRANCH  70  71
ENDBRANCH  68  70
ENDBRANCH  64  65
ENDBRANCH  63  64
ENDBRANCH  60  63
ENDBRANCH  58  59
ENDBRANCH  55  58
ENDBRANCH   1  55
TORSDOF 34
