REMARK VINA RESULT:    -5.950     20.675     27.327
REMARK INTER + INTRA:         -24.498
REMARK INTER:                 -18.543
REMARK INTRA:                  -5.955
REMARK UNBOUND:                -8.981
REMARK SMILES CC(=O)N[C@@H]1[C@@H](O)C[C@](OC[C@H]2O[C@@H](O[C@H]3[C@H](O)[C@@H](O)[C@H](OCCN=[N+]=[N-])O[C@@H]3CO)[C@H](O)[C@@H](O)[C@H]2O)(C(=O)O)O[C@H]1C(O)[C@H](O)CNC(=O)OCc1cn(-c2cc(C(=O)O)nc(-c3ccccc3)c2)nn1
REMARK SMILES IDX 9 1 8 2 6 3 5 4 42 5 41 6 10 7 11 8 12 9 14 10 13 11 32 12
REMARK SMILES IDX 34 13 36 14 15 15 16 16 29 17 28 18 21 19 17 20 19 21 30 22
REMARK SMILES IDX 31 23 22 25 23 26 24 27 25 28 26 29 27 30 18 31 20 33 33 35
REMARK SMILES IDX 35 37 37 39 38 41 39 42 40 43 7 45 43 47 44 48 45 50 46 51
REMARK SMILES IDX 47 53 48 54 49 55 50 57 51 58 52 59 53 60 54 61 72 62 55 63
REMARK SMILES IDX 71 64 56 65 57 66 70 67 58 68 63 69 62 70 59 71 60 72 61 73
REMARK SMILES IDX 64 75 65 76 69 77 66 78 68 79 67 80 4 81 2 82 1 84 3 85
REMARK H PARENT 31 24 18 32 20 34 33 36 35 38 37 40 40 44 7 46 44 49 46 52
REMARK H PARENT 48 56 61 74 4 83
REMARK Flexibility Score: inf
ROOT
ATOM      1  C   UNL     1       4.400  23.508  33.671  1.00  0.00     0.272 C 
ATOM      2  C   UNL     1       3.096  23.209  34.437  1.00  0.00     0.113 C 
ATOM      3  C   UNL     1       3.072  21.879  35.098  1.00  0.00     0.145 C 
ATOM      4  C   UNL     1       3.679  20.771  34.246  1.00  0.00     0.142 C 
ATOM      5  C   UNL     1       3.944  21.439  32.893  1.00  0.00     0.178 C 
ATOM      6  O   UNL     1       4.950  22.351  33.124  1.00  0.00    -0.332 OA
ENDROOT
BRANCH   1   7
ATOM      7  O   UNL     1       5.250  24.019  34.598  1.00  0.00    -0.338 OA
BRANCH   7   8
ATOM      8  C   UNL     1       4.944  25.185  35.221  1.00  0.00     0.199 C 
BRANCH   8   9
ATOM      9  C   UNL     1       6.194  25.766  35.930  1.00  0.00     0.179 C 
ATOM     10  C   UNL     1       8.247  25.026  36.771  1.00  0.00     0.282 C 
ATOM     11  O   UNL     1       7.036  24.734  36.197  1.00  0.00    -0.341 OA
ATOM     12  C   UNL     1       8.480  26.523  36.687  1.00  0.00     0.202 C 
ATOM     13  C   UNL     1       8.192  27.093  35.319  1.00  0.00     0.179 C 
ATOM     14  C   UNL     1       6.830  26.677  34.893  1.00  0.00     0.177 C 
BRANCH  10  15
ATOM     15  O   UNL     1       9.220  24.323  36.086  1.00  0.00    -0.341 OA
BRANCH  15  16
ATOM     16  C   UNL     1       9.808  23.291  36.798  1.00  0.00     0.184 C 
ATOM     17  C   UNL     1       9.945  23.571  38.250  1.00  0.00     0.178 C 
ATOM     18  O   UNL     1      11.269  23.580  38.654  1.00  0.00    -0.341 OA
ATOM     19  C   UNL     1      12.058  24.418  37.869  1.00  0.00     0.281 C 
ATOM     20  C   UNL     1      11.095  22.944  36.108  1.00  0.00     0.180 C 
ATOM     21  C   UNL     1      12.301  23.683  36.570  1.00  0.00     0.202 C 
BRANCH  17  22
ATOM     22  C   UNL     1       9.251  22.483  39.042  1.00  0.00     0.191 C 
BRANCH  22  23
ATOM     23  O   UNL     1       9.870  21.254  38.899  1.00  0.00    -0.394 OA
ATOM     24  H   UNL     1      10.559  21.148  39.607  1.00  0.00     0.210 HD
ENDBRANCH  22  23
ENDBRANCH  17  22
BRANCH  19  25
ATOM     25  O   UNL     1      13.264  24.576  38.535  1.00  0.00    -0.350 OA
BRANCH  25  26
ATOM     26  C   UNL     1      13.403  25.860  39.065  1.00  0.00     0.169 C 
BRANCH  26  27
ATOM     27  C   UNL     1      14.467  26.626  38.320  1.00  0.00     0.119 C 
BRANCH  27  28
ATOM     28  N   UNL     1      13.849  27.402  37.268  1.00  0.00    -0.092 NA
ATOM     29  N   UNL     1      14.251  27.259  36.122  1.00  0.00     0.001 N 
ATOM     30  N   UNL     1      14.257  27.146  34.885  1.00  0.00    -0.003 NA
ENDBRANCH  27  28
ENDBRANCH  26  27
ENDBRANCH  25  26
ENDBRANCH  19  25
BRANCH  20  31
ATOM     31  O   UNL     1      11.336  21.573  36.357  1.00  0.00    -0.387 OA
ATOM     32  H   UNL     1      11.829  21.166  35.602  1.00  0.00     0.211 HD
ENDBRANCH  20  31
BRANCH  21  33
ATOM     33  O   UNL     1      12.697  24.568  35.545  1.00  0.00    -0.385 OA
ATOM     34  H   UNL     1      11.934  25.128  35.233  1.00  0.00     0.211 HD
ENDBRANCH  21  33
ENDBRANCH  15  16
ENDBRANCH  10  15
BRANCH  12  35
ATOM     35  O   UNL     1       7.750  27.246  37.621  1.00  0.00    -0.385 OA
ATOM     36  H   UNL     1       8.413  27.854  38.056  1.00  0.00     0.211 HD
ENDBRANCH  12  35
BRANCH  13  37
ATOM     37  O   UNL     1       9.196  26.627  34.470  1.00  0.00    -0.387 OA
ATOM     38  H   UNL     1       9.469  27.391  33.900  1.00  0.00     0.211 HD
ENDBRANCH  13  37
BRANCH  14  39
ATOM     39  O   UNL     1       6.983  25.937  33.702  1.00  0.00    -0.387 OA
ATOM     40  H   UNL     1       7.234  26.492  32.946  1.00  0.00     0.211 HD
ENDBRANCH  14  39
ENDBRANCH   8   9
ENDBRANCH   7   8
ENDBRANCH   1   7
BRANCH   1  41
ATOM     41  C   UNL     1       4.075  24.409  32.536  1.00  0.00     0.364 C 
ATOM     42  O   UNL     1       2.903  24.816  32.312  1.00  0.00    -0.246 OA
BRANCH  41  43
ATOM     43  O   UNL     1       5.064  24.836  31.679  1.00  0.00    -0.477 OA
ATOM     44  H   UNL     1       5.559  24.216  31.025  1.00  0.00     0.296 HD
ENDBRANCH  41  43
ENDBRANCH   1  41
BRANCH   3  45
ATOM     45  O   UNL     1       3.562  21.890  36.385  1.00  0.00    -0.391 OA
ATOM     46  H   UNL     1       3.026  21.287  36.938  1.00  0.00     0.211 HD
ENDBRANCH   3  45
BRANCH   5  47
ATOM     47  C   UNL     1       4.161  20.482  31.783  1.00  0.00     0.176 C 
BRANCH  47  48
ATOM     48  O   UNL     1       5.167  20.996  30.933  1.00  0.00    -0.388 OA
ATOM     49  H   UNL     1       6.029  20.495  31.090  1.00  0.00     0.211 HD
ENDBRANCH  47  48
BRANCH  47  50
ATOM     50  C   UNL     1       2.945  20.117  30.977  1.00  0.00     0.165 C 
BRANCH  50  51
ATOM     51  O   UNL     1       2.711  18.760  31.074  1.00  0.00    -0.388 OA
ATOM     52  H   UNL     1       3.239  18.235  30.417  1.00  0.00     0.211 HD
ENDBRANCH  50  51
BRANCH  50  53
ATOM     53  C   UNL     1       3.219  20.547  29.557  1.00  0.00     0.154 C 
BRANCH  53  54
ATOM     54  N   UNL     1       3.067  21.929  29.278  1.00  0.00    -0.319 N 
ATOM     55  C   UNL     1       2.467  22.390  28.078  1.00  0.00     0.407 C 
ATOM     56  H   UNL     1       3.396  22.656  29.959  1.00  0.00     0.167 HD
ATOM     57  O   UNL     1       2.079  21.562  27.232  1.00  0.00    -0.225 OA
BRANCH  55  58
ATOM     58  O   UNL     1       2.304  23.767  27.832  1.00  0.00    -0.443 OA
BRANCH  58  59
ATOM     59  C   UNL     1       2.217  24.640  28.930  1.00  0.00     0.294 C 
BRANCH  59  60
ATOM     60  C   UNL     1       3.162  25.774  28.793  1.00  0.00     0.121 A 
ATOM     61  C   UNL     1       3.919  26.171  27.716  1.00  0.00     0.144 A 
ATOM     62  N   UNL     1       3.499  26.666  29.769  1.00  0.00    -0.131 NA
ATOM     63  N   UNL     1       4.673  27.246  28.030  1.00  0.00    -0.220 N 
ATOM     64  N   UNL     1       4.385  27.520  29.303  1.00  0.00    -0.062 NA
BRANCH  63  65
ATOM     65  C   UNL     1       5.596  27.913  27.187  1.00  0.00     0.071 A 
ATOM     66  C   UNL     1       6.415  27.128  26.390  1.00  0.00     0.064 A 
ATOM     67  C   UNL     1       5.736  29.281  27.082  1.00  0.00     0.057 A 
ATOM     68  C   UNL     1       7.318  27.740  25.541  1.00  0.00     0.151 A 
ATOM     69  C   UNL     1       6.627  29.875  26.245  1.00  0.00     0.073 A 
ATOM     70  N   UNL     1       7.409  29.084  25.484  1.00  0.00    -0.241 NA
BRANCH  68  71
ATOM     71  C   UNL     1       8.189  26.943  24.688  1.00  0.00     0.354 C 
ATOM     72  O   UNL     1       9.418  27.205  24.690  1.00  0.00    -0.245 OA
BRANCH  71  73
ATOM     73  O   UNL     1       7.748  25.920  23.883  1.00  0.00    -0.477 OA
ATOM     74  H   UNL     1       8.344  25.129  23.609  1.00  0.00     0.297 HD
ENDBRANCH  71  73
ENDBRANCH  68  71
BRANCH  69  75
ATOM     75  C   UNL     1       6.754  31.324  26.146  1.00  0.00     0.000 A 
ATOM     76  C   UNL     1       6.630  32.071  27.315  1.00  0.00     0.010 A 
ATOM     77  C   UNL     1       6.986  31.991  24.978  1.00  0.00     0.010 A 
ATOM     78  C   UNL     1       6.737  33.437  27.318  1.00  0.00     0.001 A 
ATOM     79  C   UNL     1       7.091  33.371  24.991  1.00  0.00     0.001 A 
ATOM     80  C   UNL     1       6.972  34.110  26.132  1.00  0.00     0.000 A 
ENDBRANCH  69  75
ENDBRANCH  63  65
ENDBRANCH  59  60
ENDBRANCH  58  59
ENDBRANCH  55  58
ENDBRANCH  53  54
ENDBRANCH  50  53
ENDBRANCH  47  50
ENDBRANCH   5  47
BRANCH   4  81
ATOM     81  N   UNL     1       2.829  19.630  34.158  1.00  0.00    -0.348 N 
ATOM     82  C   UNL     1       2.980  18.557  35.073  1.00  0.00     0.217 C 
ATOM     83  H   UNL     1       2.097  19.600  33.410  1.00  0.00     0.163 HD
ATOM     84  C   UNL     1       2.123  17.343  35.030  1.00  0.00     0.114 C 
ATOM     85  O   UNL     1       3.876  18.600  35.983  1.00  0.00    -0.275 OA
ENDBRANCH   4  81
TORSDOF 33
