REMARK VINA RESULT:    -4.664     13.784     21.020
REMARK INTER + INTRA:         -23.963
REMARK INTER:                 -12.983
REMARK INTRA:                 -10.980
REMARK UNBOUND:               -10.710
REMARK SMILES CC(=O)N[C@@H]1[C@@H](O)C[C@](OC[C@H]2O[C@@H](O[C@H]3[C@H](O)[C@@H](O)[C@H](OCCN=[N+]=[N-])O[C@@H]3CO)[C@H](O)[C@@H](O)[C@H]2O)(C(=O)O)O[C@H]1C(O)[C@H](O)CNC(=O)OCc1cn(CC(=O)NCC(O)Cn2ccnc2[N+](=O)[O-])nn1
REMARK SMILES IDX 47 1 45 2 43 3 42 4 9 5 8 6 41 7 6 8 5 9 10 10 11 11 12 12
REMARK SMILES IDX 14 13 13 14 32 15 34 16 36 17 15 18 16 19 29 20 28 21 21 22
REMARK SMILES IDX 17 23 19 24 30 25 31 26 22 28 23 29 24 30 25 31 26 32 27 33
REMARK SMILES IDX 18 34 20 36 33 38 35 40 37 42 38 44 39 45 40 46 7 48 4 50
REMARK SMILES IDX 2 51 1 53 3 54 44 55 46 57 48 59 49 60 50 62 51 63 52 64
REMARK SMILES IDX 53 65 54 66 73 67 55 68 72 69 56 70 57 71 58 72 59 73 60 75
REMARK SMILES IDX 61 76 62 77 63 79 64 80 65 81 68 82 66 83 67 84 69 85 70 86
REMARK SMILES IDX 71 87
REMARK H PARENT 31 27 18 35 20 37 33 39 35 41 37 43 40 47 7 49 4 52 44 56
REMARK H PARENT 46 58 48 61 59 74 62 78
REMARK Flexibility Score: inf
ROOT
ATOM      1  C   UNL     1      19.454  32.837  18.680  1.00  0.00     0.154 C 
ENDROOT
BRANCH   1   2
ATOM      2  C   UNL     1      18.016  33.224  18.600  1.00  0.00     0.165 C 
BRANCH   2   3
ATOM      3  C   UNL     1      17.113  32.615  19.607  1.00  0.00     0.176 C 
BRANCH   3   4
ATOM      4  C   UNL     1      16.246  31.492  19.210  1.00  0.00     0.178 C 
ATOM      5  C   UNL     1      16.138  29.261  18.570  1.00  0.00     0.272 C 
ATOM      6  C   UNL     1      14.742  29.438  19.055  1.00  0.00     0.113 C 
ATOM      7  O   UNL     1      16.956  30.380  18.810  1.00  0.00    -0.332 OA
ATOM      8  C   UNL     1      14.067  30.682  18.584  1.00  0.00     0.145 C 
ATOM      9  C   UNL     1      15.140  31.760  18.261  1.00  0.00     0.142 C 
BRANCH   5  10
ATOM     10  O   UNL     1      16.298  28.907  17.263  1.00  0.00    -0.338 OA
BRANCH  10  11
ATOM     11  C   UNL     1      17.556  28.630  16.827  1.00  0.00     0.199 C 
BRANCH  11  12
ATOM     12  C   UNL     1      17.832  29.161  15.434  1.00  0.00     0.179 C 
ATOM     13  C   UNL     1      16.896  29.278  13.302  1.00  0.00     0.282 C 
ATOM     14  O   UNL     1      17.132  28.544  14.459  1.00  0.00    -0.341 OA
ATOM     15  C   UNL     1      18.059  30.178  12.963  1.00  0.00     0.202 C 
ATOM     16  C   UNL     1      18.380  31.122  14.099  1.00  0.00     0.179 C 
ATOM     17  C   UNL     1      17.695  30.658  15.371  1.00  0.00     0.177 C 
BRANCH  13  18
ATOM     18  O   UNL     1      15.756  29.998  13.323  1.00  0.00    -0.341 OA
BRANCH  18  19
ATOM     19  C   UNL     1      14.555  29.446  13.084  1.00  0.00     0.184 C 
ATOM     20  C   UNL     1      13.718  30.051  11.991  1.00  0.00     0.178 C 
ATOM     21  O   UNL     1      12.777  29.081  11.638  1.00  0.00    -0.341 OA
ATOM     22  C   UNL     1      11.839  28.900  12.648  1.00  0.00     0.281 C 
ATOM     23  C   UNL     1      13.637  29.478  14.316  1.00  0.00     0.180 C 
ATOM     24  C   UNL     1      12.462  28.589  13.975  1.00  0.00     0.202 C 
BRANCH  20  25
ATOM     25  C   UNL     1      14.565  30.307  10.779  1.00  0.00     0.191 C 
BRANCH  25  26
ATOM     26  O   UNL     1      15.206  29.142  10.338  1.00  0.00    -0.394 OA
ATOM     27  H   UNL     1      14.553  28.403  10.550  1.00  0.00     0.210 HD
ENDBRANCH  25  26
ENDBRANCH  20  25
BRANCH  22  28
ATOM     28  O   UNL     1      11.052  27.808  12.287  1.00  0.00    -0.350 OA
BRANCH  28  29
ATOM     29  C   UNL     1      10.220  28.115  11.210  1.00  0.00     0.169 C 
BRANCH  29  30
ATOM     30  C   UNL     1       8.794  27.817  11.678  1.00  0.00     0.119 C 
BRANCH  30  31
ATOM     31  N   UNL     1       8.125  29.045  12.070  1.00  0.00    -0.092 NA
ATOM     32  N   UNL     1       8.350  29.461  13.226  1.00  0.00     0.001 N 
ATOM     33  N   UNL     1       8.747  30.067  14.213  1.00  0.00    -0.003 NA
ENDBRANCH  30  31
ENDBRANCH  29  30
ENDBRANCH  28  29
ENDBRANCH  22  28
BRANCH  23  34
ATOM     34  O   UNL     1      14.260  28.915  15.424  1.00  0.00    -0.387 OA
ATOM     35  H   UNL     1      14.840  29.655  15.793  1.00  0.00     0.211 HD
ENDBRANCH  23  34
BRANCH  24  36
ATOM     36  O   UNL     1      11.457  28.629  14.941  1.00  0.00    -0.385 OA
ATOM     37  H   UNL     1      10.576  28.687  14.467  1.00  0.00     0.211 HD
ENDBRANCH  24  36
ENDBRANCH  18  19
ENDBRANCH  13  18
BRANCH  15  38
ATOM     38  O   UNL     1      19.186  29.442  12.574  1.00  0.00    -0.385 OA
ATOM     39  H   UNL     1      19.962  29.903  13.025  1.00  0.00     0.211 HD
ENDBRANCH  15  38
BRANCH  16  40
ATOM     40  O   UNL     1      17.919  32.407  13.828  1.00  0.00    -0.387 OA
ATOM     41  H   UNL     1      16.963  32.532  14.103  1.00  0.00     0.211 HD
ENDBRANCH  16  40
BRANCH  17  42
ATOM     42  O   UNL     1      16.408  31.118  15.517  1.00  0.00    -0.387 OA
ATOM     43  H   UNL     1      16.240  31.525  16.411  1.00  0.00     0.211 HD
ENDBRANCH  17  42
ENDBRANCH  11  12
ENDBRANCH  10  11
ENDBRANCH   5  10
BRANCH   5  44
ATOM     44  C   UNL     1      16.765  28.202  19.446  1.00  0.00     0.364 C 
ATOM     45  O   UNL     1      16.317  27.046  19.338  1.00  0.00    -0.246 OA
BRANCH  44  46
ATOM     46  O   UNL     1      17.783  28.459  20.333  1.00  0.00    -0.477 OA
ATOM     47  H   UNL     1      17.577  28.852  21.270  1.00  0.00     0.296 HD
ENDBRANCH  44  46
ENDBRANCH   5  44
BRANCH   8  48
ATOM     48  O   UNL     1      13.185  30.565  17.558  1.00  0.00    -0.391 OA
ATOM     49  H   UNL     1      13.071  29.682  17.178  1.00  0.00     0.211 HD
ENDBRANCH   8  48
BRANCH   9  50
ATOM     50  N   UNL     1      14.490  33.014  18.335  1.00  0.00    -0.348 N 
ATOM     51  C   UNL     1      14.353  33.852  17.171  1.00  0.00     0.217 C 
ATOM     52  H   UNL     1      14.084  33.364  19.212  1.00  0.00     0.163 HD
ATOM     53  C   UNL     1      13.679  35.177  17.229  1.00  0.00     0.114 C 
ATOM     54  O   UNL     1      14.823  33.436  16.092  1.00  0.00    -0.275 OA
ENDBRANCH   9  50
ENDBRANCH   3   4
BRANCH   3  55
ATOM     55  O   UNL     1      16.371  33.672  20.190  1.00  0.00    -0.388 OA
ATOM     56  H   UNL     1      15.801  33.285  20.875  1.00  0.00     0.211 HD
ENDBRANCH   3  55
ENDBRANCH   2   3
BRANCH   2  57
ATOM     57  O   UNL     1      17.545  33.309  17.312  1.00  0.00    -0.388 OA
ATOM     58  H   UNL     1      17.289  32.467  16.894  1.00  0.00     0.211 HD
ENDBRANCH   2  57
ENDBRANCH   1   2
BRANCH   1  59
ATOM     59  N   UNL     1      19.633  31.469  18.275  1.00  0.00    -0.319 N 
ATOM     60  C   UNL     1      20.728  31.023  17.494  1.00  0.00     0.407 C 
ATOM     61  H   UNL     1      18.926  30.728  18.558  1.00  0.00     0.167 HD
ATOM     62  O   UNL     1      21.598  31.844  17.139  1.00  0.00    -0.225 OA
BRANCH  60  63
ATOM     63  O   UNL     1      20.908  29.719  17.084  1.00  0.00    -0.443 OA
BRANCH  63  64
ATOM     64  C   UNL     1      21.680  28.807  17.821  1.00  0.00     0.294 C 
BRANCH  64  65
ATOM     65  C   UNL     1      21.304  28.609  19.219  1.00  0.00     0.120 A 
ATOM     66  C   UNL     1      21.688  29.337  20.317  1.00  0.00     0.138 A 
ATOM     67  N   UNL     1      20.504  27.645  19.704  1.00  0.00    -0.132 NA
ATOM     68  N   UNL     1      21.118  28.801  21.421  1.00  0.00    -0.243 N 
ATOM     69  N   UNL     1      20.411  27.785  21.036  1.00  0.00    -0.067 NA
BRANCH  68  70
ATOM     70  C   UNL     1      21.255  29.296  22.786  1.00  0.00     0.245 C 
BRANCH  70  71
ATOM     71  C   UNL     1      19.910  29.482  23.369  1.00  0.00     0.241 C 
ATOM     72  O   UNL     1      19.618  29.014  24.521  1.00  0.00    -0.273 OA
ATOM     73  N   UNL     1      18.867  30.187  22.698  1.00  0.00    -0.352 N 
ATOM     74  H   UNL     1      19.053  30.585  21.762  1.00  0.00     0.163 HD
BRANCH  73  75
ATOM     75  C   UNL     1      17.580  30.320  23.354  1.00  0.00     0.151 C 
BRANCH  75  76
ATOM     76  C   UNL     1      16.936  31.644  23.085  1.00  0.00     0.168 C 
BRANCH  76  77
ATOM     77  O   UNL     1      17.861  32.643  22.840  1.00  0.00    -0.388 OA
ATOM     78  H   UNL     1      17.362  33.455  22.586  1.00  0.00     0.211 HD
ENDBRANCH  76  77
BRANCH  76  79
ATOM     79  C   UNL     1      16.083  31.989  24.297  1.00  0.00     0.239 C 
BRANCH  79  80
ATOM     80  N   UNL     1      14.770  31.419  24.203  1.00  0.00    -0.227 N 
ATOM     81  C   UNL     1      14.358  30.307  24.867  1.00  0.00     0.204 A 
ATOM     82  C   UNL     1      13.701  31.812  23.467  1.00  0.00     0.434 A 
ATOM     83  C   UNL     1      13.055  30.034  24.532  1.00  0.00     0.245 A 
ATOM     84  N   UNL     1      12.669  30.969  23.671  1.00  0.00    -0.074 NA
BRANCH  82  85
ATOM     85  N   UNL     1      13.668  32.955  22.614  1.00  0.00    -0.047 N 
ATOM     86  O   UNL     1      13.912  32.923  21.408  1.00  0.00    -0.390 OA
ATOM     87  O   UNL     1      13.349  34.183  23.178  1.00  0.00    -0.390 OA
ENDBRANCH  82  85
ENDBRANCH  79  80
ENDBRANCH  76  79
ENDBRANCH  75  76
ENDBRANCH  73  75
ENDBRANCH  70  71
ENDBRANCH  68  70
ENDBRANCH  64  65
ENDBRANCH  63  64
ENDBRANCH  60  63
ENDBRANCH   1  59
TORSDOF 37
