REMARK VINA RESULT:    -5.004      6.018     10.321
REMARK INTER + INTRA:         -21.031
REMARK INTER:                 -12.231
REMARK INTRA:                  -8.800
REMARK UNBOUND:                -8.275
REMARK SMILES CC(=O)N[C@@H]1[C@@H](O)C[C@](OC[C@H]2O[C@@H](O[C@H]3[C@H](O)[C@@H](O)[C@H](OCCN=[N+]=[N-])O[C@@H]3CO)[C@H](O)[C@@H](O)[C@H]2O)(C(=O)O)O[C@H]1C(O)[C@H](O)CNC(=O)OCc1cn(C(C)(C)C(=O)O)nn1
REMARK SMILES IDX 9 1 8 2 6 3 5 4 42 5 41 6 10 7 11 8 12 9 14 10 13 11 32 12
REMARK SMILES IDX 34 13 36 14 15 15 16 16 29 17 28 18 21 19 17 20 19 21 30 22
REMARK SMILES IDX 31 23 22 25 23 26 24 27 25 28 26 29 27 30 18 31 20 33 33 35
REMARK SMILES IDX 35 37 37 39 38 41 39 42 40 43 7 45 43 47 44 48 45 50 46 51
REMARK SMILES IDX 47 53 48 54 49 55 50 57 51 58 52 59 53 60 54 61 63 62 55 63
REMARK SMILES IDX 62 64 56 65 57 66 58 67 59 68 60 69 61 70 4 72 2 73 1 75
REMARK SMILES IDX 3 76
REMARK H PARENT 31 24 18 32 20 34 33 36 35 38 37 40 40 44 7 46 44 49 46 52
REMARK H PARENT 48 56 61 71 4 74
REMARK Flexibility Score: inf
ROOT
ATOM      1  C   UNL     1      14.465  30.371  22.591  1.00  0.00     0.272 C 
ATOM      2  C   UNL     1      15.129  29.945  23.834  1.00  0.00     0.113 C 
ATOM      3  C   UNL     1      16.563  30.372  23.970  1.00  0.00     0.145 C 
ATOM      4  C   UNL     1      17.172  30.565  22.615  1.00  0.00     0.142 C 
ATOM      5  C   UNL     1      16.427  29.587  21.686  1.00  0.00     0.178 C 
ATOM      6  O   UNL     1      15.197  30.144  21.421  1.00  0.00    -0.332 OA
ENDROOT
BRANCH   1   7
ATOM      7  O   UNL     1      14.055  31.669  22.575  1.00  0.00    -0.338 OA
BRANCH   7   8
ATOM      8  C   UNL     1      13.978  32.314  21.380  1.00  0.00     0.199 C 
BRANCH   8   9
ATOM      9  C   UNL     1      14.282  33.788  21.527  1.00  0.00     0.179 C 
ATOM     10  C   UNL     1      14.209  35.485  23.091  1.00  0.00     0.282 C 
ATOM     11  O   UNL     1      14.208  34.056  22.893  1.00  0.00    -0.341 OA
ATOM     12  C   UNL     1      15.577  35.946  22.754  1.00  0.00     0.202 C 
ATOM     13  C   UNL     1      16.411  34.842  22.107  1.00  0.00     0.179 C 
ATOM     14  C   UNL     1      15.628  34.136  21.011  1.00  0.00     0.177 C 
BRANCH  10  15
ATOM     15  O   UNL     1      13.767  35.627  24.371  1.00  0.00    -0.341 OA
BRANCH  15  16
ATOM     16  C   UNL     1      13.909  34.507  25.171  1.00  0.00     0.184 C 
ATOM     17  C   UNL     1      12.675  34.318  25.998  1.00  0.00     0.178 C 
ATOM     18  O   UNL     1      12.933  33.538  27.135  1.00  0.00    -0.341 OA
ATOM     19  C   UNL     1      13.655  34.224  28.101  1.00  0.00     0.281 C 
ATOM     20  C   UNL     1      15.080  34.687  26.138  1.00  0.00     0.180 C 
ATOM     21  C   UNL     1      14.577  35.232  27.450  1.00  0.00     0.202 C 
BRANCH  17  22
ATOM     22  C   UNL     1      11.600  33.528  25.232  1.00  0.00     0.191 C 
BRANCH  22  23
ATOM     23  O   UNL     1      12.254  32.625  24.419  1.00  0.00    -0.394 OA
ATOM     24  H   UNL     1      13.126  33.029  24.133  1.00  0.00     0.210 HD
ENDBRANCH  22  23
ENDBRANCH  17  22
BRANCH  19  25
ATOM     25  O   UNL     1      14.375  33.260  28.806  1.00  0.00    -0.350 OA
BRANCH  25  26
ATOM     26  C   UNL     1      15.082  33.737  29.879  1.00  0.00     0.169 C 
BRANCH  26  27
ATOM     27  C   UNL     1      16.246  32.759  30.092  1.00  0.00     0.119 C 
BRANCH  27  28
ATOM     28  N   UNL     1      17.269  32.903  29.082  1.00  0.00    -0.092 NA
ATOM     29  N   UNL     1      17.360  32.026  28.210  1.00  0.00     0.001 N 
ATOM     30  N   UNL     1      17.587  31.043  27.517  1.00  0.00    -0.003 NA
ENDBRANCH  27  28
ENDBRANCH  26  27
ENDBRANCH  25  26
ENDBRANCH  19  25
BRANCH  20  31
ATOM     31  O   UNL     1      15.666  33.450  26.385  1.00  0.00    -0.387 OA
ATOM     32  H   UNL     1      16.644  33.449  26.240  1.00  0.00     0.211 HD
ENDBRANCH  20  31
BRANCH  21  33
ATOM     33  O   UNL     1      13.932  36.437  27.200  1.00  0.00    -0.385 OA
ATOM     34  H   UNL     1      13.715  36.945  28.018  1.00  0.00     0.211 HD
ENDBRANCH  21  33
ENDBRANCH  15  16
ENDBRANCH  10  15
BRANCH  12  35
ATOM     35  O   UNL     1      15.474  36.939  21.756  1.00  0.00    -0.385 OA
ATOM     36  H   UNL     1      15.097  37.776  22.068  1.00  0.00     0.211 HD
ENDBRANCH  12  35
BRANCH  13  37
ATOM     37  O   UNL     1      16.861  33.953  23.065  1.00  0.00    -0.387 OA
ATOM     38  H   UNL     1      17.852  33.922  23.073  1.00  0.00     0.211 HD
ENDBRANCH  13  37
BRANCH  14  39
ATOM     39  O   UNL     1      16.346  33.002  20.670  1.00  0.00    -0.387 OA
ATOM     40  H   UNL     1      16.874  32.725  21.473  1.00  0.00     0.211 HD
ENDBRANCH  14  39
ENDBRANCH   8   9
ENDBRANCH   7   8
ENDBRANCH   1   7
BRANCH   1  41
ATOM     41  C   UNL     1      13.253  29.449  22.408  1.00  0.00     0.364 C 
ATOM     42  O   UNL     1      12.182  29.691  23.006  1.00  0.00    -0.246 OA
BRANCH  41  43
ATOM     43  O   UNL     1      13.316  28.341  21.586  1.00  0.00    -0.477 OA
ATOM     44  H   UNL     1      12.509  27.881  21.196  1.00  0.00     0.296 HD
ENDBRANCH  41  43
ENDBRANCH   1  41
BRANCH   3  45
ATOM     45  O   UNL     1      16.617  31.562  24.665  1.00  0.00    -0.391 OA
ATOM     46  H   UNL     1      16.664  31.428  25.647  1.00  0.00     0.211 HD
ENDBRANCH   3  45
BRANCH   5  47
ATOM     47  C   UNL     1      17.192  29.343  20.416  1.00  0.00     0.176 C 
BRANCH  47  48
ATOM     48  O   UNL     1      17.532  27.996  20.329  1.00  0.00    -0.388 OA
ATOM     49  H   UNL     1      18.498  27.890  20.078  1.00  0.00     0.211 HD
ENDBRANCH  47  48
BRANCH  47  50
ATOM     50  C   UNL     1      16.330  29.686  19.223  1.00  0.00     0.165 C 
BRANCH  50  51
ATOM     51  O   UNL     1      15.574  28.579  18.817  1.00  0.00    -0.388 OA
ATOM     52  H   UNL     1      15.172  28.787  17.944  1.00  0.00     0.211 HD
ENDBRANCH  50  51
BRANCH  50  53
ATOM     53  C   UNL     1      17.129  30.173  18.044  1.00  0.00     0.154 C 
BRANCH  53  54
ATOM     54  N   UNL     1      18.504  29.742  18.121  1.00  0.00    -0.319 N 
ATOM     55  C   UNL     1      18.902  28.454  17.690  1.00  0.00     0.407 C 
ATOM     56  H   UNL     1      19.230  30.381  18.499  1.00  0.00     0.167 HD
ATOM     57  O   UNL     1      18.085  27.623  17.219  1.00  0.00    -0.225 OA
BRANCH  55  58
ATOM     58  O   UNL     1      20.241  28.044  17.774  1.00  0.00    -0.443 OA
BRANCH  58  59
ATOM     59  C   UNL     1      21.072  28.612  18.792  1.00  0.00     0.294 C 
BRANCH  59  60
ATOM     60  C   UNL     1      21.132  27.749  19.971  1.00  0.00     0.120 A 
ATOM     61  C   UNL     1      22.034  26.742  20.200  1.00  0.00     0.139 A 
ATOM     62  N   UNL     1      20.316  27.792  21.027  1.00  0.00    -0.132 NA
ATOM     63  N   UNL     1      21.751  26.188  21.395  1.00  0.00    -0.235 N 
ATOM     64  N   UNL     1      20.695  26.862  21.862  1.00  0.00    -0.066 NA
BRANCH  63  65
ATOM     65  C   UNL     1      22.408  25.096  22.083  1.00  0.00     0.155 C 
ATOM     66  C   UNL     1      23.801  25.490  22.477  1.00  0.00     0.049 C 
ATOM     67  C   UNL     1      22.503  23.870  21.182  1.00  0.00     0.049 C 
BRANCH  65  68
ATOM     68  C   UNL     1      21.579  24.732  23.254  1.00  0.00     0.331 C 
ATOM     69  O   UNL     1      22.082  24.758  24.387  1.00  0.00    -0.250 OA
BRANCH  68  70
ATOM     70  O   UNL     1      20.259  24.369  23.053  1.00  0.00    -0.479 OA
ATOM     71  H   UNL     1      19.837  23.563  23.502  1.00  0.00     0.296 HD
ENDBRANCH  68  70
ENDBRANCH  65  68
ENDBRANCH  63  65
ENDBRANCH  59  60
ENDBRANCH  58  59
ENDBRANCH  55  58
ENDBRANCH  53  54
ENDBRANCH  50  53
ENDBRANCH  47  50
ENDBRANCH   5  47
BRANCH   4  72
ATOM     72  N   UNL     1      18.558  30.179  22.566  1.00  0.00    -0.348 N 
ATOM     73  C   UNL     1      19.637  31.033  22.932  1.00  0.00     0.217 C 
ATOM     74  H   UNL     1      18.790  29.218  22.247  1.00  0.00     0.163 HD
ATOM     75  C   UNL     1      21.051  30.553  22.851  1.00  0.00     0.114 C 
ATOM     76  O   UNL     1      19.388  32.203  23.327  1.00  0.00    -0.275 OA
ENDBRANCH   4  72
TORSDOF 32
