REMARK VINA RESULT:    -6.573      3.317     10.328
REMARK INTER + INTRA:         -22.036
REMARK INTER:                 -12.905
REMARK INTRA:                  -9.131
REMARK UNBOUND:                -5.087
REMARK SMILES CC(=O)N[C@@H]1[C@@H](O)C[C@](OC[C@H]2O[C@@H](O[C@H]3[C@H](O)[C@@H](O)[C@H](OCCN=[N+]=[N-])O[C@@H]3CO)[C@H](O)[C@@H](O)[C@H]2O)(C(=O)O)O[C@H]1C(O)[C@H](O)CNC(=O)OCc1cn(CS(=O)(=O)c2ccccc2)nn1
REMARK SMILES IDX 9 1 8 2 6 3 5 4 42 5 41 6 10 7 11 8 12 9 14 10 13 11 32 12
REMARK SMILES IDX 34 13 36 14 15 15 16 16 29 17 28 18 21 19 17 20 19 21 30 22
REMARK SMILES IDX 31 23 22 25 23 26 24 27 25 28 26 29 27 30 18 31 20 33 33 35
REMARK SMILES IDX 35 37 37 39 38 41 39 42 40 43 7 45 43 47 44 48 45 50 46 51
REMARK SMILES IDX 47 53 48 54 49 55 50 57 51 58 52 59 53 60 54 61 67 62 55 63
REMARK SMILES IDX 66 64 56 65 57 66 58 67 59 68 60 69 61 70 65 71 62 72 64 73
REMARK SMILES IDX 63 74 4 75 2 76 1 78 3 79
REMARK H PARENT 31 24 18 32 20 34 33 36 35 38 37 40 40 44 7 46 44 49 46 52
REMARK H PARENT 48 56 4 77
REMARK Flexibility Score: inf
ROOT
ATOM      1  C   UNL     1      23.927  27.877  26.591  1.00  0.00     0.272 C 
ATOM      2  C   UNL     1      25.140  27.322  25.961  1.00  0.00     0.113 C 
ATOM      3  C   UNL     1      25.558  25.956  26.465  1.00  0.00     0.145 C 
ATOM      4  C   UNL     1      25.583  26.038  27.951  1.00  0.00     0.142 C 
ATOM      5  C   UNL     1      24.329  26.623  28.538  1.00  0.00     0.178 C 
ATOM      6  O   UNL     1      23.834  27.738  27.966  1.00  0.00    -0.332 OA
ENDROOT
BRANCH   1   7
ATOM      7  O   UNL     1      22.760  27.534  25.942  1.00  0.00    -0.338 OA
BRANCH   7   8
ATOM      8  C   UNL     1      22.777  27.535  24.585  1.00  0.00     0.199 C 
BRANCH   8   9
ATOM      9  C   UNL     1      21.474  26.929  24.021  1.00  0.00     0.179 C 
ATOM     10  C   UNL     1      21.346  26.774  21.663  1.00  0.00     0.282 C 
ATOM     11  O   UNL     1      21.255  27.488  22.824  1.00  0.00    -0.341 OA
ATOM     12  C   UNL     1      22.341  25.681  21.758  1.00  0.00     0.202 C 
ATOM     13  C   UNL     1      22.110  24.809  22.955  1.00  0.00     0.179 C 
ATOM     14  C   UNL     1      21.411  25.459  24.079  1.00  0.00     0.177 C 
BRANCH  10  15
ATOM     15  O   UNL     1      21.675  27.723  20.680  1.00  0.00    -0.341 OA
BRANCH  15  16
ATOM     16  C   UNL     1      20.712  28.016  19.776  1.00  0.00     0.184 C 
ATOM     17  C   UNL     1      21.265  28.329  18.418  1.00  0.00     0.178 C 
ATOM     18  O   UNL     1      20.225  28.180  17.505  1.00  0.00    -0.341 OA
ATOM     19  C   UNL     1      19.050  28.782  17.857  1.00  0.00     0.281 C 
ATOM     20  C   UNL     1      19.959  29.315  20.158  1.00  0.00     0.180 C 
ATOM     21  C   UNL     1      19.109  29.704  19.013  1.00  0.00     0.202 C 
BRANCH  17  22
ATOM     22  C   UNL     1      22.417  27.499  17.973  1.00  0.00     0.191 C 
BRANCH  22  23
ATOM     23  O   UNL     1      22.138  26.159  18.216  1.00  0.00    -0.394 OA
ATOM     24  H   UNL     1      22.971  25.675  18.426  1.00  0.00     0.210 HD
ENDBRANCH  22  23
ENDBRANCH  17  22
BRANCH  19  25
ATOM     25  O   UNL     1      18.146  27.761  18.138  1.00  0.00    -0.350 OA
BRANCH  25  26
ATOM     26  C   UNL     1      16.864  28.276  18.441  1.00  0.00     0.169 C 
BRANCH  26  27
ATOM     27  C   UNL     1      16.316  27.554  19.653  1.00  0.00     0.119 C 
BRANCH  27  28
ATOM     28  N   UNL     1      16.091  28.551  20.696  1.00  0.00    -0.092 NA
ATOM     29  N   UNL     1      14.972  28.566  21.248  1.00  0.00     0.001 N 
ATOM     30  N   UNL     1      13.775  28.701  21.565  1.00  0.00    -0.003 NA
ENDBRANCH  27  28
ENDBRANCH  26  27
ENDBRANCH  25  26
ENDBRANCH  19  25
BRANCH  20  31
ATOM     31  O   UNL     1      19.190  29.107  21.291  1.00  0.00    -0.387 OA
ATOM     32  H   UNL     1      19.706  29.427  22.074  1.00  0.00     0.211 HD
ENDBRANCH  20  31
BRANCH  21  33
ATOM     33  O   UNL     1      19.589  30.945  18.525  1.00  0.00    -0.385 OA
ATOM     34  H   UNL     1      20.491  30.874  18.147  1.00  0.00     0.211 HD
ENDBRANCH  21  33
ENDBRANCH  15  16
ENDBRANCH  10  15
BRANCH  12  35
ATOM     35  O   UNL     1      22.224  24.784  20.648  1.00  0.00    -0.385 OA
ATOM     36  H   UNL     1      21.575  24.102  20.944  1.00  0.00     0.211 HD
ENDBRANCH  12  35
BRANCH  13  37
ATOM     37  O   UNL     1      23.325  24.218  23.384  1.00  0.00    -0.387 OA
ATOM     38  H   UNL     1      23.879  23.991  22.584  1.00  0.00     0.211 HD
ENDBRANCH  13  37
BRANCH  14  39
ATOM     39  O   UNL     1      21.905  24.944  25.292  1.00  0.00    -0.387 OA
ATOM     40  H   UNL     1      21.230  24.309  25.645  1.00  0.00     0.211 HD
ENDBRANCH  14  39
ENDBRANCH   8   9
ENDBRANCH   7   8
ENDBRANCH   1   7
BRANCH   1  41
ATOM     41  C   UNL     1      24.063  29.385  26.449  1.00  0.00     0.364 C 
ATOM     42  O   UNL     1      25.061  29.825  25.855  1.00  0.00    -0.246 OA
BRANCH  41  43
ATOM     43  O   UNL     1      23.094  30.227  26.968  1.00  0.00    -0.477 OA
ATOM     44  H   UNL     1      22.791  31.057  26.435  1.00  0.00     0.296 HD
ENDBRANCH  41  43
ENDBRANCH   1  41
BRANCH   3  45
ATOM     45  O   UNL     1      24.715  25.012  25.948  1.00  0.00    -0.391 OA
ATOM     46  H   UNL     1      24.452  24.400  26.690  1.00  0.00     0.211 HD
ENDBRANCH   3  45
BRANCH   5  47
ATOM     47  C   UNL     1      23.284  25.575  28.845  1.00  0.00     0.176 C 
BRANCH  47  48
ATOM     48  O   UNL     1      23.700  24.626  29.775  1.00  0.00    -0.388 OA
ATOM     49  H   UNL     1      23.058  24.434  30.474  1.00  0.00     0.211 HD
ENDBRANCH  47  48
BRANCH  47  50
ATOM     50  C   UNL     1      21.961  26.176  29.297  1.00  0.00     0.165 C 
BRANCH  50  51
ATOM     51  O   UNL     1      21.196  26.637  28.250  1.00  0.00    -0.388 OA
ATOM     52  H   UNL     1      21.344  27.561  27.995  1.00  0.00     0.211 HD
ENDBRANCH  50  51
BRANCH  50  53
ATOM     53  C   UNL     1      22.080  27.174  30.385  1.00  0.00     0.154 C 
BRANCH  53  54
ATOM     54  N   UNL     1      21.682  28.518  30.095  1.00  0.00    -0.319 N 
ATOM     55  C   UNL     1      20.537  29.180  30.594  1.00  0.00     0.407 C 
ATOM     56  H   UNL     1      22.305  29.079  29.437  1.00  0.00     0.167 HD
ATOM     57  O   UNL     1      19.754  28.612  31.377  1.00  0.00    -0.225 OA
BRANCH  55  58
ATOM     58  O   UNL     1      20.298  30.485  30.194  1.00  0.00    -0.443 OA
BRANCH  58  59
ATOM     59  C   UNL     1      19.250  30.879  29.358  1.00  0.00     0.294 C 
BRANCH  59  60
ATOM     60  C   UNL     1      19.615  30.625  27.951  1.00  0.00     0.120 A 
ATOM     61  C   UNL     1      19.316  31.484  26.907  1.00  0.00     0.139 A 
ATOM     62  N   UNL     1      20.270  29.598  27.388  1.00  0.00    -0.132 NA
ATOM     63  N   UNL     1      19.791  30.965  25.760  1.00  0.00    -0.237 N 
ATOM     64  N   UNL     1      20.365  29.814  26.093  1.00  0.00    -0.066 NA
BRANCH  63  65
ATOM     65  C   UNL     1      19.699  31.543  24.448  1.00  0.00     0.287 C 
BRANCH  65  66
ATOM     66  S   UNL     1      21.181  32.524  24.214  1.00  0.00     0.198 S 
ATOM     67  O   UNL     1      22.016  32.517  25.437  1.00  0.00    -0.222 OA
ATOM     68  O   UNL     1      20.722  33.928  23.858  1.00  0.00    -0.222 OA
BRANCH  66  69
ATOM     69  C   UNL     1      22.047  31.840  22.863  1.00  0.00     0.069 A 
ATOM     70  C   UNL     1      21.907  32.328  21.581  1.00  0.00     0.020 A 
ATOM     71  C   UNL     1      22.909  30.780  23.036  1.00  0.00     0.020 A 
ATOM     72  C   UNL     1      22.586  31.791  20.518  1.00  0.00     0.001 A 
ATOM     73  C   UNL     1      23.595  30.232  21.984  1.00  0.00     0.001 A 
ATOM     74  C   UNL     1      23.431  30.741  20.721  1.00  0.00     0.000 A 
ENDBRANCH  66  69
ENDBRANCH  65  66
ENDBRANCH  63  65
ENDBRANCH  59  60
ENDBRANCH  58  59
ENDBRANCH  55  58
ENDBRANCH  53  54
ENDBRANCH  50  53
ENDBRANCH  47  50
ENDBRANCH   5  47
BRANCH   4  75
ATOM     75  N   UNL     1      26.684  26.907  28.348  1.00  0.00    -0.348 N 
ATOM     76  C   UNL     1      27.749  26.438  29.169  1.00  0.00     0.217 C 
ATOM     77  H   UNL     1      26.740  27.927  28.046  1.00  0.00     0.163 HD
ATOM     78  C   UNL     1      28.862  27.378  29.551  1.00  0.00     0.114 C 
ATOM     79  O   UNL     1      27.771  25.242  29.579  1.00  0.00    -0.275 OA
ENDBRANCH   4  75
TORSDOF 32
