REMARK VINA RESULT:    -5.483     14.589     18.355
REMARK INTER + INTRA:         -21.002
REMARK INTER:                 -12.544
REMARK INTRA:                  -8.458
REMARK UNBOUND:                -6.864
REMARK SMILES CC(=O)N[C@@H]1[C@@H](O)C[C@](OC[C@H]2O[C@@H](O[C@H]3[C@H](O)[C@@H](O)[C@H](OCCN=[N+]=[N-])O[C@@H]3CO)[C@H](O)[C@@H](O)[C@H]2O)(C(=O)O)O[C@H]1C(O)[C@H](O)CNC(=O)OCc1cn(CCC2OCCO2)nn1
REMARK SMILES IDX 9 1 8 2 6 3 5 4 42 5 41 6 10 7 11 8 12 9 14 10 13 11 32 12
REMARK SMILES IDX 34 13 36 14 15 15 16 16 29 17 28 18 21 19 17 20 19 21 30 22
REMARK SMILES IDX 31 23 22 25 23 26 24 27 25 28 26 29 27 30 18 31 20 33 33 35
REMARK SMILES IDX 35 37 37 39 38 41 39 42 40 43 7 45 43 47 44 48 45 50 46 51
REMARK SMILES IDX 47 53 48 54 49 55 50 57 51 58 52 59 53 60 54 61 64 62 55 63
REMARK SMILES IDX 63 64 56 65 57 66 58 67 59 68 62 69 60 70 61 71 4 72 2 73
REMARK SMILES IDX 1 75 3 76
REMARK H PARENT 31 24 18 32 20 34 33 36 35 38 37 40 40 44 7 46 44 49 46 52
REMARK H PARENT 48 56 4 74
REMARK Flexibility Score: inf
ROOT
ATOM      1  C   UNL     1       1.333  24.451  28.504  1.00  0.00     0.272 C 
ATOM      2  C   UNL     1       2.512  23.626  27.870  1.00  0.00     0.113 C 
ATOM      3  C   UNL     1       3.321  24.460  26.970  1.00  0.00     0.145 C 
ATOM      4  C   UNL     1       3.882  25.643  27.733  1.00  0.00     0.142 C 
ATOM      5  C   UNL     1       3.086  25.959  28.954  1.00  0.00     0.178 C 
ATOM      6  O   UNL     1       1.765  25.683  28.929  1.00  0.00    -0.332 OA
ENDROOT
BRANCH   1   7
ATOM      7  O   UNL     1       0.977  23.693  29.541  1.00  0.00    -0.338 OA
BRANCH   7   8
ATOM      8  C   UNL     1       0.984  22.384  29.658  1.00  0.00     0.199 C 
BRANCH   8   9
ATOM      9  C   UNL     1       1.653  21.692  30.802  1.00  0.00     0.179 C 
ATOM     10  C   UNL     1       3.430  21.969  32.300  1.00  0.00     0.282 C 
ATOM     11  O   UNL     1       2.867  22.277  31.078  1.00  0.00    -0.341 OA
ATOM     12  C   UNL     1       2.816  20.831  33.028  1.00  0.00     0.202 C 
ATOM     13  C   UNL     1       1.313  20.873  33.070  1.00  0.00     0.179 C 
ATOM     14  C   UNL     1       0.820  21.887  32.093  1.00  0.00     0.177 C 
BRANCH  10  15
ATOM     15  O   UNL     1       3.566  23.150  33.030  1.00  0.00    -0.341 OA
BRANCH  15  16
ATOM     16  C   UNL     1       4.625  23.132  33.927  1.00  0.00     0.184 C 
ATOM     17  C   UNL     1       4.317  23.747  35.258  1.00  0.00     0.178 C 
ATOM     18  O   UNL     1       5.439  23.582  36.074  1.00  0.00    -0.341 OA
ATOM     19  C   UNL     1       6.536  24.321  35.657  1.00  0.00     0.281 C 
ATOM     20  C   UNL     1       5.785  23.994  33.351  1.00  0.00     0.180 C 
ATOM     21  C   UNL     1       6.949  23.748  34.304  1.00  0.00     0.202 C 
BRANCH  17  22
ATOM     22  C   UNL     1       3.205  22.961  35.931  1.00  0.00     0.191 C 
BRANCH  22  23
ATOM     23  O   UNL     1       2.002  23.495  35.405  1.00  0.00    -0.394 OA
ATOM     24  H   UNL     1       1.708  23.032  34.593  1.00  0.00     0.210 HD
ENDBRANCH  22  23
ENDBRANCH  17  22
BRANCH  19  25
ATOM     25  O   UNL     1       7.537  24.183  36.576  1.00  0.00    -0.350 OA
BRANCH  25  26
ATOM     26  C   UNL     1       7.529  25.068  37.615  1.00  0.00     0.169 C 
BRANCH  26  27
ATOM     27  C   UNL     1       8.758  25.945  37.714  1.00  0.00     0.119 C 
BRANCH  27  28
ATOM     28  N   UNL     1       8.530  27.205  37.031  1.00  0.00    -0.092 NA
ATOM     29  N   UNL     1       7.410  27.676  36.854  1.00  0.00     0.001 N 
ATOM     30  N   UNL     1       6.350  28.292  36.779  1.00  0.00    -0.003 NA
ENDBRANCH  27  28
ENDBRANCH  26  27
ENDBRANCH  25  26
ENDBRANCH  19  25
BRANCH  20  31
ATOM     31  O   UNL     1       6.091  23.529  32.096  1.00  0.00    -0.387 OA
ATOM     32  H   UNL     1       5.246  23.430  31.578  1.00  0.00     0.211 HD
ENDBRANCH  20  31
BRANCH  21  33
ATOM     33  O   UNL     1       8.051  24.390  33.781  1.00  0.00    -0.385 OA
ATOM     34  H   UNL     1       7.789  25.315  33.544  1.00  0.00     0.211 HD
ENDBRANCH  21  33
ENDBRANCH  15  16
ENDBRANCH  10  15
BRANCH  12  35
ATOM     35  O   UNL     1       3.271  19.615  32.459  1.00  0.00    -0.385 OA
ATOM     36  H   UNL     1       2.631  19.424  31.723  1.00  0.00     0.211 HD
ENDBRANCH  12  35
BRANCH  13  37
ATOM     37  O   UNL     1       0.833  21.085  34.362  1.00  0.00    -0.387 OA
ATOM     38  H   UNL     1       0.838  20.209  34.832  1.00  0.00     0.211 HD
ENDBRANCH  13  37
BRANCH  14  39
ATOM     39  O   UNL     1       0.954  23.193  32.514  1.00  0.00    -0.387 OA
ATOM     40  H   UNL     1       1.467  23.767  31.891  1.00  0.00     0.211 HD
ENDBRANCH  14  39
ENDBRANCH   8   9
ENDBRANCH   7   8
ENDBRANCH   1   7
BRANCH   1  41
ATOM     41  C   UNL     1       0.432  24.657  27.370  1.00  0.00     0.364 C 
ATOM     42  O   UNL     1       0.081  25.868  27.053  1.00  0.00    -0.246 OA
BRANCH  41  43
ATOM     43  O   UNL     1      -0.126  23.715  26.537  1.00  0.00    -0.477 OA
ATOM     44  H   UNL     1       0.387  22.873  26.313  1.00  0.00     0.296 HD
ENDBRANCH  41  43
ENDBRANCH   1  41
BRANCH   3  45
ATOM     45  O   UNL     1       4.390  23.635  26.513  1.00  0.00    -0.391 OA
ATOM     46  H   UNL     1       4.164  23.398  25.562  1.00  0.00     0.211 HD
ENDBRANCH   3  45
BRANCH   5  47
ATOM     47  C   UNL     1       3.810  25.488  30.179  1.00  0.00     0.176 C 
BRANCH  47  48
ATOM     48  O   UNL     1       5.179  25.795  30.159  1.00  0.00    -0.388 OA
ATOM     49  H   UNL     1       5.692  25.095  29.659  1.00  0.00     0.211 HD
ENDBRANCH  47  48
BRANCH  47  50
ATOM     50  C   UNL     1       3.298  26.271  31.422  1.00  0.00     0.165 C 
BRANCH  50  51
ATOM     51  O   UNL     1       2.141  25.674  31.864  1.00  0.00    -0.388 OA
ATOM     52  H   UNL     1       1.786  26.052  32.689  1.00  0.00     0.211 HD
ENDBRANCH  50  51
BRANCH  50  53
ATOM     53  C   UNL     1       3.242  27.702  31.073  1.00  0.00     0.154 C 
BRANCH  53  54
ATOM     54  N   UNL     1       4.524  28.330  31.145  1.00  0.00    -0.319 N 
ATOM     55  C   UNL     1       5.109  28.809  32.316  1.00  0.00     0.407 C 
ATOM     56  H   UNL     1       5.050  28.429  30.241  1.00  0.00     0.167 HD
ATOM     57  O   UNL     1       4.526  28.728  33.409  1.00  0.00    -0.225 OA
BRANCH  55  58
ATOM     58  O   UNL     1       6.375  29.410  32.351  1.00  0.00    -0.443 OA
BRANCH  58  59
ATOM     59  C   UNL     1       7.059  29.598  33.577  1.00  0.00     0.294 C 
BRANCH  59  60
ATOM     60  C   UNL     1       8.475  29.169  33.515  1.00  0.00     0.120 A 
ATOM     61  C   UNL     1       8.908  27.839  33.481  1.00  0.00     0.138 A 
ATOM     62  N   UNL     1       9.603  29.896  33.481  1.00  0.00    -0.132 NA
ATOM     63  N   UNL     1      10.267  27.816  33.427  1.00  0.00    -0.252 N 
ATOM     64  N   UNL     1      10.657  29.070  33.429  1.00  0.00    -0.067 NA
BRANCH  63  65
ATOM     65  C   UNL     1      11.030  26.577  33.374  1.00  0.00     0.151 C 
BRANCH  65  66
ATOM     66  C   UNL     1      12.086  26.555  34.471  1.00  0.00     0.086 C 
BRANCH  66  67
ATOM     67  C   UNL     1      11.819  25.466  35.469  1.00  0.00     0.251 C 
ATOM     68  O   UNL     1      10.738  24.698  35.035  1.00  0.00    -0.350 OA
ATOM     69  O   UNL     1      12.869  24.581  35.614  1.00  0.00    -0.350 OA
ATOM     70  C   UNL     1      10.835  23.514  35.756  1.00  0.00     0.192 C 
ATOM     71  C   UNL     1      12.234  23.551  36.348  1.00  0.00     0.192 C 
ENDBRANCH  66  67
ENDBRANCH  65  66
ENDBRANCH  63  65
ENDBRANCH  59  60
ENDBRANCH  58  59
ENDBRANCH  55  58
ENDBRANCH  53  54
ENDBRANCH  50  53
ENDBRANCH  47  50
ENDBRANCH   5  47
BRANCH   4  72
ATOM     72  N   UNL     1       4.054  26.792  26.848  1.00  0.00    -0.348 N 
ATOM     73  C   UNL     1       4.868  27.887  27.153  1.00  0.00     0.217 C 
ATOM     74  H   UNL     1       3.518  26.762  25.932  1.00  0.00     0.163 HD
ATOM     75  C   UNL     1       4.992  29.029  26.191  1.00  0.00     0.114 C 
ATOM     76  O   UNL     1       5.482  27.870  28.254  1.00  0.00    -0.275 OA
ENDBRANCH   4  72
TORSDOF 32
