REMARK VINA RESULT:    -6.133     13.316     18.775
REMARK INTER + INTRA:         -20.544
REMARK INTER:                 -16.197
REMARK INTRA:                  -4.347
REMARK UNBOUND:                -4.909
REMARK SMILES CC(=O)N[C@@H]1[C@@H](O)C[C@](OC[C@H]2O[C@@H](O[C@H]3[C@H](O)[C@@H](O)[C@H](OCCN=[N+]=[N-])O[C@@H]3CO)[C@H](O)[C@@H](O)[C@H]2O)(C(=O)O)O[C@H]1C(O)[C@H](O)CNC(=O)OCc1cn(CCO)nn1
REMARK SMILES IDX 9 1 8 2 6 3 5 4 42 5 41 6 10 7 11 8 12 9 14 10 13 11 32 12
REMARK SMILES IDX 34 13 36 14 15 15 16 16 29 17 28 18 21 19 17 20 19 21 30 22
REMARK SMILES IDX 31 23 22 25 23 26 24 27 25 28 26 29 27 30 18 31 20 33 33 35
REMARK SMILES IDX 35 37 37 39 38 41 39 42 40 43 7 45 43 47 44 48 45 50 46 51
REMARK SMILES IDX 47 53 48 54 49 55 50 57 51 58 52 59 53 60 54 61 60 62 55 63
REMARK SMILES IDX 59 64 56 65 57 66 58 67 4 69 2 70 1 72 3 73
REMARK H PARENT 31 24 18 32 20 34 33 36 35 38 37 40 40 44 7 46 44 49 46 52
REMARK H PARENT 48 56 58 68 4 71
REMARK Flexibility Score: inf
ROOT
ATOM      1  C   UNL     1      17.294  29.206  20.329  1.00  0.00     0.272 C 
ATOM      2  C   UNL     1      17.481  30.503  19.611  1.00  0.00     0.113 C 
ATOM      3  C   UNL     1      16.188  30.933  18.975  1.00  0.00     0.145 C 
ATOM      4  C   UNL     1      15.164  30.997  20.109  1.00  0.00     0.142 C 
ATOM      5  C   UNL     1      14.983  29.563  20.591  1.00  0.00     0.178 C 
ATOM      6  O   UNL     1      16.232  29.258  21.182  1.00  0.00    -0.332 OA
ENDROOT
BRANCH   1   7
ATOM      7  O   UNL     1      18.438  28.878  21.092  1.00  0.00    -0.338 OA
BRANCH   7   8
ATOM      8  C   UNL     1      19.261  29.911  21.396  1.00  0.00     0.199 C 
BRANCH   8   9
ATOM      9  C   UNL     1      20.686  29.415  21.690  1.00  0.00     0.179 C 
ATOM     10  C   UNL     1      21.874  27.614  22.543  1.00  0.00     0.282 C 
ATOM     11  O   UNL     1      20.632  28.228  22.389  1.00  0.00    -0.341 OA
ATOM     12  C   UNL     1      22.484  27.221  21.223  1.00  0.00     0.202 C 
ATOM     13  C   UNL     1      21.930  27.985  20.047  1.00  0.00     0.179 C 
ATOM     14  C   UNL     1      21.553  29.374  20.479  1.00  0.00     0.177 C 
BRANCH  10  15
ATOM     15  O   UNL     1      21.665  26.512  23.280  1.00  0.00    -0.341 OA
BRANCH  15  16
ATOM     16  C   UNL     1      22.346  26.285  24.414  1.00  0.00     0.184 C 
ATOM     17  C   UNL     1      23.105  25.056  24.643  1.00  0.00     0.178 C 
ATOM     18  O   UNL     1      23.042  24.682  25.973  1.00  0.00    -0.341 OA
ATOM     19  C   UNL     1      23.149  25.654  26.916  1.00  0.00     0.281 C 
ATOM     20  C   UNL     1      21.278  26.357  25.537  1.00  0.00     0.180 C 
ATOM     21  C   UNL     1      22.060  26.729  26.778  1.00  0.00     0.202 C 
BRANCH  17  22
ATOM     22  C   UNL     1      24.581  25.173  24.274  1.00  0.00     0.191 C 
BRANCH  22  23
ATOM     23  O   UNL     1      24.932  26.485  23.948  1.00  0.00    -0.394 OA
ATOM     24  H   UNL     1      24.111  26.999  23.830  1.00  0.00     0.210 HD
ENDBRANCH  22  23
ENDBRANCH  17  22
BRANCH  19  25
ATOM     25  O   UNL     1      24.383  26.210  27.102  1.00  0.00    -0.350 OA
BRANCH  25  26
ATOM     26  C   UNL     1      25.125  25.746  28.145  1.00  0.00     0.169 C 
BRANCH  26  27
ATOM     27  C   UNL     1      25.054  26.667  29.315  1.00  0.00     0.119 C 
BRANCH  27  28
ATOM     28  N   UNL     1      25.678  26.016  30.480  1.00  0.00    -0.092 NA
ATOM     29  N   UNL     1      26.708  25.367  30.222  1.00  0.00     0.001 N 
ATOM     30  N   UNL     1      27.941  25.202  30.217  1.00  0.00    -0.003 NA
ENDBRANCH  27  28
ENDBRANCH  26  27
ENDBRANCH  25  26
ENDBRANCH  19  25
BRANCH  20  31
ATOM     31  O   UNL     1      20.295  27.258  25.222  1.00  0.00    -0.387 OA
ATOM     32  H   UNL     1      19.819  27.602  26.020  1.00  0.00     0.211 HD
ENDBRANCH  20  31
BRANCH  21  33
ATOM     33  O   UNL     1      21.242  26.818  27.872  1.00  0.00    -0.385 OA
ATOM     34  H   UNL     1      20.904  25.939  28.174  1.00  0.00     0.211 HD
ENDBRANCH  21  33
ENDBRANCH  15  16
ENDBRANCH  10  15
BRANCH  12  35
ATOM     35  O   UNL     1      23.850  27.541  21.273  1.00  0.00    -0.385 OA
ATOM     36  H   UNL     1      24.094  28.287  20.690  1.00  0.00     0.211 HD
ENDBRANCH  12  35
BRANCH  13  37
ATOM     37  O   UNL     1      20.898  27.280  19.486  1.00  0.00    -0.387 OA
ATOM     38  H   UNL     1      20.088  27.860  19.325  1.00  0.00     0.211 HD
ENDBRANCH  13  37
BRANCH  14  39
ATOM     39  O   UNL     1      20.819  29.949  19.418  1.00  0.00    -0.387 OA
ATOM     40  H   UNL     1      20.880  29.390  18.604  1.00  0.00     0.211 HD
ENDBRANCH  14  39
ENDBRANCH   8   9
ENDBRANCH   7   8
ENDBRANCH   1   7
BRANCH   1  41
ATOM     41  C   UNL     1      17.204  28.118  19.331  1.00  0.00     0.364 C 
ATOM     42  O   UNL     1      16.309  27.253  19.350  1.00  0.00    -0.246 OA
BRANCH  41  43
ATOM     43  O   UNL     1      18.133  28.019  18.310  1.00  0.00    -0.477 OA
ATOM     44  H   UNL     1      18.811  27.240  18.244  1.00  0.00     0.296 HD
ENDBRANCH  41  43
ENDBRANCH   1  41
BRANCH   3  45
ATOM     45  O   UNL     1      16.296  32.248  18.472  1.00  0.00    -0.391 OA
ATOM     46  H   UNL     1      17.248  32.532  18.520  1.00  0.00     0.211 HD
ENDBRANCH   3  45
BRANCH   5  47
ATOM     47  C   UNL     1      14.018  29.552  21.732  1.00  0.00     0.176 C 
BRANCH  47  48
ATOM     48  O   UNL     1      13.341  28.335  21.827  1.00  0.00    -0.388 OA
ATOM     49  H   UNL     1      13.866  27.655  22.327  1.00  0.00     0.211 HD
ENDBRANCH  47  48
BRANCH  47  50
ATOM     50  C   UNL     1      14.486  29.985  23.067  1.00  0.00     0.165 C 
BRANCH  50  51
ATOM     51  O   UNL     1      14.946  28.728  23.655  1.00  0.00    -0.388 OA
ATOM     52  H   UNL     1      14.525  27.988  23.160  1.00  0.00     0.211 HD
ENDBRANCH  50  51
BRANCH  50  53
ATOM     53  C   UNL     1      13.373  30.359  24.030  1.00  0.00     0.154 C 
BRANCH  53  54
ATOM     54  N   UNL     1      12.531  29.265  24.393  1.00  0.00    -0.319 N 
ATOM     55  C   UNL     1      11.121  29.368  24.291  1.00  0.00     0.407 C 
ATOM     56  H   UNL     1      12.930  28.354  24.758  1.00  0.00     0.167 HD
ATOM     57  O   UNL     1      10.668  30.485  23.870  1.00  0.00    -0.225 OA
BRANCH  55  58
ATOM     58  O   UNL     1      10.214  28.389  24.598  1.00  0.00    -0.443 OA
BRANCH  58  59
ATOM     59  C   UNL     1       8.835  28.704  24.599  1.00  0.00     0.294 C 
BRANCH  59  60
ATOM     60  C   UNL     1       7.979  27.527  24.771  1.00  0.00     0.120 A 
ATOM     61  C   UNL     1       6.669  27.548  25.182  1.00  0.00     0.138 A 
ATOM     62  N   UNL     1       8.273  26.233  24.573  1.00  0.00    -0.132 NA
ATOM     63  N   UNL     1       6.199  26.285  25.226  1.00  0.00    -0.250 N 
ATOM     64  N   UNL     1       7.185  25.503  24.853  1.00  0.00    -0.067 NA
BRANCH  63  65
ATOM     65  C   UNL     1       4.838  25.893  25.618  1.00  0.00     0.174 C 
BRANCH  65  66
ATOM     66  C   UNL     1       4.032  27.149  25.841  1.00  0.00     0.179 C 
BRANCH  66  67
ATOM     67  O   UNL     1       3.034  27.188  24.853  1.00  0.00    -0.394 OA
ATOM     68  H   UNL     1       3.278  27.722  24.078  1.00  0.00     0.210 HD
ENDBRANCH  66  67
ENDBRANCH  65  66
ENDBRANCH  63  65
ENDBRANCH  59  60
ENDBRANCH  58  59
ENDBRANCH  55  58
ENDBRANCH  53  54
ENDBRANCH  50  53
ENDBRANCH  47  50
ENDBRANCH   5  47
BRANCH   4  69
ATOM     69  N   UNL     1      13.994  31.707  19.773  1.00  0.00    -0.348 N 
ATOM     70  C   UNL     1      13.724  33.055  20.105  1.00  0.00     0.217 C 
ATOM     71  H   UNL     1      13.243  31.227  19.213  1.00  0.00     0.163 HD
ATOM     72  C   UNL     1      12.448  33.671  19.688  1.00  0.00     0.114 C 
ATOM     73  O   UNL     1      14.545  33.731  20.743  1.00  0.00    -0.275 OA
ENDBRANCH   4  69
TORSDOF 32
