REMARK VINA RESULT:    -5.270     15.243     20.442
REMARK INTER + INTRA:         -20.901
REMARK INTER:                 -13.709
REMARK INTRA:                  -7.192
REMARK UNBOUND:                -7.468
REMARK SMILES CC(=O)N[C@@H]1[C@@H](O)C[C@](OC[C@H]2O[C@@H](O[C@H]3[C@H](O)[C@@H](O)[C@H](OCCN=[N+]=[N-])O[C@@H]3CO)[C@H](O)[C@@H](O)[C@H]2O)(C(=O)O)O[C@H]1C(O)[C@H](O)CNC(=O)OCc1cn(CC(=O)O)nn1
REMARK SMILES IDX 9 1 8 2 6 3 5 4 42 5 41 6 10 7 11 8 12 9 14 10 13 11 32 12
REMARK SMILES IDX 34 13 36 14 15 15 16 16 29 17 28 18 21 19 17 20 19 21 30 22
REMARK SMILES IDX 31 23 22 25 23 26 24 27 25 28 26 29 27 30 18 31 20 33 33 35
REMARK SMILES IDX 35 37 37 39 38 41 39 42 40 43 7 45 43 47 44 48 45 50 46 51
REMARK SMILES IDX 47 53 48 54 49 55 50 57 51 58 52 59 53 60 54 61 61 62 55 63
REMARK SMILES IDX 60 64 56 65 57 66 58 67 59 68 4 70 2 71 1 73 3 74
REMARK H PARENT 31 24 18 32 20 34 33 36 35 38 37 40 40 44 7 46 44 49 46 52
REMARK H PARENT 48 56 59 69 4 72
REMARK Flexibility Score: inf
ROOT
ATOM      1  C   UNL     1      19.553  28.683  19.627  1.00  0.00     0.272 C 
ATOM      2  C   UNL     1      20.113  29.962  20.181  1.00  0.00     0.113 C 
ATOM      3  C   UNL     1      19.424  30.537  21.346  1.00  0.00     0.145 C 
ATOM      4  C   UNL     1      18.016  30.019  21.617  1.00  0.00     0.142 C 
ATOM      5  C   UNL     1      17.506  29.486  20.313  1.00  0.00     0.178 C 
ATOM      6  O   UNL     1      18.325  28.344  20.104  1.00  0.00    -0.332 OA
ENDROOT
BRANCH   1   7
ATOM      7  O   UNL     1      20.429  27.597  19.840  1.00  0.00    -0.338 OA
BRANCH   7   8
ATOM      8  C   UNL     1      21.752  27.918  19.825  1.00  0.00     0.199 C 
BRANCH   8   9
ATOM      9  C   UNL     1      22.361  27.638  21.209  1.00  0.00     0.179 C 
ATOM     10  C   UNL     1      21.538  26.488  23.031  1.00  0.00     0.282 C 
ATOM     11  O   UNL     1      21.426  27.655  22.211  1.00  0.00    -0.341 OA
ATOM     12  C   UNL     1      21.160  25.365  22.135  1.00  0.00     0.202 C 
ATOM     13  C   UNL     1      22.380  25.118  21.232  1.00  0.00     0.179 C 
ATOM     14  C   UNL     1      23.200  26.377  21.157  1.00  0.00     0.177 C 
BRANCH  10  15
ATOM     15  O   UNL     1      20.778  26.692  24.144  1.00  0.00    -0.341 OA
BRANCH  15  16
ATOM     16  C   UNL     1      21.520  26.830  25.318  1.00  0.00     0.184 C 
ATOM     17  C   UNL     1      22.181  28.177  25.303  1.00  0.00     0.178 C 
ATOM     18  O   UNL     1      23.361  28.159  25.996  1.00  0.00    -0.341 OA
ATOM     19  C   UNL     1      23.409  27.384  27.126  1.00  0.00     0.281 C 
ATOM     20  C   UNL     1      22.598  25.771  25.414  1.00  0.00     0.180 C 
ATOM     21  C   UNL     1      23.223  25.911  26.804  1.00  0.00     0.202 C 
BRANCH  17  22
ATOM     22  C   UNL     1      21.244  29.200  25.920  1.00  0.00     0.191 C 
BRANCH  22  23
ATOM     23  O   UNL     1      20.127  29.254  25.082  1.00  0.00    -0.394 OA
ATOM     24  H   UNL     1      19.783  28.353  24.897  1.00  0.00     0.210 HD
ENDBRANCH  22  23
ENDBRANCH  17  22
BRANCH  19  25
ATOM     25  O   UNL     1      22.527  27.832  28.070  1.00  0.00    -0.350 OA
BRANCH  25  26
ATOM     26  C   UNL     1      22.173  26.898  29.011  1.00  0.00     0.169 C 
BRANCH  26  27
ATOM     27  C   UNL     1      22.429  27.311  30.436  1.00  0.00     0.119 C 
BRANCH  27  28
ATOM     28  N   UNL     1      23.513  26.523  31.027  1.00  0.00    -0.092 NA
ATOM     29  N   UNL     1      24.519  26.369  30.306  1.00  0.00     0.001 N 
ATOM     30  N   UNL     1      25.453  25.738  29.774  1.00  0.00    -0.003 NA
ENDBRANCH  27  28
ENDBRANCH  26  27
ENDBRANCH  25  26
ENDBRANCH  19  25
BRANCH  20  31
ATOM     31  O   UNL     1      22.120  24.489  25.311  1.00  0.00    -0.387 OA
ATOM     32  H   UNL     1      21.202  24.404  25.009  1.00  0.00     0.211 HD
ENDBRANCH  20  31
BRANCH  21  33
ATOM     33  O   UNL     1      24.443  25.264  26.872  1.00  0.00    -0.385 OA
ATOM     34  H   UNL     1      24.922  25.291  26.004  1.00  0.00     0.211 HD
ENDBRANCH  21  33
ENDBRANCH  15  16
ENDBRANCH  10  15
BRANCH  12  35
ATOM     35  O   UNL     1      20.701  24.222  22.722  1.00  0.00    -0.385 OA
ATOM     36  H   UNL     1      20.253  24.423  23.560  1.00  0.00     0.211 HD
ENDBRANCH  12  35
BRANCH  13  37
ATOM     37  O   UNL     1      21.891  24.769  19.982  1.00  0.00    -0.387 OA
ATOM     38  H   UNL     1      21.164  24.088  20.028  1.00  0.00     0.211 HD
ENDBRANCH  13  37
BRANCH  14  39
ATOM     39  O   UNL     1      23.853  26.348  19.926  1.00  0.00    -0.387 OA
ATOM     40  H   UNL     1      24.826  26.218  20.017  1.00  0.00     0.211 HD
ENDBRANCH  14  39
ENDBRANCH   8   9
ENDBRANCH   7   8
ENDBRANCH   1   7
BRANCH   1  41
ATOM     41  C   UNL     1      19.466  28.819  18.155  1.00  0.00     0.364 C 
ATOM     42  O   UNL     1      18.988  27.917  17.442  1.00  0.00    -0.246 OA
BRANCH  41  43
ATOM     43  O   UNL     1      19.912  29.956  17.502  1.00  0.00    -0.477 OA
ATOM     44  H   UNL     1      20.730  30.494  17.815  1.00  0.00     0.296 HD
ENDBRANCH  41  43
ENDBRANCH   1  41
BRANCH   3  45
ATOM     45  O   UNL     1      20.194  30.572  22.513  1.00  0.00    -0.391 OA
ATOM     46  H   UNL     1      21.066  30.151  22.423  1.00  0.00     0.211 HD
ENDBRANCH   3  45
BRANCH   5  47
ATOM     47  C   UNL     1      16.077  29.067  20.253  1.00  0.00     0.176 C 
BRANCH  47  48
ATOM     48  O   UNL     1      15.984  27.990  21.195  1.00  0.00    -0.388 OA
ATOM     49  H   UNL     1      15.119  28.063  21.691  1.00  0.00     0.211 HD
ENDBRANCH  47  48
BRANCH  47  50
ATOM     50  C   UNL     1      15.638  28.540  18.905  1.00  0.00     0.165 C 
BRANCH  50  51
ATOM     51  O   UNL     1      16.341  27.336  18.637  1.00  0.00    -0.388 OA
ATOM     52  H   UNL     1      15.668  26.649  18.439  1.00  0.00     0.211 HD
ENDBRANCH  50  51
BRANCH  50  53
ATOM     53  C   UNL     1      15.861  29.492  17.796  1.00  0.00     0.154 C 
BRANCH  53  54
ATOM     54  N   UNL     1      16.264  28.845  16.582  1.00  0.00    -0.319 N 
ATOM     55  C   UNL     1      15.770  29.083  15.280  1.00  0.00     0.407 C 
ATOM     56  H   UNL     1      17.031  28.080  16.602  1.00  0.00     0.167 HD
ATOM     57  O   UNL     1      14.885  29.915  15.066  1.00  0.00    -0.225 OA
BRANCH  55  58
ATOM     58  O   UNL     1      16.252  28.391  14.163  1.00  0.00    -0.443 OA
BRANCH  58  59
ATOM     59  C   UNL     1      16.976  29.061  13.146  1.00  0.00     0.294 C 
BRANCH  59  60
ATOM     60  C   UNL     1      18.191  29.723  13.715  1.00  0.00     0.120 A 
ATOM     61  C   UNL     1      18.462  31.084  13.732  1.00  0.00     0.139 A 
ATOM     62  N   UNL     1      19.242  29.141  14.312  1.00  0.00    -0.132 NA
ATOM     63  N   UNL     1      19.652  31.267  14.331  1.00  0.00    -0.241 N 
ATOM     64  N   UNL     1      20.107  30.072  14.675  1.00  0.00    -0.066 NA
BRANCH  63  65
ATOM     65  C   UNL     1      20.346  32.535  14.578  1.00  0.00     0.268 C 
BRANCH  65  66
ATOM     66  C   UNL     1      19.789  33.128  15.807  1.00  0.00     0.325 C 
ATOM     67  O   UNL     1      19.027  32.469  16.530  1.00  0.00    -0.250 OA
BRANCH  66  68
ATOM     68  O   UNL     1      20.119  34.422  16.152  1.00  0.00    -0.480 OA
ATOM     69  H   UNL     1      20.483  34.674  17.047  1.00  0.00     0.296 HD
ENDBRANCH  66  68
ENDBRANCH  65  66
ENDBRANCH  63  65
ENDBRANCH  59  60
ENDBRANCH  58  59
ENDBRANCH  55  58
ENDBRANCH  53  54
ENDBRANCH  50  53
ENDBRANCH  47  50
ENDBRANCH   5  47
BRANCH   4  70
ATOM     70  N   UNL     1      17.227  30.992  22.290  1.00  0.00    -0.348 N 
ATOM     71  C   UNL     1      16.440  30.676  23.452  1.00  0.00     0.217 C 
ATOM     72  H   UNL     1      17.205  31.980  21.971  1.00  0.00     0.163 HD
ATOM     73  C   UNL     1      15.649  31.753  24.091  1.00  0.00     0.114 C 
ATOM     74  O   UNL     1      16.419  29.514  23.921  1.00  0.00    -0.275 OA
ENDBRANCH   4  70
TORSDOF 32
