REMARK VINA RESULT:    -6.283      3.962      8.102
REMARK INTER + INTRA:         -21.662
REMARK INTER:                 -13.061
REMARK INTRA:                  -8.600
REMARK UNBOUND:                -5.460
REMARK SMILES CC(=O)N[C@@H]1[C@@H](O)C[C@](OC[C@H]2O[C@@H](O[C@H]3[C@H](O)[C@@H](O)[C@H](OCCN=[N+]=[N-])O[C@@H]3CO)[C@H](O)[C@@H](O)[C@H]2O)(C(=O)O)O[C@H]1C(O)[C@H](O)CNC(=O)OCc1cn(C(c2ccccc2)c2ccccc2)nn1
REMARK SMILES IDX 9 1 8 2 6 3 5 4 42 5 41 6 10 7 11 8 12 9 14 10 13 11 32 12
REMARK SMILES IDX 34 13 36 14 15 15 16 16 29 17 28 18 21 19 17 20 19 21 30 22
REMARK SMILES IDX 31 23 22 25 23 26 24 27 25 28 26 29 27 30 18 31 20 33 33 35
REMARK SMILES IDX 35 37 37 39 38 41 39 42 40 43 7 45 43 47 44 48 45 50 46 51
REMARK SMILES IDX 47 53 48 54 49 55 50 57 51 58 52 59 53 60 54 61 70 62 55 63
REMARK SMILES IDX 69 64 56 65 57 66 58 67 62 68 59 69 61 70 60 71 63 72 64 73
REMARK SMILES IDX 68 74 65 75 67 76 66 77 4 78 2 79 1 81 3 82
REMARK H PARENT 31 24 18 32 20 34 33 36 35 38 37 40 40 44 7 46 44 49 46 52
REMARK H PARENT 48 56 4 80
REMARK Flexibility Score: inf
ROOT
ATOM      1  C   UNL     1      15.773  30.194  20.454  1.00  0.00     0.272 C 
ATOM      2  C   UNL     1      14.642  31.047  19.842  1.00  0.00     0.113 C 
ATOM      3  C   UNL     1      13.371  30.765  20.533  1.00  0.00     0.145 C 
ATOM      4  C   UNL     1      13.511  31.058  22.006  1.00  0.00     0.142 C 
ATOM      5  C   UNL     1      14.917  31.039  22.481  1.00  0.00     0.178 C 
ATOM      6  O   UNL     1      15.772  30.237  21.796  1.00  0.00    -0.332 OA
ENDROOT
BRANCH   1   7
ATOM      7  O   UNL     1      16.989  30.703  19.971  1.00  0.00    -0.338 OA
BRANCH   7   8
ATOM      8  C   UNL     1      16.794  31.593  18.948  1.00  0.00     0.199 C 
BRANCH   8   9
ATOM      9  C   UNL     1      17.892  31.514  17.889  1.00  0.00     0.179 C 
ATOM     10  C   UNL     1      19.795  30.230  18.537  1.00  0.00     0.282 C 
ATOM     11  O   UNL     1      19.076  31.364  18.418  1.00  0.00    -0.341 OA
ATOM     12  C   UNL     1      19.133  29.017  18.089  1.00  0.00     0.202 C 
ATOM     13  C   UNL     1      18.179  29.195  16.960  1.00  0.00     0.179 C 
ATOM     14  C   UNL     1      17.541  30.521  16.805  1.00  0.00     0.177 C 
BRANCH  10  15
ATOM     15  O   UNL     1      20.185  30.235  19.912  1.00  0.00    -0.341 OA
BRANCH  15  16
ATOM     16  C   UNL     1      21.508  29.952  20.064  1.00  0.00     0.184 C 
ATOM     17  C   UNL     1      21.774  29.155  21.292  1.00  0.00     0.178 C 
ATOM     18  O   UNL     1      23.101  28.702  21.299  1.00  0.00    -0.341 OA
ATOM     19  C   UNL     1      23.948  29.750  21.534  1.00  0.00     0.281 C 
ATOM     20  C   UNL     1      22.340  31.223  20.194  1.00  0.00     0.180 C 
ATOM     21  C   UNL     1      23.381  31.078  21.232  1.00  0.00     0.202 C 
BRANCH  17  22
ATOM     22  C   UNL     1      20.812  28.009  21.530  1.00  0.00     0.191 C 
BRANCH  22  23
ATOM     23  O   UNL     1      20.814  27.174  20.417  1.00  0.00    -0.394 OA
ATOM     24  H   UNL     1      20.802  26.219  20.635  1.00  0.00     0.210 HD
ENDBRANCH  22  23
ENDBRANCH  17  22
BRANCH  19  25
ATOM     25  O   UNL     1      25.200  29.553  20.928  1.00  0.00    -0.350 OA
BRANCH  25  26
ATOM     26  C   UNL     1      25.259  28.509  20.050  1.00  0.00     0.169 C 
BRANCH  26  27
ATOM     27  C   UNL     1      25.446  29.039  18.648  1.00  0.00     0.119 C 
BRANCH  27  28
ATOM     28  N   UNL     1      24.218  28.939  17.863  1.00  0.00    -0.092 NA
ATOM     29  N   UNL     1      23.405  28.039  18.034  1.00  0.00     0.001 N 
ATOM     30  N   UNL     1      22.838  26.939  18.046  1.00  0.00    -0.003 NA
ENDBRANCH  27  28
ENDBRANCH  26  27
ENDBRANCH  25  26
ENDBRANCH  19  25
BRANCH  20  31
ATOM     31  O   UNL     1      22.822  31.526  18.920  1.00  0.00    -0.387 OA
ATOM     32  H   UNL     1      23.188  30.720  18.466  1.00  0.00     0.211 HD
ENDBRANCH  20  31
BRANCH  21  33
ATOM     33  O   UNL     1      22.880  31.665  22.430  1.00  0.00    -0.385 OA
ATOM     34  H   UNL     1      21.949  31.316  22.520  1.00  0.00     0.211 HD
ENDBRANCH  21  33
ENDBRANCH  15  16
ENDBRANCH  10  15
BRANCH  12  35
ATOM     35  O   UNL     1      20.035  28.009  17.660  1.00  0.00    -0.385 OA
ATOM     36  H   UNL     1      19.480  27.206  17.511  1.00  0.00     0.211 HD
ENDBRANCH  12  35
BRANCH  13  37
ATOM     37  O   UNL     1      17.157  28.211  16.996  1.00  0.00    -0.387 OA
ATOM     38  H   UNL     1      17.482  27.422  17.503  1.00  0.00     0.211 HD
ENDBRANCH  13  37
BRANCH  14  39
ATOM     39  O   UNL     1      16.145  30.372  16.865  1.00  0.00    -0.387 OA
ATOM     40  H   UNL     1      15.845  30.074  17.756  1.00  0.00     0.211 HD
ENDBRANCH  14  39
ENDBRANCH   8   9
ENDBRANCH   7   8
ENDBRANCH   1   7
BRANCH   1  41
ATOM     41  C   UNL     1      15.572  28.846  19.922  1.00  0.00     0.364 C 
ATOM     42  O   UNL     1      16.026  27.846  20.511  1.00  0.00    -0.246 OA
BRANCH  41  43
ATOM     43  O   UNL     1      14.870  28.607  18.738  1.00  0.00    -0.477 OA
ATOM     44  H   UNL     1      15.349  28.310  17.901  1.00  0.00     0.296 HD
ENDBRANCH  41  43
ENDBRANCH   1  41
BRANCH   3  45
ATOM     45  O   UNL     1      12.396  31.619  19.973  1.00  0.00    -0.391 OA
ATOM     46  H   UNL     1      12.049  31.247  19.124  1.00  0.00     0.211 HD
ENDBRANCH   3  45
BRANCH   5  47
ATOM     47  C   UNL     1      15.562  32.371  22.738  1.00  0.00     0.176 C 
BRANCH  47  48
ATOM     48  O   UNL     1      16.950  32.167  22.595  1.00  0.00    -0.388 OA
ATOM     49  H   UNL     1      17.468  32.515  23.341  1.00  0.00     0.211 HD
ENDBRANCH  47  48
BRANCH  47  50
ATOM     50  C   UNL     1      15.322  32.971  24.076  1.00  0.00     0.165 C 
BRANCH  50  51
ATOM     51  O   UNL     1      16.161  34.074  24.186  1.00  0.00    -0.388 OA
ATOM     52  H   UNL     1      16.701  34.070  25.017  1.00  0.00     0.211 HD
ENDBRANCH  50  51
BRANCH  50  53
ATOM     53  C   UNL     1      15.523  32.072  25.246  1.00  0.00     0.154 C 
BRANCH  53  54
ATOM     54  N   UNL     1      16.737  31.320  25.268  1.00  0.00    -0.319 N 
ATOM     55  C   UNL     1      17.989  31.725  25.742  1.00  0.00     0.407 C 
ATOM     56  H   UNL     1      16.693  30.324  24.878  1.00  0.00     0.167 HD
ATOM     57  O   UNL     1      18.146  32.862  26.199  1.00  0.00    -0.225 OA
BRANCH  55  58
ATOM     58  O   UNL     1      19.085  30.866  25.712  1.00  0.00    -0.443 OA
BRANCH  58  59
ATOM     59  C   UNL     1      19.814  30.682  24.488  1.00  0.00     0.294 C 
BRANCH  59  60
ATOM     60  C   UNL     1      21.037  29.894  24.785  1.00  0.00     0.120 A 
ATOM     61  C   UNL     1      21.038  28.540  24.958  1.00  0.00     0.139 A 
ATOM     62  N   UNL     1      22.269  30.376  24.917  1.00  0.00    -0.132 NA
ATOM     63  N   UNL     1      22.317  28.208  25.201  1.00  0.00    -0.240 N 
ATOM     64  N   UNL     1      23.051  29.327  25.173  1.00  0.00    -0.066 NA
BRANCH  63  65
ATOM     65  C   UNL     1      22.898  26.905  25.445  1.00  0.00     0.169 C 
BRANCH  65  66
ATOM     66  C   UNL     1      22.473  26.009  24.362  1.00  0.00    -0.019 A 
ATOM     67  C   UNL     1      23.310  25.749  23.295  1.00  0.00     0.006 A 
ATOM     68  C   UNL     1      21.236  25.401  24.335  1.00  0.00     0.006 A 
ATOM     69  C   UNL     1      22.921  24.918  22.253  1.00  0.00     0.000 A 
ATOM     70  C   UNL     1      20.835  24.566  23.296  1.00  0.00     0.000 A 
ATOM     71  C   UNL     1      21.687  24.318  22.237  1.00  0.00     0.000 A 
ENDBRANCH  65  66
BRANCH  65  72
ATOM     72  C   UNL     1      22.570  26.438  26.806  1.00  0.00    -0.019 A 
ATOM     73  C   UNL     1      21.683  27.214  27.543  1.00  0.00     0.006 A 
ATOM     74  C   UNL     1      23.091  25.324  27.398  1.00  0.00     0.006 A 
ATOM     75  C   UNL     1      21.347  26.863  28.824  1.00  0.00     0.000 A 
ATOM     76  C   UNL     1      22.756  24.962  28.690  1.00  0.00     0.000 A 
ATOM     77  C   UNL     1      21.881  25.733  29.411  1.00  0.00     0.000 A 
ENDBRANCH  65  72
ENDBRANCH  63  65
ENDBRANCH  59  60
ENDBRANCH  58  59
ENDBRANCH  55  58
ENDBRANCH  53  54
ENDBRANCH  50  53
ENDBRANCH  47  50
ENDBRANCH   5  47
BRANCH   4  78
ATOM     78  N   UNL     1      12.741  29.990  22.674  1.00  0.00    -0.348 N 
ATOM     79  C   UNL     1      11.979  30.228  23.851  1.00  0.00     0.217 C 
ATOM     80  H   UNL     1      12.729  29.009  22.298  1.00  0.00     0.163 HD
ATOM     81  C   UNL     1      11.202  29.120  24.507  1.00  0.00     0.114 C 
ATOM     82  O   UNL     1      11.929  31.361  24.374  1.00  0.00    -0.275 OA
ENDBRANCH   4  78
TORSDOF 32
