REMARK VINA RESULT:    -4.982      3.553      5.901
REMARK INTER + INTRA:         -21.917
REMARK INTER:                 -15.580
REMARK INTRA:                  -6.338
REMARK UNBOUND:                -8.780
REMARK SMILES COc1ccc(Cn2cc(COC(=O)NC[C@@H](O)C(O)[C@@H]3O[C@@](OC[C@H]4O[C@@H](O[C@H]5[C@H](O)[C@@H](O)[C@H](OCCN=[N+]=[N-])O[C@@H]5CO)[C@H](O)[C@@H](O)[C@H]4O)(C(=O)O)C[C@H](O)[C@H]3NC(C)=O)nn2)cc1OC
REMARK SMILES IDX 23 1 55 2 56 3 58 4 21 5 22 6 24 7 25 8 26 9 28 10 27 11
REMARK SMILES IDX 46 12 48 13 50 14 29 15 30 16 43 17 42 18 35 19 31 20 33 21
REMARK SMILES IDX 44 22 45 23 36 25 37 26 38 27 39 28 40 29 41 30 32 31 34 33
REMARK SMILES IDX 47 35 49 37 51 39 52 41 53 42 54 43 57 45 19 47 20 48 17 50
REMARK SMILES IDX 18 51 16 53 15 54 13 55 14 57 12 58 11 59 10 60 9 61 63 62
REMARK SMILES IDX 8 63 64 64 7 65 6 66 65 67 5 68 66 69 4 70 3 71 67 72 68 73
REMARK SMILES IDX 2 74 1 75 59 76 60 77 61 79 62 80
REMARK H PARENT 45 24 32 32 34 34 47 36 49 38 51 40 54 44 57 46 20 49 18 52
REMARK H PARENT 15 56 59 78
REMARK Flexibility Score: inf
ROOT
ATOM      1  C   UNL     1      22.022  26.133  21.534  1.00  0.00     0.272 C 
ATOM      2  C   UNL     1      21.297  24.942  22.134  1.00  0.00     0.113 C 
ATOM      3  C   UNL     1      21.292  24.783  23.611  1.00  0.00     0.145 C 
ATOM      4  C   UNL     1      22.459  25.559  24.214  1.00  0.00     0.142 C 
ATOM      5  C   UNL     1      23.525  25.519  23.192  1.00  0.00     0.178 C 
ATOM      6  O   UNL     1      23.234  26.426  22.190  1.00  0.00    -0.332 OA
ENDROOT
BRANCH   1   7
ATOM      7  O   UNL     1      21.157  27.201  21.736  1.00  0.00    -0.338 OA
BRANCH   7   8
ATOM      8  C   UNL     1      21.703  28.389  22.115  1.00  0.00     0.199 C 
BRANCH   8   9
ATOM      9  C   UNL     1      20.637  29.423  22.353  1.00  0.00     0.179 C 
ATOM     10  C   UNL     1      18.530  30.119  21.865  1.00  0.00     0.282 C 
ATOM     11  O   UNL     1      19.371  28.945  21.969  1.00  0.00    -0.341 OA
ATOM     12  C   UNL     1      18.220  30.619  23.198  1.00  0.00     0.202 C 
ATOM     13  C   UNL     1      19.441  30.674  24.102  1.00  0.00     0.179 C 
ATOM     14  C   UNL     1      20.470  29.641  23.864  1.00  0.00     0.177 C 
BRANCH  10  15
ATOM     15  O   UNL     1      17.441  29.740  21.105  1.00  0.00    -0.341 OA
BRANCH  15  16
ATOM     16  C   UNL     1      17.717  29.906  19.748  1.00  0.00     0.184 C 
ATOM     17  C   UNL     1      16.679  30.666  19.022  1.00  0.00     0.178 C 
ATOM     18  O   UNL     1      17.188  31.004  17.771  1.00  0.00    -0.341 OA
ATOM     19  C   UNL     1      17.948  30.035  17.220  1.00  0.00     0.281 C 
ATOM     20  C   UNL     1      17.847  28.502  19.146  1.00  0.00     0.180 C 
ATOM     21  C   UNL     1      17.617  28.619  17.633  1.00  0.00     0.202 C 
BRANCH  17  22
ATOM     22  C   UNL     1      16.199  31.886  19.774  1.00  0.00     0.191 C 
BRANCH  22  23
ATOM     23  O   UNL     1      17.339  32.616  20.108  1.00  0.00    -0.394 OA
ATOM     24  H   UNL     1      18.133  32.003  20.089  1.00  0.00     0.210 HD
ENDBRANCH  22  23
ENDBRANCH  17  22
BRANCH  19  25
ATOM     25  O   UNL     1      19.311  30.247  17.640  1.00  0.00    -0.350 OA
BRANCH  25  26
ATOM     26  C   UNL     1      20.079  30.367  16.464  1.00  0.00     0.169 C 
BRANCH  26  27
ATOM     27  C   UNL     1      21.268  29.424  16.440  1.00  0.00     0.119 C 
BRANCH  27  28
ATOM     28  N   UNL     1      20.986  28.344  15.535  1.00  0.00    -0.092 NA
ATOM     29  N   UNL     1      21.355  27.187  15.755  1.00  0.00     0.001 N 
ATOM     30  N   UNL     1      21.999  26.195  16.154  1.00  0.00    -0.003 NA
ENDBRANCH  27  28
ENDBRANCH  26  27
ENDBRANCH  25  26
ENDBRANCH  19  25
BRANCH  20  31
ATOM     31  O   UNL     1      19.159  28.096  19.329  1.00  0.00    -0.387 OA
ATOM     32  H   UNL     1      19.226  27.132  19.053  1.00  0.00     0.211 HD
ENDBRANCH  20  31
BRANCH  21  33
ATOM     33  O   UNL     1      16.291  28.358  17.380  1.00  0.00    -0.385 OA
ATOM     34  H   UNL     1      15.745  28.325  18.212  1.00  0.00     0.211 HD
ENDBRANCH  21  33
ENDBRANCH  15  16
ENDBRANCH  10  15
BRANCH  12  35
ATOM     35  O   UNL     1      17.717  31.909  23.161  1.00  0.00    -0.385 OA
ATOM     36  H   UNL     1      18.423  32.582  22.937  1.00  0.00     0.211 HD
ENDBRANCH  12  35
BRANCH  13  37
ATOM     37  O   UNL     1      18.975  30.633  25.443  1.00  0.00    -0.387 OA
ATOM     38  H   UNL     1      18.914  31.575  25.748  1.00  0.00     0.211 HD
ENDBRANCH  13  37
BRANCH  14  39
ATOM     39  O   UNL     1      20.073  28.385  24.376  1.00  0.00    -0.387 OA
ATOM     40  H   UNL     1      19.302  28.004  23.833  1.00  0.00     0.211 HD
ENDBRANCH  14  39
ENDBRANCH   8   9
ENDBRANCH   7   8
ENDBRANCH   1   7
BRANCH   1  41
ATOM     41  C   UNL     1      22.326  25.820  20.114  1.00  0.00     0.364 C 
ATOM     42  O   UNL     1      22.955  24.808  19.794  1.00  0.00    -0.246 OA
BRANCH  41  43
ATOM     43  O   UNL     1      21.929  26.646  19.029  1.00  0.00    -0.477 OA
ATOM     44  H   UNL     1      22.399  27.580  18.987  1.00  0.00     0.296 HD
ENDBRANCH  41  43
ENDBRANCH   1  41
BRANCH   3  45
ATOM     45  O   UNL     1      20.127  25.249  24.172  1.00  0.00    -0.391 OA
ATOM     46  H   UNL     1      20.271  26.158  24.564  1.00  0.00     0.211 HD
ENDBRANCH   3  45
BRANCH   5  47
ATOM     47  C   UNL     1      24.881  25.526  23.728  1.00  0.00     0.176 C 
BRANCH  47  48
ATOM     48  O   UNL     1      25.281  24.389  24.420  1.00  0.00    -0.388 OA
ATOM     49  H   UNL     1      24.578  23.774  24.655  1.00  0.00     0.211 HD
ENDBRANCH  47  48
BRANCH  47  50
ATOM     50  C   UNL     1      25.897  25.375  22.470  1.00  0.00     0.165 C 
BRANCH  50  51
ATOM     51  O   UNL     1      25.806  26.502  21.751  1.00  0.00    -0.388 OA
ATOM     52  H   UNL     1      25.336  27.245  22.233  1.00  0.00     0.211 HD
ENDBRANCH  50  51
BRANCH  50  53
ATOM     53  C   UNL     1      25.790  24.053  21.899  1.00  0.00     0.154 C 
BRANCH  53  54
ATOM     54  N   UNL     1      26.587  22.935  22.277  1.00  0.00    -0.319 N 
ATOM     55  C   UNL     1      27.845  22.813  21.637  1.00  0.00     0.407 C 
ATOM     56  H   UNL     1      26.341  22.208  22.945  1.00  0.00     0.167 HD
ATOM     57  O   UNL     1      28.213  23.667  20.765  1.00  0.00    -0.225 OA
BRANCH  55  58
ATOM     58  O   UNL     1      28.773  21.804  21.871  1.00  0.00    -0.443 OA
BRANCH  58  59
ATOM     59  C   UNL     1      28.223  20.460  22.092  1.00  0.00     0.294 C 
BRANCH  59  60
ATOM     60  C   UNL     1      28.755  19.698  20.925  1.00  0.00     0.120 A 
ATOM     61  C   UNL     1      29.452  20.274  19.836  1.00  0.00     0.138 A 
ATOM     62  N   UNL     1      28.743  18.385  20.735  1.00  0.00    -0.132 NA
ATOM     63  N   UNL     1      29.821  19.232  19.054  1.00  0.00    -0.248 N 
ATOM     64  N   UNL     1      29.404  18.135  19.583  1.00  0.00    -0.067 NA
BRANCH  63  65
ATOM     65  C   UNL     1      30.640  19.368  17.820  1.00  0.00     0.181 C 
BRANCH  65  66
ATOM     66  C   UNL     1      29.665  20.019  16.838  1.00  0.00    -0.023 A 
ATOM     67  C   UNL     1      28.631  19.317  16.257  1.00  0.00     0.056 A 
ATOM     68  C   UNL     1      29.776  21.359  16.650  1.00  0.00     0.010 A 
ATOM     69  C   UNL     1      27.727  20.096  15.480  1.00  0.00     0.161 A 
ATOM     70  C   UNL     1      28.857  22.122  15.866  1.00  0.00     0.051 A 
ATOM     71  C   UNL     1      27.831  21.415  15.299  1.00  0.00     0.160 A 
BRANCH  69  72
ATOM     72  O   UNL     1      26.661  19.443  14.858  1.00  0.00    -0.493 OA
ATOM     73  C   UNL     1      26.840  18.673  13.664  1.00  0.00     0.278 C 
ENDBRANCH  69  72
BRANCH  71  74
ATOM     74  O   UNL     1      26.847  22.091  14.523  1.00  0.00    -0.493 OA
ATOM     75  C   UNL     1      25.806  22.805  15.222  1.00  0.00     0.278 C 
ENDBRANCH  71  74
ENDBRANCH  65  66
ENDBRANCH  63  65
ENDBRANCH  59  60
ENDBRANCH  58  59
ENDBRANCH  55  58
ENDBRANCH  53  54
ENDBRANCH  50  53
ENDBRANCH  47  50
ENDBRANCH   5  47
BRANCH   4  76
ATOM     76  N   UNL     1      22.800  24.961  25.477  1.00  0.00    -0.348 N 
ATOM     77  C   UNL     1      22.332  25.539  26.662  1.00  0.00     0.217 C 
ATOM     78  H   UNL     1      23.378  24.080  25.569  1.00  0.00     0.163 HD
ATOM     79  C   UNL     1      22.616  25.058  28.049  1.00  0.00     0.114 C 
ATOM     80  O   UNL     1      21.578  26.595  26.670  1.00  0.00    -0.275 OA
ENDBRANCH   4  76
TORSDOF 33
