REMARK VINA RESULT:    -5.386      6.425     10.526
REMARK INTER + INTRA:         -20.429
REMARK INTER:                 -16.527
REMARK INTRA:                  -3.902
REMARK UNBOUND:                -6.855
REMARK SMILES CC(=O)N[C@@H]1[C@@H](O)C[C@](OC[C@H]2O[C@@H](O[C@H]3[C@H](O)[C@@H](O)[C@H](OCCN=[N+]=[N-])O[C@@H]3CO)[C@H](O)[C@@H](O)[C@H]2O)(C(=O)O)O[C@H]1C(O)[C@H](O)CNC(=O)OCc1cn(Cc2ccsc2)nn1
REMARK SMILES IDX 9 1 8 2 6 3 5 4 42 5 41 6 10 7 11 8 12 9 14 10 13 11 32 12
REMARK SMILES IDX 34 13 36 14 15 15 16 16 29 17 28 18 21 19 17 20 19 21 30 22
REMARK SMILES IDX 31 23 22 25 23 26 24 27 25 28 26 29 27 30 18 31 20 33 33 35
REMARK SMILES IDX 35 37 37 39 38 41 39 42 40 43 7 45 43 47 44 48 45 50 46 51
REMARK SMILES IDX 47 53 48 54 49 55 50 57 51 58 52 59 53 60 54 61 63 62 55 63
REMARK SMILES IDX 62 64 56 65 57 66 58 67 61 68 59 69 60 70 4 71 2 72 1 74
REMARK SMILES IDX 3 75
REMARK H PARENT 31 24 18 32 20 34 33 36 35 38 37 40 40 44 7 46 44 49 46 52
REMARK H PARENT 48 56 4 73
REMARK Flexibility Score: inf
ROOT
ATOM      1  C   UNL     1      17.265  29.189  19.229  1.00  0.00     0.272 C 
ATOM      2  C   UNL     1      17.483  29.238  17.746  1.00  0.00     0.113 C 
ATOM      3  C   UNL     1      16.228  29.171  16.919  1.00  0.00     0.145 C 
ATOM      4  C   UNL     1      15.130  30.006  17.455  1.00  0.00     0.142 C 
ATOM      5  C   UNL     1      15.174  30.225  18.955  1.00  0.00     0.178 C 
ATOM      6  O   UNL     1      16.401  30.320  19.507  1.00  0.00    -0.332 OA
ENDROOT
BRANCH   1   7
ATOM      7  O   UNL     1      18.397  29.551  19.870  1.00  0.00    -0.338 OA
BRANCH   7   8
ATOM      8  C   UNL     1      19.111  28.782  20.669  1.00  0.00     0.199 C 
BRANCH   8   9
ATOM      9  C   UNL     1      20.540  28.967  20.971  1.00  0.00     0.179 C 
ATOM     10  C   UNL     1      21.935  28.574  22.724  1.00  0.00     0.282 C 
ATOM     11  O   UNL     1      20.840  28.020  22.021  1.00  0.00    -0.341 OA
ATOM     12  C   UNL     1      23.043  29.002  21.826  1.00  0.00     0.202 C 
ATOM     13  C   UNL     1      22.904  28.658  20.387  1.00  0.00     0.179 C 
ATOM     14  C   UNL     1      21.497  28.518  19.880  1.00  0.00     0.177 C 
BRANCH  10  15
ATOM     15  O   UNL     1      22.318  27.669  23.682  1.00  0.00    -0.341 OA
BRANCH  15  16
ATOM     16  C   UNL     1      22.454  26.357  23.200  1.00  0.00     0.184 C 
ATOM     17  C   UNL     1      21.432  25.441  23.777  1.00  0.00     0.178 C 
ATOM     18  O   UNL     1      21.791  24.702  24.861  1.00  0.00    -0.341 OA
ATOM     19  C   UNL     1      23.075  24.971  25.365  1.00  0.00     0.281 C 
ATOM     20  C   UNL     1      23.869  25.878  23.270  1.00  0.00     0.180 C 
ATOM     21  C   UNL     1      24.021  24.689  24.230  1.00  0.00     0.202 C 
BRANCH  17  22
ATOM     22  C   UNL     1      20.834  24.506  22.738  1.00  0.00     0.191 C 
BRANCH  22  23
ATOM     23  O   UNL     1      21.220  24.993  21.489  1.00  0.00    -0.394 OA
ATOM     24  H   UNL     1      21.969  24.453  21.099  1.00  0.00     0.210 HD
ENDBRANCH  22  23
ENDBRANCH  17  22
BRANCH  19  25
ATOM     25  O   UNL     1      23.245  24.198  26.481  1.00  0.00    -0.350 OA
BRANCH  25  26
ATOM     26  C   UNL     1      22.871  24.814  27.659  1.00  0.00     0.169 C 
BRANCH  26  27
ATOM     27  C   UNL     1      22.876  26.307  27.642  1.00  0.00     0.119 C 
BRANCH  27  28
ATOM     28  N   UNL     1      21.542  26.833  27.749  1.00  0.00    -0.092 NA
ATOM     29  N   UNL     1      21.247  27.825  27.064  1.00  0.00     0.001 N 
ATOM     30  N   UNL     1      20.656  28.712  26.448  1.00  0.00    -0.003 NA
ENDBRANCH  27  28
ENDBRANCH  26  27
ENDBRANCH  25  26
ENDBRANCH  19  25
BRANCH  20  31
ATOM     31  O   UNL     1      24.437  25.596  22.046  1.00  0.00    -0.387 OA
ATOM     32  H   UNL     1      24.976  26.347  21.720  1.00  0.00     0.211 HD
ENDBRANCH  20  31
BRANCH  21  33
ATOM     33  O   UNL     1      25.314  24.512  24.648  1.00  0.00    -0.385 OA
ATOM     34  H   UNL     1      25.468  24.847  25.573  1.00  0.00     0.211 HD
ENDBRANCH  21  33
ENDBRANCH  15  16
ENDBRANCH  10  15
BRANCH  12  35
ATOM     35  O   UNL     1      23.355  30.375  22.006  1.00  0.00    -0.385 OA
ATOM     36  H   UNL     1      23.354  30.593  22.975  1.00  0.00     0.211 HD
ENDBRANCH  12  35
BRANCH  13  37
ATOM     37  O   UNL     1      23.546  27.424  20.153  1.00  0.00    -0.387 OA
ATOM     38  H   UNL     1      24.442  27.609  19.789  1.00  0.00     0.211 HD
ENDBRANCH  13  37
BRANCH  14  39
ATOM     39  O   UNL     1      21.183  27.153  19.667  1.00  0.00    -0.387 OA
ATOM     40  H   UNL     1      20.727  27.141  18.769  1.00  0.00     0.211 HD
ENDBRANCH  14  39
ENDBRANCH   8   9
ENDBRANCH   7   8
ENDBRANCH   1   7
BRANCH   1  41
ATOM     41  C   UNL     1      16.502  28.037  19.707  1.00  0.00     0.364 C 
ATOM     42  O   UNL     1      15.926  28.010  20.811  1.00  0.00    -0.246 OA
BRANCH  41  43
ATOM     43  O   UNL     1      16.366  26.862  18.944  1.00  0.00    -0.477 OA
ATOM     44  H   UNL     1      15.453  26.494  18.713  1.00  0.00     0.296 HD
ENDBRANCH  41  43
ENDBRANCH   1  41
BRANCH   3  45
ATOM     45  O   UNL     1      16.611  29.707  15.659  1.00  0.00    -0.391 OA
ATOM     46  H   UNL     1      16.575  28.993  14.963  1.00  0.00     0.211 HD
ENDBRANCH   3  45
BRANCH   5  47
ATOM     47  C   UNL     1      14.493  31.583  19.251  1.00  0.00     0.176 C 
BRANCH  47  48
ATOM     48  O   UNL     1      15.464  32.582  19.262  1.00  0.00    -0.388 OA
ATOM     49  H   UNL     1      15.204  33.297  19.885  1.00  0.00     0.211 HD
ENDBRANCH  47  48
BRANCH  47  50
ATOM     50  C   UNL     1      13.889  31.503  20.608  1.00  0.00     0.165 C 
BRANCH  50  51
ATOM     51  O   UNL     1      14.868  31.785  21.559  1.00  0.00    -0.388 OA
ATOM     52  H   UNL     1      15.754  31.465  21.262  1.00  0.00     0.211 HD
ENDBRANCH  50  51
BRANCH  50  53
ATOM     53  C   UNL     1      13.287  30.166  20.950  1.00  0.00     0.154 C 
BRANCH  53  54
ATOM     54  N   UNL     1      12.437  30.204  22.101  1.00  0.00    -0.319 N 
ATOM     55  C   UNL     1      12.829  29.900  23.411  1.00  0.00     0.407 C 
ATOM     56  H   UNL     1      11.422  30.486  21.947  1.00  0.00     0.167 HD
ATOM     57  O   UNL     1      14.013  29.565  23.630  1.00  0.00    -0.225 OA
BRANCH  55  58
ATOM     58  O   UNL     1      11.905  29.977  24.431  1.00  0.00    -0.443 OA
BRANCH  58  59
ATOM     59  C   UNL     1      10.529  30.136  24.236  1.00  0.00     0.294 C 
BRANCH  59  60
ATOM     60  C   UNL     1       9.840  28.877  24.583  1.00  0.00     0.120 A 
ATOM     61  C   UNL     1       8.499  28.650  24.573  1.00  0.00     0.138 A 
ATOM     62  N   UNL     1      10.448  27.745  24.967  1.00  0.00    -0.132 NA
ATOM     63  N   UNL     1       8.315  27.374  24.954  1.00  0.00    -0.248 N 
ATOM     64  N   UNL     1       9.494  26.836  25.190  1.00  0.00    -0.067 NA
BRANCH  63  65
ATOM     65  C   UNL     1       7.036  26.722  25.077  1.00  0.00     0.182 C 
BRANCH  65  66
ATOM     66  C   UNL     1       5.992  27.772  25.476  1.00  0.00    -0.016 A 
ATOM     67  C   UNL     1       5.159  28.336  24.625  1.00  0.00     0.017 A 
ATOM     68  C   UNL     1       5.938  28.138  26.819  1.00  0.00     0.070 A 
ATOM     69  C   UNL     1       4.236  29.279  25.039  1.00  0.00     0.065 A 
ATOM     70  S   UNL     1       4.610  29.359  26.830  1.00  0.00    -0.152 S 
ENDBRANCH  65  66
ENDBRANCH  63  65
ENDBRANCH  59  60
ENDBRANCH  58  59
ENDBRANCH  55  58
ENDBRANCH  53  54
ENDBRANCH  50  53
ENDBRANCH  47  50
ENDBRANCH   5  47
BRANCH   4  71
ATOM     71  N   UNL     1      13.813  29.552  17.125  1.00  0.00    -0.348 N 
ATOM     72  C   UNL     1      13.119  29.986  15.965  1.00  0.00     0.217 C 
ATOM     73  H   UNL     1      13.323  28.873  17.748  1.00  0.00     0.163 HD
ATOM     74  C   UNL     1      11.744  29.518  15.611  1.00  0.00     0.114 C 
ATOM     75  O   UNL     1      13.742  30.808  15.233  1.00  0.00    -0.275 OA
ENDBRANCH   4  71
TORSDOF 31
