REMARK VINA RESULT:    -5.191      3.252      4.575
REMARK INTER + INTRA:         -21.339
REMARK INTER:                 -13.734
REMARK INTRA:                  -7.606
REMARK UNBOUND:                -8.561
REMARK SMILES CC(=O)N[C@@H]1[C@@H](O)C[C@](OC[C@H]2O[C@@H](O[C@H]3[C@H](O)[C@@H](O)[C@H](OCCN=[N+]=[N-])O[C@@H]3CO)[C@H](O)[C@@H](O)[C@H]2O)(C(=O)O)O[C@H]1C(O)[C@H](O)CNC(=O)OCc1cn(-c2cnc3ccccc3c2)nn1
REMARK SMILES IDX 9 1 8 2 6 3 5 4 42 5 41 6 10 7 11 8 12 9 14 10 13 11 32 12
REMARK SMILES IDX 34 13 36 14 15 15 16 16 29 17 28 18 21 19 17 20 19 21 30 22
REMARK SMILES IDX 31 23 22 25 23 26 24 27 25 28 26 29 27 30 18 31 20 33 33 35
REMARK SMILES IDX 35 37 37 39 38 41 39 42 40 43 7 45 43 47 44 48 45 50 46 51
REMARK SMILES IDX 47 53 48 54 49 55 50 57 51 58 52 59 53 60 54 61 67 62 55 63
REMARK SMILES IDX 66 64 56 65 57 66 65 67 58 68 64 69 59 70 63 71 60 72 62 73
REMARK SMILES IDX 61 74 4 75 2 76 1 78 3 79
REMARK H PARENT 31 24 18 32 20 34 33 36 35 38 37 40 40 44 7 46 44 49 46 52
REMARK H PARENT 48 56 4 77
REMARK Flexibility Score: inf
ROOT
ATOM      1  C   UNL     1      23.427  22.203  12.228  1.00  0.00     0.272 C 
ATOM      2  C   UNL     1      22.270  22.649  11.409  1.00  0.00     0.113 C 
ATOM      3  C   UNL     1      21.748  21.552  10.502  1.00  0.00     0.145 C 
ATOM      4  C   UNL     1      21.588  20.328  11.405  1.00  0.00     0.142 C 
ATOM      5  C   UNL     1      23.013  19.918  11.809  1.00  0.00     0.178 C 
ATOM      6  O   UNL     1      23.376  20.932  12.722  1.00  0.00    -0.332 OA
ENDROOT
BRANCH   1   7
ATOM      7  O   UNL     1      23.594  23.024  13.363  1.00  0.00    -0.338 OA
BRANCH   7   8
ATOM      8  C   UNL     1      23.034  22.530  14.508  1.00  0.00     0.199 C 
BRANCH   8   9
ATOM      9  C   UNL     1      23.267  23.524  15.625  1.00  0.00     0.179 C 
ATOM     10  C   UNL     1      24.753  24.257  17.214  1.00  0.00     0.282 C 
ATOM     11  O   UNL     1      24.596  23.670  15.969  1.00  0.00    -0.341 OA
ATOM     12  C   UNL     1      23.596  25.136  17.589  1.00  0.00     0.202 C 
ATOM     13  C   UNL     1      22.928  25.789  16.431  1.00  0.00     0.179 C 
ATOM     14  C   UNL     1      22.473  24.749  15.448  1.00  0.00     0.177 C 
BRANCH  10  15
ATOM     15  O   UNL     1      25.965  24.910  17.261  1.00  0.00    -0.341 OA
BRANCH  15  16
ATOM     16  C   UNL     1      27.005  24.094  17.708  1.00  0.00     0.184 C 
ATOM     17  C   UNL     1      27.664  24.613  18.962  1.00  0.00     0.178 C 
ATOM     18  O   UNL     1      29.023  24.653  18.943  1.00  0.00    -0.341 OA
ATOM     19  C   UNL     1      29.688  23.569  18.440  1.00  0.00     0.281 C 
ATOM     20  C   UNL     1      27.974  23.750  16.612  1.00  0.00     0.180 C 
ATOM     21  C   UNL     1      29.128  22.987  17.179  1.00  0.00     0.202 C 
BRANCH  17  22
ATOM     22  C   UNL     1      27.079  23.932  20.201  1.00  0.00     0.191 C 
BRANCH  22  23
ATOM     23  O   UNL     1      25.747  24.278  20.409  1.00  0.00    -0.394 OA
ATOM     24  H   UNL     1      25.163  23.502  20.523  1.00  0.00     0.210 HD
ENDBRANCH  22  23
ENDBRANCH  17  22
BRANCH  19  25
ATOM     25  O   UNL     1      29.937  22.584  19.398  1.00  0.00    -0.350 OA
BRANCH  25  26
ATOM     26  C   UNL     1      31.150  22.752  20.031  1.00  0.00     0.169 C 
BRANCH  26  27
ATOM     27  C   UNL     1      31.269  21.891  21.267  1.00  0.00     0.119 C 
BRANCH  27  28
ATOM     28  N   UNL     1      30.573  22.495  22.385  1.00  0.00    -0.092 NA
ATOM     29  N   UNL     1      30.267  21.857  23.392  1.00  0.00     0.001 N 
ATOM     30  N   UNL     1      30.325  21.352  24.514  1.00  0.00    -0.003 NA
ENDBRANCH  27  28
ENDBRANCH  26  27
ENDBRANCH  25  26
ENDBRANCH  19  25
BRANCH  20  31
ATOM     31  O   UNL     1      27.310  22.900  15.699  1.00  0.00    -0.387 OA
ATOM     32  H   UNL     1      27.094  23.399  14.866  1.00  0.00     0.211 HD
ENDBRANCH  20  31
BRANCH  21  33
ATOM     33  O   UNL     1      30.102  22.899  16.156  1.00  0.00    -0.385 OA
ATOM     34  H   UNL     1      29.777  23.391  15.345  1.00  0.00     0.211 HD
ENDBRANCH  21  33
ENDBRANCH  15  16
ENDBRANCH  10  15
BRANCH  12  35
ATOM     35  O   UNL     1      22.632  24.491  18.358  1.00  0.00    -0.385 OA
ATOM     36  H   UNL     1      21.749  24.487  17.916  1.00  0.00     0.211 HD
ENDBRANCH  12  35
BRANCH  13  37
ATOM     37  O   UNL     1      23.770  26.731  15.835  1.00  0.00    -0.387 OA
ATOM     38  H   UNL     1      23.413  27.624  15.968  1.00  0.00     0.211 HD
ENDBRANCH  13  37
BRANCH  14  39
ATOM     39  O   UNL     1      22.561  25.317  14.182  1.00  0.00    -0.387 OA
ATOM     40  H   UNL     1      22.629  26.290  14.199  1.00  0.00     0.211 HD
ENDBRANCH  14  39
ENDBRANCH   8   9
ENDBRANCH   7   8
ENDBRANCH   1   7
BRANCH   1  41
ATOM     41  C   UNL     1      24.666  22.289  11.380  1.00  0.00     0.364 C 
ATOM     42  O   UNL     1      25.722  21.656  11.706  1.00  0.00    -0.246 OA
BRANCH  41  43
ATOM     43  O   UNL     1      24.766  23.031  10.226  1.00  0.00    -0.477 OA
ATOM     44  H   UNL     1      24.082  23.758   9.964  1.00  0.00     0.296 HD
ENDBRANCH  41  43
ENDBRANCH   1  41
BRANCH   3  45
ATOM     45  O   UNL     1      20.568  21.892   9.887  1.00  0.00    -0.391 OA
ATOM     46  H   UNL     1      20.781  22.355   9.050  1.00  0.00     0.211 HD
ENDBRANCH   3  45
BRANCH   5  47
ATOM     47  C   UNL     1      23.014  18.644  12.607  1.00  0.00     0.176 C 
BRANCH  47  48
ATOM     48  O   UNL     1      22.511  18.962  13.897  1.00  0.00    -0.388 OA
ATOM     49  H   UNL     1      22.671  18.219  14.532  1.00  0.00     0.211 HD
ENDBRANCH  47  48
BRANCH  47  50
ATOM     50  C   UNL     1      24.394  18.047  12.846  1.00  0.00     0.165 C 
BRANCH  50  51
ATOM     51  O   UNL     1      25.003  19.026  13.709  1.00  0.00    -0.388 OA
ATOM     52  H   UNL     1      24.272  19.578  14.073  1.00  0.00     0.211 HD
ENDBRANCH  50  51
BRANCH  50  53
ATOM     53  C   UNL     1      25.235  18.148  11.592  1.00  0.00     0.154 C 
BRANCH  53  54
ATOM     54  N   UNL     1      26.471  18.823  11.712  1.00  0.00    -0.319 N 
ATOM     55  C   UNL     1      27.737  18.204  11.635  1.00  0.00     0.407 C 
ATOM     56  H   UNL     1      26.433  19.879  11.875  1.00  0.00     0.167 HD
ATOM     57  O   UNL     1      27.800  16.972  11.461  1.00  0.00    -0.225 OA
BRANCH  55  58
ATOM     58  O   UNL     1      28.856  18.996  11.759  1.00  0.00    -0.443 OA
BRANCH  58  59
ATOM     59  C   UNL     1      28.837  20.240  12.405  1.00  0.00     0.294 C 
BRANCH  59  60
ATOM     60  C   UNL     1      28.607  20.047  13.873  1.00  0.00     0.121 A 
ATOM     61  C   UNL     1      29.494  19.667  14.823  1.00  0.00     0.144 A 
ATOM     62  N   UNL     1      27.411  20.232  14.479  1.00  0.00    -0.131 NA
ATOM     63  N   UNL     1      28.813  19.630  15.984  1.00  0.00    -0.219 N 
ATOM     64  N   UNL     1      27.542  19.977  15.763  1.00  0.00    -0.062 NA
BRANCH  63  65
ATOM     65  C   UNL     1      29.384  19.271  17.240  1.00  0.00     0.085 A 
ATOM     66  C   UNL     1      30.645  18.770  17.292  1.00  0.00     0.140 A 
ATOM     67  C   UNL     1      28.630  19.451  18.388  1.00  0.00     0.040 A 
ATOM     68  N   UNL     1      31.172  18.442  18.488  1.00  0.00    -0.254 NA
ATOM     69  C   UNL     1      29.181  19.114  19.591  1.00  0.00     0.002 A 
ATOM     70  C   UNL     1      30.451  18.613  19.602  1.00  0.00     0.070 A 
ATOM     71  C   UNL     1      28.451  19.284  20.749  1.00  0.00     0.010 A 
ATOM     72  C   UNL     1      31.008  18.270  20.835  1.00  0.00     0.029 A 
ATOM     73  C   UNL     1      29.024  18.937  21.961  1.00  0.00     0.001 A 
ATOM     74  C   UNL     1      30.321  18.423  22.005  1.00  0.00     0.002 A 
ENDBRANCH  63  65
ENDBRANCH  59  60
ENDBRANCH  58  59
ENDBRANCH  55  58
ENDBRANCH  53  54
ENDBRANCH  50  53
ENDBRANCH  47  50
ENDBRANCH   5  47
BRANCH   4  75
ATOM     75  N   UNL     1      20.812  19.316  10.798  1.00  0.00    -0.348 N 
ATOM     76  C   UNL     1      19.397  19.210  11.069  1.00  0.00     0.217 C 
ATOM     77  H   UNL     1      21.179  18.610  10.126  1.00  0.00     0.163 HD
ATOM     78  C   UNL     1      18.579  18.167  10.449  1.00  0.00     0.114 C 
ATOM     79  O   UNL     1      18.908  20.064  11.869  1.00  0.00    -0.275 OA
ENDBRANCH   4  75
TORSDOF 30
