REMARK VINA RESULT:    -6.165      4.004      9.289
REMARK INTER + INTRA:         -23.479
REMARK INTER:                 -12.641
REMARK INTRA:                 -10.838
REMARK UNBOUND:                -7.402
REMARK SMILES CC(=O)N[C@@H]1[C@@H](O)C[C@](OC[C@H]2O[C@@H](O[C@H]3[C@H](O)[C@@H](O)[C@H](OCCN=[N+]=[N-])O[C@@H]3CO)[C@H](O)[C@@H](O)[C@H]2O)(C(=O)O)O[C@H]1C(O)[C@H](O)CNC(=O)OCc1cn(-c2ccc(S(=O)(=O)c3ccc(N)cc3)cc2)nn1
REMARK SMILES IDX 43 1 42 2 9 3 8 4 41 5 6 6 5 7 10 8 11 9 12 10 14 11 13 12
REMARK SMILES IDX 32 13 34 14 36 15 15 16 16 17 29 18 28 19 21 20 17 21 19 22
REMARK SMILES IDX 30 23 31 24 22 26 23 27 24 28 25 29 26 30 27 31 18 32 20 34
REMARK SMILES IDX 33 36 35 38 37 40 38 42 39 43 40 44 7 46 4 48 2 49 1 51 3 52
REMARK SMILES IDX 44 53 45 55 46 56 47 58 48 59 49 60 50 62 51 63 52 64 53 65
REMARK SMILES IDX 54 66 73 67 55 68 72 69 56 70 57 71 71 72 58 73 70 74 59 75
REMARK SMILES IDX 60 76 61 77 62 78 63 79 64 80 69 81 65 82 68 83 66 84 67 85
REMARK H PARENT 31 25 18 33 20 35 33 37 35 39 37 41 40 45 7 47 4 50 44 54
REMARK H PARENT 46 57 48 61 67 86 67 87
REMARK Flexibility Score: inf
ROOT
ATOM      1  C   UNL     1      18.936  29.536  20.694  1.00  0.00     0.176 C 
ENDROOT
BRANCH   1   2
ATOM      2  C   UNL     1      19.601  30.024  21.981  1.00  0.00     0.178 C 
ATOM      3  C   UNL     1      20.336  29.359  24.071  1.00  0.00     0.272 C 
ATOM      4  C   UNL     1      19.723  30.572  24.691  1.00  0.00     0.113 C 
ATOM      5  O   UNL     1      19.660  29.009  22.888  1.00  0.00    -0.332 OA
ATOM      6  C   UNL     1      18.451  30.913  23.931  1.00  0.00     0.145 C 
ATOM      7  C   UNL     1      18.814  31.229  22.520  1.00  0.00     0.142 C 
BRANCH   3   8
ATOM      8  O   UNL     1      20.272  28.202  24.852  1.00  0.00    -0.338 OA
BRANCH   8   9
ATOM      9  C   UNL     1      21.067  28.172  25.958  1.00  0.00     0.199 C 
BRANCH   9  10
ATOM     10  C   UNL     1      21.530  26.754  26.207  1.00  0.00     0.179 C 
ATOM     11  C   UNL     1      22.887  25.093  25.424  1.00  0.00     0.282 C 
ATOM     12  O   UNL     1      22.557  26.469  25.300  1.00  0.00    -0.341 OA
ATOM     13  C   UNL     1      23.618  24.979  26.732  1.00  0.00     0.202 C 
ATOM     14  C   UNL     1      22.650  25.259  27.858  1.00  0.00     0.179 C 
ATOM     15  C   UNL     1      21.980  26.602  27.619  1.00  0.00     0.177 C 
BRANCH  11  16
ATOM     16  O   UNL     1      23.604  24.735  24.313  1.00  0.00    -0.341 OA
BRANCH  16  17
ATOM     17  C   UNL     1      23.154  25.444  23.174  1.00  0.00     0.184 C 
ATOM     18  C   UNL     1      22.268  24.531  22.387  1.00  0.00     0.178 C 
ATOM     19  O   UNL     1      22.596  24.386  21.066  1.00  0.00    -0.341 OA
ATOM     20  C   UNL     1      23.892  24.086  20.765  1.00  0.00     0.281 C 
ATOM     21  C   UNL     1      24.428  25.787  22.413  1.00  0.00     0.180 C 
ATOM     22  C   UNL     1      24.903  24.476  21.820  1.00  0.00     0.202 C 
BRANCH  18  23
ATOM     23  C   UNL     1      20.875  25.190  22.400  1.00  0.00     0.191 C 
BRANCH  23  24
ATOM     24  O   UNL     1      20.872  26.438  21.828  1.00  0.00    -0.394 OA
ATOM     25  H   UNL     1      20.051  26.965  21.988  1.00  0.00     0.210 HD
ENDBRANCH  23  24
ENDBRANCH  18  23
BRANCH  20  26
ATOM     26  O   UNL     1      24.230  24.786  19.613  1.00  0.00    -0.350 OA
BRANCH  26  27
ATOM     27  C   UNL     1      23.423  24.561  18.532  1.00  0.00     0.169 C 
BRANCH  27  28
ATOM     28  C   UNL     1      24.090  24.976  17.263  1.00  0.00     0.119 C 
BRANCH  28  29
ATOM     29  N   UNL     1      24.365  23.786  16.441  1.00  0.00    -0.092 NA
ATOM     30  N   UNL     1      23.544  23.377  15.622  1.00  0.00     0.001 N 
ATOM     31  N   UNL     1      22.965  23.220  14.532  1.00  0.00    -0.003 NA
ENDBRANCH  28  29
ENDBRANCH  27  28
ENDBRANCH  26  27
ENDBRANCH  20  26
BRANCH  21  32
ATOM     32  O   UNL     1      24.153  26.668  21.394  1.00  0.00    -0.387 OA
ATOM     33  H   UNL     1      23.388  27.257  21.636  1.00  0.00     0.211 HD
ENDBRANCH  21  32
BRANCH  22  34
ATOM     34  O   UNL     1      25.107  23.504  22.772  1.00  0.00    -0.385 OA
ATOM     35  H   UNL     1      24.471  22.745  22.694  1.00  0.00     0.211 HD
ENDBRANCH  22  34
ENDBRANCH  16  17
ENDBRANCH  11  16
BRANCH  13  36
ATOM     36  O   UNL     1      24.244  23.744  26.888  1.00  0.00    -0.385 OA
ATOM     37  H   UNL     1      24.438  23.649  27.875  1.00  0.00     0.211 HD
ENDBRANCH  13  36
BRANCH  14  38
ATOM     38  O   UNL     1      23.384  25.412  29.043  1.00  0.00    -0.387 OA
ATOM     39  H   UNL     1      22.863  25.905  29.703  1.00  0.00     0.211 HD
ENDBRANCH  14  38
BRANCH  15  40
ATOM     40  O   UNL     1      22.803  27.644  28.020  1.00  0.00    -0.387 OA
ATOM     41  H   UNL     1      23.081  28.178  27.241  1.00  0.00     0.211 HD
ENDBRANCH  15  40
ENDBRANCH   9  10
ENDBRANCH   8   9
ENDBRANCH   3   8
BRANCH   3  42
ATOM     42  C   UNL     1      21.769  29.535  23.712  1.00  0.00     0.364 C 
ATOM     43  O   UNL     1      22.474  30.529  24.005  1.00  0.00    -0.246 OA
BRANCH  42  44
ATOM     44  O   UNL     1      22.405  28.538  22.994  1.00  0.00    -0.477 OA
ATOM     45  H   UNL     1      23.316  28.153  23.292  1.00  0.00     0.296 HD
ENDBRANCH  42  44
ENDBRANCH   3  42
BRANCH   6  46
ATOM     46  O   UNL     1      17.687  29.742  23.920  1.00  0.00    -0.391 OA
ATOM     47  H   UNL     1      16.970  29.775  23.230  1.00  0.00     0.211 HD
ENDBRANCH   6  46
BRANCH   7  48
ATOM     48  N   UNL     1      19.566  32.429  22.329  1.00  0.00    -0.348 N 
ATOM     49  C   UNL     1      19.208  33.467  21.423  1.00  0.00     0.217 C 
ATOM     50  H   UNL     1      20.441  32.573  22.889  1.00  0.00     0.163 HD
ATOM     51  C   UNL     1      20.073  34.667  21.315  1.00  0.00     0.114 C 
ATOM     52  O   UNL     1      18.176  33.323  20.753  1.00  0.00    -0.275 OA
ENDBRANCH   7  48
ENDBRANCH   1   2
BRANCH   1  53
ATOM     53  O   UNL     1      19.197  28.192  20.478  1.00  0.00    -0.388 OA
ATOM     54  H   UNL     1      18.361  27.653  20.607  1.00  0.00     0.211 HD
ENDBRANCH   1  53
BRANCH   1  55
ATOM     55  C   UNL     1      17.504  29.901  20.616  1.00  0.00     0.165 C 
BRANCH  55  56
ATOM     56  O   UNL     1      16.726  29.062  21.417  1.00  0.00    -0.388 OA
ATOM     57  H   UNL     1      17.230  28.373  21.878  1.00  0.00     0.211 HD
ENDBRANCH  55  56
BRANCH  55  58
ATOM     58  C   UNL     1      16.971  29.736  19.209  1.00  0.00     0.154 C 
BRANCH  58  59
ATOM     59  N   UNL     1      17.974  29.884  18.192  1.00  0.00    -0.319 N 
ATOM     60  C   UNL     1      18.394  28.735  17.477  1.00  0.00     0.407 C 
ATOM     61  H   UNL     1      18.392  30.801  17.971  1.00  0.00     0.167 HD
ATOM     62  O   UNL     1      17.862  27.621  17.755  1.00  0.00    -0.225 OA
BRANCH  60  63
ATOM     63  O   UNL     1      19.353  28.736  16.490  1.00  0.00    -0.443 OA
BRANCH  63  64
ATOM     64  C   UNL     1      20.547  27.984  16.537  1.00  0.00     0.294 C 
BRANCH  64  65
ATOM     65  C   UNL     1      21.277  28.334  17.780  1.00  0.00     0.121 A 
ATOM     66  C   UNL     1      21.881  29.516  18.159  1.00  0.00     0.144 A 
ATOM     67  N   UNL     1      21.472  27.493  18.845  1.00  0.00    -0.131 NA
ATOM     68  N   UNL     1      22.411  29.363  19.412  1.00  0.00    -0.220 N 
ATOM     69  N   UNL     1      22.139  28.135  19.778  1.00  0.00    -0.062 NA
BRANCH  68  70
ATOM     70  C   UNL     1      23.100  30.320  20.187  1.00  0.00     0.066 A 
ATOM     71  C   UNL     1      22.517  31.559  20.470  1.00  0.00     0.030 A 
ATOM     72  C   UNL     1      24.355  30.109  20.701  1.00  0.00     0.030 A 
ATOM     73  C   UNL     1      23.145  32.523  21.218  1.00  0.00     0.023 A 
ATOM     74  C   UNL     1      25.000  31.085  21.462  1.00  0.00     0.023 A 
ATOM     75  C   UNL     1      24.405  32.298  21.728  1.00  0.00     0.072 A 
BRANCH  75  76
ATOM     76  S   UNL     1      25.215  33.519  22.687  1.00  0.00     0.206 S 
ATOM     77  O   UNL     1      26.278  34.177  21.822  1.00  0.00    -0.219 OA
ATOM     78  O   UNL     1      25.792  32.981  23.952  1.00  0.00    -0.219 OA
BRANCH  76  79
ATOM     79  C   UNL     1      24.060  34.799  23.063  1.00  0.00     0.072 A 
ATOM     80  C   UNL     1      23.240  34.692  24.153  1.00  0.00     0.023 A 
ATOM     81  C   UNL     1      23.967  35.917  22.267  1.00  0.00     0.023 A 
ATOM     82  C   UNL     1      22.349  35.687  24.433  1.00  0.00     0.027 A 
ATOM     83  C   UNL     1      23.067  36.908  22.560  1.00  0.00     0.027 A 
ATOM     84  C   UNL     1      22.235  36.829  23.641  1.00  0.00     0.031 A 
BRANCH  84  85
ATOM     85  N   UNL     1      21.298  37.834  23.966  1.00  0.00    -0.399 N 
ATOM     86  H   UNL     1      20.591  37.688  24.699  1.00  0.00     0.156 HD
ATOM     87  H   UNL     1      21.321  38.736  23.459  1.00  0.00     0.156 HD
ENDBRANCH  84  85
ENDBRANCH  76  79
ENDBRANCH  75  76
ENDBRANCH  68  70
ENDBRANCH  64  65
ENDBRANCH  63  64
ENDBRANCH  60  63
ENDBRANCH  58  59
ENDBRANCH  55  58
ENDBRANCH   1  55
TORSDOF 33
