REMARK VINA RESULT:    -6.167      9.222     14.025
REMARK INTER + INTRA:         -21.957
REMARK INTER:                 -14.388
REMARK INTRA:                  -7.569
REMARK UNBOUND:                -6.778
REMARK SMILES CC(=O)N[C@@H]1[C@@H](O)C[C@](OC[C@H]2O[C@@H](O[C@H]3[C@H](O)[C@@H](O)[C@H](OCCN=[N+]=[N-])O[C@@H]3CO)[C@H](O)[C@@H](O)[C@H]2O)(C(=O)O)O[C@H]1C(O)[C@H](O)CNC(=O)OCc1cn(-c2ccc3c(c2)OCO3)nn1
REMARK SMILES IDX 9 1 8 2 6 3 5 4 42 5 41 6 10 7 11 8 12 9 14 10 13 11 32 12
REMARK SMILES IDX 34 13 36 14 15 15 16 16 29 17 28 18 21 19 17 20 19 21 30 22
REMARK SMILES IDX 31 23 22 25 23 26 24 27 25 28 26 29 27 30 18 31 20 33 33 35
REMARK SMILES IDX 35 37 37 39 38 41 39 42 40 43 7 45 43 47 44 48 45 50 46 51
REMARK SMILES IDX 47 53 48 54 49 55 50 57 51 58 52 59 53 60 54 61 66 62 55 63
REMARK SMILES IDX 65 64 56 65 57 66 61 67 58 68 60 69 59 70 62 71 64 72 63 73
REMARK SMILES IDX 4 74 2 75 1 77 3 78
REMARK H PARENT 31 24 18 32 20 34 33 36 35 38 37 40 40 44 7 46 44 49 46 52
REMARK H PARENT 48 56 4 76
REMARK Flexibility Score: inf
ROOT
ATOM      1  C   UNL     1      34.084  17.295  25.091  1.00  0.00     0.272 C 
ATOM      2  C   UNL     1      33.870  16.127  26.013  1.00  0.00     0.113 C 
ATOM      3  C   UNL     1      32.472  16.152  26.659  1.00  0.00     0.145 C 
ATOM      4  C   UNL     1      32.485  17.353  27.582  1.00  0.00     0.142 C 
ATOM      5  C   UNL     1      32.906  18.525  26.721  1.00  0.00     0.178 C 
ATOM      6  O   UNL     1      33.077  18.250  25.407  1.00  0.00    -0.332 OA
ENDROOT
BRANCH   1   7
ATOM      7  O   UNL     1      33.911  17.021  23.808  1.00  0.00    -0.338 OA
BRANCH   7   8
ATOM      8  C   UNL     1      34.717  16.860  22.804  1.00  0.00     0.199 C 
BRANCH   8   9
ATOM      9  C   UNL     1      34.516  17.567  21.490  1.00  0.00     0.179 C 
ATOM     10  C   UNL     1      32.755  18.194  20.101  1.00  0.00     0.282 C 
ATOM     11  O   UNL     1      33.221  17.364  21.087  1.00  0.00    -0.341 OA
ATOM     12  C   UNL     1      33.814  19.011  19.438  1.00  0.00     0.202 C 
ATOM     13  C   UNL     1      34.614  19.820  20.444  1.00  0.00     0.179 C 
ATOM     14  C   UNL     1      34.747  19.080  21.736  1.00  0.00     0.177 C 
BRANCH  10  15
ATOM     15  O   UNL     1      31.871  19.103  20.715  1.00  0.00    -0.341 OA
BRANCH  15  16
ATOM     16  C   UNL     1      30.563  18.912  20.352  1.00  0.00     0.184 C 
ATOM     17  C   UNL     1      30.013  20.186  19.764  1.00  0.00     0.178 C 
ATOM     18  O   UNL     1      29.521  21.065  20.699  1.00  0.00    -0.341 OA
ATOM     19  C   UNL     1      30.153  20.952  21.938  1.00  0.00     0.281 C 
ATOM     20  C   UNL     1      29.811  18.485  21.592  1.00  0.00     0.180 C 
ATOM     21  C   UNL     1      29.875  19.620  22.590  1.00  0.00     0.202 C 
BRANCH  17  22
ATOM     22  C   UNL     1      28.893  19.905  18.772  1.00  0.00     0.191 C 
BRANCH  22  23
ATOM     23  O   UNL     1      28.991  18.621  18.251  1.00  0.00    -0.394 OA
ATOM     24  H   UNL     1      28.131  18.105  18.341  1.00  0.00     0.210 HD
ENDBRANCH  22  23
ENDBRANCH  17  22
BRANCH  19  25
ATOM     25  O   UNL     1      29.597  21.943  22.736  1.00  0.00    -0.350 OA
BRANCH  25  26
ATOM     26  C   UNL     1      30.602  22.511  23.511  1.00  0.00     0.169 C 
BRANCH  26  27
ATOM     27  C   UNL     1      31.681  23.140  22.636  1.00  0.00     0.119 C 
BRANCH  27  28
ATOM     28  N   UNL     1      32.745  23.591  23.546  1.00  0.00    -0.092 NA
ATOM     29  N   UNL     1      33.888  23.101  23.423  1.00  0.00     0.001 N 
ATOM     30  N   UNL     1      34.927  22.464  23.173  1.00  0.00    -0.003 NA
ENDBRANCH  27  28
ENDBRANCH  26  27
ENDBRANCH  25  26
ENDBRANCH  19  25
BRANCH  20  31
ATOM     31  O   UNL     1      28.518  18.076  21.336  1.00  0.00    -0.387 OA
ATOM     32  H   UNL     1      27.850  18.823  21.341  1.00  0.00     0.211 HD
ENDBRANCH  20  31
BRANCH  21  33
ATOM     33  O   UNL     1      30.931  19.351  23.463  1.00  0.00    -0.385 OA
ATOM     34  H   UNL     1      31.470  20.155  23.676  1.00  0.00     0.211 HD
ENDBRANCH  21  33
ENDBRANCH  15  16
ENDBRANCH  10  15
BRANCH  12  35
ATOM     35  O   UNL     1      34.699  18.279  18.651  1.00  0.00    -0.385 OA
ATOM     36  H   UNL     1      34.535  18.531  17.689  1.00  0.00     0.211 HD
ENDBRANCH  12  35
BRANCH  13  37
ATOM     37  O   UNL     1      33.957  21.037  20.636  1.00  0.00    -0.387 OA
ATOM     38  H   UNL     1      34.523  21.819  20.498  1.00  0.00     0.211 HD
ENDBRANCH  13  37
BRANCH  14  39
ATOM     39  O   UNL     1      33.789  19.562  22.623  1.00  0.00    -0.387 OA
ATOM     40  H   UNL     1      32.875  19.467  22.309  1.00  0.00     0.211 HD
ENDBRANCH  14  39
ENDBRANCH   8   9
ENDBRANCH   7   8
ENDBRANCH   1   7
BRANCH   1  41
ATOM     41  C   UNL     1      35.384  17.980  25.389  1.00  0.00     0.364 C 
ATOM     42  O   UNL     1      35.434  19.225  25.093  1.00  0.00    -0.246 OA
BRANCH  41  43
ATOM     43  O   UNL     1      36.489  17.407  25.931  1.00  0.00    -0.477 OA
ATOM     44  H   UNL     1      36.539  17.052  26.873  1.00  0.00     0.296 HD
ENDBRANCH  41  43
ENDBRANCH   1  41
BRANCH   3  45
ATOM     45  O   UNL     1      31.578  16.341  25.596  1.00  0.00    -0.391 OA
ATOM     46  H   UNL     1      31.673  17.245  25.224  1.00  0.00     0.211 HD
ENDBRANCH   3  45
BRANCH   5  47
ATOM     47  C   UNL     1      31.710  19.498  26.782  1.00  0.00     0.176 C 
BRANCH  47  48
ATOM     48  O   UNL     1      31.109  19.533  28.007  1.00  0.00    -0.388 OA
ATOM     49  H   UNL     1      30.121  19.490  27.982  1.00  0.00     0.211 HD
ENDBRANCH  47  48
BRANCH  47  50
ATOM     50  C   UNL     1      32.128  20.904  26.369  1.00  0.00     0.165 C 
BRANCH  50  51
ATOM     51  O   UNL     1      33.073  20.911  25.399  1.00  0.00    -0.388 OA
ATOM     52  H   UNL     1      33.734  20.188  25.415  1.00  0.00     0.211 HD
ENDBRANCH  50  51
BRANCH  50  53
ATOM     53  C   UNL     1      32.596  21.584  27.617  1.00  0.00     0.154 C 
BRANCH  53  54
ATOM     54  N   UNL     1      31.826  22.748  27.930  1.00  0.00    -0.319 N 
ATOM     55  C   UNL     1      32.298  24.086  27.907  1.00  0.00     0.407 C 
ATOM     56  H   UNL     1      30.787  22.661  28.215  1.00  0.00     0.167 HD
ATOM     57  O   UNL     1      33.474  24.344  27.581  1.00  0.00    -0.225 OA
BRANCH  55  58
ATOM     58  O   UNL     1      31.466  25.156  28.247  1.00  0.00    -0.443 OA
BRANCH  58  59
ATOM     59  C   UNL     1      31.273  25.604  29.561  1.00  0.00     0.294 C 
BRANCH  59  60
ATOM     60  C   UNL     1      29.806  25.539  29.876  1.00  0.00     0.121 A 
ATOM     61  C   UNL     1      28.770  25.879  29.004  1.00  0.00     0.144 A 
ATOM     62  N   UNL     1      29.206  25.149  31.007  1.00  0.00    -0.131 NA
ATOM     63  N   UNL     1      27.593  25.685  29.638  1.00  0.00    -0.220 N 
ATOM     64  N   UNL     1      27.910  25.243  30.845  1.00  0.00    -0.062 NA
BRANCH  63  65
ATOM     65  C   UNL     1      26.294  25.892  29.142  1.00  0.00     0.070 A 
ATOM     66  C   UNL     1      26.096  26.277  27.845  1.00  0.00     0.032 A 
ATOM     67  C   UNL     1      25.201  25.707  29.954  1.00  0.00     0.079 A 
ATOM     68  C   UNL     1      24.794  26.476  27.364  1.00  0.00     0.053 A 
ATOM     69  C   UNL     1      23.915  25.898  29.498  1.00  0.00     0.167 A 
ATOM     70  C   UNL     1      23.720  26.284  28.197  1.00  0.00     0.165 A 
ATOM     71  O   UNL     1      22.694  25.773  30.123  1.00  0.00    -0.454 OA
ATOM     72  O   UNL     1      22.352  26.407  27.988  1.00  0.00    -0.454 OA
ATOM     73  C   UNL     1      21.736  26.377  29.246  1.00  0.00     0.468 C 
ENDBRANCH  63  65
ENDBRANCH  59  60
ENDBRANCH  58  59
ENDBRANCH  55  58
ENDBRANCH  53  54
ENDBRANCH  50  53
ENDBRANCH  47  50
ENDBRANCH   5  47
BRANCH   4  74
ATOM     74  N   UNL     1      33.354  17.091  28.689  1.00  0.00    -0.348 N 
ATOM     75  C   UNL     1      33.053  17.571  30.016  1.00  0.00     0.217 C 
ATOM     76  H   UNL     1      34.245  16.554  28.633  1.00  0.00     0.163 HD
ATOM     77  C   UNL     1      33.964  17.292  31.158  1.00  0.00     0.114 C 
ATOM     78  O   UNL     1      32.020  18.223  30.201  1.00  0.00    -0.275 OA
ENDBRANCH   4  74
TORSDOF 30
