REMARK VINA RESULT:    -4.929      8.620     16.570
REMARK INTER + INTRA:         -21.908
REMARK INTER:                 -14.732
REMARK INTRA:                  -7.177
REMARK UNBOUND:                -8.334
REMARK SMILES CC[N+](C)(CC)CCCn1cc(COC(=O)NC[C@@H](O)C(O)[C@@H]2O[C@@](OC[C@H]3O[C@@H](O[C@H]4[C@H](O)[C@@H](O)[C@H](OCCN=[N+]=[N-])O[C@@H]4CO)[C@H](O)[C@@H](O)[C@H]3O)(C(=O)O)C[C@H](O)[C@H]2NC(C)=O)nn1
REMARK SMILES IDX 21 1 23 2 25 3 57 4 24 5 58 6 60 7 26 8 27 9 28 10 30 11
REMARK SMILES IDX 29 12 48 13 50 14 52 15 31 16 32 17 45 18 44 19 37 20 33 21
REMARK SMILES IDX 35 22 46 23 47 24 38 26 39 27 40 28 41 29 42 30 43 31 34 32
REMARK SMILES IDX 36 34 49 36 51 38 53 40 54 42 55 43 56 44 59 46 61 48 62 49
REMARK SMILES IDX 63 51 64 52 22 53 19 55 20 56 18 58 17 59 15 60 16 62 14 63
REMARK SMILES IDX 13 64 12 65 11 66 65 67 10 68 66 69 9 70 8 71 7 72 3 73 4 74
REMARK SMILES IDX 2 75 1 76 5 77 6 78
REMARK H PARENT 47 25 34 33 36 35 49 37 51 39 53 41 56 45 59 47 61 50 22 54
REMARK H PARENT 20 57 17 61
REMARK Flexibility Score: inf
ROOT
ATOM      1  C   UNL     1      34.501  20.043  28.890  1.00  0.00     0.176 C 
ENDROOT
BRANCH   1   2
ATOM      2  C   UNL     1      33.791  18.769  28.442  1.00  0.00     0.178 C 
ATOM      3  C   UNL     1      32.980  17.763  26.468  1.00  0.00     0.272 C 
ATOM      4  C   UNL     1      31.947  17.191  27.380  1.00  0.00     0.113 C 
ATOM      5  O   UNL     1      33.454  18.937  27.117  1.00  0.00    -0.332 OA
ATOM      6  C   UNL     1      31.447  18.190  28.389  1.00  0.00     0.145 C 
ATOM      7  C   UNL     1      32.606  18.534  29.321  1.00  0.00     0.142 C 
BRANCH   3   8
ATOM      8  O   UNL     1      32.475  18.251  25.281  1.00  0.00    -0.338 OA
BRANCH   8   9
ATOM      9  C   UNL     1      32.661  19.537  24.941  1.00  0.00     0.199 C 
BRANCH   9  10
ATOM     10  C   UNL     1      33.480  19.654  23.629  1.00  0.00     0.179 C 
ATOM     11  C   UNL     1      32.979  21.852  22.936  1.00  0.00     0.282 C 
ATOM     12  O   UNL     1      32.928  20.479  22.729  1.00  0.00    -0.341 OA
ATOM     13  C   UNL     1      34.193  22.310  23.651  1.00  0.00     0.202 C 
ATOM     14  C   UNL     1      35.293  21.301  23.257  1.00  0.00     0.179 C 
ATOM     15  C   UNL     1      34.916  20.033  23.991  1.00  0.00     0.177 C 
BRANCH  11  16
ATOM     16  O   UNL     1      31.754  22.316  23.434  1.00  0.00    -0.341 OA
BRANCH  16  17
ATOM     17  C   UNL     1      30.794  22.414  22.470  1.00  0.00     0.184 C 
ATOM     18  C   UNL     1      30.465  23.718  21.885  1.00  0.00     0.178 C 
ATOM     19  O   UNL     1      29.689  23.535  20.754  1.00  0.00    -0.341 OA
ATOM     20  C   UNL     1      29.019  22.377  20.587  1.00  0.00     0.281 C 
ATOM     21  C   UNL     1      29.452  21.848  22.989  1.00  0.00     0.180 C 
ATOM     22  C   UNL     1      28.512  21.681  21.825  1.00  0.00     0.202 C 
BRANCH  18  23
ATOM     23  C   UNL     1      31.636  24.599  21.496  1.00  0.00     0.191 C 
BRANCH  23  24
ATOM     24  O   UNL     1      32.239  25.225  22.579  1.00  0.00    -0.394 OA
ATOM     25  H   UNL     1      33.231  25.230  22.380  1.00  0.00     0.210 HD
ENDBRANCH  23  24
ENDBRANCH  18  23
BRANCH  20  26
ATOM     26  O   UNL     1      29.697  21.521  19.738  1.00  0.00    -0.350 OA
BRANCH  26  27
ATOM     27  C   UNL     1      28.940  20.612  19.076  1.00  0.00     0.169 C 
BRANCH  27  28
ATOM     28  C   UNL     1      29.483  19.200  19.138  1.00  0.00     0.119 C 
BRANCH  28  29
ATOM     29  N   UNL     1      30.569  19.143  20.103  1.00  0.00    -0.092 NA
ATOM     30  N   UNL     1      30.434  18.691  21.237  1.00  0.00     0.001 N 
ATOM     31  N   UNL     1      30.326  18.221  22.372  1.00  0.00    -0.003 NA
ENDBRANCH  28  29
ENDBRANCH  27  28
ENDBRANCH  26  27
ENDBRANCH  20  26
BRANCH  21  32
ATOM     32  O   UNL     1      29.749  20.695  23.678  1.00  0.00    -0.387 OA
ATOM     33  H   UNL     1      30.238  20.020  23.182  1.00  0.00     0.211 HD
ENDBRANCH  21  32
BRANCH  22  34
ATOM     34  O   UNL     1      27.249  22.104  22.206  1.00  0.00    -0.385 OA
ATOM     35  H   UNL     1      26.781  22.645  21.517  1.00  0.00     0.211 HD
ENDBRANCH  22  34
ENDBRANCH  16  17
ENDBRANCH  11  16
BRANCH  13  36
ATOM     36  O   UNL     1      34.660  23.564  23.227  1.00  0.00    -0.385 OA
ATOM     37  H   UNL     1      34.139  23.811  22.433  1.00  0.00     0.211 HD
ENDBRANCH  13  36
BRANCH  14  38
ATOM     38  O   UNL     1      36.531  21.770  23.694  1.00  0.00    -0.387 OA
ATOM     39  H   UNL     1      36.460  21.898  24.662  1.00  0.00     0.211 HD
ENDBRANCH  14  38
BRANCH  15  40
ATOM     40  O   UNL     1      34.917  20.360  25.345  1.00  0.00    -0.387 OA
ATOM     41  H   UNL     1      35.652  19.995  25.861  1.00  0.00     0.211 HD
ENDBRANCH  15  40
ENDBRANCH   9  10
ENDBRANCH   8   9
ENDBRANCH   3   8
BRANCH   3  42
ATOM     42  C   UNL     1      34.120  16.872  26.192  1.00  0.00     0.364 C 
ATOM     43  O   UNL     1      35.155  17.282  25.621  1.00  0.00    -0.246 OA
BRANCH  42  44
ATOM     44  O   UNL     1      34.085  15.547  26.552  1.00  0.00    -0.477 OA
ATOM     45  H   UNL     1      34.892  15.043  26.914  1.00  0.00     0.296 HD
ENDBRANCH  42  44
ENDBRANCH   3  42
BRANCH   6  46
ATOM     46  O   UNL     1      30.957  19.344  27.824  1.00  0.00    -0.391 OA
ATOM     47  H   UNL     1      31.032  19.332  26.821  1.00  0.00     0.211 HD
ENDBRANCH   6  46
BRANCH   7  48
ATOM     48  N   UNL     1      32.832  17.305  30.099  1.00  0.00    -0.348 N 
ATOM     49  C   UNL     1      33.277  17.353  31.450  1.00  0.00     0.217 C 
ATOM     50  H   UNL     1      32.687  16.350  29.713  1.00  0.00     0.163 HD
ATOM     51  C   UNL     1      33.515  16.141  32.272  1.00  0.00     0.114 C 
ATOM     52  O   UNL     1      33.473  18.468  31.965  1.00  0.00    -0.275 OA
ENDBRANCH   7  48
ENDBRANCH   1   2
BRANCH   1  53
ATOM     53  O   UNL     1      35.133  19.783  30.153  1.00  0.00    -0.388 OA
ATOM     54  H   UNL     1      34.410  19.810  30.834  1.00  0.00     0.211 HD
ENDBRANCH   1  53
BRANCH   1  55
ATOM     55  C   UNL     1      33.523  21.146  29.131  1.00  0.00     0.165 C 
BRANCH  55  56
ATOM     56  O   UNL     1      33.114  21.515  27.783  1.00  0.00    -0.388 OA
ATOM     57  H   UNL     1      33.717  22.268  27.496  1.00  0.00     0.211 HD
ENDBRANCH  55  56
BRANCH  55  58
ATOM     58  C   UNL     1      34.018  22.378  29.793  1.00  0.00     0.154 C 
BRANCH  58  59
ATOM     59  N   UNL     1      33.193  23.461  30.088  1.00  0.00    -0.319 N 
ATOM     60  C   UNL     1      32.575  24.367  29.195  1.00  0.00     0.407 C 
ATOM     61  H   UNL     1      32.986  23.654  31.153  1.00  0.00     0.167 HD
ATOM     62  O   UNL     1      32.693  24.308  27.961  1.00  0.00    -0.225 OA
BRANCH  60  63
ATOM     63  O   UNL     1      31.775  25.420  29.703  1.00  0.00    -0.443 OA
BRANCH  63  64
ATOM     64  C   UNL     1      30.954  26.124  28.752  1.00  0.00     0.294 C 
BRANCH  64  65
ATOM     65  C   UNL     1      29.557  25.883  29.272  1.00  0.00     0.120 A 
ATOM     66  C   UNL     1      28.416  26.562  28.915  1.00  0.00     0.138 A 
ATOM     67  N   UNL     1      29.140  24.947  30.131  1.00  0.00    -0.132 NA
ATOM     68  N   UNL     1      27.346  26.008  29.571  1.00  0.00    -0.252 N 
ATOM     69  N   UNL     1      27.836  25.025  30.305  1.00  0.00    -0.067 NA
BRANCH  68  70
ATOM     70  C   UNL     1      25.960  26.414  29.425  1.00  0.00     0.152 C 
BRANCH  70  71
ATOM     71  C   UNL     1      25.566  26.604  28.024  1.00  0.00     0.085 C 
BRANCH  71  72
ATOM     72  C   UNL     1      25.175  25.455  27.191  1.00  0.00     0.265 C 
BRANCH  72  73
ATOM     73  N   UNL     1      24.119  25.612  26.248  1.00  0.00    -0.326 N 
ATOM     74  C   UNL     1      23.604  26.954  26.296  1.00  0.00     0.334 C 
BRANCH  73  75
ATOM     75  C   UNL     1      23.059  24.648  26.333  1.00  0.00     0.260 C 
ATOM     76  C   UNL     1      22.689  24.299  27.756  1.00  0.00     0.071 C 
ENDBRANCH  73  75
BRANCH  73  77
ATOM     77  C   UNL     1      24.741  25.484  24.920  1.00  0.00     0.260 C 
ATOM     78  C   UNL     1      24.018  24.567  23.998  1.00  0.00     0.071 C 
ENDBRANCH  73  77
ENDBRANCH  72  73
ENDBRANCH  71  72
ENDBRANCH  70  71
ENDBRANCH  68  70
ENDBRANCH  64  65
ENDBRANCH  63  64
ENDBRANCH  60  63
ENDBRANCH  58  59
ENDBRANCH  55  58
ENDBRANCH   1  55
TORSDOF 35
