REMARK VINA RESULT:    -6.546      4.005     11.149
REMARK INTER + INTRA:         -21.130
REMARK INTER:                 -14.090
REMARK INTRA:                  -7.040
REMARK UNBOUND:                -5.017
REMARK SMILES CC(=O)N[C@@H]1[C@@H](O)C[C@](OC[C@H]2O[C@@H](O[C@H]3[C@H](O)[C@@H](O)[C@H](OCCN=[N+]=[N-])O[C@@H]3CO)[C@H](O)[C@@H](O)[C@H]2O)(C(=O)O)O[C@H]1C(O)[C@H](O)CNC(=O)OCc1cn(C2CCCCC2)nn1
REMARK SMILES IDX 9 1 8 2 6 3 5 4 42 5 41 6 10 7 11 8 12 9 14 10 13 11 32 12
REMARK SMILES IDX 34 13 36 14 15 15 16 16 29 17 28 18 21 19 17 20 19 21 30 22
REMARK SMILES IDX 31 23 22 25 23 26 24 27 25 28 26 29 27 30 18 31 20 33 33 35
REMARK SMILES IDX 35 37 37 39 38 41 39 42 40 43 7 45 43 47 44 48 45 50 46 51
REMARK SMILES IDX 47 53 48 54 49 55 50 57 51 58 52 59 53 60 54 61 63 62 55 63
REMARK SMILES IDX 62 64 56 65 57 66 61 67 58 68 60 69 59 70 4 71 2 72 1 74
REMARK SMILES IDX 3 75
REMARK H PARENT 31 24 18 32 20 34 33 36 35 38 37 40 40 44 7 46 44 49 46 52
REMARK H PARENT 48 56 4 73
REMARK Flexibility Score: inf
ROOT
ATOM      1  C   UNL     1      22.653  25.349  22.965  1.00  0.00     0.272 C 
ATOM      2  C   UNL     1      23.012  23.950  22.341  1.00  0.00     0.113 C 
ATOM      3  C   UNL     1      24.394  24.005  21.765  1.00  0.00     0.145 C 
ATOM      4  C   UNL     1      24.518  25.123  20.764  1.00  0.00     0.142 C 
ATOM      5  C   UNL     1      23.773  26.353  21.147  1.00  0.00     0.178 C 
ATOM      6  O   UNL     1      22.832  26.334  22.069  1.00  0.00    -0.332 OA
ENDROOT
BRANCH   1   7
ATOM      7  O   UNL     1      23.459  25.425  24.014  1.00  0.00    -0.338 OA
BRANCH   7   8
ATOM      8  C   UNL     1      23.483  24.896  25.191  1.00  0.00     0.199 C 
BRANCH   8   9
ATOM      9  C   UNL     1      24.418  25.377  26.289  1.00  0.00     0.179 C 
ATOM     10  C   UNL     1      24.122  27.411  27.418  1.00  0.00     0.282 C 
ATOM     11  O   UNL     1      24.573  26.726  26.295  1.00  0.00    -0.341 OA
ATOM     12  C   UNL     1      24.729  26.824  28.636  1.00  0.00     0.202 C 
ATOM     13  C   UNL     1      24.591  25.323  28.726  1.00  0.00     0.179 C 
ATOM     14  C   UNL     1      23.811  24.820  27.572  1.00  0.00     0.177 C 
BRANCH  10  15
ATOM     15  O   UNL     1      22.783  27.512  27.325  1.00  0.00    -0.341 OA
BRANCH  15  16
ATOM     16  C   UNL     1      22.216  28.568  26.689  1.00  0.00     0.184 C 
ATOM     17  C   UNL     1      20.875  28.838  27.338  1.00  0.00     0.178 C 
ATOM     18  O   UNL     1      20.343  30.057  26.964  1.00  0.00    -0.341 OA
ATOM     19  C   UNL     1      20.761  30.510  25.741  1.00  0.00     0.281 C 
ATOM     20  C   UNL     1      21.900  28.312  25.230  1.00  0.00     0.180 C 
ATOM     21  C   UNL     1      20.968  29.408  24.768  1.00  0.00     0.202 C 
BRANCH  17  22
ATOM     22  C   UNL     1      20.871  28.626  28.824  1.00  0.00     0.191 C 
BRANCH  22  23
ATOM     23  O   UNL     1      21.806  29.502  29.376  1.00  0.00    -0.394 OA
ATOM     24  H   UNL     1      21.886  29.396  30.354  1.00  0.00     0.210 HD
ENDBRANCH  22  23
ENDBRANCH  17  22
BRANCH  19  25
ATOM     25  O   UNL     1      21.802  31.384  25.907  1.00  0.00    -0.350 OA
BRANCH  25  26
ATOM     26  C   UNL     1      22.055  32.192  24.810  1.00  0.00     0.169 C 
BRANCH  26  27
ATOM     27  C   UNL     1      23.518  32.368  24.507  1.00  0.00     0.119 C 
BRANCH  27  28
ATOM     28  N   UNL     1      24.143  31.061  24.514  1.00  0.00    -0.092 NA
ATOM     29  N   UNL     1      25.380  31.047  24.468  1.00  0.00     0.001 N 
ATOM     30  N   UNL     1      26.479  30.873  23.911  1.00  0.00    -0.003 NA
ENDBRANCH  27  28
ENDBRANCH  26  27
ENDBRANCH  25  26
ENDBRANCH  19  25
BRANCH  20  31
ATOM     31  O   UNL     1      23.006  28.311  24.416  1.00  0.00    -0.387 OA
ATOM     32  H   UNL     1      23.817  28.666  24.857  1.00  0.00     0.211 HD
ENDBRANCH  20  31
BRANCH  21  33
ATOM     33  O   UNL     1      19.708  28.789  24.578  1.00  0.00    -0.385 OA
ATOM     34  H   UNL     1      19.814  27.924  24.112  1.00  0.00     0.211 HD
ENDBRANCH  21  33
ENDBRANCH  15  16
ENDBRANCH  10  15
BRANCH  12  35
ATOM     35  O   UNL     1      26.122  27.079  28.540  1.00  0.00    -0.385 OA
ATOM     36  H   UNL     1      26.317  28.040  28.595  1.00  0.00     0.211 HD
ENDBRANCH  12  35
BRANCH  13  37
ATOM     37  O   UNL     1      23.966  24.945  29.931  1.00  0.00    -0.387 OA
ATOM     38  H   UNL     1      24.249  25.554  30.631  1.00  0.00     0.211 HD
ENDBRANCH  13  37
BRANCH  14  39
ATOM     39  O   UNL     1      22.450  24.947  27.639  1.00  0.00    -0.387 OA
ATOM     40  H   UNL     1      22.053  24.047  27.563  1.00  0.00     0.211 HD
ENDBRANCH  14  39
ENDBRANCH   8   9
ENDBRANCH   7   8
ENDBRANCH   1   7
BRANCH   1  41
ATOM     41  C   UNL     1      21.173  25.226  23.206  1.00  0.00     0.364 C 
ATOM     42  O   UNL     1      20.575  25.731  24.148  1.00  0.00    -0.246 OA
BRANCH  41  43
ATOM     43  O   UNL     1      20.384  24.486  22.302  1.00  0.00    -0.477 OA
ATOM     44  H   UNL     1      20.803  24.065  21.489  1.00  0.00     0.296 HD
ENDBRANCH  41  43
ENDBRANCH   1  41
BRANCH   3  45
ATOM     45  O   UNL     1      25.361  24.080  22.760  1.00  0.00    -0.391 OA
ATOM     46  H   UNL     1      25.452  23.168  23.161  1.00  0.00     0.211 HD
ENDBRANCH   3  45
BRANCH   5  47
ATOM     47  C   UNL     1      24.779  27.475  21.551  1.00  0.00     0.176 C 
BRANCH  47  48
ATOM     48  O   UNL     1      26.062  27.104  21.103  1.00  0.00    -0.388 OA
ATOM     49  H   UNL     1      26.765  27.490  21.662  1.00  0.00     0.211 HD
ENDBRANCH  47  48
BRANCH  47  50
ATOM     50  C   UNL     1      24.363  28.805  21.024  1.00  0.00     0.165 C 
BRANCH  50  51
ATOM     51  O   UNL     1      23.599  29.419  22.044  1.00  0.00    -0.388 OA
ATOM     52  H   UNL     1      22.703  29.650  21.734  1.00  0.00     0.211 HD
ENDBRANCH  50  51
BRANCH  50  53
ATOM     53  C   UNL     1      23.522  28.813  19.803  1.00  0.00     0.154 C 
BRANCH  53  54
ATOM     54  N   UNL     1      22.099  28.836  20.021  1.00  0.00    -0.319 N 
ATOM     55  C   UNL     1      21.190  28.001  19.318  1.00  0.00     0.407 C 
ATOM     56  H   UNL     1      21.710  29.486  20.726  1.00  0.00     0.167 HD
ATOM     57  O   UNL     1      21.617  27.191  18.457  1.00  0.00    -0.225 OA
BRANCH  55  58
ATOM     58  O   UNL     1      19.843  28.044  19.544  1.00  0.00    -0.443 OA
BRANCH  58  59
ATOM     59  C   UNL     1      18.961  29.083  19.194  1.00  0.00     0.294 C 
BRANCH  59  60
ATOM     60  C   UNL     1      17.661  28.853  19.859  1.00  0.00     0.120 A 
ATOM     61  C   UNL     1      16.964  29.843  20.491  1.00  0.00     0.138 A 
ATOM     62  N   UNL     1      16.949  27.727  19.983  1.00  0.00    -0.132 NA
ATOM     63  N   UNL     1      15.828  29.307  20.995  1.00  0.00    -0.249 N 
ATOM     64  N   UNL     1      15.847  28.017  20.669  1.00  0.00    -0.067 NA
BRANCH  63  65
ATOM     65  C   UNL     1      14.809  30.016  21.743  1.00  0.00     0.109 C 
ATOM     66  C   UNL     1      13.618  29.066  21.819  1.00  0.00     0.027 C 
ATOM     67  C   UNL     1      14.378  31.260  20.999  1.00  0.00     0.027 C 
ATOM     68  C   UNL     1      12.526  29.707  22.676  1.00  0.00     0.002 C 
ATOM     69  C   UNL     1      12.876  31.338  20.817  1.00  0.00     0.002 C 
ATOM     70  C   UNL     1      12.174  31.044  22.108  1.00  0.00     0.000 C 
ENDBRANCH  63  65
ENDBRANCH  59  60
ENDBRANCH  58  59
ENDBRANCH  55  58
ENDBRANCH  53  54
ENDBRANCH  50  53
ENDBRANCH  47  50
ENDBRANCH   5  47
BRANCH   4  71
ATOM     71  N   UNL     1      24.258  24.672  19.422  1.00  0.00    -0.348 N 
ATOM     72  C   UNL     1      24.943  25.122  18.281  1.00  0.00     0.217 C 
ATOM     73  H   UNL     1      23.499  23.944  19.222  1.00  0.00     0.163 HD
ATOM     74  C   UNL     1      24.629  24.597  16.908  1.00  0.00     0.114 C 
ATOM     75  O   UNL     1      25.834  25.968  18.355  1.00  0.00    -0.275 OA
ENDBRANCH   4  71
TORSDOF 30
