REMARK VINA RESULT:    -6.124      3.776      6.823
REMARK INTER + INTRA:         -21.312
REMARK INTER:                 -13.688
REMARK INTRA:                  -7.624
REMARK UNBOUND:                -5.342
REMARK SMILES CC(=O)N[C@@H]1[C@@H](O)C[C@](OC[C@H]2O[C@@H](O[C@H]3[C@H](O)[C@@H](O)[C@H](OCCN=[N+]=[N-])O[C@@H]3CO)[C@H](O)[C@@H](O)[C@H]2O)(C(=O)O)O[C@H]1C(O)[C@H](O)CNC(=O)OCc1cn(CCC(=O)O)nn1
REMARK SMILES IDX 43 1 42 2 9 3 8 4 41 5 6 6 5 7 10 8 11 9 12 10 14 11 13 12
REMARK SMILES IDX 32 13 34 14 36 15 15 16 16 17 29 18 28 19 21 20 17 21 19 22
REMARK SMILES IDX 30 23 31 24 22 26 23 27 24 28 25 29 26 30 27 31 18 32 20 34
REMARK SMILES IDX 33 36 35 38 37 40 38 42 39 43 40 44 7 46 4 48 2 49 1 51 3 52
REMARK SMILES IDX 44 53 45 55 46 56 47 58 48 59 49 60 50 62 51 63 52 64 53 65
REMARK SMILES IDX 54 66 62 67 55 68 61 69 56 70 57 71 58 72 59 73 60 74
REMARK H PARENT 31 25 18 33 20 35 33 37 35 39 37 41 40 45 7 47 4 50 44 54
REMARK H PARENT 46 57 48 61 60 75
REMARK Flexibility Score: inf
ROOT
ATOM      1  C   UNL     1       2.766  19.779  34.667  1.00  0.00     0.176 C 
ENDROOT
BRANCH   1   2
ATOM      2  C   UNL     1       3.194  20.135  33.263  1.00  0.00     0.178 C 
ATOM      3  C   UNL     1       3.958  21.949  31.986  1.00  0.00     0.272 C 
ATOM      4  C   UNL     1       4.094  20.754  31.060  1.00  0.00     0.113 C 
ATOM      5  O   UNL     1       3.014  21.461  32.967  1.00  0.00    -0.332 OA
ATOM      6  C   UNL     1       2.747  20.022  30.893  1.00  0.00     0.145 C 
ATOM      7  C   UNL     1       2.407  19.354  32.219  1.00  0.00     0.142 C 
BRANCH   3   8
ATOM      8  O   UNL     1       3.412  22.996  31.340  1.00  0.00    -0.338 OA
BRANCH   8   9
ATOM      9  C   UNL     1       2.614  23.923  31.791  1.00  0.00     0.199 C 
BRANCH   9  10
ATOM     10  C   UNL     1       2.929  25.339  32.015  1.00  0.00     0.179 C 
ATOM     11  C   UNL     1       4.037  26.974  33.187  1.00  0.00     0.282 C 
ATOM     12  O   UNL     1       3.678  25.659  33.114  1.00  0.00    -0.341 OA
ATOM     13  C   UNL     1       3.529  27.858  32.082  1.00  0.00     0.202 C 
ATOM     14  C   UNL     1       3.732  27.232  30.715  1.00  0.00     0.179 C 
ATOM     15  C   UNL     1       3.868  25.730  30.816  1.00  0.00     0.177 C 
BRANCH  11  16
ATOM     16  O   UNL     1       5.416  27.174  33.248  1.00  0.00    -0.341 OA
BRANCH  16  17
ATOM     17  C   UNL     1       5.840  27.751  34.442  1.00  0.00     0.184 C 
ATOM     18  C   UNL     1       6.629  28.974  34.128  1.00  0.00     0.178 C 
ATOM     19  O   UNL     1       7.989  28.876  34.469  1.00  0.00    -0.341 OA
ATOM     20  C   UNL     1       8.428  27.685  33.855  1.00  0.00     0.281 C 
ATOM     21  C   UNL     1       6.595  26.702  35.204  1.00  0.00     0.180 C 
ATOM     22  C   UNL     1       8.030  26.573  34.797  1.00  0.00     0.202 C 
BRANCH  18  23
ATOM     23  C   UNL     1       6.060  30.197  34.830  1.00  0.00     0.191 C 
BRANCH  23  24
ATOM     24  O   UNL     1       5.968  29.968  36.200  1.00  0.00    -0.394 OA
ATOM     25  H   UNL     1       5.536  29.092  36.340  1.00  0.00     0.210 HD
ENDBRANCH  23  24
ENDBRANCH  18  23
BRANCH  20  26
ATOM     26  O   UNL     1       9.780  27.703  33.608  1.00  0.00    -0.350 OA
BRANCH  26  27
ATOM     27  C   UNL     1      10.444  28.211  34.721  1.00  0.00     0.169 C 
BRANCH  27  28
ATOM     28  C   UNL     1      11.872  28.571  34.333  1.00  0.00     0.119 C 
BRANCH  28  29
ATOM     29  N   UNL     1      12.512  27.333  33.938  1.00  0.00    -0.092 NA
ATOM     30  N   UNL     1      12.755  26.496  34.806  1.00  0.00     0.001 N 
ATOM     31  N   UNL     1      13.022  25.458  35.449  1.00  0.00    -0.003 NA
ENDBRANCH  28  29
ENDBRANCH  27  28
ENDBRANCH  26  27
ENDBRANCH  20  26
BRANCH  21  32
ATOM     32  O   UNL     1       6.547  27.051  36.550  1.00  0.00    -0.387 OA
ATOM     33  H   UNL     1       6.908  27.953  36.648  1.00  0.00     0.211 HD
ENDBRANCH  21  32
BRANCH  22  34
ATOM     34  O   UNL     1       8.279  25.321  34.230  1.00  0.00    -0.385 OA
ATOM     35  H   UNL     1       7.907  25.282  33.306  1.00  0.00     0.211 HD
ENDBRANCH  22  34
ENDBRANCH  16  17
ENDBRANCH  11  16
BRANCH  13  36
ATOM     36  O   UNL     1       2.204  28.276  32.273  1.00  0.00    -0.385 OA
ATOM     37  H   UNL     1       2.070  29.141  31.854  1.00  0.00     0.211 HD
ENDBRANCH  13  36
BRANCH  14  38
ATOM     38  O   UNL     1       4.786  27.829  30.062  1.00  0.00    -0.387 OA
ATOM     39  H   UNL     1       5.157  27.238  29.376  1.00  0.00     0.211 HD
ENDBRANCH  14  38
BRANCH  15  40
ATOM     40  O   UNL     1       5.127  25.334  31.196  1.00  0.00    -0.387 OA
ATOM     41  H   UNL     1       5.505  24.586  30.678  1.00  0.00     0.211 HD
ENDBRANCH  15  40
ENDBRANCH   9  10
ENDBRANCH   8   9
ENDBRANCH   3   8
BRANCH   3  42
ATOM     42  C   UNL     1       5.176  22.265  32.737  1.00  0.00     0.364 C 
ATOM     43  O   UNL     1       6.294  21.883  32.313  1.00  0.00    -0.246 OA
BRANCH  42  44
ATOM     44  O   UNL     1       5.133  22.978  33.907  1.00  0.00    -0.477 OA
ATOM     45  H   UNL     1       4.949  23.958  33.990  1.00  0.00     0.296 HD
ENDBRANCH  42  44
ENDBRANCH   3  42
BRANCH   6  46
ATOM     46  O   UNL     1       1.795  20.984  30.634  1.00  0.00    -0.391 OA
ATOM     47  H   UNL     1       1.307  21.174  31.488  1.00  0.00     0.211 HD
ENDBRANCH   6  46
BRANCH   7  48
ATOM     48  N   UNL     1       2.761  17.972  32.194  1.00  0.00    -0.348 N 
ATOM     49  C   UNL     1       1.769  16.991  32.459  1.00  0.00     0.217 C 
ATOM     50  H   UNL     1       3.728  17.640  31.990  1.00  0.00     0.163 HD
ATOM     51  C   UNL     1       2.051  15.535  32.456  1.00  0.00     0.114 C 
ATOM     52  O   UNL     1       0.576  17.328  32.714  1.00  0.00    -0.275 OA
ENDBRANCH   7  48
ENDBRANCH   1   2
BRANCH   1  53
ATOM     53  O   UNL     1       3.876  19.270  35.341  1.00  0.00    -0.388 OA
ATOM     54  H   UNL     1       4.366  18.626  34.791  1.00  0.00     0.211 HD
ENDBRANCH   1  53
BRANCH   1  55
ATOM     55  C   UNL     1       2.207  20.918  35.458  1.00  0.00     0.165 C 
BRANCH  55  56
ATOM     56  O   UNL     1       3.198  21.895  35.596  1.00  0.00    -0.388 OA
ATOM     57  H   UNL     1       3.406  22.258  34.702  1.00  0.00     0.211 HD
ENDBRANCH  55  56
BRANCH  55  58
ATOM     58  C   UNL     1       1.911  20.375  36.861  1.00  0.00     0.154 C 
BRANCH  58  59
ATOM     59  N   UNL     1       2.644  21.105  37.857  1.00  0.00    -0.319 N 
ATOM     60  C   UNL     1       3.802  20.619  38.525  1.00  0.00     0.407 C 
ATOM     61  H   UNL     1       2.337  22.084  38.143  1.00  0.00     0.167 HD
ATOM     62  O   UNL     1       4.210  19.469  38.222  1.00  0.00    -0.225 OA
BRANCH  60  63
ATOM     63  O   UNL     1       4.475  21.360  39.479  1.00  0.00    -0.443 OA
BRANCH  63  64
ATOM     64  C   UNL     1       4.468  22.763  39.391  1.00  0.00     0.294 C 
BRANCH  64  65
ATOM     65  C   UNL     1       5.487  23.235  38.435  1.00  0.00     0.120 A 
ATOM     66  C   UNL     1       6.800  23.504  38.799  1.00  0.00     0.138 A 
ATOM     67  N   UNL     1       5.360  23.466  37.105  1.00  0.00    -0.132 NA
ATOM     68  N   UNL     1       7.423  23.891  37.660  1.00  0.00    -0.252 N 
ATOM     69  N   UNL     1       6.540  23.858  36.672  1.00  0.00    -0.067 NA
BRANCH  68  70
ATOM     70  C   UNL     1       8.814  24.270  37.531  1.00  0.00     0.158 C 
BRANCH  70  71
ATOM     71  C   UNL     1       9.769  23.131  37.805  1.00  0.00     0.146 C 
BRANCH  71  72
ATOM     72  C   UNL     1      10.409  22.753  36.538  1.00  0.00     0.305 C 
ATOM     73  O   UNL     1      10.192  23.429  35.509  1.00  0.00    -0.252 OA
BRANCH  72  74
ATOM     74  O   UNL     1      11.258  21.651  36.442  1.00  0.00    -0.481 OA
ATOM     75  H   UNL     1      11.695  21.211  37.246  1.00  0.00     0.296 HD
ENDBRANCH  72  74
ENDBRANCH  71  72
ENDBRANCH  70  71
ENDBRANCH  68  70
ENDBRANCH  64  65
ENDBRANCH  63  64
ENDBRANCH  60  63
ENDBRANCH  58  59
ENDBRANCH  55  58
ENDBRANCH   1  55
TORSDOF 33
