REMARK VINA RESULT:    -5.947     14.887     20.081
REMARK INTER + INTRA:         -20.070
REMARK INTER:                 -13.277
REMARK INTRA:                  -6.793
REMARK UNBOUND:                -4.909
REMARK SMILES CC(=O)N[C@@H]1[C@@H](O)C[C@](OC[C@H]2O[C@@H](O[C@H]3[C@H](O)[C@@H](O)[C@H](OCCN=[N+]=[N-])O[C@@H]3CO)[C@H](O)[C@@H](O)[C@H]2O)(C(=O)O)O[C@H]1C(O)[C@H](O)CNC(=O)OCc1cn(CCO)nn1
REMARK SMILES IDX 9 1 8 2 6 3 5 4 42 5 41 6 10 7 11 8 12 9 14 10 13 11 32 12
REMARK SMILES IDX 34 13 36 14 15 15 16 16 29 17 28 18 21 19 17 20 19 21 30 22
REMARK SMILES IDX 31 23 22 25 23 26 24 27 25 28 26 29 27 30 18 31 20 33 33 35
REMARK SMILES IDX 35 37 37 39 38 41 39 42 40 43 7 45 43 47 44 48 45 50 46 51
REMARK SMILES IDX 47 53 48 54 49 55 50 57 51 58 52 59 53 60 54 61 60 62 55 63
REMARK SMILES IDX 59 64 56 65 57 66 58 67 4 69 2 70 1 72 3 73
REMARK H PARENT 31 24 18 32 20 34 33 36 35 38 37 40 40 44 7 46 44 49 46 52
REMARK H PARENT 48 56 58 68 4 71
REMARK Flexibility Score: inf
ROOT
ATOM      1  C   UNL     1      19.637  28.705  20.446  1.00  0.00     0.272 C 
ATOM      2  C   UNL     1      20.388  29.752  19.690  1.00  0.00     0.113 C 
ATOM      3  C   UNL     1      19.655  31.063  19.756  1.00  0.00     0.145 C 
ATOM      4  C   UNL     1      19.490  31.376  21.244  1.00  0.00     0.142 C 
ATOM      5  C   UNL     1      18.559  30.302  21.796  1.00  0.00     0.178 C 
ATOM      6  O   UNL     1      19.336  29.123  21.708  1.00  0.00    -0.332 OA
ENDROOT
BRANCH   1   7
ATOM      7  O   UNL     1      20.397  27.518  20.561  1.00  0.00    -0.338 OA
BRANCH   7   8
ATOM      8  C   UNL     1      21.743  27.671  20.516  1.00  0.00     0.199 C 
BRANCH   8   9
ATOM      9  C   UNL     1      22.425  26.901  21.658  1.00  0.00     0.179 C 
ATOM     10  C   UNL     1      22.319  26.509  23.942  1.00  0.00     0.282 C 
ATOM     11  O   UNL     1      21.887  27.284  22.867  1.00  0.00    -0.341 OA
ATOM     12  C   UNL     1      21.903  25.067  23.810  1.00  0.00     0.202 C 
ATOM     13  C   UNL     1      21.586  24.655  22.395  1.00  0.00     0.179 C 
ATOM     14  C   UNL     1      22.449  25.427  21.437  1.00  0.00     0.177 C 
BRANCH  10  15
ATOM     15  O   UNL     1      21.755  27.033  25.041  1.00  0.00    -0.341 OA
BRANCH  15  16
ATOM     16  C   UNL     1      22.422  27.113  26.203  1.00  0.00     0.184 C 
ATOM     17  C   UNL     1      21.947  26.468  27.427  1.00  0.00     0.178 C 
ATOM     18  O   UNL     1      22.249  27.239  28.536  1.00  0.00    -0.341 OA
ATOM     19  C   UNL     1      23.470  27.832  28.589  1.00  0.00     0.281 C 
ATOM     20  C   UNL     1      22.502  28.632  26.510  1.00  0.00     0.180 C 
ATOM     21  C   UNL     1      23.718  28.773  27.400  1.00  0.00     0.202 C 
BRANCH  17  22
ATOM     22  C   UNL     1      22.546  25.084  27.661  1.00  0.00     0.191 C 
BRANCH  22  23
ATOM     23  O   UNL     1      23.708  24.890  26.912  1.00  0.00    -0.394 OA
ATOM     24  H   UNL     1      24.473  24.943  27.516  1.00  0.00     0.210 HD
ENDBRANCH  22  23
ENDBRANCH  17  22
BRANCH  19  25
ATOM     25  O   UNL     1      24.546  27.024  28.822  1.00  0.00    -0.350 OA
BRANCH  25  26
ATOM     26  C   UNL     1      24.904  26.822  30.120  1.00  0.00     0.169 C 
BRANCH  26  27
ATOM     27  C   UNL     1      26.333  27.182  30.352  1.00  0.00     0.119 C 
BRANCH  27  28
ATOM     28  N   UNL     1      27.168  25.983  30.168  1.00  0.00    -0.092 NA
ATOM     29  N   UNL     1      27.744  25.588  31.199  1.00  0.00     0.001 N 
ATOM     30  N   UNL     1      27.884  24.813  32.161  1.00  0.00    -0.003 NA
ENDBRANCH  27  28
ENDBRANCH  26  27
ENDBRANCH  25  26
ENDBRANCH  19  25
BRANCH  20  31
ATOM     31  O   UNL     1      22.586  29.361  25.353  1.00  0.00    -0.387 OA
ATOM     32  H   UNL     1      22.136  30.242  25.420  1.00  0.00     0.211 HD
ENDBRANCH  20  31
BRANCH  21  33
ATOM     33  O   UNL     1      23.914  30.077  27.769  1.00  0.00    -0.385 OA
ATOM     34  H   UNL     1      23.314  30.365  28.501  1.00  0.00     0.211 HD
ENDBRANCH  21  33
ENDBRANCH  15  16
ENDBRANCH  10  15
BRANCH  12  35
ATOM     35  O   UNL     1      22.992  24.272  24.201  1.00  0.00    -0.385 OA
ATOM     36  H   UNL     1      22.788  23.316  24.215  1.00  0.00     0.211 HD
ENDBRANCH  12  35
BRANCH  13  37
ATOM     37  O   UNL     1      20.242  24.795  22.166  1.00  0.00    -0.387 OA
ATOM     38  H   UNL     1      19.696  24.153  22.720  1.00  0.00     0.211 HD
ENDBRANCH  13  37
BRANCH  14  39
ATOM     39  O   UNL     1      21.940  25.189  20.141  1.00  0.00    -0.387 OA
ATOM     40  H   UNL     1      20.990  25.459  20.081  1.00  0.00     0.211 HD
ENDBRANCH  14  39
ENDBRANCH   8   9
ENDBRANCH   7   8
ENDBRANCH   1   7
BRANCH   1  41
ATOM     41  C   UNL     1      18.456  28.300  19.654  1.00  0.00     0.364 C 
ATOM     42  O   UNL     1      18.500  28.099  18.426  1.00  0.00    -0.246 OA
BRANCH  41  43
ATOM     43  O   UNL     1      17.225  28.125  20.262  1.00  0.00    -0.477 OA
ATOM     44  H   UNL     1      16.665  28.913  20.629  1.00  0.00     0.296 HD
ENDBRANCH  41  43
ENDBRANCH   1  41
BRANCH   3  45
ATOM     45  O   UNL     1      20.449  32.103  19.225  1.00  0.00    -0.391 OA
ATOM     46  H   UNL     1      20.015  32.446  18.398  1.00  0.00     0.211 HD
ENDBRANCH   3  45
BRANCH   5  47
ATOM     47  C   UNL     1      18.381  30.523  23.263  1.00  0.00     0.176 C 
BRANCH  47  48
ATOM     48  O   UNL     1      17.378  29.709  23.791  1.00  0.00    -0.388 OA
ATOM     49  H   UNL     1      17.548  28.746  23.616  1.00  0.00     0.211 HD
ENDBRANCH  47  48
BRANCH  47  50
ATOM     50  C   UNL     1      19.573  30.502  24.139  1.00  0.00     0.165 C 
BRANCH  50  51
ATOM     51  O   UNL     1      19.671  29.087  24.492  1.00  0.00    -0.388 OA
ATOM     52  H   UNL     1      18.989  28.896  25.176  1.00  0.00     0.211 HD
ENDBRANCH  50  51
BRANCH  50  53
ATOM     53  C   UNL     1      19.356  31.122  25.507  1.00  0.00     0.154 C 
BRANCH  53  54
ATOM     54  N   UNL     1      18.195  31.949  25.590  1.00  0.00    -0.319 N 
ATOM     55  C   UNL     1      17.294  31.830  26.679  1.00  0.00     0.407 C 
ATOM     56  H   UNL     1      17.966  32.663  24.842  1.00  0.00     0.167 HD
ATOM     57  O   UNL     1      17.584  30.946  27.554  1.00  0.00    -0.225 OA
BRANCH  55  58
ATOM     58  O   UNL     1      16.159  32.569  26.873  1.00  0.00    -0.443 OA
BRANCH  58  59
ATOM     59  C   UNL     1      15.603  33.278  25.782  1.00  0.00     0.294 C 
BRANCH  59  60
ATOM     60  C   UNL     1      15.119  32.399  24.715  1.00  0.00     0.120 A 
ATOM     61  C   UNL     1      14.037  31.559  24.803  1.00  0.00     0.138 A 
ATOM     62  N   UNL     1      15.606  32.230  23.475  1.00  0.00    -0.132 NA
ATOM     63  N   UNL     1      13.887  30.905  23.634  1.00  0.00    -0.250 N 
ATOM     64  N   UNL     1      14.847  31.325  22.842  1.00  0.00    -0.067 NA
BRANCH  63  65
ATOM     65  C   UNL     1      12.840  29.918  23.335  1.00  0.00     0.174 C 
BRANCH  65  66
ATOM     66  C   UNL     1      12.969  29.520  21.885  1.00  0.00     0.179 C 
BRANCH  66  67
ATOM     67  O   UNL     1      13.819  28.404  21.830  1.00  0.00    -0.394 OA
ATOM     68  H   UNL     1      13.675  27.846  21.046  1.00  0.00     0.210 HD
ENDBRANCH  66  67
ENDBRANCH  65  66
ENDBRANCH  63  65
ENDBRANCH  59  60
ENDBRANCH  58  59
ENDBRANCH  55  58
ENDBRANCH  53  54
ENDBRANCH  50  53
ENDBRANCH  47  50
ENDBRANCH   5  47
BRANCH   4  69
ATOM     69  N   UNL     1      19.138  32.716  21.502  1.00  0.00    -0.348 N 
ATOM     70  C   UNL     1      20.029  33.738  21.905  1.00  0.00     0.217 C 
ATOM     71  H   UNL     1      18.138  33.019  21.379  1.00  0.00     0.163 HD
ATOM     72  C   UNL     1      19.517  35.103  22.145  1.00  0.00     0.114 C 
ATOM     73  O   UNL     1      21.237  33.506  22.060  1.00  0.00    -0.275 OA
ENDBRANCH   4  69
TORSDOF 32
