REMARK VINA RESULT:    -5.504      4.717      7.086
REMARK INTER + INTRA:         -22.489
REMARK INTER:                 -14.897
REMARK INTRA:                  -7.592
REMARK UNBOUND:                -8.458
REMARK SMILES CC(=O)N[C@@H]1[C@@H](O)C[C@](OC[C@H]2O[C@@H](O[C@H]3[C@H](O)[C@@H](O)[C@H](OCCN=[N+]=[N-])O[C@@H]3CO)[C@H](O)[C@@H](O)[C@H]2O)(C(=O)O)O[C@H]1C(O)[C@H](O)CNC(=O)OCc1cn(-c2ccc(O)c([N+](=O)[O-])c2)nn1
REMARK SMILES IDX 9 1 8 2 6 3 5 4 42 5 41 6 10 7 11 8 12 9 14 10 13 11 32 12
REMARK SMILES IDX 34 13 36 14 15 15 16 16 29 17 28 18 21 19 17 20 19 21 30 22
REMARK SMILES IDX 31 23 22 25 23 26 24 27 25 28 26 29 27 30 18 31 20 33 33 35
REMARK SMILES IDX 35 37 37 39 38 41 39 42 40 43 7 45 43 47 44 48 45 50 46 51
REMARK SMILES IDX 47 53 48 54 49 55 50 57 51 58 52 59 53 60 54 61 67 62 55 63
REMARK SMILES IDX 66 64 56 65 57 66 65 67 58 68 61 69 59 70 62 71 63 72 64 73
REMARK SMILES IDX 60 74 4 76 2 77 1 79 3 80
REMARK H PARENT 31 24 18 32 20 34 33 36 35 38 37 40 40 44 7 46 44 49 46 52
REMARK H PARENT 48 56 60 75 4 78
REMARK Flexibility Score: inf
ROOT
ATOM      1  C   UNL     1      14.940  31.710  16.677  1.00  0.00     0.272 C 
ATOM      2  C   UNL     1      13.417  31.501  16.571  1.00  0.00     0.113 C 
ATOM      3  C   UNL     1      13.121  30.005  16.616  1.00  0.00     0.145 C 
ATOM      4  C   UNL     1      13.697  29.467  15.280  1.00  0.00     0.142 C 
ATOM      5  C   UNL     1      15.021  30.123  15.005  1.00  0.00     0.178 C 
ATOM      6  O   UNL     1      15.600  30.601  16.195  1.00  0.00    -0.332 OA
ENDROOT
BRANCH   1   7
ATOM      7  O   UNL     1      15.180  31.832  18.033  1.00  0.00    -0.338 OA
BRANCH   7   8
ATOM      8  C   UNL     1      16.376  32.372  18.400  1.00  0.00     0.199 C 
BRANCH   8   9
ATOM      9  C   UNL     1      16.940  31.426  19.488  1.00  0.00     0.179 C 
ATOM     10  C   UNL     1      16.148  29.724  20.761  1.00  0.00     0.282 C 
ATOM     11  O   UNL     1      15.845  30.931  20.128  1.00  0.00    -0.341 OA
ATOM     12  C   UNL     1      16.285  28.696  19.693  1.00  0.00     0.202 C 
ATOM     13  C   UNL     1      17.463  29.044  18.821  1.00  0.00     0.179 C 
ATOM     14  C   UNL     1      17.868  30.471  18.848  1.00  0.00     0.177 C 
BRANCH  10  15
ATOM     15  O   UNL     1      15.161  29.431  21.712  1.00  0.00    -0.341 OA
BRANCH  15  16
ATOM     16  C   UNL     1      14.592  30.617  22.133  1.00  0.00     0.184 C 
ATOM     17  C   UNL     1      14.612  30.853  23.603  1.00  0.00     0.178 C 
ATOM     18  O   UNL     1      14.287  32.187  23.815  1.00  0.00    -0.341 OA
ATOM     19  C   UNL     1      12.906  32.407  23.532  1.00  0.00     0.281 C 
ATOM     20  C   UNL     1      13.089  30.626  21.748  1.00  0.00     0.180 C 
ATOM     21  C   UNL     1      12.577  32.009  22.142  1.00  0.00     0.202 C 
BRANCH  17  22
ATOM     22  C   UNL     1      15.892  30.531  24.299  1.00  0.00     0.191 C 
BRANCH  22  23
ATOM     23  O   UNL     1      16.191  29.183  24.201  1.00  0.00    -0.394 OA
ATOM     24  H   UNL     1      15.367  28.671  24.477  1.00  0.00     0.210 HD
ENDBRANCH  22  23
ENDBRANCH  17  22
BRANCH  19  25
ATOM     25  O   UNL     1      12.764  33.780  23.694  1.00  0.00    -0.350 OA
BRANCH  25  26
ATOM     26  C   UNL     1      13.502  34.526  22.795  1.00  0.00     0.169 C 
BRANCH  26  27
ATOM     27  C   UNL     1      13.671  35.942  23.252  1.00  0.00     0.119 C 
BRANCH  27  28
ATOM     28  N   UNL     1      14.485  35.936  24.465  1.00  0.00    -0.092 NA
ATOM     29  N   UNL     1      15.651  35.484  24.416  1.00  0.00     0.001 N 
ATOM     30  N   UNL     1      16.894  35.493  24.467  1.00  0.00    -0.003 NA
ENDBRANCH  27  28
ENDBRANCH  26  27
ENDBRANCH  25  26
ENDBRANCH  19  25
BRANCH  20  31
ATOM     31  O   UNL     1      12.930  30.500  20.377  1.00  0.00    -0.387 OA
ATOM     32  H   UNL     1      13.416  31.211  19.875  1.00  0.00     0.211 HD
ENDBRANCH  20  31
BRANCH  21  33
ATOM     33  O   UNL     1      11.196  31.941  21.974  1.00  0.00    -0.385 OA
ATOM     34  H   UNL     1      10.953  31.721  21.054  1.00  0.00     0.211 HD
ENDBRANCH  21  33
ENDBRANCH  15  16
ENDBRANCH  10  15
BRANCH  12  35
ATOM     35  O   UNL     1      16.424  27.402  20.184  1.00  0.00    -0.385 OA
ATOM     36  H   UNL     1      16.852  26.804  19.506  1.00  0.00     0.211 HD
ENDBRANCH  12  35
BRANCH  13  37
ATOM     37  O   UNL     1      17.184  28.548  17.543  1.00  0.00    -0.387 OA
ATOM     38  H   UNL     1      18.058  28.433  17.082  1.00  0.00     0.211 HD
ENDBRANCH  13  37
BRANCH  14  39
ATOM     39  O   UNL     1      18.210  30.854  17.534  1.00  0.00    -0.387 OA
ATOM     40  H   UNL     1      19.067  30.478  17.243  1.00  0.00     0.211 HD
ENDBRANCH  14  39
ENDBRANCH   8   9
ENDBRANCH   7   8
ENDBRANCH   1   7
BRANCH   1  41
ATOM     41  C   UNL     1      15.212  32.977  16.008  1.00  0.00     0.364 C 
ATOM     42  O   UNL     1      16.216  33.239  15.295  1.00  0.00    -0.246 OA
BRANCH  41  43
ATOM     43  O   UNL     1      14.300  34.027  16.143  1.00  0.00    -0.477 OA
ATOM     44  H   UNL     1      14.540  34.909  16.582  1.00  0.00     0.296 HD
ENDBRANCH  41  43
ENDBRANCH   1  41
BRANCH   3  45
ATOM     45  O   UNL     1      13.733  29.400  17.681  1.00  0.00    -0.391 OA
ATOM     46  H   UNL     1      13.455  28.454  17.724  1.00  0.00     0.211 HD
ENDBRANCH   3  45
BRANCH   5  47
ATOM     47  C   UNL     1      15.982  29.099  14.451  1.00  0.00     0.176 C 
BRANCH  47  48
ATOM     48  O   UNL     1      15.245  28.008  14.018  1.00  0.00    -0.388 OA
ATOM     49  H   UNL     1      15.574  27.153  14.391  1.00  0.00     0.211 HD
ENDBRANCH  47  48
BRANCH  47  50
ATOM     50  C   UNL     1      16.834  29.601  13.313  1.00  0.00     0.165 C 
BRANCH  50  51
ATOM     51  O   UNL     1      17.171  28.430  12.583  1.00  0.00    -0.388 OA
ATOM     52  H   UNL     1      17.218  28.620  11.605  1.00  0.00     0.211 HD
ENDBRANCH  50  51
BRANCH  50  53
ATOM     53  C   UNL     1      18.135  30.174  13.798  1.00  0.00     0.154 C 
BRANCH  53  54
ATOM     54  N   UNL     1      18.510  29.571  15.049  1.00  0.00    -0.319 N 
ATOM     55  C   UNL     1      19.730  28.915  15.315  1.00  0.00     0.407 C 
ATOM     56  H   UNL     1      17.824  29.610  15.864  1.00  0.00     0.167 HD
ATOM     57  O   UNL     1      20.555  28.840  14.395  1.00  0.00    -0.225 OA
BRANCH  55  58
ATOM     58  O   UNL     1      20.069  28.354  16.524  1.00  0.00    -0.443 OA
BRANCH  58  59
ATOM     59  C   UNL     1      21.077  28.915  17.326  1.00  0.00     0.294 C 
BRANCH  59  60
ATOM     60  C   UNL     1      21.197  28.088  18.564  1.00  0.00     0.121 A 
ATOM     61  C   UNL     1      22.296  27.299  18.917  1.00  0.00     0.144 A 
ATOM     62  N   UNL     1      20.339  27.899  19.574  1.00  0.00    -0.131 NA
ATOM     63  N   UNL     1      22.043  26.704  20.077  1.00  0.00    -0.220 N 
ATOM     64  N   UNL     1      20.833  27.097  20.448  1.00  0.00    -0.062 NA
BRANCH  63  65
ATOM     65  C   UNL     1      22.908  25.802  20.788  1.00  0.00     0.073 A 
ATOM     66  C   UNL     1      23.925  25.158  20.153  1.00  0.00     0.033 A 
ATOM     67  C   UNL     1      22.746  25.559  22.125  1.00  0.00     0.118 A 
ATOM     68  C   UNL     1      24.780  24.290  20.789  1.00  0.00     0.056 A 
ATOM     69  C   UNL     1      23.607  24.674  22.805  1.00  0.00     0.312 A 
ATOM     70  C   UNL     1      24.632  24.025  22.169  1.00  0.00     0.194 A 
BRANCH  69  71
ATOM     71  N   UNL     1      23.372  24.486  24.178  1.00  0.00     0.066 N 
ATOM     72  O   UNL     1      22.161  24.418  24.557  1.00  0.00    -0.258 OA
ATOM     73  O   UNL     1      24.386  24.385  25.075  1.00  0.00    -0.258 OA
ENDBRANCH  69  71
BRANCH  70  74
ATOM     74  O   UNL     1      25.522  23.146  22.762  1.00  0.00    -0.502 OA
ATOM     75  H   UNL     1      26.251  23.427  23.335  1.00  0.00     0.293 HD
ENDBRANCH  70  74
ENDBRANCH  63  65
ENDBRANCH  59  60
ENDBRANCH  58  59
ENDBRANCH  55  58
ENDBRANCH  53  54
ENDBRANCH  50  53
ENDBRANCH  47  50
ENDBRANCH   5  47
BRANCH   4  76
ATOM     76  N   UNL     1      12.689  29.811  14.298  1.00  0.00    -0.348 N 
ATOM     77  C   UNL     1      11.964  28.798  13.589  1.00  0.00     0.217 C 
ATOM     78  H   UNL     1      12.465  30.800  14.082  1.00  0.00     0.163 HD
ATOM     79  C   UNL     1      10.937  29.174  12.588  1.00  0.00     0.114 C 
ATOM     80  O   UNL     1      12.223  27.583  13.840  1.00  0.00    -0.275 OA
ENDBRANCH   4  76
TORSDOF 32
