REMARK VINA RESULT:    -5.867     16.088     20.901
REMARK INTER + INTRA:         -19.866
REMARK INTER:                 -11.570
REMARK INTRA:                  -8.296
REMARK UNBOUND:                -4.909
REMARK SMILES CC(=O)N[C@@H]1[C@@H](O)C[C@](OC[C@H]2O[C@@H](O[C@H]3[C@H](O)[C@@H](O)[C@H](OCCN=[N+]=[N-])O[C@@H]3CO)[C@H](O)[C@@H](O)[C@H]2O)(C(=O)O)O[C@H]1C(O)[C@H](O)CNC(=O)OCc1cn(CCO)nn1
REMARK SMILES IDX 9 1 8 2 6 3 5 4 42 5 41 6 10 7 11 8 12 9 14 10 13 11 32 12
REMARK SMILES IDX 34 13 36 14 15 15 16 16 29 17 28 18 21 19 17 20 19 21 30 22
REMARK SMILES IDX 31 23 22 25 23 26 24 27 25 28 26 29 27 30 18 31 20 33 33 35
REMARK SMILES IDX 35 37 37 39 38 41 39 42 40 43 7 45 43 47 44 48 45 50 46 51
REMARK SMILES IDX 47 53 48 54 49 55 50 57 51 58 52 59 53 60 54 61 60 62 55 63
REMARK SMILES IDX 59 64 56 65 57 66 58 67 4 69 2 70 1 72 3 73
REMARK H PARENT 31 24 18 32 20 34 33 36 35 38 37 40 40 44 7 46 44 49 46 52
REMARK H PARENT 48 56 58 68 4 71
REMARK Flexibility Score: inf
ROOT
ATOM      1  C   UNL     1      21.691  28.878  24.749  1.00  0.00     0.272 C 
ATOM      2  C   UNL     1      20.788  29.248  25.880  1.00  0.00     0.113 C 
ATOM      3  C   UNL     1      20.157  30.588  25.621  1.00  0.00     0.145 C 
ATOM      4  C   UNL     1      19.441  30.461  24.276  1.00  0.00     0.142 C 
ATOM      5  C   UNL     1      20.538  30.262  23.236  1.00  0.00     0.178 C 
ATOM      6  O   UNL     1      21.053  28.982  23.549  1.00  0.00    -0.332 OA
ENDROOT
BRANCH   1   7
ATOM      7  O   UNL     1      22.144  27.544  24.876  1.00  0.00    -0.338 OA
BRANCH   7   8
ATOM      8  C   UNL     1      21.179  26.601  25.001  1.00  0.00     0.199 C 
BRANCH   8   9
ATOM      9  C   UNL     1      21.378  25.467  23.983  1.00  0.00     0.179 C 
ATOM     10  C   UNL     1      21.652  25.047  21.718  1.00  0.00     0.282 C 
ATOM     11  O   UNL     1      21.306  25.971  22.702  1.00  0.00    -0.341 OA
ATOM     12  C   UNL     1      23.083  24.593  21.840  1.00  0.00     0.202 C 
ATOM     13  C   UNL     1      23.669  24.798  23.214  1.00  0.00     0.179 C 
ATOM     14  C   UNL     1      22.593  24.647  24.252  1.00  0.00     0.177 C 
BRANCH  10  15
ATOM     15  O   UNL     1      21.483  25.665  20.539  1.00  0.00    -0.341 OA
BRANCH  15  16
ATOM     16  C   UNL     1      22.497  26.293  19.923  1.00  0.00     0.184 C 
ATOM     17  C   UNL     1      22.445  27.711  19.570  1.00  0.00     0.178 C 
ATOM     18  O   UNL     1      23.106  27.944  18.377  1.00  0.00    -0.341 OA
ATOM     19  C   UNL     1      24.283  27.301  18.163  1.00  0.00     0.281 C 
ATOM     20  C   UNL     1      22.693  25.517  18.594  1.00  0.00     0.180 C 
ATOM     21  C   UNL     1      24.137  25.772  18.217  1.00  0.00     0.202 C 
BRANCH  17  22
ATOM     22  C   UNL     1      23.070  28.625  20.620  1.00  0.00     0.191 C 
BRANCH  22  23
ATOM     23  O   UNL     1      23.152  28.002  21.867  1.00  0.00    -0.394 OA
ATOM     24  H   UNL     1      24.094  27.932  22.112  1.00  0.00     0.210 HD
ENDBRANCH  22  23
ENDBRANCH  17  22
BRANCH  19  25
ATOM     25  O   UNL     1      25.366  27.727  18.879  1.00  0.00    -0.350 OA
BRANCH  25  26
ATOM     26  C   UNL     1      26.139  26.773  19.468  1.00  0.00     0.169 C 
BRANCH  26  27
ATOM     27  C   UNL     1      26.548  27.177  20.843  1.00  0.00     0.119 C 
BRANCH  27  28
ATOM     28  N   UNL     1      26.636  28.646  20.907  1.00  0.00    -0.092 NA
ATOM     29  N   UNL     1      27.540  29.081  21.644  1.00  0.00     0.001 N 
ATOM     30  N   UNL     1      28.653  29.598  21.845  1.00  0.00    -0.003 NA
ENDBRANCH  27  28
ENDBRANCH  26  27
ENDBRANCH  25  26
ENDBRANCH  19  25
BRANCH  20  31
ATOM     31  O   UNL     1      22.399  24.188  18.754  1.00  0.00    -0.387 OA
ATOM     32  H   UNL     1      21.553  24.038  19.246  1.00  0.00     0.211 HD
ENDBRANCH  20  31
BRANCH  21  33
ATOM     33  O   UNL     1      24.460  25.152  17.041  1.00  0.00    -0.385 OA
ATOM     34  H   UNL     1      23.678  24.746  16.591  1.00  0.00     0.211 HD
ENDBRANCH  21  33
ENDBRANCH  15  16
ENDBRANCH  10  15
BRANCH  12  35
ATOM     35  O   UNL     1      23.111  23.207  21.620  1.00  0.00    -0.385 OA
ATOM     36  H   UNL     1      22.229  22.828  21.431  1.00  0.00     0.211 HD
ENDBRANCH  12  35
BRANCH  13  37
ATOM     37  O   UNL     1      24.319  26.004  23.261  1.00  0.00    -0.387 OA
ATOM     38  H   UNL     1      23.764  26.714  23.714  1.00  0.00     0.211 HD
ENDBRANCH  13  37
BRANCH  14  39
ATOM     39  O   UNL     1      23.137  25.092  25.477  1.00  0.00    -0.387 OA
ATOM     40  H   UNL     1      22.610  24.750  26.241  1.00  0.00     0.211 HD
ENDBRANCH  14  39
ENDBRANCH   8   9
ENDBRANCH   7   8
ENDBRANCH   1   7
BRANCH   1  41
ATOM     41  C   UNL     1      22.925  29.687  24.841  1.00  0.00     0.364 C 
ATOM     42  O   UNL     1      23.562  30.067  23.841  1.00  0.00    -0.246 OA
BRANCH  41  43
ATOM     43  O   UNL     1      23.432  30.064  26.072  1.00  0.00    -0.477 OA
ATOM     44  H   UNL     1      24.446  30.089  26.276  1.00  0.00     0.296 HD
ENDBRANCH  41  43
ENDBRANCH   1  41
BRANCH   3  45
ATOM     45  O   UNL     1      19.151  30.856  26.575  1.00  0.00    -0.391 OA
ATOM     46  H   UNL     1      19.366  30.364  27.413  1.00  0.00     0.211 HD
ENDBRANCH   3  45
BRANCH   5  47
ATOM     47  C   UNL     1      19.906  30.091  21.892  1.00  0.00     0.176 C 
BRANCH  47  48
ATOM     48  O   UNL     1      18.602  29.604  21.990  1.00  0.00    -0.388 OA
ATOM     49  H   UNL     1      18.291  29.560  22.933  1.00  0.00     0.211 HD
ENDBRANCH  47  48
BRANCH  47  50
ATOM     50  C   UNL     1      19.966  31.210  20.927  1.00  0.00     0.165 C 
BRANCH  50  51
ATOM     51  O   UNL     1      18.609  31.750  20.997  1.00  0.00    -0.388 OA
ATOM     52  H   UNL     1      18.441  32.258  20.170  1.00  0.00     0.211 HD
ENDBRANCH  50  51
BRANCH  50  53
ATOM     53  C   UNL     1      20.026  30.780  19.472  1.00  0.00     0.154 C 
BRANCH  53  54
ATOM     54  N   UNL     1      18.745  30.540  18.888  1.00  0.00    -0.319 N 
ATOM     55  C   UNL     1      18.431  29.279  18.319  1.00  0.00     0.407 C 
ATOM     56  H   UNL     1      18.001  31.292  18.850  1.00  0.00     0.167 HD
ATOM     57  O   UNL     1      19.355  28.398  18.359  1.00  0.00    -0.225 OA
BRANCH  55  58
ATOM     58  O   UNL     1      17.241  28.926  17.743  1.00  0.00    -0.443 OA
BRANCH  58  59
ATOM     59  C   UNL     1      16.473  27.890  18.325  1.00  0.00     0.294 C 
BRANCH  59  60
ATOM     60  C   UNL     1      15.875  28.271  19.607  1.00  0.00     0.120 A 
ATOM     61  C   UNL     1      14.594  28.733  19.782  1.00  0.00     0.138 A 
ATOM     62  N   UNL     1      16.422  28.254  20.833  1.00  0.00    -0.132 NA
ATOM     63  N   UNL     1      14.389  28.984  21.090  1.00  0.00    -0.250 N 
ATOM     64  N   UNL     1      15.507  28.687  21.710  1.00  0.00    -0.067 NA
BRANCH  63  65
ATOM     65  C   UNL     1      13.140  29.490  21.678  1.00  0.00     0.174 C 
BRANCH  65  66
ATOM     66  C   UNL     1      13.475  30.167  22.984  1.00  0.00     0.179 C 
BRANCH  66  67
ATOM     67  O   UNL     1      13.823  29.161  23.900  1.00  0.00    -0.394 OA
ATOM     68  H   UNL     1      13.310  28.342  23.790  1.00  0.00     0.210 HD
ENDBRANCH  66  67
ENDBRANCH  65  66
ENDBRANCH  63  65
ENDBRANCH  59  60
ENDBRANCH  58  59
ENDBRANCH  55  58
ENDBRANCH  53  54
ENDBRANCH  50  53
ENDBRANCH  47  50
ENDBRANCH   5  47
BRANCH   4  69
ATOM     69  N   UNL     1      18.514  31.494  24.031  1.00  0.00    -0.348 N 
ATOM     70  C   UNL     1      17.111  31.393  24.180  1.00  0.00     0.217 C 
ATOM     71  H   UNL     1      18.863  32.439  23.727  1.00  0.00     0.163 HD
ATOM     72  C   UNL     1      16.257  32.561  23.883  1.00  0.00     0.114 C 
ATOM     73  O   UNL     1      16.584  30.335  24.556  1.00  0.00    -0.275 OA
ENDBRANCH   4  69
TORSDOF 32
