REMARK VINA RESULT:    -5.937      3.908      8.945
REMARK INTER + INTRA:         -22.001
REMARK INTER:                 -12.623
REMARK INTRA:                  -9.378
REMARK UNBOUND:                -7.387
REMARK SMILES CC(=O)N[C@@H]1[C@@H](O)C[C@](OC[C@H]2O[C@@H](O[C@H]3[C@H](O)[C@@H](O)[C@H](OCCN=[N+]=[N-])O[C@@H]3CO)[C@H](O)[C@@H](O)[C@H]2O)(C(=O)O)O[C@H]1C(O)[C@H](O)CNC(=O)OCc1cn(C23CC4CC(CC(C4)C2)C3)nn1
REMARK SMILES IDX 9 1 8 2 6 3 5 4 42 5 41 6 10 7 11 8 12 9 14 10 13 11 32 12
REMARK SMILES IDX 34 13 36 14 15 15 16 16 29 17 28 18 21 19 17 20 19 21 30 22
REMARK SMILES IDX 31 23 22 25 23 26 24 27 25 28 26 29 27 30 18 31 20 33 33 35
REMARK SMILES IDX 35 37 37 39 38 41 39 42 40 43 7 45 43 47 44 48 45 50 46 51
REMARK SMILES IDX 47 53 48 54 49 55 50 57 51 58 52 59 53 60 54 61 67 62 55 63
REMARK SMILES IDX 66 64 56 65 65 66 64 67 57 68 60 69 62 70 58 71 59 72 61 73
REMARK SMILES IDX 63 74 4 75 2 76 1 78 3 79
REMARK H PARENT 31 24 18 32 20 34 33 36 35 38 37 40 40 44 7 46 44 49 46 52
REMARK H PARENT 48 56 4 77
REMARK Flexibility Score: inf
ROOT
ATOM      1  C   UNL     1      18.962  33.033  17.508  1.00  0.00     0.272 C 
ATOM      2  C   UNL     1      17.659  32.313  17.453  1.00  0.00     0.113 C 
ATOM      3  C   UNL     1      17.877  30.820  17.311  1.00  0.00     0.145 C 
ATOM      4  C   UNL     1      18.335  30.622  15.859  1.00  0.00     0.142 C 
ATOM      5  C   UNL     1      19.378  31.673  15.623  1.00  0.00     0.178 C 
ATOM      6  O   UNL     1      19.906  32.247  16.752  1.00  0.00    -0.332 OA
ENDROOT
BRANCH   1   7
ATOM      7  O   UNL     1      19.541  33.176  18.692  1.00  0.00    -0.338 OA
BRANCH   7   8
ATOM      8  C   UNL     1      19.024  33.467  19.859  1.00  0.00     0.199 C 
BRANCH   8   9
ATOM      9  C   UNL     1      19.177  32.614  21.075  1.00  0.00     0.179 C 
ATOM     10  C   UNL     1      18.798  30.613  22.023  1.00  0.00     0.282 C 
ATOM     11  O   UNL     1      18.609  31.315  20.815  1.00  0.00    -0.341 OA
ATOM     12  C   UNL     1      20.144  29.974  21.911  1.00  0.00     0.202 C 
ATOM     13  C   UNL     1      21.051  30.950  21.185  1.00  0.00     0.179 C 
ATOM     14  C   UNL     1      20.641  32.382  21.432  1.00  0.00     0.177 C 
BRANCH  10  15
ATOM     15  O   UNL     1      17.753  29.727  22.253  1.00  0.00    -0.341 OA
BRANCH  15  16
ATOM     16  C   UNL     1      16.949  29.672  21.153  1.00  0.00     0.184 C 
ATOM     17  C   UNL     1      15.485  29.806  21.366  1.00  0.00     0.178 C 
ATOM     18  O   UNL     1      14.938  30.155  20.110  1.00  0.00    -0.341 OA
ATOM     19  C   UNL     1      14.978  29.054  19.222  1.00  0.00     0.281 C 
ATOM     20  C   UNL     1      17.123  28.361  20.378  1.00  0.00     0.180 C 
ATOM     21  C   UNL     1      16.351  28.482  19.110  1.00  0.00     0.202 C 
BRANCH  17  22
ATOM     22  C   UNL     1      15.045  30.740  22.429  1.00  0.00     0.191 C 
BRANCH  22  23
ATOM     23  O   UNL     1      13.794  30.299  22.890  1.00  0.00    -0.394 OA
ATOM     24  H   UNL     1      13.193  30.057  22.139  1.00  0.00     0.210 HD
ENDBRANCH  22  23
ENDBRANCH  17  22
BRANCH  19  25
ATOM     25  O   UNL     1      14.614  29.574  18.001  1.00  0.00    -0.350 OA
BRANCH  25  26
ATOM     26  C   UNL     1      14.190  30.851  17.982  1.00  0.00     0.169 C 
BRANCH  26  27
ATOM     27  C   UNL     1      13.677  31.276  16.643  1.00  0.00     0.119 C 
BRANCH  27  28
ATOM     28  N   UNL     1      12.298  30.811  16.452  1.00  0.00    -0.092 NA
ATOM     29  N   UNL     1      12.138  29.737  15.886  1.00  0.00     0.001 N 
ATOM     30  N   UNL     1      11.771  28.822  15.119  1.00  0.00    -0.003 NA
ENDBRANCH  27  28
ENDBRANCH  26  27
ENDBRANCH  25  26
ENDBRANCH  19  25
BRANCH  20  31
ATOM     31  O   UNL     1      18.462  28.130  20.067  1.00  0.00    -0.387 OA
ATOM     32  H   UNL     1      19.025  28.553  20.751  1.00  0.00     0.211 HD
ENDBRANCH  20  31
BRANCH  21  33
ATOM     33  O   UNL     1      16.266  27.204  18.561  1.00  0.00    -0.385 OA
ATOM     34  H   UNL     1      17.148  26.788  18.509  1.00  0.00     0.211 HD
ENDBRANCH  21  33
ENDBRANCH  15  16
ENDBRANCH  10  15
BRANCH  12  35
ATOM     35  O   UNL     1      20.695  29.537  23.089  1.00  0.00    -0.385 OA
ATOM     36  H   UNL     1      20.276  29.995  23.856  1.00  0.00     0.211 HD
ENDBRANCH  12  35
BRANCH  13  37
ATOM     37  O   UNL     1      21.150  30.677  19.826  1.00  0.00    -0.387 OA
ATOM     38  H   UNL     1      20.621  29.840  19.623  1.00  0.00     0.211 HD
ENDBRANCH  13  37
BRANCH  14  39
ATOM     39  O   UNL     1      21.410  33.193  20.610  1.00  0.00    -0.387 OA
ATOM     40  H   UNL     1      21.228  33.021  19.649  1.00  0.00     0.211 HD
ENDBRANCH  14  39
ENDBRANCH   8   9
ENDBRANCH   7   8
ENDBRANCH   1   7
BRANCH   1  41
ATOM     41  C   UNL     1      18.888  34.269  16.712  1.00  0.00     0.364 C 
ATOM     42  O   UNL     1      19.828  35.032  16.451  1.00  0.00    -0.246 OA
BRANCH  41  43
ATOM     43  O   UNL     1      17.591  34.586  16.213  1.00  0.00    -0.477 OA
ATOM     44  H   UNL     1      16.803  34.408  16.798  1.00  0.00     0.296 HD
ENDBRANCH  41  43
ENDBRANCH   1  41
BRANCH   3  45
ATOM     45  O   UNL     1      18.927  30.426  18.130  1.00  0.00    -0.391 OA
ATOM     46  H   UNL     1      19.281  31.243  18.566  1.00  0.00     0.211 HD
ENDBRANCH   3  45
BRANCH   5  47
ATOM     47  C   UNL     1      20.641  31.051  14.913  1.00  0.00     0.176 C 
BRANCH  47  48
ATOM     48  O   UNL     1      20.213  29.718  14.740  1.00  0.00    -0.388 OA
ATOM     49  H   UNL     1      19.246  29.727  14.950  1.00  0.00     0.211 HD
ENDBRANCH  47  48
BRANCH  47  50
ATOM     50  C   UNL     1      21.796  31.093  15.809  1.00  0.00     0.165 C 
BRANCH  50  51
ATOM     51  O   UNL     1      22.756  32.079  15.515  1.00  0.00    -0.388 OA
ATOM     52  H   UNL     1      22.404  32.971  15.811  1.00  0.00     0.211 HD
ENDBRANCH  50  51
BRANCH  50  53
ATOM     53  C   UNL     1      22.496  29.822  16.100  1.00  0.00     0.154 C 
BRANCH  53  54
ATOM     54  N   UNL     1      22.164  29.225  17.341  1.00  0.00    -0.319 N 
ATOM     55  C   UNL     1      21.377  28.088  17.572  1.00  0.00     0.407 C 
ATOM     56  H   UNL     1      22.580  29.726  18.223  1.00  0.00     0.167 HD
ATOM     57  O   UNL     1      20.849  27.471  16.633  1.00  0.00    -0.225 OA
BRANCH  55  58
ATOM     58  O   UNL     1      21.194  27.652  18.907  1.00  0.00    -0.443 OA
BRANCH  58  59
ATOM     59  C   UNL     1      22.241  26.938  19.514  1.00  0.00     0.294 C 
BRANCH  59  60
ATOM     60  C   UNL     1      21.917  26.691  20.927  1.00  0.00     0.120 A 
ATOM     61  C   UNL     1      22.829  26.438  21.919  1.00  0.00     0.138 A 
ATOM     62  N   UNL     1      20.706  26.667  21.513  1.00  0.00    -0.132 NA
ATOM     63  N   UNL     1      22.151  26.271  23.057  1.00  0.00    -0.246 N 
ATOM     64  N   UNL     1      20.870  26.415  22.782  1.00  0.00    -0.066 NA
BRANCH  63  65
ATOM     65  C   UNL     1      22.787  25.986  24.329  1.00  0.00     0.065 C 
ATOM     66  C   UNL     1      22.730  27.215  25.179  1.00  0.00     0.034 C 
ATOM     67  C   UNL     1      22.136  24.781  24.977  1.00  0.00     0.034 C 
ATOM     68  C   UNL     1      24.247  25.636  24.102  1.00  0.00     0.034 C 
ATOM     69  C   UNL     1      23.351  26.954  26.528  1.00  0.00    -0.008 C 
ATOM     70  C   UNL     1      22.723  24.579  26.342  1.00  0.00    -0.008 C 
ATOM     71  C   UNL     1      24.858  25.345  25.453  1.00  0.00    -0.008 C 
ATOM     72  C   UNL     1      24.795  26.562  26.332  1.00  0.00     0.007 C 
ATOM     73  C   UNL     1      22.592  25.818  27.174  1.00  0.00     0.007 C 
ATOM     74  C   UNL     1      24.187  24.205  26.166  1.00  0.00     0.007 C 
ENDBRANCH  63  65
ENDBRANCH  59  60
ENDBRANCH  58  59
ENDBRANCH  55  58
ENDBRANCH  53  54
ENDBRANCH  50  53
ENDBRANCH  47  50
ENDBRANCH   5  47
BRANCH   4  75
ATOM     75  N   UNL     1      17.177  30.857  14.989  1.00  0.00    -0.348 N 
ATOM     76  C   UNL     1      16.366  29.782  14.534  1.00  0.00     0.217 C 
ATOM     77  H   UNL     1      16.935  31.834  14.687  1.00  0.00     0.163 HD
ATOM     78  C   UNL     1      15.184  30.044  13.635  1.00  0.00     0.114 C 
ATOM     79  O   UNL     1      16.661  28.623  14.899  1.00  0.00    -0.275 OA
ENDBRANCH   4  75
TORSDOF 30
