REMARK VINA RESULT:    -6.116      4.143      9.751
REMARK INTER + INTRA:         -23.622
REMARK INTER:                 -15.207
REMARK INTRA:                  -8.416
REMARK UNBOUND:                -7.494
REMARK SMILES CC(=O)N[C@@H]1[C@@H](O)C[C@](OC[C@H]2O[C@@H](O[C@H]3[C@H](O)[C@@H](O)[C@H](OCCN=[N+]=[N-])O[C@@H]3CO)[C@H](O)[C@@H](O)[C@H]2O)(C(=O)O)O[C@H]1C(O)[C@H](O)CNC(=O)OCc1cn(C(C)CC(=O)c2ccccc2)nn1
REMARK SMILES IDX 43 1 42 2 9 3 8 4 41 5 6 6 5 7 10 8 11 9 12 10 14 11 13 12
REMARK SMILES IDX 32 13 34 14 36 15 15 16 16 17 29 18 28 19 21 20 17 21 19 22
REMARK SMILES IDX 30 23 31 24 22 26 23 27 24 28 25 29 26 30 27 31 18 32 20 34
REMARK SMILES IDX 33 36 35 38 37 40 38 42 39 43 40 44 7 46 4 48 2 49 1 51 3 52
REMARK SMILES IDX 44 53 45 55 46 56 47 58 48 59 49 60 50 62 51 63 52 64 53 65
REMARK SMILES IDX 54 66 68 67 55 68 67 69 56 70 57 71 58 72 59 73 60 74 61 75
REMARK SMILES IDX 62 76 66 77 63 78 65 79 64 80
REMARK H PARENT 31 25 18 33 20 35 33 37 35 39 37 41 40 45 7 47 4 50 44 54
REMARK H PARENT 46 57 48 61
REMARK Flexibility Score: inf
ROOT
ATOM      1  C   UNL     1      17.046  30.784  23.438  1.00  0.00     0.176 C 
ENDROOT
BRANCH   1   2
ATOM      2  C   UNL     1      15.935  29.845  23.270  1.00  0.00     0.178 C 
ATOM      3  C   UNL     1      15.104  29.477  21.093  1.00  0.00     0.272 C 
ATOM      4  C   UNL     1      13.709  29.238  21.561  1.00  0.00     0.113 C 
ATOM      5  O   UNL     1      15.928  29.045  22.196  1.00  0.00    -0.332 OA
ATOM      6  C   UNL     1      13.553  29.558  23.035  1.00  0.00     0.145 C 
ATOM      7  C   UNL     1      14.570  30.536  23.489  1.00  0.00     0.142 C 
BRANCH   3   8
ATOM      8  O   UNL     1      15.533  30.651  20.733  1.00  0.00    -0.338 OA
BRANCH   8   9
ATOM      9  C   UNL     1      15.613  31.385  19.681  1.00  0.00     0.199 C 
BRANCH   9  10
ATOM     10  C   UNL     1      16.556  31.248  18.530  1.00  0.00     0.179 C 
ATOM     11  C   UNL     1      18.465  29.929  18.059  1.00  0.00     0.282 C 
ATOM     12  O   UNL     1      17.605  30.512  18.912  1.00  0.00    -0.341 OA
ATOM     13  C   UNL     1      17.751  29.120  17.029  1.00  0.00     0.202 C 
ATOM     14  C   UNL     1      16.561  29.776  16.493  1.00  0.00     0.179 C 
ATOM     15  C   UNL     1      15.982  30.953  17.202  1.00  0.00     0.177 C 
BRANCH  11  16
ATOM     16  O   UNL     1      19.282  29.097  18.871  1.00  0.00    -0.341 OA
BRANCH  16  17
ATOM     17  C   UNL     1      20.598  29.459  18.715  1.00  0.00     0.184 C 
ATOM     18  C   UNL     1      21.320  28.523  17.790  1.00  0.00     0.178 C 
ATOM     19  O   UNL     1      21.408  27.245  18.317  1.00  0.00    -0.341 OA
ATOM     20  C   UNL     1      21.953  27.119  19.557  1.00  0.00     0.281 C 
ATOM     21  C   UNL     1      21.280  29.426  20.098  1.00  0.00     0.180 C 
ATOM     22  C   UNL     1      21.413  28.035  20.601  1.00  0.00     0.202 C 
BRANCH  18  23
ATOM     23  C   UNL     1      22.679  29.065  17.397  1.00  0.00     0.191 C 
BRANCH  23  24
ATOM     24  O   UNL     1      22.639  30.412  17.058  1.00  0.00    -0.394 OA
ATOM     25  H   UNL     1      22.079  30.525  16.245  1.00  0.00     0.210 HD
ENDBRANCH  23  24
ENDBRANCH  18  23
BRANCH  20  26
ATOM     26  O   UNL     1      23.325  27.092  19.589  1.00  0.00    -0.350 OA
BRANCH  26  27
ATOM     27  C   UNL     1      23.912  26.151  18.789  1.00  0.00     0.169 C 
BRANCH  27  28
ATOM     28  C   UNL     1      24.662  25.105  19.569  1.00  0.00     0.119 C 
BRANCH  28  29
ATOM     29  N   UNL     1      25.717  25.760  20.321  1.00  0.00    -0.092 NA
ATOM     30  N   UNL     1      26.310  25.139  21.199  1.00  0.00     0.001 N 
ATOM     31  N   UNL     1      27.024  24.448  21.929  1.00  0.00    -0.003 NA
ENDBRANCH  28  29
ENDBRANCH  27  28
ENDBRANCH  26  27
ENDBRANCH  20  26
BRANCH  21  32
ATOM     32  O   UNL     1      22.480  30.125  20.071  1.00  0.00    -0.387 OA
ATOM     33  H   UNL     1      22.430  30.985  20.554  1.00  0.00     0.211 HD
ENDBRANCH  21  32
BRANCH  22  34
ATOM     34  O   UNL     1      20.235  27.568  21.186  1.00  0.00    -0.385 OA
ATOM     35  H   UNL     1      19.917  26.837  20.597  1.00  0.00     0.211 HD
ENDBRANCH  22  34
ENDBRANCH  16  17
ENDBRANCH  11  16
BRANCH  13  36
ATOM     36  O   UNL     1      18.633  28.836  15.945  1.00  0.00    -0.385 OA
ATOM     37  H   UNL     1      18.048  28.449  15.241  1.00  0.00     0.211 HD
ENDBRANCH  13  36
BRANCH  14  38
ATOM     38  O   UNL     1      15.555  28.780  16.327  1.00  0.00    -0.387 OA
ATOM     39  H   UNL     1      15.950  27.883  16.225  1.00  0.00     0.211 HD
ENDBRANCH  14  38
BRANCH  15  40
ATOM     40  O   UNL     1      14.606  30.852  17.147  1.00  0.00    -0.387 OA
ATOM     41  H   UNL     1      14.148  30.436  17.880  1.00  0.00     0.211 HD
ENDBRANCH  15  40
ENDBRANCH   9  10
ENDBRANCH   8   9
ENDBRANCH   3   8
BRANCH   3  42
ATOM     42  C   UNL     1      15.412  28.407  20.046  1.00  0.00     0.364 C 
ATOM     43  O   UNL     1      16.370  27.644  20.215  1.00  0.00    -0.246 OA
BRANCH  42  44
ATOM     44  O   UNL     1      14.634  28.282  18.917  1.00  0.00    -0.477 OA
ATOM     45  H   UNL     1      14.693  29.021  18.226  1.00  0.00     0.296 HD
ENDBRANCH  42  44
ENDBRANCH   3  42
BRANCH   6  46
ATOM     46  O   UNL     1      12.250  29.937  23.337  1.00  0.00    -0.391 OA
ATOM     47  H   UNL     1      11.857  29.227  23.945  1.00  0.00     0.211 HD
ENDBRANCH   6  46
BRANCH   7  48
ATOM     48  N   UNL     1      14.454  30.761  24.927  1.00  0.00    -0.348 N 
ATOM     49  C   UNL     1      14.282  32.050  25.500  1.00  0.00     0.217 C 
ATOM     50  H   UNL     1      14.498  29.945  25.563  1.00  0.00     0.163 HD
ATOM     51  C   UNL     1      14.169  32.271  26.943  1.00  0.00     0.114 C 
ATOM     52  O   UNL     1      14.227  33.063  24.720  1.00  0.00    -0.275 OA
ENDBRANCH   7  48
ENDBRANCH   1   2
BRANCH   1  53
ATOM     53  O   UNL     1      16.744  32.117  23.066  1.00  0.00    -0.388 OA
ATOM     54  H   UNL     1      17.005  32.687  23.853  1.00  0.00     0.211 HD
ENDBRANCH   1  53
BRANCH   1  55
ATOM     55  C   UNL     1      18.355  30.452  22.755  1.00  0.00     0.165 C 
BRANCH  55  56
ATOM     56  O   UNL     1      18.245  29.647  21.668  1.00  0.00    -0.388 OA
ATOM     57  H   UNL     1      18.442  28.714  21.919  1.00  0.00     0.211 HD
ENDBRANCH  55  56
BRANCH  55  58
ATOM     58  C   UNL     1      19.234  29.777  23.819  1.00  0.00     0.154 C 
BRANCH  58  59
ATOM     59  N   UNL     1      20.634  29.957  23.506  1.00  0.00    -0.319 N 
ATOM     60  C   UNL     1      21.465  30.994  23.985  1.00  0.00     0.407 C 
ATOM     61  H   UNL     1      21.128  29.261  22.864  1.00  0.00     0.167 HD
ATOM     62  O   UNL     1      21.032  31.842  24.790  1.00  0.00    -0.225 OA
BRANCH  60  63
ATOM     63  O   UNL     1      22.807  31.109  23.570  1.00  0.00    -0.443 OA
BRANCH  63  64
ATOM     64  C   UNL     1      23.567  29.897  23.373  1.00  0.00     0.294 C 
BRANCH  64  65
ATOM     65  C   UNL     1      23.855  29.430  24.779  1.00  0.00     0.120 A 
ATOM     66  C   UNL     1      23.567  28.125  25.223  1.00  0.00     0.138 A 
ATOM     67  N   UNL     1      24.338  30.061  25.832  1.00  0.00    -0.132 NA
ATOM     68  N   UNL     1      23.886  28.031  26.523  1.00  0.00    -0.249 N 
ATOM     69  N   UNL     1      24.350  29.205  26.874  1.00  0.00    -0.067 NA
BRANCH  68  70
ATOM     70  C   UNL     1      23.693  26.817  27.320  1.00  0.00     0.114 C 
ATOM     71  C   UNL     1      23.947  27.139  28.759  1.00  0.00     0.034 C 
BRANCH  70  72
ATOM     72  C   UNL     1      22.371  26.193  27.018  1.00  0.00     0.108 C 
BRANCH  72  73
ATOM     73  C   UNL     1      22.625  24.856  26.418  1.00  0.00     0.164 C 
ATOM     74  O   UNL     1      22.971  23.895  27.109  1.00  0.00    -0.294 OA
BRANCH  73  75
ATOM     75  C   UNL     1      22.445  24.723  24.964  1.00  0.00     0.018 A 
ATOM     76  C   UNL     1      23.477  24.583  24.111  1.00  0.00     0.012 A 
ATOM     77  C   UNL     1      21.124  24.743  24.487  1.00  0.00     0.012 A 
ATOM     78  C   UNL     1      23.243  24.451  22.731  1.00  0.00     0.001 A 
ATOM     79  C   UNL     1      20.918  24.615  23.144  1.00  0.00     0.001 A 
ATOM     80  C   UNL     1      21.952  24.469  22.258  1.00  0.00     0.000 A 
ENDBRANCH  73  75
ENDBRANCH  72  73
ENDBRANCH  70  72
ENDBRANCH  68  70
ENDBRANCH  64  65
ENDBRANCH  63  64
ENDBRANCH  60  63
ENDBRANCH  58  59
ENDBRANCH  55  58
ENDBRANCH   1  55
TORSDOF 33
