REMARK VINA RESULT:    -6.240     17.386     21.285
REMARK INTER + INTRA:         -20.574
REMARK INTER:                 -13.384
REMARK INTRA:                  -7.190
REMARK UNBOUND:                -5.215
REMARK SMILES CC(=O)N[C@@H]1[C@@H](O)C[C@](OC[C@H]2O[C@@H](O[C@H]3[C@H](O)[C@@H](O)[C@H](OCCN=[N+]=[N-])O[C@@H]3CO)[C@H](O)[C@@H](O)[C@H]2O)(C(=O)O)O[C@H]1C(O)[C@H](O)CNC(=O)OCc1cn(C2CCCC2)nn1
REMARK SMILES IDX 9 1 8 2 6 3 5 4 42 5 41 6 10 7 11 8 12 9 14 10 13 11 32 12
REMARK SMILES IDX 34 13 36 14 15 15 16 16 29 17 28 18 21 19 17 20 19 21 30 22
REMARK SMILES IDX 31 23 22 25 23 26 24 27 25 28 26 29 27 30 18 31 20 33 33 35
REMARK SMILES IDX 35 37 37 39 38 41 39 42 40 43 7 45 43 47 44 48 45 50 46 51
REMARK SMILES IDX 47 53 48 54 49 55 50 57 51 58 52 59 53 60 54 61 62 62 55 63
REMARK SMILES IDX 61 64 56 65 57 66 60 67 58 68 59 69 4 70 2 71 1 73 3 74
REMARK H PARENT 31 24 18 32 20 34 33 36 35 38 37 40 40 44 7 46 44 49 46 52
REMARK H PARENT 48 56 4 72
REMARK Flexibility Score: inf
ROOT
ATOM      1  C   UNL     1       2.710  23.455  32.202  1.00  0.00     0.272 C 
ATOM      2  C   UNL     1       1.890  22.915  33.314  1.00  0.00     0.113 C 
ATOM      3  C   UNL     1       2.510  21.779  34.049  1.00  0.00     0.145 C 
ATOM      4  C   UNL     1       3.017  20.710  33.050  1.00  0.00     0.142 C 
ATOM      5  C   UNL     1       2.685  21.187  31.679  1.00  0.00     0.178 C 
ATOM      6  O   UNL     1       3.420  22.416  31.558  1.00  0.00    -0.332 OA
ENDROOT
BRANCH   1   7
ATOM      7  O   UNL     1       3.606  24.388  32.582  1.00  0.00    -0.338 OA
BRANCH   7   8
ATOM      8  C   UNL     1       3.254  25.713  32.573  1.00  0.00     0.199 C 
BRANCH   8   9
ATOM      9  C   UNL     1       2.970  26.116  34.018  1.00  0.00     0.179 C 
ATOM     10  C   UNL     1       5.035  26.898  34.757  1.00  0.00     0.282 C 
ATOM     11  O   UNL     1       4.026  25.948  34.854  1.00  0.00    -0.341 OA
ATOM     12  C   UNL     1       4.550  28.256  34.387  1.00  0.00     0.202 C 
ATOM     13  C   UNL     1       3.111  28.509  34.713  1.00  0.00     0.179 C 
ATOM     14  C   UNL     1       2.290  27.432  34.048  1.00  0.00     0.177 C 
BRANCH  10  15
ATOM     15  O   UNL     1       6.094  26.447  33.971  1.00  0.00    -0.341 OA
BRANCH  15  16
ATOM     16  C   UNL     1       7.063  25.785  34.724  1.00  0.00     0.184 C 
ATOM     17  C   UNL     1       8.439  26.344  34.586  1.00  0.00     0.178 C 
ATOM     18  O   UNL     1       9.319  25.548  35.315  1.00  0.00    -0.341 OA
ATOM     19  C   UNL     1       9.570  24.374  34.628  1.00  0.00     0.281 C 
ATOM     20  C   UNL     1       7.108  24.362  34.182  1.00  0.00     0.180 C 
ATOM     21  C   UNL     1       8.280  23.575  34.671  1.00  0.00     0.202 C 
BRANCH  17  22
ATOM     22  C   UNL     1       8.592  27.742  35.174  1.00  0.00     0.191 C 
BRANCH  22  23
ATOM     23  O   UNL     1       8.113  28.617  34.185  1.00  0.00    -0.394 OA
ATOM     24  H   UNL     1       8.012  28.163  33.332  1.00  0.00     0.210 HD
ENDBRANCH  22  23
ENDBRANCH  17  22
BRANCH  19  25
ATOM     25  O   UNL     1      10.529  23.641  35.321  1.00  0.00    -0.350 OA
BRANCH  25  26
ATOM     26  C   UNL     1      11.114  24.445  36.314  1.00  0.00     0.169 C 
BRANCH  26  27
ATOM     27  C   UNL     1      11.417  23.622  37.554  1.00  0.00     0.119 C 
BRANCH  27  28
ATOM     28  N   UNL     1      10.493  22.534  37.690  1.00  0.00    -0.092 NA
ATOM     29  N   UNL     1       9.378  22.678  38.232  1.00  0.00     0.001 N 
ATOM     30  N   UNL     1       8.569  22.762  39.152  1.00  0.00    -0.003 NA
ENDBRANCH  27  28
ENDBRANCH  26  27
ENDBRANCH  25  26
ENDBRANCH  19  25
BRANCH  20  31
ATOM     31  O   UNL     1       5.942  23.742  34.625  1.00  0.00    -0.387 OA
ATOM     32  H   UNL     1       5.771  23.886  35.589  1.00  0.00     0.211 HD
ENDBRANCH  20  31
BRANCH  21  33
ATOM     33  O   UNL     1       8.456  22.479  33.811  1.00  0.00    -0.385 OA
ATOM     34  H   UNL     1       9.024  21.838  34.311  1.00  0.00     0.211 HD
ENDBRANCH  21  33
ENDBRANCH  15  16
ENDBRANCH  10  15
BRANCH  12  35
ATOM     35  O   UNL     1       5.281  29.262  35.062  1.00  0.00    -0.385 OA
ATOM     36  H   UNL     1       6.053  28.829  35.473  1.00  0.00     0.211 HD
ENDBRANCH  12  35
BRANCH  13  37
ATOM     37  O   UNL     1       2.730  29.733  34.195  1.00  0.00    -0.387 OA
ATOM     38  H   UNL     1       3.504  30.337  34.242  1.00  0.00     0.211 HD
ENDBRANCH  13  37
BRANCH  14  39
ATOM     39  O   UNL     1       1.891  27.896  32.801  1.00  0.00    -0.387 OA
ATOM     40  H   UNL     1       0.960  27.714  32.608  1.00  0.00     0.211 HD
ENDBRANCH  14  39
ENDBRANCH   8   9
ENDBRANCH   7   8
ENDBRANCH   1   7
BRANCH   1  41
ATOM     41  C   UNL     1       1.779  23.957  31.121  1.00  0.00     0.364 C 
ATOM     42  O   UNL     1       0.563  24.120  31.309  1.00  0.00    -0.246 OA
BRANCH  41  43
ATOM     43  O   UNL     1       2.375  24.229  29.887  1.00  0.00    -0.477 OA
ATOM     44  H   UNL     1       1.771  24.388  29.070  1.00  0.00     0.296 HD
ENDBRANCH  41  43
ENDBRANCH   1  41
BRANCH   3  45
ATOM     45  O   UNL     1       3.473  22.113  34.967  1.00  0.00    -0.391 OA
ATOM     46  H   UNL     1       3.516  23.090  35.076  1.00  0.00     0.211 HD
ENDBRANCH   3  45
BRANCH   5  47
ATOM     47  C   UNL     1       3.222  20.339  30.554  1.00  0.00     0.176 C 
BRANCH  47  48
ATOM     48  O   UNL     1       4.658  20.589  30.534  1.00  0.00    -0.388 OA
ATOM     49  H   UNL     1       4.851  20.788  31.478  1.00  0.00     0.211 HD
ENDBRANCH  47  48
BRANCH  47  50
ATOM     50  C   UNL     1       2.819  20.756  29.167  1.00  0.00     0.165 C 
BRANCH  50  51
ATOM     51  O   UNL     1       3.249  21.951  28.712  1.00  0.00    -0.388 OA
ATOM     52  H   UNL     1       3.787  21.927  27.890  1.00  0.00     0.211 HD
ENDBRANCH  50  51
BRANCH  50  53
ATOM     53  C   UNL     1       1.296  20.751  29.106  1.00  0.00     0.154 C 
BRANCH  53  54
ATOM     54  N   UNL     1       0.864  21.974  28.416  1.00  0.00    -0.319 N 
ATOM     55  C   UNL     1       0.314  21.919  27.110  1.00  0.00     0.407 C 
ATOM     56  H   UNL     1       0.951  22.919  28.870  1.00  0.00     0.167 HD
ATOM     57  O   UNL     1       0.198  20.802  26.542  1.00  0.00    -0.225 OA
BRANCH  55  58
ATOM     58  O   UNL     1      -0.095  23.056  26.450  1.00  0.00    -0.443 OA
BRANCH  58  59
ATOM     59  C   UNL     1       0.726  23.725  25.513  1.00  0.00     0.294 C 
BRANCH  59  60
ATOM     60  C   UNL     1       1.816  24.503  26.144  1.00  0.00     0.120 A 
ATOM     61  C   UNL     1       2.019  25.863  26.221  1.00  0.00     0.138 A 
ATOM     62  N   UNL     1       2.867  23.960  26.795  1.00  0.00    -0.132 NA
ATOM     63  N   UNL     1       3.149  26.096  26.893  1.00  0.00    -0.249 N 
ATOM     64  N   UNL     1       3.639  24.914  27.228  1.00  0.00    -0.067 NA
BRANCH  63  65
ATOM     65  C   UNL     1       3.763  27.377  27.221  1.00  0.00     0.109 C 
ATOM     66  C   UNL     1       5.167  27.241  27.708  1.00  0.00     0.027 C 
ATOM     67  C   UNL     1       3.879  28.190  25.949  1.00  0.00     0.027 C 
ATOM     68  C   UNL     1       6.082  27.406  26.521  1.00  0.00     0.002 C 
ATOM     69  C   UNL     1       5.235  27.904  25.378  1.00  0.00     0.002 C 
ENDBRANCH  63  65
ENDBRANCH  59  60
ENDBRANCH  58  59
ENDBRANCH  55  58
ENDBRANCH  53  54
ENDBRANCH  50  53
ENDBRANCH  47  50
ENDBRANCH   5  47
BRANCH   4  70
ATOM     70  N   UNL     1       2.475  19.429  33.438  1.00  0.00    -0.348 N 
ATOM     71  C   UNL     1       3.076  18.690  34.529  1.00  0.00     0.217 C 
ATOM     72  H   UNL     1       1.644  18.993  32.988  1.00  0.00     0.163 HD
ATOM     73  C   UNL     1       2.535  17.373  34.945  1.00  0.00     0.114 C 
ATOM     74  O   UNL     1       4.073  19.152  35.147  1.00  0.00    -0.275 OA
ENDBRANCH   4  70
TORSDOF 30
