REMARK VINA RESULT:    -6.650     17.555     22.914
REMARK INTER + INTRA:         -25.336
REMARK INTER:                 -18.480
REMARK INTRA:                  -6.856
REMARK UNBOUND:                -7.995
REMARK SMILES CC(=O)N[C@@H]1[C@@H](O)C[C@](OC[C@H]2O[C@@H](O[C@H]3[C@H](O)[C@@H](O)[C@H](OCCN=[N+]=[N-])O[C@@H]3CO)[C@H](O)[C@@H](O)[C@H]2O)(C(=O)O)O[C@H]1C(O)[C@H](O)CNC(=O)OCc1cn(-c2ccc(-c3c4ccc(=O)cc-4oc4cc(O)ccc34)c(C(=O)[O-])c2)nn1
REMARK SMILES IDX 9 1 8 2 6 3 5 4 42 5 41 6 10 7 11 8 12 9 14 10 13 11 32 12
REMARK SMILES IDX 34 13 36 14 15 15 16 16 29 17 28 18 21 19 17 20 19 21 30 22
REMARK SMILES IDX 31 23 22 25 23 26 24 27 25 28 26 29 27 30 18 31 20 33 33 35
REMARK SMILES IDX 35 37 37 39 38 41 39 42 40 43 7 45 43 47 44 48 45 50 46 51
REMARK SMILES IDX 47 53 48 54 49 55 50 57 51 58 52 59 53 60 54 61 82 62 55 63
REMARK SMILES IDX 81 64 56 65 80 66 57 67 76 68 58 69 59 70 77 71 78 72 79 73
REMARK SMILES IDX 60 74 75 75 61 76 74 77 69 78 67 79 62 80 73 81 70 82 68 83
REMARK SMILES IDX 66 84 63 85 71 86 64 87 65 88 72 89 4 91 2 92 1 94 3 95
REMARK H PARENT 31 24 18 32 20 34 33 36 35 38 37 40 40 44 7 46 44 49 46 52
REMARK H PARENT 48 56 72 90 4 93
REMARK Flexibility Score: inf
ROOT
ATOM      1  C   UNL     1       4.647  23.226  33.180  1.00  0.00     0.272 C 
ATOM      2  C   UNL     1       3.376  23.322  33.987  1.00  0.00     0.113 C 
ATOM      3  C   UNL     1       2.780  21.982  34.319  1.00  0.00     0.145 C 
ATOM      4  C   UNL     1       3.414  20.956  33.414  1.00  0.00     0.142 C 
ATOM      5  C   UNL     1       3.449  21.560  32.035  1.00  0.00     0.178 C 
ATOM      6  O   UNL     1       4.434  22.515  31.974  1.00  0.00    -0.332 OA
ENDROOT
BRANCH   1   7
ATOM      7  O   UNL     1       5.731  22.703  33.828  1.00  0.00    -0.338 OA
BRANCH   7   8
ATOM      8  C   UNL     1       6.916  22.926  33.222  1.00  0.00     0.199 C 
BRANCH   8   9
ATOM      9  C   UNL     1       8.021  23.256  34.237  1.00  0.00     0.179 C 
ATOM     10  C   UNL     1       9.764  24.720  34.606  1.00  0.00     0.282 C 
ATOM     11  O   UNL     1       9.002  24.016  33.715  1.00  0.00    -0.341 OA
ATOM     12  C   UNL     1       9.882  24.122  35.953  1.00  0.00     0.202 C 
ATOM     13  C   UNL     1       8.546  23.749  36.552  1.00  0.00     0.179 C 
ATOM     14  C   UNL     1       7.460  23.818  35.490  1.00  0.00     0.177 C 
BRANCH  10  15
ATOM     15  O   UNL     1       9.336  26.045  34.541  1.00  0.00    -0.341 OA
BRANCH  15  16
ATOM     16  C   UNL     1      10.327  26.952  34.732  1.00  0.00     0.184 C 
ATOM     17  C   UNL     1       9.913  28.087  35.616  1.00  0.00     0.178 C 
ATOM     18  O   UNL     1      11.044  28.741  36.126  1.00  0.00    -0.341 OA
ATOM     19  C   UNL     1      12.011  28.916  35.143  1.00  0.00     0.281 C 
ATOM     20  C   UNL     1      10.779  27.629  33.425  1.00  0.00     0.180 C 
ATOM     21  C   UNL     1      11.436  28.948  33.772  1.00  0.00     0.202 C 
BRANCH  17  22
ATOM     22  C   UNL     1       9.099  27.583  36.768  1.00  0.00     0.191 C 
BRANCH  22  23
ATOM     23  O   UNL     1       7.756  27.546  36.387  1.00  0.00    -0.394 OA
ATOM     24  H   UNL     1       7.711  27.032  35.551  1.00  0.00     0.210 HD
ENDBRANCH  22  23
ENDBRANCH  17  22
BRANCH  19  25
ATOM     25  O   UNL     1      13.018  27.982  35.258  1.00  0.00    -0.350 OA
BRANCH  25  26
ATOM     26  C   UNL     1      13.429  27.745  36.564  1.00  0.00     0.169 C 
BRANCH  26  27
ATOM     27  C   UNL     1      14.362  26.548  36.508  1.00  0.00     0.119 C 
BRANCH  27  28
ATOM     28  N   UNL     1      14.300  25.763  37.712  1.00  0.00    -0.092 NA
ATOM     29  N   UNL     1      13.298  25.065  37.915  1.00  0.00     0.001 N 
ATOM     30  N   UNL     1      12.540  24.133  38.188  1.00  0.00    -0.003 NA
ENDBRANCH  27  28
ENDBRANCH  26  27
ENDBRANCH  25  26
ENDBRANCH  19  25
BRANCH  20  31
ATOM     31  O   UNL     1      11.757  26.804  32.877  1.00  0.00    -0.387 OA
ATOM     32  H   UNL     1      12.660  27.188  32.900  1.00  0.00     0.211 HD
ENDBRANCH  20  31
BRANCH  21  33
ATOM     33  O   UNL     1      10.599  30.045  33.563  1.00  0.00    -0.385 OA
ATOM     34  H   UNL     1      11.156  30.705  33.045  1.00  0.00     0.211 HD
ENDBRANCH  21  33
ENDBRANCH  15  16
ENDBRANCH  10  15
BRANCH  12  35
ATOM     35  O   UNL     1      10.714  22.974  35.915  1.00  0.00    -0.385 OA
ATOM     36  H   UNL     1      11.624  23.236  36.247  1.00  0.00     0.211 HD
ENDBRANCH  12  35
BRANCH  13  37
ATOM     37  O   UNL     1       8.244  24.494  37.679  1.00  0.00    -0.387 OA
ATOM     38  H   UNL     1       7.290  24.357  37.885  1.00  0.00     0.211 HD
ENDBRANCH  13  37
BRANCH  14  39
ATOM     39  O   UNL     1       7.041  25.139  35.400  1.00  0.00    -0.387 OA
ATOM     40  H   UNL     1       7.257  25.425  34.464  1.00  0.00     0.211 HD
ENDBRANCH  14  39
ENDBRANCH   8   9
ENDBRANCH   7   8
ENDBRANCH   1   7
BRANCH   1  41
ATOM     41  C   UNL     1       4.893  24.639  32.687  1.00  0.00     0.364 C 
ATOM     42  O   UNL     1       4.947  25.630  33.437  1.00  0.00    -0.246 OA
BRANCH  41  43
ATOM     43  O   UNL     1       5.071  24.877  31.327  1.00  0.00    -0.477 OA
ATOM     44  H   UNL     1       5.162  25.817  30.970  1.00  0.00     0.296 HD
ENDBRANCH  41  43
ENDBRANCH   1  41
BRANCH   3  45
ATOM     45  O   UNL     1       2.942  21.729  35.667  1.00  0.00    -0.391 OA
ATOM     46  H   UNL     1       2.087  21.944  36.116  1.00  0.00     0.211 HD
ENDBRANCH   3  45
BRANCH   5  47
ATOM     47  C   UNL     1       3.821  20.500  30.993  1.00  0.00     0.176 C 
BRANCH  47  48
ATOM     48  O   UNL     1       5.203  20.638  30.718  1.00  0.00    -0.388 OA
ATOM     49  H   UNL     1       5.411  21.458  30.243  1.00  0.00     0.211 HD
ENDBRANCH  47  48
BRANCH  47  50
ATOM     50  C   UNL     1       3.121  20.754  29.699  1.00  0.00     0.165 C 
BRANCH  50  51
ATOM     51  O   UNL     1       3.365  22.061  29.273  1.00  0.00    -0.388 OA
ATOM     52  H   UNL     1       4.335  22.158  29.094  1.00  0.00     0.211 HD
ENDBRANCH  50  51
BRANCH  50  53
ATOM     53  C   UNL     1       1.665  20.447  29.681  1.00  0.00     0.154 C 
BRANCH  53  54
ATOM     54  N   UNL     1       1.017  20.938  28.486  1.00  0.00    -0.319 N 
ATOM     55  C   UNL     1       0.151  22.056  28.448  1.00  0.00     0.407 C 
ATOM     56  H   UNL     1       1.167  20.465  27.543  1.00  0.00     0.167 HD
ATOM     57  O   UNL     1      -0.095  22.689  29.493  1.00  0.00    -0.225 OA
BRANCH  55  58
ATOM     58  O   UNL     1      -0.456  22.498  27.280  1.00  0.00    -0.443 OA
BRANCH  58  59
ATOM     59  C   UNL     1       0.216  22.480  26.015  1.00  0.00     0.294 C 
BRANCH  59  60
ATOM     60  C   UNL     1       1.511  23.174  26.233  1.00  0.00     0.121 A 
ATOM     61  C   UNL     1       1.723  24.523  26.293  1.00  0.00     0.144 A 
ATOM     62  N   UNL     1       2.733  22.597  26.416  1.00  0.00    -0.131 NA
ATOM     63  N   UNL     1       3.036  24.755  26.505  1.00  0.00    -0.220 N 
ATOM     64  N   UNL     1       3.620  23.561  26.575  1.00  0.00    -0.062 NA
BRANCH  63  65
ATOM     65  C   UNL     1       3.644  26.032  26.628  1.00  0.00     0.067 A 
ATOM     66  C   UNL     1       3.017  27.183  26.213  1.00  0.00     0.039 A 
ATOM     67  C   UNL     1       4.895  26.116  27.185  1.00  0.00     0.029 A 
ATOM     68  C   UNL     1       3.647  28.396  26.359  1.00  0.00     0.007 A 
ATOM     69  C   UNL     1       5.524  27.335  27.331  1.00  0.00     0.012 A 
ATOM     70  C   UNL     1       4.917  28.499  26.922  1.00  0.00    -0.008 A 
BRANCH  68  71
ATOM     71  C   UNL     1       3.008  29.642  25.928  1.00  0.00     0.072 C 
ATOM     72  O   UNL     1       2.328  30.347  26.712  1.00  0.00    -0.545 OA
ATOM     73  O   UNL     1       3.155  30.056  24.627  1.00  0.00    -0.545 OA
ENDBRANCH  68  71
BRANCH  70  74
ATOM     74  C   UNL     1       5.569  29.787  27.074  1.00  0.00     0.004 A 
ATOM     75  C   UNL     1       6.345  30.263  26.047  1.00  0.00     0.026 A 
ATOM     76  C   UNL     1       5.438  30.543  28.211  1.00  0.00     0.026 A 
ATOM     77  C   UNL     1       6.533  29.574  24.872  1.00  0.00     0.016 A 
ATOM     78  C   UNL     1       6.966  31.497  26.209  1.00  0.00     0.139 A 
ATOM     79  C   UNL     1       6.118  31.850  28.336  1.00  0.00     0.139 A 
ATOM     80  C   UNL     1       4.679  30.133  29.277  1.00  0.00     0.016 A 
ATOM     81  C   UNL     1       7.317  30.064  23.843  1.00  0.00     0.047 A 
ATOM     82  C   UNL     1       7.743  31.976  25.183  1.00  0.00     0.093 A 
ATOM     83  O   UNL     1       6.835  32.218  27.306  1.00  0.00    -0.456 OA
ATOM     84  C   UNL     1       5.984  32.603  29.475  1.00  0.00     0.099 A 
ATOM     85  C   UNL     1       4.554  30.903  30.420  1.00  0.00     0.053 A 
ATOM     86  C   UNL     1       7.936  31.285  23.995  1.00  0.00     0.119 A 
ATOM     87  C   UNL     1       5.205  32.120  30.500  1.00  0.00     0.182 A 
ATOM     88  O   UNL     1       5.051  32.775  31.566  1.00  0.00    -0.290 OA
BRANCH  86  89
ATOM     89  O   UNL     1       8.720  31.769  22.959  1.00  0.00    -0.508 OA
ATOM     90  H   UNL     1       8.667  32.768  22.777  1.00  0.00     0.293 HD
ENDBRANCH  86  89
ENDBRANCH  70  74
ENDBRANCH  63  65
ENDBRANCH  59  60
ENDBRANCH  58  59
ENDBRANCH  55  58
ENDBRANCH  53  54
ENDBRANCH  50  53
ENDBRANCH  47  50
ENDBRANCH   5  47
BRANCH   4  91
ATOM     91  N   UNL     1       2.717  19.689  33.437  1.00  0.00    -0.348 N 
ATOM     92  C   UNL     1       3.080  18.736  34.409  1.00  0.00     0.217 C 
ATOM     93  H   UNL     1       1.956  19.442  32.767  1.00  0.00     0.163 HD
ATOM     94  C   UNL     1       2.435  17.405  34.524  1.00  0.00     0.114 C 
ATOM     95  O   UNL     1       4.006  18.976  35.259  1.00  0.00    -0.275 OA
ENDBRANCH   4  91
TORSDOF 33
