REMARK VINA RESULT:    -5.727     14.955     19.024
REMARK INTER + INTRA:         -21.696
REMARK INTER:                 -13.044
REMARK INTRA:                  -8.652
REMARK UNBOUND:                -7.600
REMARK SMILES CC(=O)N[C@@H]1[C@@H](O)C[C@](OC[C@H]2O[C@@H](O[C@H]3[C@H](O)[C@@H](O)[C@H](OCCN=[N+]=[N-])O[C@@H]3CO)[C@H](O)[C@@H](O)[C@H]2O)(C(=O)O)O[C@H]1C(O)[C@H](O)CNC(=O)OCc1cn(-c2ccc(Cl)cc2)nn1
REMARK SMILES IDX 9 1 8 2 6 3 5 4 42 5 41 6 10 7 11 8 12 9 14 10 13 11 32 12
REMARK SMILES IDX 34 13 36 14 15 15 16 16 29 17 28 18 21 19 17 20 19 21 30 22
REMARK SMILES IDX 31 23 22 25 23 26 24 27 25 28 26 29 27 30 18 31 20 33 33 35
REMARK SMILES IDX 35 37 37 39 38 41 39 42 40 43 7 45 43 47 44 48 45 50 46 51
REMARK SMILES IDX 47 53 48 54 49 55 50 57 51 58 52 59 53 60 54 61 64 62 55 63
REMARK SMILES IDX 63 64 56 65 57 66 62 67 58 68 61 69 59 70 60 71 4 72 2 73
REMARK SMILES IDX 1 75 3 76
REMARK H PARENT 31 24 18 32 20 34 33 36 35 38 37 40 40 44 7 46 44 49 46 52
REMARK H PARENT 48 56 4 74
REMARK Flexibility Score: inf
ROOT
ATOM      1  C   UNL     1       5.910  26.221  35.000  1.00  0.00     0.272 C 
ATOM      2  C   UNL     1       5.075  26.782  36.076  1.00  0.00     0.113 C 
ATOM      3  C   UNL     1       4.090  25.926  36.761  1.00  0.00     0.145 C 
ATOM      4  C   UNL     1       4.256  24.484  36.330  1.00  0.00     0.142 C 
ATOM      5  C   UNL     1       4.378  24.551  34.792  1.00  0.00     0.178 C 
ATOM      6  O   UNL     1       5.756  24.902  34.662  1.00  0.00    -0.332 OA
ENDROOT
BRANCH   1   7
ATOM      7  O   UNL     1       7.267  26.433  35.372  1.00  0.00    -0.338 OA
BRANCH   7   8
ATOM      8  C   UNL     1       7.469  27.606  36.046  1.00  0.00     0.199 C 
BRANCH   8   9
ATOM      9  C   UNL     1       8.945  27.991  36.088  1.00  0.00     0.179 C 
ATOM     10  C   UNL     1      10.843  26.859  35.280  1.00  0.00     0.282 C 
ATOM     11  O   UNL     1       9.758  26.905  36.156  1.00  0.00    -0.341 OA
ATOM     12  C   UNL     1      10.324  26.908  33.904  1.00  0.00     0.202 C 
ATOM     13  C   UNL     1       9.575  28.216  33.691  1.00  0.00     0.179 C 
ATOM     14  C   UNL     1       9.303  28.943  34.969  1.00  0.00     0.177 C 
BRANCH  10  15
ATOM     15  O   UNL     1      11.518  25.703  35.666  1.00  0.00    -0.341 OA
BRANCH  15  16
ATOM     16  C   UNL     1      10.877  24.849  36.457  1.00  0.00     0.184 C 
ATOM     17  C   UNL     1      11.705  24.292  37.559  1.00  0.00     0.178 C 
ATOM     18  O   UNL     1      10.915  23.666  38.517  1.00  0.00    -0.341 OA
ATOM     19  C   UNL     1      10.158  22.631  38.071  1.00  0.00     0.281 C 
ATOM     20  C   UNL     1      10.282  23.624  35.731  1.00  0.00     0.180 C 
ATOM     21  C   UNL     1      10.284  22.423  36.606  1.00  0.00     0.202 C 
BRANCH  17  22
ATOM     22  C   UNL     1      12.638  25.236  38.251  1.00  0.00     0.191 C 
BRANCH  22  23
ATOM     23  O   UNL     1      12.063  26.488  38.463  1.00  0.00    -0.394 OA
ATOM     24  H   UNL     1      11.745  26.544  39.395  1.00  0.00     0.210 HD
ENDBRANCH  22  23
ENDBRANCH  17  22
BRANCH  19  25
ATOM     25  O   UNL     1       8.807  22.861  38.356  1.00  0.00    -0.350 OA
BRANCH  25  26
ATOM     26  C   UNL     1       8.641  23.928  39.225  1.00  0.00     0.169 C 
BRANCH  26  27
ATOM     27  C   UNL     1       7.707  24.984  38.718  1.00  0.00     0.119 C 
BRANCH  27  28
ATOM     28  N   UNL     1       6.484  24.887  39.511  1.00  0.00    -0.092 NA
ATOM     29  N   UNL     1       6.633  25.021  40.739  1.00  0.00     0.001 N 
ATOM     30  N   UNL     1       6.683  25.493  41.895  1.00  0.00    -0.003 NA
ENDBRANCH  27  28
ENDBRANCH  26  27
ENDBRANCH  25  26
ENDBRANCH  19  25
BRANCH  20  31
ATOM     31  O   UNL     1       8.980  23.959  35.401  1.00  0.00    -0.387 OA
ATOM     32  H   UNL     1       8.484  23.086  35.291  1.00  0.00     0.211 HD
ENDBRANCH  20  31
BRANCH  21  33
ATOM     33  O   UNL     1      11.375  21.568  36.345  1.00  0.00    -0.385 OA
ATOM     34  H   UNL     1      11.617  21.740  35.408  1.00  0.00     0.211 HD
ENDBRANCH  21  33
ENDBRANCH  15  16
ENDBRANCH  10  15
BRANCH  12  35
ATOM     35  O   UNL     1      11.283  26.797  32.895  1.00  0.00    -0.385 OA
ATOM     36  H   UNL     1      10.898  27.051  31.996  1.00  0.00     0.211 HD
ENDBRANCH  12  35
BRANCH  13  37
ATOM     37  O   UNL     1       8.427  27.941  32.951  1.00  0.00    -0.387 OA
ATOM     38  H   UNL     1       8.579  27.780  32.006  1.00  0.00     0.211 HD
ENDBRANCH  13  37
BRANCH  14  39
ATOM     39  O   UNL     1       8.163  29.769  34.810  1.00  0.00    -0.387 OA
ATOM     40  H   UNL     1       8.460  30.683  34.962  1.00  0.00     0.211 HD
ENDBRANCH  14  39
ENDBRANCH   8   9
ENDBRANCH   7   8
ENDBRANCH   1   7
BRANCH   1  41
ATOM     41  C   UNL     1       5.715  27.052  33.758  1.00  0.00     0.364 C 
ATOM     42  O   UNL     1       5.442  28.272  33.815  1.00  0.00    -0.246 OA
BRANCH  41  43
ATOM     43  O   UNL     1       5.839  26.457  32.527  1.00  0.00    -0.477 OA
ATOM     44  H   UNL     1       6.407  25.631  32.352  1.00  0.00     0.296 HD
ENDBRANCH  41  43
ENDBRANCH   1  41
BRANCH   3  45
ATOM     45  O   UNL     1       4.269  25.953  38.144  1.00  0.00    -0.391 OA
ATOM     46  H   UNL     1       4.429  26.878  38.410  1.00  0.00     0.211 HD
ENDBRANCH   3  45
BRANCH   5  47
ATOM     47  C   UNL     1       4.165  23.236  34.132  1.00  0.00     0.176 C 
BRANCH  47  48
ATOM     48  O   UNL     1       2.916  23.260  33.527  1.00  0.00    -0.388 OA
ATOM     49  H   UNL     1       2.462  22.383  33.491  1.00  0.00     0.211 HD
ENDBRANCH  47  48
BRANCH  47  50
ATOM     50  C   UNL     1       5.192  22.695  33.231  1.00  0.00     0.165 C 
BRANCH  50  51
ATOM     51  O   UNL     1       5.339  23.695  32.200  1.00  0.00    -0.388 OA
ATOM     52  H   UNL     1       5.012  23.337  31.341  1.00  0.00     0.211 HD
ENDBRANCH  50  51
BRANCH  50  53
ATOM     53  C   UNL     1       4.723  21.489  32.432  1.00  0.00     0.154 C 
BRANCH  53  54
ATOM     54  N   UNL     1       4.242  21.803  31.115  1.00  0.00    -0.319 N 
ATOM     55  C   UNL     1       2.872  21.588  30.818  1.00  0.00     0.407 C 
ATOM     56  H   UNL     1       4.854  22.182  30.354  1.00  0.00     0.167 HD
ATOM     57  O   UNL     1       2.066  21.114  31.676  1.00  0.00    -0.225 OA
BRANCH  55  58
ATOM     58  O   UNL     1       2.361  21.893  29.571  1.00  0.00    -0.443 OA
BRANCH  58  59
ATOM     59  C   UNL     1       1.665  23.115  29.312  1.00  0.00     0.294 C 
BRANCH  59  60
ATOM     60  C   UNL     1       2.550  24.282  29.597  1.00  0.00     0.121 A 
ATOM     61  C   UNL     1       3.060  25.150  28.642  1.00  0.00     0.144 A 
ATOM     62  N   UNL     1       3.006  24.701  30.784  1.00  0.00    -0.131 NA
ATOM     63  N   UNL     1       3.806  26.064  29.276  1.00  0.00    -0.220 N 
ATOM     64  N   UNL     1       3.757  25.773  30.545  1.00  0.00    -0.062 NA
BRANCH  63  65
ATOM     65  C   UNL     1       4.484  27.117  28.589  1.00  0.00     0.066 A 
ATOM     66  C   UNL     1       5.083  26.904  27.372  1.00  0.00     0.030 A 
ATOM     67  C   UNL     1       4.551  28.369  29.134  1.00  0.00     0.030 A 
ATOM     68  C   UNL     1       5.753  27.913  26.675  1.00  0.00     0.023 A 
ATOM     69  C   UNL     1       5.211  29.390  28.464  1.00  0.00     0.023 A 
ATOM     70  C   UNL     1       5.816  29.164  27.227  1.00  0.00     0.041 A 
ATOM     71  Cl  UNL     1       6.653  30.472  26.386  1.00  0.00    -0.084 Cl
ENDBRANCH  63  65
ENDBRANCH  59  60
ENDBRANCH  58  59
ENDBRANCH  55  58
ENDBRANCH  53  54
ENDBRANCH  50  53
ENDBRANCH  47  50
ENDBRANCH   5  47
BRANCH   4  72
ATOM     72  N   UNL     1       3.202  23.672  36.807  1.00  0.00    -0.348 N 
ATOM     73  C   UNL     1       3.494  22.568  37.683  1.00  0.00     0.217 C 
ATOM     74  H   UNL     1       2.201  23.808  36.589  1.00  0.00     0.163 HD
ATOM     75  C   UNL     1       2.406  21.692  38.205  1.00  0.00     0.114 C 
ATOM     76  O   UNL     1       4.693  22.360  38.000  1.00  0.00    -0.275 OA
ENDBRANCH   4  72
TORSDOF 30
