REMARK VINA RESULT:    -5.722      3.339      6.211
REMARK INTER + INTRA:         -20.513
REMARK INTER:                 -15.422
REMARK INTRA:                  -5.091
REMARK UNBOUND:                -5.091
REMARK SMILES C=CCCCCn1cc(COC(=O)NC[C@@H](O)C(O)[C@@H]2O[C@@](OC[C@H]3O[C@@H](O[C@H]4[C@H](O)[C@@H](O)[C@H](OCCN=[N+]=[N-])O[C@@H]4CO)[C@H](O)[C@@H](O)[C@H]3O)(C(=O)O)C[C@H](O)[C@H]2NC(C)=O)nn1
REMARK SMILES IDX 18 1 20 2 22 3 54 4 21 5 55 6 57 7 23 8 24 9 25 10 27 11
REMARK SMILES IDX 26 12 45 13 47 14 49 15 28 16 29 17 42 18 41 19 34 20 30 21
REMARK SMILES IDX 32 22 43 23 44 24 35 26 36 27 37 28 38 29 39 30 40 31 31 32
REMARK SMILES IDX 33 34 46 36 48 38 50 40 51 42 52 43 53 44 56 46 58 48 59 49
REMARK SMILES IDX 60 51 61 52 19 53 16 55 17 56 15 58 14 59 12 60 13 62 11 63
REMARK SMILES IDX 10 64 9 65 8 66 62 67 7 68 63 69 6 70 5 71 4 72 3 73 2 74
REMARK SMILES IDX 1 75
REMARK H PARENT 44 25 31 33 33 35 46 37 48 39 50 41 53 45 56 47 58 50 19 54
REMARK H PARENT 17 57 14 61
REMARK Flexibility Score: inf
ROOT
ATOM      1  C   UNL     1      16.209  31.314  24.886  1.00  0.00     0.176 C 
ENDROOT
BRANCH   1   2
ATOM      2  C   UNL     1      14.682  31.302  24.759  1.00  0.00     0.178 C 
ATOM      3  C   UNL     1      13.011  31.130  23.189  1.00  0.00     0.272 C 
ATOM      4  C   UNL     1      12.218  32.145  23.902  1.00  0.00     0.113 C 
ATOM      5  O   UNL     1      14.400  31.442  23.447  1.00  0.00    -0.332 OA
ATOM      6  C   UNL     1      12.467  32.256  25.343  1.00  0.00     0.145 C 
ATOM      7  C   UNL     1      13.905  32.002  25.767  1.00  0.00     0.142 C 
BRANCH   3   8
ATOM      8  O   UNL     1      13.001  31.274  21.810  1.00  0.00    -0.338 OA
BRANCH   8   9
ATOM      9  C   UNL     1      14.068  31.597  21.106  1.00  0.00     0.199 C 
BRANCH   9  10
ATOM     10  C   UNL     1      14.605  30.713  20.047  1.00  0.00     0.179 C 
ATOM     11  C   UNL     1      16.512  30.485  18.706  1.00  0.00     0.282 C 
ATOM     12  O   UNL     1      15.686  31.340  19.381  1.00  0.00    -0.341 OA
ATOM     13  C   UNL     1      15.933  29.150  18.445  1.00  0.00     0.202 C 
ATOM     14  C   UNL     1      15.384  28.455  19.661  1.00  0.00     0.179 C 
ATOM     15  C   UNL     1      15.175  29.478  20.735  1.00  0.00     0.177 C 
BRANCH  11  16
ATOM     16  O   UNL     1      17.751  30.552  19.286  1.00  0.00    -0.341 OA
BRANCH  16  17
ATOM     17  C   UNL     1      18.794  30.915  18.487  1.00  0.00     0.184 C 
ATOM     18  C   UNL     1      18.575  30.347  17.104  1.00  0.00     0.178 C 
ATOM     19  O   UNL     1      19.782  29.887  16.552  1.00  0.00    -0.341 OA
ATOM     20  C   UNL     1      20.066  28.664  17.153  1.00  0.00     0.281 C 
ATOM     21  C   UNL     1      20.121  30.296  18.981  1.00  0.00     0.180 C 
ATOM     22  C   UNL     1      20.157  28.823  18.641  1.00  0.00     0.202 C 
BRANCH  18  23
ATOM     23  C   UNL     1      17.898  31.326  16.161  1.00  0.00     0.191 C 
BRANCH  23  24
ATOM     24  O   UNL     1      18.070  30.942  14.842  1.00  0.00    -0.394 OA
ATOM     25  H   UNL     1      18.942  31.274  14.524  1.00  0.00     0.210 HD
ENDBRANCH  23  24
ENDBRANCH  18  23
BRANCH  20  26
ATOM     26  O   UNL     1      21.287  28.237  16.629  1.00  0.00    -0.350 OA
BRANCH  26  27
ATOM     27  C   UNL     1      22.087  27.583  17.549  1.00  0.00     0.169 C 
BRANCH  27  28
ATOM     28  C   UNL     1      22.769  26.438  16.822  1.00  0.00     0.119 C 
BRANCH  28  29
ATOM     29  N   UNL     1      23.568  25.638  17.711  1.00  0.00    -0.092 NA
ATOM     30  N   UNL     1      23.060  24.960  18.596  1.00  0.00     0.001 N 
ATOM     31  N   UNL     1      22.420  24.193  19.316  1.00  0.00    -0.003 NA
ENDBRANCH  28  29
ENDBRANCH  27  28
ENDBRANCH  26  27
ENDBRANCH  20  26
BRANCH  21  32
ATOM     32  O   UNL     1      21.126  30.918  18.243  1.00  0.00    -0.387 OA
ATOM     33  H   UNL     1      20.944  31.854  18.026  1.00  0.00     0.211 HD
ENDBRANCH  21  32
BRANCH  22  34
ATOM     34  O   UNL     1      19.164  28.137  19.335  1.00  0.00    -0.385 OA
ATOM     35  H   UNL     1      18.819  28.753  20.037  1.00  0.00     0.211 HD
ENDBRANCH  22  34
ENDBRANCH  16  17
ENDBRANCH  11  16
BRANCH  13  36
ATOM     36  O   UNL     1      14.879  29.315  17.536  1.00  0.00    -0.385 OA
ATOM     37  H   UNL     1      15.190  29.507  16.633  1.00  0.00     0.211 HD
ENDBRANCH  13  36
BRANCH  14  38
ATOM     38  O   UNL     1      16.212  27.418  20.097  1.00  0.00    -0.387 OA
ATOM     39  H   UNL     1      15.646  26.780  20.576  1.00  0.00     0.211 HD
ENDBRANCH  14  38
BRANCH  15  40
ATOM     40  O   UNL     1      16.363  29.793  21.407  1.00  0.00    -0.387 OA
ATOM     41  H   UNL     1      16.214  30.209  22.276  1.00  0.00     0.211 HD
ENDBRANCH  15  40
ENDBRANCH   9  10
ENDBRANCH   8   9
ENDBRANCH   3   8
BRANCH   3  42
ATOM     42  C   UNL     1      12.830  29.789  23.728  1.00  0.00     0.364 C 
ATOM     43  O   UNL     1      11.712  29.398  24.128  1.00  0.00    -0.246 OA
BRANCH  42  44
ATOM     44  O   UNL     1      13.857  28.899  23.833  1.00  0.00    -0.477 OA
ATOM     45  H   UNL     1      14.704  28.990  23.300  1.00  0.00     0.296 HD
ENDBRANCH  42  44
ENDBRANCH   3  42
BRANCH   6  46
ATOM     46  O   UNL     1      12.063  33.544  25.775  1.00  0.00    -0.391 OA
ATOM     47  H   UNL     1      11.903  34.153  25.012  1.00  0.00     0.211 HD
ENDBRANCH   6  46
BRANCH   7  48
ATOM     48  N   UNL     1      13.896  31.224  27.020  1.00  0.00    -0.348 N 
ATOM     49  C   UNL     1      13.721  31.812  28.295  1.00  0.00     0.217 C 
ATOM     50  H   UNL     1      14.025  30.176  27.022  1.00  0.00     0.163 HD
ATOM     51  C   UNL     1      13.732  30.962  29.543  1.00  0.00     0.114 C 
ATOM     52  O   UNL     1      13.558  33.055  28.371  1.00  0.00    -0.275 OA
ENDBRANCH   7  48
ENDBRANCH   1   2
BRANCH   1  53
ATOM     53  O   UNL     1      16.616  30.108  24.105  1.00  0.00    -0.388 OA
ATOM     54  H   UNL     1      15.879  29.477  24.386  1.00  0.00     0.211 HD
ENDBRANCH   1  53
BRANCH   1  55
ATOM     55  C   UNL     1      16.898  32.366  24.141  1.00  0.00     0.165 C 
BRANCH  55  56
ATOM     56  O   UNL     1      16.127  33.516  23.856  1.00  0.00    -0.388 OA
ATOM     57  H   UNL     1      15.971  33.942  24.734  1.00  0.00     0.211 HD
ENDBRANCH  55  56
BRANCH  55  58
ATOM     58  C   UNL     1      17.711  32.020  22.966  1.00  0.00     0.154 C 
BRANCH  58  59
ATOM     59  N   UNL     1      18.969  31.434  23.228  1.00  0.00    -0.319 N 
ATOM     60  C   UNL     1      19.540  30.227  22.807  1.00  0.00     0.407 C 
ATOM     61  H   UNL     1      19.619  32.021  23.875  1.00  0.00     0.167 HD
ATOM     62  O   UNL     1      18.920  29.444  22.069  1.00  0.00    -0.225 OA
BRANCH  60  63
ATOM     63  O   UNL     1      20.833  29.856  23.199  1.00  0.00    -0.443 OA
BRANCH  63  64
ATOM     64  C   UNL     1      21.634  29.129  22.266  1.00  0.00     0.294 C 
BRANCH  64  65
ATOM     65  C   UNL     1      21.406  27.668  22.405  1.00  0.00     0.120 A 
ATOM     66  C   UNL     1      21.818  26.902  23.494  1.00  0.00     0.138 A 
ATOM     67  N   UNL     1      20.796  26.816  21.568  1.00  0.00    -0.132 NA
ATOM     68  N   UNL     1      21.440  25.641  23.262  1.00  0.00    -0.252 N 
ATOM     69  N   UNL     1      20.829  25.593  22.107  1.00  0.00    -0.067 NA
BRANCH  68  70
ATOM     70  C   UNL     1      21.699  24.533  24.192  1.00  0.00     0.146 C 
BRANCH  70  71
ATOM     71  C   UNL     1      21.857  25.092  25.581  1.00  0.00     0.024 C 
BRANCH  71  72
ATOM     72  C   UNL     1      23.067  24.444  26.219  1.00  0.00     0.006 C 
BRANCH  72  73
ATOM     73  C   UNL     1      22.938  24.489  27.725  1.00  0.00     0.027 C 
BRANCH  73  74
ATOM     74  C   UNL     1      22.342  25.766  28.177  1.00  0.00    -0.035 C 
ATOM     75  C   UNL     1      21.934  25.908  29.423  1.00  0.00     0.004 C 
ENDBRANCH  73  74
ENDBRANCH  72  73
ENDBRANCH  71  72
ENDBRANCH  70  71
ENDBRANCH  68  70
ENDBRANCH  64  65
ENDBRANCH  63  64
ENDBRANCH  60  63
ENDBRANCH  58  59
ENDBRANCH  55  58
ENDBRANCH   1  55
TORSDOF 34
