REMARK VINA RESULT:    -5.729      3.320     10.466
REMARK INTER + INTRA:         -21.138
REMARK INTER:                 -13.384
REMARK INTRA:                  -7.754
REMARK UNBOUND:                -7.035
REMARK SMILES CC(=O)N[C@@H]1[C@@H](O)C[C@](OC[C@H]2O[C@@H](O[C@H]3[C@H](O)[C@@H](O)[C@H](OCCN=[N+]=[N-])O[C@@H]3CO)[C@H](O)[C@@H](O)[C@H]2O)(C(=O)O)O[C@H]1C(O)[C@H](O)CNC(=O)OCc1cn([C@@H]2C[C@H]3CC[C@@H](C2)N3C)nn1
REMARK SMILES IDX 9 1 8 2 6 3 5 4 42 5 41 6 10 7 11 8 12 9 14 10 13 11 32 12
REMARK SMILES IDX 34 13 36 14 15 15 16 16 29 17 28 18 21 19 17 20 19 21 30 22
REMARK SMILES IDX 31 23 22 25 23 26 24 27 25 28 26 29 27 30 18 31 20 33 33 35
REMARK SMILES IDX 35 37 37 39 38 41 39 42 40 43 7 45 43 47 44 48 45 50 46 51
REMARK SMILES IDX 47 53 48 54 49 55 50 57 51 58 52 59 53 60 54 61 66 62 55 63
REMARK SMILES IDX 65 64 56 65 62 66 57 67 61 68 58 69 63 70 60 71 59 72 64 73
REMARK SMILES IDX 4 74 2 75 1 77 3 78
REMARK H PARENT 31 24 18 32 20 34 33 36 35 38 37 40 40 44 7 46 44 49 46 52
REMARK H PARENT 48 56 4 76
REMARK Flexibility Score: inf
ROOT
ATOM      1  C   UNL     1      16.153  29.397  17.341  1.00  0.00     0.272 C 
ATOM      2  C   UNL     1      16.895  28.653  16.305  1.00  0.00     0.113 C 
ATOM      3  C   UNL     1      18.393  28.911  16.384  1.00  0.00     0.145 C 
ATOM      4  C   UNL     1      18.647  30.437  16.355  1.00  0.00     0.142 C 
ATOM      5  C   UNL     1      17.677  31.163  17.198  1.00  0.00     0.178 C 
ATOM      6  O   UNL     1      17.053  30.256  18.030  1.00  0.00    -0.332 OA
ENDROOT
BRANCH   1   7
ATOM      7  O   UNL     1      15.374  28.777  18.251  1.00  0.00    -0.338 OA
BRANCH   7   8
ATOM      8  C   UNL     1      15.549  28.543  19.511  1.00  0.00     0.199 C 
BRANCH   8   9
ATOM      9  C   UNL     1      14.369  28.783  20.440  1.00  0.00     0.179 C 
ATOM     10  C   UNL     1      14.719  29.671  22.589  1.00  0.00     0.282 C 
ATOM     11  O   UNL     1      14.833  28.600  21.751  1.00  0.00    -0.341 OA
ATOM     12  C   UNL     1      13.335  30.217  22.697  1.00  0.00     0.202 C 
ATOM     13  C   UNL     1      12.833  30.502  21.325  1.00  0.00     0.179 C 
ATOM     14  C   UNL     1      13.786  30.146  20.239  1.00  0.00     0.177 C 
BRANCH  10  15
ATOM     15  O   UNL     1      15.695  30.633  22.399  1.00  0.00    -0.341 OA
BRANCH  15  16
ATOM     16  C   UNL     1      16.161  31.212  23.561  1.00  0.00     0.184 C 
ATOM     17  C   UNL     1      16.170  32.687  23.490  1.00  0.00     0.178 C 
ATOM     18  O   UNL     1      16.482  33.275  24.720  1.00  0.00    -0.341 OA
ATOM     19  C   UNL     1      17.037  32.378  25.634  1.00  0.00     0.281 C 
ATOM     20  C   UNL     1      17.670  30.828  23.730  1.00  0.00     0.180 C 
ATOM     21  C   UNL     1      18.069  31.449  25.029  1.00  0.00     0.202 C 
BRANCH  17  22
ATOM     22  C   UNL     1      14.977  33.354  22.900  1.00  0.00     0.191 C 
BRANCH  22  23
ATOM     23  O   UNL     1      15.093  33.429  21.515  1.00  0.00    -0.394 OA
ATOM     24  H   UNL     1      16.035  33.618  21.282  1.00  0.00     0.210 HD
ENDBRANCH  22  23
ENDBRANCH  17  22
BRANCH  19  25
ATOM     25  O   UNL     1      16.090  31.757  26.398  1.00  0.00    -0.350 OA
BRANCH  25  26
ATOM     26  C   UNL     1      15.680  32.317  27.556  1.00  0.00     0.169 C 
BRANCH  26  27
ATOM     27  C   UNL     1      14.461  33.159  27.466  1.00  0.00     0.119 C 
BRANCH  27  28
ATOM     28  N   UNL     1      13.279  32.491  27.043  1.00  0.00    -0.092 NA
ATOM     29  N   UNL     1      12.849  32.521  25.885  1.00  0.00     0.001 N 
ATOM     30  N   UNL     1      12.009  32.731  25.004  1.00  0.00    -0.003 NA
ENDBRANCH  27  28
ENDBRANCH  26  27
ENDBRANCH  25  26
ENDBRANCH  19  25
BRANCH  20  31
ATOM     31  O   UNL     1      17.830  29.467  23.790  1.00  0.00    -0.387 OA
ATOM     32  H   UNL     1      17.820  29.155  24.735  1.00  0.00     0.211 HD
ENDBRANCH  20  31
BRANCH  21  33
ATOM     33  O   UNL     1      19.271  32.151  24.891  1.00  0.00    -0.385 OA
ATOM     34  H   UNL     1      19.141  33.050  25.227  1.00  0.00     0.211 HD
ENDBRANCH  21  33
ENDBRANCH  15  16
ENDBRANCH  10  15
BRANCH  12  35
ATOM     35  O   UNL     1      12.506  29.261  23.320  1.00  0.00    -0.385 OA
ATOM     36  H   UNL     1      12.146  29.678  24.147  1.00  0.00     0.211 HD
ENDBRANCH  12  35
BRANCH  13  37
ATOM     37  O   UNL     1      12.496  31.870  21.186  1.00  0.00    -0.387 OA
ATOM     38  H   UNL     1      11.597  31.959  20.788  1.00  0.00     0.211 HD
ENDBRANCH  13  37
BRANCH  14  39
ATOM     39  O   UNL     1      14.744  31.157  20.091  1.00  0.00    -0.387 OA
ATOM     40  H   UNL     1      15.432  30.788  19.465  1.00  0.00     0.211 HD
ENDBRANCH  14  39
ENDBRANCH   8   9
ENDBRANCH   7   8
ENDBRANCH   1   7
BRANCH   1  41
ATOM     41  C   UNL     1      15.190  30.321  16.621  1.00  0.00     0.364 C 
ATOM     42  O   UNL     1      14.475  31.171  17.175  1.00  0.00    -0.246 OA
BRANCH  41  43
ATOM     43  O   UNL     1      15.070  30.241  15.230  1.00  0.00    -0.477 OA
ATOM     44  H   UNL     1      14.630  29.420  14.797  1.00  0.00     0.296 HD
ENDBRANCH  41  43
ENDBRANCH   1  41
BRANCH   3  45
ATOM     45  O   UNL     1      19.018  28.304  17.450  1.00  0.00    -0.391 OA
ATOM     46  H   UNL     1      18.573  28.619  18.294  1.00  0.00     0.211 HD
ENDBRANCH   3  45
BRANCH   5  47
ATOM     47  C   UNL     1      18.421  32.071  18.248  1.00  0.00     0.176 C 
BRANCH  47  48
ATOM     48  O   UNL     1      19.819  31.933  17.846  1.00  0.00    -0.388 OA
ATOM     49  H   UNL     1      20.048  32.816  17.426  1.00  0.00     0.211 HD
ENDBRANCH  47  48
BRANCH  47  50
ATOM     50  C   UNL     1      18.428  31.470  19.613  1.00  0.00     0.165 C 
BRANCH  50  51
ATOM     51  O   UNL     1      17.618  32.186  20.465  1.00  0.00    -0.388 OA
ATOM     52  H   UNL     1      17.578  31.871  21.382  1.00  0.00     0.211 HD
ENDBRANCH  50  51
BRANCH  50  53
ATOM     53  C   UNL     1      19.762  31.135  20.167  1.00  0.00     0.154 C 
BRANCH  53  54
ATOM     54  N   UNL     1      20.219  29.839  19.665  1.00  0.00    -0.319 N 
ATOM     55  C   UNL     1      20.112  28.682  20.444  1.00  0.00     0.407 C 
ATOM     56  H   UNL     1      20.621  29.805  18.717  1.00  0.00     0.167 HD
ATOM     57  O   UNL     1      19.608  28.775  21.602  1.00  0.00    -0.225 OA
BRANCH  55  58
ATOM     58  O   UNL     1      20.532  27.431  20.005  1.00  0.00    -0.443 OA
BRANCH  58  59
ATOM     59  C   UNL     1      21.849  26.970  20.281  1.00  0.00     0.294 C 
BRANCH  59  60
ATOM     60  C   UNL     1      21.840  26.151  21.533  1.00  0.00     0.120 A 
ATOM     61  C   UNL     1      22.911  25.872  22.356  1.00  0.00     0.138 A 
ATOM     62  N   UNL     1      20.798  25.535  22.082  1.00  0.00    -0.132 NA
ATOM     63  N   UNL     1      22.500  25.103  23.374  1.00  0.00    -0.249 N 
ATOM     64  N   UNL     1      21.183  24.915  23.168  1.00  0.00    -0.067 NA
BRANCH  63  65
ATOM     65  C   UNL     1      23.231  24.549  24.488  1.00  0.00     0.112 C 
ATOM     66  C   UNL     1      24.489  25.298  24.817  1.00  0.00     0.046 C 
ATOM     67  C   UNL     1      22.334  24.648  25.731  1.00  0.00     0.046 C 
ATOM     68  C   UNL     1      24.169  26.645  25.409  1.00  0.00     0.058 C 
ATOM     69  C   UNL     1      22.058  26.105  26.047  1.00  0.00     0.058 C 
ATOM     70  N   UNL     1      22.776  26.932  25.093  1.00  0.00    -0.300 NA
ATOM     71  C   UNL     1      24.187  26.624  26.915  1.00  0.00     0.021 C 
ATOM     72  C   UNL     1      22.751  26.489  27.340  1.00  0.00     0.021 C 
ATOM     73  C   UNL     1      22.555  28.330  25.304  1.00  0.00     0.105 C 
ENDBRANCH  63  65
ENDBRANCH  59  60
ENDBRANCH  58  59
ENDBRANCH  55  58
ENDBRANCH  53  54
ENDBRANCH  50  53
ENDBRANCH  47  50
ENDBRANCH   5  47
BRANCH   4  74
ATOM     74  N   UNL     1      18.681  30.833  14.941  1.00  0.00    -0.348 N 
ATOM     75  C   UNL     1      19.881  31.397  14.363  1.00  0.00     0.217 C 
ATOM     76  H   UNL     1      17.882  30.741  14.286  1.00  0.00     0.163 HD
ATOM     77  C   UNL     1      19.997  31.816  12.964  1.00  0.00     0.114 C 
ATOM     78  O   UNL     1      20.859  31.519  15.129  1.00  0.00    -0.275 OA
ENDBRANCH   4  74
TORSDOF 30
