REMARK VINA RESULT:    -5.837      4.294     10.566
REMARK INTER + INTRA:         -23.338
REMARK INTER:                 -14.515
REMARK INTRA:                  -8.823
REMARK UNBOUND:                -8.458
REMARK SMILES CC(=O)N[C@@H]1[C@@H](O)C[C@](OC[C@H]2O[C@@H](O[C@H]3[C@H](O)[C@@H](O)[C@H](OCCN=[N+]=[N-])O[C@@H]3CO)[C@H](O)[C@@H](O)[C@H]2O)(C(=O)O)O[C@H]1C(O)[C@H](O)CNC(=O)OCc1cn(-c2ccc(O)c([N+](=O)[O-])c2)nn1
REMARK SMILES IDX 9 1 8 2 6 3 5 4 42 5 41 6 10 7 11 8 12 9 14 10 13 11 32 12
REMARK SMILES IDX 34 13 36 14 15 15 16 16 29 17 28 18 21 19 17 20 19 21 30 22
REMARK SMILES IDX 31 23 22 25 23 26 24 27 25 28 26 29 27 30 18 31 20 33 33 35
REMARK SMILES IDX 35 37 37 39 38 41 39 42 40 43 7 45 43 47 44 48 45 50 46 51
REMARK SMILES IDX 47 53 48 54 49 55 50 57 51 58 52 59 53 60 54 61 67 62 55 63
REMARK SMILES IDX 66 64 56 65 57 66 65 67 58 68 61 69 59 70 62 71 63 72 64 73
REMARK SMILES IDX 60 74 4 76 2 77 1 79 3 80
REMARK H PARENT 31 24 18 32 20 34 33 36 35 38 37 40 40 44 7 46 44 49 46 52
REMARK H PARENT 48 56 60 75 4 78
REMARK Flexibility Score: inf
ROOT
ATOM      1  C   UNL     1      17.562  30.473  22.985  1.00  0.00     0.272 C 
ATOM      2  C   UNL     1      16.648  31.524  23.642  1.00  0.00     0.113 C 
ATOM      3  C   UNL     1      15.406  30.826  24.187  1.00  0.00     0.145 C 
ATOM      4  C   UNL     1      14.646  30.366  22.916  1.00  0.00     0.142 C 
ATOM      5  C   UNL     1      15.625  29.826  21.913  1.00  0.00     0.178 C 
ATOM      6  O   UNL     1      16.810  29.406  22.546  1.00  0.00    -0.332 OA
ENDROOT
BRANCH   1   7
ATOM      7  O   UNL     1      18.399  30.055  24.003  1.00  0.00    -0.338 OA
BRANCH   7   8
ATOM      8  C   UNL     1      19.041  31.026  24.710  1.00  0.00     0.199 C 
BRANCH   8   9
ATOM      9  C   UNL     1      20.370  30.385  25.180  1.00  0.00     0.179 C 
ATOM     10  C   UNL     1      21.237  28.293  25.300  1.00  0.00     0.282 C 
ATOM     11  O   UNL     1      20.078  29.069  25.374  1.00  0.00    -0.341 OA
ATOM     12  C   UNL     1      21.634  28.241  23.866  1.00  0.00     0.202 C 
ATOM     13  C   UNL     1      22.004  29.627  23.406  1.00  0.00     0.179 C 
ATOM     14  C   UNL     1      21.431  30.732  24.212  1.00  0.00     0.177 C 
BRANCH  10  15
ATOM     15  O   UNL     1      20.997  27.035  25.871  1.00  0.00    -0.341 OA
BRANCH  15  16
ATOM     16  C   UNL     1      21.994  26.775  26.791  1.00  0.00     0.184 C 
ATOM     17  C   UNL     1      22.496  25.373  26.815  1.00  0.00     0.178 C 
ATOM     18  O   UNL     1      23.669  25.365  27.559  1.00  0.00    -0.341 OA
ATOM     19  C   UNL     1      23.376  25.561  28.941  1.00  0.00     0.281 C 
ATOM     20  C   UNL     1      21.446  27.026  28.222  1.00  0.00     0.180 C 
ATOM     21  C   UNL     1      22.639  26.830  29.154  1.00  0.00     0.202 C 
BRANCH  17  22
ATOM     22  C   UNL     1      22.741  24.745  25.484  1.00  0.00     0.191 C 
BRANCH  22  23
ATOM     23  O   UNL     1      21.569  24.639  24.756  1.00  0.00    -0.394 OA
ATOM     24  H   UNL     1      21.764  24.966  23.821  1.00  0.00     0.210 HD
ENDBRANCH  22  23
ENDBRANCH  17  22
BRANCH  19  25
ATOM     25  O   UNL     1      24.635  25.624  29.527  1.00  0.00    -0.350 OA
BRANCH  25  26
ATOM     26  C   UNL     1      25.669  25.721  28.617  1.00  0.00     0.169 C 
BRANCH  26  27
ATOM     27  C   UNL     1      26.392  27.027  28.731  1.00  0.00     0.119 C 
BRANCH  27  28
ATOM     28  N   UNL     1      26.832  27.423  27.395  1.00  0.00    -0.092 NA
ATOM     29  N   UNL     1      26.103  27.166  26.411  1.00  0.00     0.001 N 
ATOM     30  N   UNL     1      25.369  27.389  25.431  1.00  0.00    -0.003 NA
ENDBRANCH  27  28
ENDBRANCH  26  27
ENDBRANCH  25  26
ENDBRANCH  19  25
BRANCH  20  31
ATOM     31  O   UNL     1      21.020  28.337  28.363  1.00  0.00    -0.387 OA
ATOM     32  H   UNL     1      21.566  28.971  27.823  1.00  0.00     0.211 HD
ENDBRANCH  20  31
BRANCH  21  33
ATOM     33  O   UNL     1      22.100  26.866  30.438  1.00  0.00    -0.385 OA
ATOM     34  H   UNL     1      22.672  27.358  31.057  1.00  0.00     0.211 HD
ENDBRANCH  21  33
ENDBRANCH  15  16
ENDBRANCH  10  15
BRANCH  12  35
ATOM     35  O   UNL     1      22.683  27.362  23.614  1.00  0.00    -0.385 OA
ATOM     36  H   UNL     1      22.739  27.140  22.640  1.00  0.00     0.211 HD
ENDBRANCH  12  35
BRANCH  13  37
ATOM     37  O   UNL     1      21.708  29.694  22.040  1.00  0.00    -0.387 OA
ATOM     38  H   UNL     1      21.721  28.760  21.698  1.00  0.00     0.211 HD
ENDBRANCH  13  37
BRANCH  14  39
ATOM     39  O   UNL     1      21.034  31.759  23.328  1.00  0.00    -0.387 OA
ATOM     40  H   UNL     1      20.425  31.438  22.630  1.00  0.00     0.211 HD
ENDBRANCH  14  39
ENDBRANCH   8   9
ENDBRANCH   7   8
ENDBRANCH   1   7
BRANCH   1  41
ATOM     41  C   UNL     1      18.331  31.193  21.975  1.00  0.00     0.364 C 
ATOM     42  O   UNL     1      18.241  32.421  21.711  1.00  0.00    -0.246 OA
BRANCH  41  43
ATOM     43  O   UNL     1      19.266  30.496  21.207  1.00  0.00    -0.477 OA
ATOM     44  H   UNL     1      19.380  29.489  21.262  1.00  0.00     0.296 HD
ENDBRANCH  41  43
ENDBRANCH   1  41
BRANCH   3  45
ATOM     45  O   UNL     1      15.733  29.748  24.966  1.00  0.00    -0.391 OA
ATOM     46  H   UNL     1      15.120  29.707  25.739  1.00  0.00     0.211 HD
ENDBRANCH   3  45
BRANCH   5  47
ATOM     47  C   UNL     1      15.043  28.599  21.254  1.00  0.00     0.176 C 
BRANCH  47  48
ATOM     48  O   UNL     1      13.667  28.758  21.189  1.00  0.00    -0.388 OA
ATOM     49  H   UNL     1      13.178  28.077  21.715  1.00  0.00     0.211 HD
ENDBRANCH  47  48
BRANCH  47  50
ATOM     50  C   UNL     1      15.573  28.329  19.869  1.00  0.00     0.165 C 
BRANCH  50  51
ATOM     51  O   UNL     1      16.714  27.510  20.083  1.00  0.00    -0.388 OA
ATOM     52  H   UNL     1      17.084  27.181  19.217  1.00  0.00     0.211 HD
ENDBRANCH  50  51
BRANCH  50  53
ATOM     53  C   UNL     1      16.081  29.580  19.210  1.00  0.00     0.154 C 
BRANCH  53  54
ATOM     54  N   UNL     1      17.503  29.498  19.014  1.00  0.00    -0.319 N 
ATOM     55  C   UNL     1      18.285  30.398  18.260  1.00  0.00     0.407 C 
ATOM     56  H   UNL     1      18.040  28.697  19.469  1.00  0.00     0.167 HD
ATOM     57  O   UNL     1      17.703  31.342  17.708  1.00  0.00    -0.225 OA
BRANCH  55  58
ATOM     58  O   UNL     1      19.647  30.304  18.095  1.00  0.00    -0.443 OA
BRANCH  58  59
ATOM     59  C   UNL     1      20.240  29.118  17.629  1.00  0.00     0.294 C 
BRANCH  59  60
ATOM     60  C   UNL     1      20.574  28.272  18.814  1.00  0.00     0.121 A 
ATOM     61  C   UNL     1      21.720  27.487  18.962  1.00  0.00     0.144 A 
ATOM     62  N   UNL     1      19.900  28.059  19.951  1.00  0.00    -0.131 NA
ATOM     63  N   UNL     1      21.671  26.870  20.137  1.00  0.00    -0.220 N 
ATOM     64  N   UNL     1      20.539  27.247  20.715  1.00  0.00    -0.062 NA
BRANCH  63  65
ATOM     65  C   UNL     1      22.649  25.964  20.676  1.00  0.00     0.073 A 
ATOM     66  C   UNL     1      22.273  24.795  21.263  1.00  0.00     0.033 A 
ATOM     67  C   UNL     1      23.989  26.238  20.617  1.00  0.00     0.118 A 
ATOM     68  C   UNL     1      23.171  23.896  21.790  1.00  0.00     0.056 A 
ATOM     69  C   UNL     1      24.932  25.336  21.148  1.00  0.00     0.312 A 
ATOM     70  C   UNL     1      24.558  24.158  21.739  1.00  0.00     0.194 A 
BRANCH  69  71
ATOM     71  N   UNL     1      26.287  25.694  21.042  1.00  0.00     0.066 N 
ATOM     72  O   UNL     1      27.089  24.810  20.606  1.00  0.00    -0.258 OA
ATOM     73  O   UNL     1      26.736  26.927  21.389  1.00  0.00    -0.258 OA
ENDBRANCH  69  71
BRANCH  70  74
ATOM     74  O   UNL     1      25.417  23.218  22.281  1.00  0.00    -0.502 OA
ATOM     75  H   UNL     1      25.269  22.786  23.136  1.00  0.00     0.293 HD
ENDBRANCH  70  74
ENDBRANCH  63  65
ENDBRANCH  59  60
ENDBRANCH  58  59
ENDBRANCH  55  58
ENDBRANCH  53  54
ENDBRANCH  50  53
ENDBRANCH  47  50
ENDBRANCH   5  47
BRANCH   4  76
ATOM     76  N   UNL     1      13.977  31.566  22.453  1.00  0.00    -0.348 N 
ATOM     77  C   UNL     1      12.548  31.638  22.372  1.00  0.00     0.217 C 
ATOM     78  H   UNL     1      14.516  32.404  22.167  1.00  0.00     0.163 HD
ATOM     79  C   UNL     1      11.887  32.876  21.895  1.00  0.00     0.114 C 
ATOM     80  O   UNL     1      11.872  30.623  22.718  1.00  0.00    -0.275 OA
ENDBRANCH   4  76
TORSDOF 32
