REMARK VINA RESULT:    -6.085      4.150      8.795
REMARK INTER + INTRA:         -21.886
REMARK INTER:                 -13.641
REMARK INTRA:                  -8.245
REMARK UNBOUND:                -6.197
REMARK SMILES CC(=O)N[C@@H]1[C@@H](O)C[C@](OC[C@H]2O[C@@H](O[C@H]3[C@H](O)[C@@H](O)[C@H](OCCN=[N+]=[N-])O[C@@H]3CO)[C@H](O)[C@@H](O)[C@H]2O)(C(=O)O)O[C@H]1C(O)[C@H](O)CNC(=O)OCc1cn(Cc2cccc(C#N)c2)nn1
REMARK SMILES IDX 9 1 8 2 6 3 5 4 42 5 41 6 10 7 11 8 12 9 14 10 13 11 32 12
REMARK SMILES IDX 34 13 36 14 15 15 16 16 29 17 28 18 21 19 17 20 19 21 30 22
REMARK SMILES IDX 31 23 22 25 23 26 24 27 25 28 26 29 27 30 18 31 20 33 33 35
REMARK SMILES IDX 35 37 37 39 38 41 39 42 40 43 7 45 43 47 44 48 45 50 46 51
REMARK SMILES IDX 47 53 48 54 49 55 50 57 51 58 52 59 53 60 54 61 66 62 55 63
REMARK SMILES IDX 65 64 56 65 57 66 58 67 64 68 59 69 61 70 60 71 62 72 63 73
REMARK SMILES IDX 4 74 2 75 1 77 3 78
REMARK H PARENT 31 24 18 32 20 34 33 36 35 38 37 40 40 44 7 46 44 49 46 52
REMARK H PARENT 48 56 4 76
REMARK Flexibility Score: inf
ROOT
ATOM      1  C   UNL     1      16.103  29.926  20.922  1.00  0.00     0.272 C 
ATOM      2  C   UNL     1      14.925  30.870  20.947  1.00  0.00     0.113 C 
ATOM      3  C   UNL     1      14.550  31.450  22.245  1.00  0.00     0.145 C 
ATOM      4  C   UNL     1      14.852  30.500  23.408  1.00  0.00     0.142 C 
ATOM      5  C   UNL     1      16.181  29.896  23.327  1.00  0.00     0.178 C 
ATOM      6  O   UNL     1      16.731  29.696  22.102  1.00  0.00    -0.332 OA
ENDROOT
BRANCH   1   7
ATOM      7  O   UNL     1      16.991  30.382  20.058  1.00  0.00    -0.338 OA
BRANCH   7   8
ATOM      8  C   UNL     1      17.619  30.244  18.991  1.00  0.00     0.199 C 
BRANCH   8   9
ATOM      9  C   UNL     1      19.107  30.195  18.788  1.00  0.00     0.179 C 
ATOM     10  C   UNL     1      21.054  30.547  19.866  1.00  0.00     0.282 C 
ATOM     11  O   UNL     1      19.724  30.171  20.096  1.00  0.00    -0.341 OA
ATOM     12  C   UNL     1      21.810  29.485  19.142  1.00  0.00     0.202 C 
ATOM     13  C   UNL     1      21.006  28.865  18.015  1.00  0.00     0.179 C 
ATOM     14  C   UNL     1      19.540  28.807  18.277  1.00  0.00     0.177 C 
BRANCH  10  15
ATOM     15  O   UNL     1      21.666  30.816  21.088  1.00  0.00    -0.341 OA
BRANCH  15  16
ATOM     16  C   UNL     1      22.810  30.086  21.282  1.00  0.00     0.184 C 
ATOM     17  C   UNL     1      22.762  29.251  22.509  1.00  0.00     0.178 C 
ATOM     18  O   UNL     1      23.932  28.573  22.768  1.00  0.00    -0.341 OA
ATOM     19  C   UNL     1      25.082  29.330  22.758  1.00  0.00     0.281 C 
ATOM     20  C   UNL     1      23.917  31.147  21.583  1.00  0.00     0.180 C 
ATOM     21  C   UNL     1      25.189  30.326  21.648  1.00  0.00     0.202 C 
BRANCH  17  22
ATOM     22  C   UNL     1      21.670  28.211  22.404  1.00  0.00     0.191 C 
BRANCH  22  23
ATOM     23  O   UNL     1      20.444  28.774  22.768  1.00  0.00    -0.394 OA
ATOM     24  H   UNL     1      20.533  29.631  23.218  1.00  0.00     0.210 HD
ENDBRANCH  22  23
ENDBRANCH  17  22
BRANCH  19  25
ATOM     25  O   UNL     1      26.151  28.427  22.576  1.00  0.00    -0.350 OA
BRANCH  25  26
ATOM     26  C   UNL     1      25.752  27.384  21.783  1.00  0.00     0.169 C 
BRANCH  26  27
ATOM     27  C   UNL     1      26.677  27.148  20.622  1.00  0.00     0.119 C 
BRANCH  27  28
ATOM     28  N   UNL     1      26.051  26.440  19.531  1.00  0.00    -0.092 NA
ATOM     29  N   UNL     1      25.365  27.081  18.723  1.00  0.00     0.001 N 
ATOM     30  N   UNL     1      24.578  27.594  17.896  1.00  0.00    -0.003 NA
ENDBRANCH  27  28
ENDBRANCH  26  27
ENDBRANCH  25  26
ENDBRANCH  19  25
BRANCH  20  31
ATOM     31  O   UNL     1      23.896  32.066  20.568  1.00  0.00    -0.387 OA
ATOM     32  H   UNL     1      22.970  32.388  20.373  1.00  0.00     0.211 HD
ENDBRANCH  20  31
BRANCH  21  33
ATOM     33  O   UNL     1      26.235  31.201  21.931  1.00  0.00    -0.385 OA
ATOM     34  H   UNL     1      26.680  30.856  22.759  1.00  0.00     0.211 HD
ENDBRANCH  21  33
ENDBRANCH  15  16
ENDBRANCH  10  15
BRANCH  12  35
ATOM     35  O   UNL     1      22.911  30.098  18.502  1.00  0.00    -0.385 OA
ATOM     36  H   UNL     1      22.724  31.069  18.514  1.00  0.00     0.211 HD
ENDBRANCH  12  35
BRANCH  13  37
ATOM     37  O   UNL     1      21.462  27.542  17.904  1.00  0.00    -0.387 OA
ATOM     38  H   UNL     1      22.427  27.476  17.774  1.00  0.00     0.211 HD
ENDBRANCH  13  37
BRANCH  14  39
ATOM     39  O   UNL     1      19.347  27.898  19.329  1.00  0.00    -0.387 OA
ATOM     40  H   UNL     1      18.940  28.318  20.112  1.00  0.00     0.211 HD
ENDBRANCH  14  39
ENDBRANCH   8   9
ENDBRANCH   7   8
ENDBRANCH   1   7
BRANCH   1  41
ATOM     41  C   UNL     1      15.545  28.588  20.510  1.00  0.00     0.364 C 
ATOM     42  O   UNL     1      16.324  27.617  20.226  1.00  0.00    -0.246 OA
BRANCH  41  43
ATOM     43  O   UNL     1      14.198  28.362  20.425  1.00  0.00    -0.477 OA
ATOM     44  H   UNL     1      13.638  29.057  19.904  1.00  0.00     0.296 HD
ENDBRANCH  41  43
ENDBRANCH   1  41
BRANCH   3  45
ATOM     45  O   UNL     1      15.230  32.641  22.453  1.00  0.00    -0.391 OA
ATOM     46  H   UNL     1      14.635  33.402  22.654  1.00  0.00     0.211 HD
ENDBRANCH   3  45
BRANCH   5  47
ATOM     47  C   UNL     1      17.273  30.637  24.071  1.00  0.00     0.176 C 
BRANCH  47  48
ATOM     48  O   UNL     1      18.326  29.669  24.188  1.00  0.00    -0.388 OA
ATOM     49  H   UNL     1      17.920  28.853  24.560  1.00  0.00     0.211 HD
ENDBRANCH  47  48
BRANCH  47  50
ATOM     50  C   UNL     1      17.900  31.807  23.435  1.00  0.00     0.165 C 
BRANCH  50  51
ATOM     51  O   UNL     1      18.911  31.187  22.578  1.00  0.00    -0.388 OA
ATOM     52  H   UNL     1      18.550  30.289  22.311  1.00  0.00     0.211 HD
ENDBRANCH  50  51
BRANCH  50  53
ATOM     53  C   UNL     1      18.697  32.734  24.277  1.00  0.00     0.154 C 
BRANCH  53  54
ATOM     54  N   UNL     1      19.256  32.205  25.479  1.00  0.00    -0.319 N 
ATOM     55  C   UNL     1      20.605  31.716  25.482  1.00  0.00     0.407 C 
ATOM     56  H   UNL     1      18.744  32.155  26.368  1.00  0.00     0.167 HD
ATOM     57  O   UNL     1      21.238  31.782  24.404  1.00  0.00    -0.225 OA
BRANCH  55  58
ATOM     58  O   UNL     1      21.212  31.198  26.590  1.00  0.00    -0.443 OA
BRANCH  58  59
ATOM     59  C   UNL     1      20.740  29.988  27.218  1.00  0.00     0.294 C 
BRANCH  59  60
ATOM     60  C   UNL     1      21.573  28.844  26.748  1.00  0.00     0.120 A 
ATOM     61  C   UNL     1      21.244  27.508  26.790  1.00  0.00     0.138 A 
ATOM     62  N   UNL     1      22.793  28.903  26.205  1.00  0.00    -0.132 NA
ATOM     63  N   UNL     1      22.270  26.777  26.270  1.00  0.00    -0.248 N 
ATOM     64  N   UNL     1      23.197  27.656  25.924  1.00  0.00    -0.067 NA
BRANCH  63  65
ATOM     65  C   UNL     1      22.316  25.348  26.148  1.00  0.00     0.181 C 
BRANCH  65  66
ATOM     66  C   UNL     1      22.282  24.978  24.714  1.00  0.00    -0.025 A 
ATOM     67  C   UNL     1      21.130  24.948  23.973  1.00  0.00     0.006 A 
ATOM     68  C   UNL     1      23.468  24.636  24.074  1.00  0.00     0.025 A 
ATOM     69  C   UNL     1      21.107  24.599  22.649  1.00  0.00     0.002 A 
ATOM     70  C   UNL     1      23.445  24.286  22.747  1.00  0.00     0.052 A 
ATOM     71  C   UNL     1      22.276  24.253  21.986  1.00  0.00     0.019 A 
BRANCH  70  72
ATOM     72  C   UNL     1      24.679  23.939  22.091  1.00  0.00     0.099 C 
ATOM     73  N   UNL     1      25.688  23.660  21.571  1.00  0.00    -0.192 NA
ENDBRANCH  70  72
ENDBRANCH  65  66
ENDBRANCH  63  65
ENDBRANCH  59  60
ENDBRANCH  58  59
ENDBRANCH  55  58
ENDBRANCH  53  54
ENDBRANCH  50  53
ENDBRANCH  47  50
ENDBRANCH   5  47
BRANCH   4  74
ATOM     74  N   UNL     1      13.729  29.574  23.553  1.00  0.00    -0.348 N 
ATOM     75  C   UNL     1      12.641  29.932  24.375  1.00  0.00     0.217 C 
ATOM     76  H   UNL     1      13.666  28.650  23.082  1.00  0.00     0.163 HD
ATOM     77  C   UNL     1      11.456  29.052  24.581  1.00  0.00     0.114 C 
ATOM     78  O   UNL     1      12.669  31.029  24.957  1.00  0.00    -0.275 OA
ENDBRANCH   4  74
TORSDOF 32
