REMARK VINA RESULT:    -5.720      4.464      7.865
REMARK INTER + INTRA:         -24.883
REMARK INTER:                 -14.964
REMARK INTRA:                  -9.920
REMARK UNBOUND:                -8.963
REMARK SMILES CC(=O)N[C@@H]1[C@@H](O)C[C@](OC[C@H]2O[C@@H](O[C@H]3[C@H](O)[C@@H](O)[C@H](OCCN=[N+]=[N-])O[C@@H]3CO)[C@H](O)[C@@H](O)[C@H]2O)(C(=O)O)O[C@H]1C(O)[C@H](O)CNC(=O)OCc1cn(C[C@@H](C(=O)O)C(c2ccccc2)c2ccccc2)nn1
REMARK SMILES IDX 43 1 42 2 9 3 8 4 41 5 6 6 5 7 10 8 11 9 12 10 14 11 13 12
REMARK SMILES IDX 32 13 34 14 36 15 15 16 16 17 29 18 28 19 21 20 17 21 19 22
REMARK SMILES IDX 30 23 31 24 22 26 23 27 24 28 25 29 26 30 27 31 18 32 20 34
REMARK SMILES IDX 33 36 35 38 37 40 38 42 39 43 40 44 7 46 4 48 2 49 1 51 3 52
REMARK SMILES IDX 44 53 45 55 46 56 47 58 48 59 49 60 50 62 51 63 52 64 53 65
REMARK SMILES IDX 54 66 75 67 55 68 74 69 56 70 57 71 58 72 59 73 60 74 61 76
REMARK SMILES IDX 62 77 63 78 67 79 64 80 66 81 65 82 68 83 69 84 73 85 70 86
REMARK SMILES IDX 72 87 71 88
REMARK H PARENT 31 25 18 33 20 35 33 37 35 39 37 41 40 45 7 47 4 50 44 54
REMARK H PARENT 46 57 48 61 60 75
REMARK Flexibility Score: inf
ROOT
ATOM      1  C   UNL     1      23.404  31.851  21.832  1.00  0.00     0.176 C 
ENDROOT
BRANCH   1   2
ATOM      2  C   UNL     1      23.202  30.560  22.654  1.00  0.00     0.178 C 
ATOM      3  C   UNL     1      22.281  29.530  24.507  1.00  0.00     0.272 C 
ATOM      4  C   UNL     1      22.888  28.352  23.674  1.00  0.00     0.113 C 
ATOM      5  O   UNL     1      22.536  30.726  23.812  1.00  0.00    -0.332 OA
ATOM      6  C   UNL     1      24.333  28.562  23.380  1.00  0.00     0.145 C 
ATOM      7  C   UNL     1      24.559  29.905  22.764  1.00  0.00     0.142 C 
BRANCH   3   8
ATOM      8  O   UNL     1      22.740  29.444  25.711  1.00  0.00    -0.338 OA
BRANCH   8   9
ATOM      9  C   UNL     1      22.477  28.914  26.839  1.00  0.00     0.199 C 
BRANCH   9  10
ATOM     10  C   UNL     1      22.586  27.446  27.157  1.00  0.00     0.179 C 
ATOM     11  C   UNL     1      24.341  26.093  28.002  1.00  0.00     0.282 C 
ATOM     12  O   UNL     1      23.891  27.058  27.187  1.00  0.00    -0.341 OA
ATOM     13  C   UNL     1      23.392  25.301  28.815  1.00  0.00     0.202 C 
ATOM     14  C   UNL     1      21.975  25.796  28.818  1.00  0.00     0.179 C 
ATOM     15  C   UNL     1      22.042  27.273  28.594  1.00  0.00     0.177 C 
BRANCH  11  16
ATOM     16  O   UNL     1      25.195  26.763  28.927  1.00  0.00    -0.341 OA
BRANCH  16  17
ATOM     17  C   UNL     1      26.504  26.382  28.835  1.00  0.00     0.184 C 
ATOM     18  C   UNL     1      27.175  26.641  30.155  1.00  0.00     0.178 C 
ATOM     19  O   UNL     1      27.650  27.942  30.268  1.00  0.00    -0.341 OA
ATOM     20  C   UNL     1      26.937  28.867  29.491  1.00  0.00     0.281 C 
ATOM     21  C   UNL     1      27.265  27.164  27.773  1.00  0.00     0.180 C 
ATOM     22  C   UNL     1      27.138  28.652  28.030  1.00  0.00     0.202 C 
BRANCH  18  23
ATOM     23  C   UNL     1      28.287  25.685  30.482  1.00  0.00     0.191 C 
BRANCH  23  24
ATOM     24  O   UNL     1      28.038  24.928  31.609  1.00  0.00    -0.394 OA
ATOM     25  H   UNL     1      28.899  24.469  31.846  1.00  0.00     0.210 HD
ENDBRANCH  23  24
ENDBRANCH  18  23
BRANCH  20  26
ATOM     26  O   UNL     1      27.387  30.129  29.807  1.00  0.00    -0.350 OA
BRANCH  26  27
ATOM     27  C   UNL     1      26.514  30.957  30.442  1.00  0.00     0.169 C 
BRANCH  27  28
ATOM     28  C   UNL     1      25.142  30.395  30.628  1.00  0.00     0.119 C 
BRANCH  28  29
ATOM     29  N   UNL     1      24.216  31.363  30.007  1.00  0.00    -0.092 NA
ATOM     30  N   UNL     1      24.331  31.537  28.791  1.00  0.00     0.001 N 
ATOM     31  N   UNL     1      24.526  31.830  27.613  1.00  0.00    -0.003 NA
ENDBRANCH  28  29
ENDBRANCH  27  28
ENDBRANCH  26  27
ENDBRANCH  20  26
BRANCH  21  32
ATOM     32  O   UNL     1      28.610  26.830  27.905  1.00  0.00    -0.387 OA
ATOM     33  H   UNL     1      28.763  26.086  28.532  1.00  0.00     0.211 HD
ENDBRANCH  21  32
BRANCH  22  34
ATOM     34  O   UNL     1      26.051  29.165  27.335  1.00  0.00    -0.385 OA
ATOM     35  H   UNL     1      25.270  28.555  27.528  1.00  0.00     0.211 HD
ENDBRANCH  22  34
ENDBRANCH  16  17
ENDBRANCH  11  16
BRANCH  13  36
ATOM     36  O   UNL     1      23.332  23.969  28.337  1.00  0.00    -0.385 OA
ATOM     37  H   UNL     1      24.206  23.510  28.488  1.00  0.00     0.211 HD
ENDBRANCH  13  36
BRANCH  14  38
ATOM     38  O   UNL     1      21.372  25.506  30.025  1.00  0.00    -0.387 OA
ATOM     39  H   UNL     1      20.939  24.614  29.964  1.00  0.00     0.211 HD
ENDBRANCH  14  38
BRANCH  15  40
ATOM     40  O   UNL     1      22.913  27.830  29.520  1.00  0.00    -0.387 OA
ATOM     41  H   UNL     1      22.721  27.432  30.394  1.00  0.00     0.211 HD
ENDBRANCH  15  40
ENDBRANCH   9  10
ENDBRANCH   8   9
ENDBRANCH   3   8
BRANCH   3  42
ATOM     42  C   UNL     1      20.830  29.305  24.347  1.00  0.00     0.364 C 
ATOM     43  O   UNL     1      19.939  30.140  24.602  1.00  0.00    -0.246 OA
BRANCH  42  44
ATOM     44  O   UNL     1      20.375  28.057  23.869  1.00  0.00    -0.477 OA
ATOM     45  H   UNL     1      19.713  28.068  23.123  1.00  0.00     0.296 HD
ENDBRANCH  42  44
ENDBRANCH   3  42
BRANCH   6  46
ATOM     46  O   UNL     1      25.139  28.385  24.514  1.00  0.00    -0.391 OA
ATOM     47  H   UNL     1      25.464  27.457  24.595  1.00  0.00     0.211 HD
ENDBRANCH   6  46
BRANCH   7  48
ATOM     48  N   UNL     1      25.084  29.735  21.429  1.00  0.00    -0.348 N 
ATOM     49  C   UNL     1      26.446  29.413  21.208  1.00  0.00     0.217 C 
ATOM     50  H   UNL     1      24.426  29.856  20.607  1.00  0.00     0.163 HD
ATOM     51  C   UNL     1      26.998  29.235  19.821  1.00  0.00     0.114 C 
ATOM     52  O   UNL     1      27.180  29.282  22.222  1.00  0.00    -0.275 OA
ENDBRANCH   7  48
ENDBRANCH   1   2
BRANCH   1  53
ATOM     53  O   UNL     1      24.625  32.412  22.093  1.00  0.00    -0.388 OA
ATOM     54  H   UNL     1      24.751  32.694  23.027  1.00  0.00     0.211 HD
ENDBRANCH   1  53
BRANCH   1  55
ATOM     55  C   UNL     1      22.322  32.820  22.108  1.00  0.00     0.165 C 
BRANCH  55  56
ATOM     56  O   UNL     1      22.419  33.420  23.380  1.00  0.00    -0.388 OA
ATOM     57  H   UNL     1      23.228  34.016  23.310  1.00  0.00     0.211 HD
ENDBRANCH  55  56
BRANCH  55  58
ATOM     58  C   UNL     1      20.905  32.471  21.843  1.00  0.00     0.154 C 
BRANCH  58  59
ATOM     59  N   UNL     1      20.625  31.804  20.625  1.00  0.00    -0.319 N 
ATOM     60  C   UNL     1      19.350  31.457  20.130  1.00  0.00     0.407 C 
ATOM     61  H   UNL     1      21.478  31.530  19.998  1.00  0.00     0.167 HD
ATOM     62  O   UNL     1      18.298  31.673  20.756  1.00  0.00    -0.225 OA
BRANCH  60  63
ATOM     63  O   UNL     1      19.278  30.857  18.891  1.00  0.00    -0.443 OA
BRANCH  63  64
ATOM     64  C   UNL     1      19.043  29.501  18.737  1.00  0.00     0.294 C 
BRANCH  64  65
ATOM     65  C   UNL     1      19.958  28.628  19.485  1.00  0.00     0.120 A 
ATOM     66  C   UNL     1      21.263  28.290  19.214  1.00  0.00     0.138 A 
ATOM     67  N   UNL     1      19.652  27.931  20.624  1.00  0.00    -0.132 NA
ATOM     68  N   UNL     1      21.704  27.438  20.145  1.00  0.00    -0.251 N 
ATOM     69  N   UNL     1      20.707  27.238  20.986  1.00  0.00    -0.067 NA
BRANCH  68  70
ATOM     70  C   UNL     1      23.037  26.814  20.257  1.00  0.00     0.162 C 
BRANCH  70  71
ATOM     71  C   UNL     1      22.906  25.327  20.210  1.00  0.00     0.132 C 
BRANCH  71  72
ATOM     72  C   UNL     1      23.118  24.818  18.821  1.00  0.00     0.309 C 
ATOM     73  O   UNL     1      23.956  25.304  18.044  1.00  0.00    -0.252 OA
BRANCH  72  74
ATOM     74  O   UNL     1      22.355  23.758  18.364  1.00  0.00    -0.481 OA
ATOM     75  H   UNL     1      21.339  23.778  18.489  1.00  0.00     0.296 HD
ENDBRANCH  72  74
ENDBRANCH  71  72
BRANCH  71  76
ATOM     76  C   UNL     1      23.627  24.528  21.230  1.00  0.00     0.065 C 
BRANCH  76  77
ATOM     77  C   UNL     1      25.089  24.577  21.228  1.00  0.00    -0.040 A 
ATOM     78  C   UNL     1      25.852  23.420  21.451  1.00  0.00     0.004 A 
ATOM     79  C   UNL     1      25.827  25.744  21.018  1.00  0.00     0.004 A 
ATOM     80  C   UNL     1      27.211  23.419  21.464  1.00  0.00     0.000 A 
ATOM     81  C   UNL     1      27.201  25.732  21.033  1.00  0.00     0.000 A 
ATOM     82  C   UNL     1      27.909  24.568  21.257  1.00  0.00     0.000 A 
ENDBRANCH  76  77
BRANCH  76  83
ATOM     83  C   UNL     1      23.001  24.576  22.578  1.00  0.00    -0.040 A 
ATOM     84  C   UNL     1      21.625  24.504  22.627  1.00  0.00     0.004 A 
ATOM     85  C   UNL     1      23.731  24.675  23.732  1.00  0.00     0.004 A 
ATOM     86  C   UNL     1      20.965  24.529  23.823  1.00  0.00     0.000 A 
ATOM     87  C   UNL     1      23.045  24.699  24.943  1.00  0.00     0.000 A 
ATOM     88  C   UNL     1      21.671  24.628  24.998  1.00  0.00     0.000 A 
ENDBRANCH  76  83
ENDBRANCH  71  76
ENDBRANCH  70  71
ENDBRANCH  68  70
ENDBRANCH  64  65
ENDBRANCH  63  64
ENDBRANCH  60  63
ENDBRANCH  58  59
ENDBRANCH  55  58
ENDBRANCH   1  55
TORSDOF 36
