REMARK VINA RESULT:    -5.438      1.794      5.710
REMARK INTER + INTRA:         -20.985
REMARK INTER:                 -13.348
REMARK INTRA:                  -7.637
REMARK UNBOUND:                -7.600
REMARK SMILES CC(=O)N[C@@H]1[C@@H](O)C[C@](OC[C@H]2O[C@@H](O[C@H]3[C@H](O)[C@@H](O)[C@H](OCCN=[N+]=[N-])O[C@@H]3CO)[C@H](O)[C@@H](O)[C@H]2O)(C(=O)O)O[C@H]1C(O)[C@H](O)CNC(=O)OCc1cn(-c2ccc(Cl)cc2)nn1
REMARK SMILES IDX 9 1 8 2 6 3 5 4 42 5 41 6 10 7 11 8 12 9 14 10 13 11 32 12
REMARK SMILES IDX 34 13 36 14 15 15 16 16 29 17 28 18 21 19 17 20 19 21 30 22
REMARK SMILES IDX 31 23 22 25 23 26 24 27 25 28 26 29 27 30 18 31 20 33 33 35
REMARK SMILES IDX 35 37 37 39 38 41 39 42 40 43 7 45 43 47 44 48 45 50 46 51
REMARK SMILES IDX 47 53 48 54 49 55 50 57 51 58 52 59 53 60 54 61 64 62 55 63
REMARK SMILES IDX 63 64 56 65 57 66 62 67 58 68 61 69 59 70 60 71 4 72 2 73
REMARK SMILES IDX 1 75 3 76
REMARK H PARENT 31 24 18 32 20 34 33 36 35 38 37 40 40 44 7 46 44 49 46 52
REMARK H PARENT 48 56 4 74
REMARK Flexibility Score: inf
ROOT
ATOM      1  C   UNL     1      21.758  29.455  24.339  1.00  0.00     0.272 C 
ATOM      2  C   UNL     1      21.318  30.826  24.651  1.00  0.00     0.113 C 
ATOM      3  C   UNL     1      20.896  31.725  23.562  1.00  0.00     0.145 C 
ATOM      4  C   UNL     1      20.812  30.966  22.255  1.00  0.00     0.142 C 
ATOM      5  C   UNL     1      22.117  30.143  22.200  1.00  0.00     0.178 C 
ATOM      6  O   UNL     1      21.757  29.041  23.033  1.00  0.00    -0.332 OA
ENDROOT
BRANCH   1   7
ATOM      7  O   UNL     1      20.932  28.572  25.090  1.00  0.00    -0.338 OA
BRANCH   7   8
ATOM      8  C   UNL     1      21.159  28.628  26.437  1.00  0.00     0.199 C 
BRANCH   8   9
ATOM      9  C   UNL     1      21.121  27.244  27.079  1.00  0.00     0.179 C 
ATOM     10  C   UNL     1      22.586  25.417  26.858  1.00  0.00     0.282 C 
ATOM     11  O   UNL     1      21.665  26.291  26.279  1.00  0.00    -0.341 OA
ATOM     12  C   UNL     1      23.707  26.211  27.383  1.00  0.00     0.202 C 
ATOM     13  C   UNL     1      23.195  27.164  28.454  1.00  0.00     0.179 C 
ATOM     14  C   UNL     1      21.702  27.264  28.475  1.00  0.00     0.177 C 
BRANCH  10  15
ATOM     15  O   UNL     1      22.867  24.521  25.828  1.00  0.00    -0.341 OA
BRANCH  15  16
ATOM     16  C   UNL     1      23.346  25.017  24.692  1.00  0.00     0.184 C 
ATOM     17  C   UNL     1      22.610  24.584  23.474  1.00  0.00     0.178 C 
ATOM     18  O   UNL     1      22.950  25.366  22.375  1.00  0.00    -0.341 OA
ATOM     19  C   UNL     1      24.262  25.358  22.030  1.00  0.00     0.281 C 
ATOM     20  C   UNL     1      24.827  24.681  24.418  1.00  0.00     0.180 C 
ATOM     21  C   UNL     1      25.091  24.550  22.961  1.00  0.00     0.202 C 
BRANCH  17  22
ATOM     22  C   UNL     1      21.118  24.517  23.571  1.00  0.00     0.191 C 
BRANCH  22  23
ATOM     23  O   UNL     1      20.551  25.753  23.878  1.00  0.00    -0.394 OA
ATOM     24  H   UNL     1      19.780  25.615  24.477  1.00  0.00     0.210 HD
ENDBRANCH  22  23
ENDBRANCH  17  22
BRANCH  19  25
ATOM     25  O   UNL     1      24.771  26.662  22.026  1.00  0.00    -0.350 OA
BRANCH  25  26
ATOM     26  C   UNL     1      26.041  26.714  21.471  1.00  0.00     0.169 C 
BRANCH  26  27
ATOM     27  C   UNL     1      26.068  26.461  19.994  1.00  0.00     0.119 C 
BRANCH  27  28
ATOM     28  N   UNL     1      27.272  25.681  19.718  1.00  0.00    -0.092 NA
ATOM     29  N   UNL     1      27.223  24.486  20.064  1.00  0.00     0.001 N 
ATOM     30  N   UNL     1      27.090  23.244  20.063  1.00  0.00    -0.003 NA
ENDBRANCH  27  28
ENDBRANCH  26  27
ENDBRANCH  25  26
ENDBRANCH  19  25
BRANCH  20  31
ATOM     31  O   UNL     1      25.568  25.730  24.935  1.00  0.00    -0.387 OA
ATOM     32  H   UNL     1      26.519  25.578  24.632  1.00  0.00     0.211 HD
ENDBRANCH  20  31
BRANCH  21  33
ATOM     33  O   UNL     1      25.104  23.207  22.534  1.00  0.00    -0.385 OA
ATOM     34  H   UNL     1      24.840  22.684  23.324  1.00  0.00     0.211 HD
ENDBRANCH  21  33
ENDBRANCH  15  16
ENDBRANCH  10  15
BRANCH  12  35
ATOM     35  O   UNL     1      24.759  25.477  27.934  1.00  0.00    -0.385 OA
ATOM     36  H   UNL     1      24.748  25.524  28.944  1.00  0.00     0.211 HD
ENDBRANCH  12  35
BRANCH  13  37
ATOM     37  O   UNL     1      23.833  28.391  28.283  1.00  0.00    -0.387 OA
ATOM     38  H   UNL     1      23.915  28.683  27.362  1.00  0.00     0.211 HD
ENDBRANCH  13  37
BRANCH  14  39
ATOM     39  O   UNL     1      21.320  28.516  29.015  1.00  0.00    -0.387 OA
ATOM     40  H   UNL     1      21.812  28.621  29.849  1.00  0.00     0.211 HD
ENDBRANCH  14  39
ENDBRANCH   8   9
ENDBRANCH   7   8
ENDBRANCH   1   7
BRANCH   1  41
ATOM     41  C   UNL     1      23.144  29.257  24.897  1.00  0.00     0.364 C 
ATOM     42  O   UNL     1      23.672  30.092  25.665  1.00  0.00    -0.246 OA
BRANCH  41  43
ATOM     43  O   UNL     1      23.849  28.131  24.555  1.00  0.00    -0.477 OA
ATOM     44  H   UNL     1      23.422  27.288  24.176  1.00  0.00     0.296 HD
ENDBRANCH  41  43
ENDBRANCH   1  41
BRANCH   3  45
ATOM     45  O   UNL     1      19.627  32.251  23.802  1.00  0.00    -0.391 OA
ATOM     46  H   UNL     1      19.265  31.819  24.598  1.00  0.00     0.211 HD
ENDBRANCH   3  45
BRANCH   5  47
ATOM     47  C   UNL     1      22.423  29.624  20.841  1.00  0.00     0.176 C 
BRANCH  47  48
ATOM     48  O   UNL     1      23.765  29.270  20.812  1.00  0.00    -0.388 OA
ATOM     49  H   UNL     1      24.284  29.692  20.084  1.00  0.00     0.211 HD
ENDBRANCH  47  48
BRANCH  47  50
ATOM     50  C   UNL     1      21.576  28.580  20.249  1.00  0.00     0.165 C 
BRANCH  50  51
ATOM     51  O   UNL     1      22.393  27.391  20.264  1.00  0.00    -0.388 OA
ATOM     52  H   UNL     1      21.875  26.636  20.628  1.00  0.00     0.211 HD
ENDBRANCH  50  51
BRANCH  50  53
ATOM     53  C   UNL     1      21.330  28.772  18.760  1.00  0.00     0.154 C 
BRANCH  53  54
ATOM     54  N   UNL     1      20.037  28.330  18.314  1.00  0.00    -0.319 N 
ATOM     55  C   UNL     1      19.484  28.909  17.143  1.00  0.00     0.407 C 
ATOM     56  H   UNL     1      19.474  27.600  18.812  1.00  0.00     0.167 HD
ATOM     57  O   UNL     1      20.089  29.812  16.491  1.00  0.00    -0.225 OA
BRANCH  55  58
ATOM     58  O   UNL     1      18.251  28.503  16.667  1.00  0.00    -0.443 OA
BRANCH  58  59
ATOM     59  C   UNL     1      17.037  29.157  17.046  1.00  0.00     0.294 C 
BRANCH  59  60
ATOM     60  C   UNL     1      16.605  28.699  18.398  1.00  0.00     0.121 A 
ATOM     61  C   UNL     1      15.747  29.391  19.240  1.00  0.00     0.144 A 
ATOM     62  N   UNL     1      16.950  27.573  19.037  1.00  0.00    -0.131 NA
ATOM     63  N   UNL     1      15.599  28.668  20.358  1.00  0.00    -0.220 N 
ATOM     64  N   UNL     1      16.323  27.596  20.210  1.00  0.00    -0.062 NA
BRANCH  63  65
ATOM     65  C   UNL     1      14.774  29.091  21.446  1.00  0.00     0.066 A 
ATOM     66  C   UNL     1      15.271  29.188  22.721  1.00  0.00     0.030 A 
ATOM     67  C   UNL     1      13.462  29.411  21.235  1.00  0.00     0.030 A 
ATOM     68  C   UNL     1      14.490  29.599  23.805  1.00  0.00     0.023 A 
ATOM     69  C   UNL     1      12.663  29.822  22.293  1.00  0.00     0.023 A 
ATOM     70  C   UNL     1      13.176  29.917  23.587  1.00  0.00     0.041 A 
ATOM     71  Cl  UNL     1      12.149  30.440  24.924  1.00  0.00    -0.084 Cl
ENDBRANCH  63  65
ENDBRANCH  59  60
ENDBRANCH  58  59
ENDBRANCH  55  58
ENDBRANCH  53  54
ENDBRANCH  50  53
ENDBRANCH  47  50
ENDBRANCH   5  47
BRANCH   4  72
ATOM     72  N   UNL     1      20.612  31.835  21.159  1.00  0.00    -0.348 N 
ATOM     73  C   UNL     1      19.524  31.592  20.246  1.00  0.00     0.217 C 
ATOM     74  H   UNL     1      21.184  32.669  20.948  1.00  0.00     0.163 HD
ATOM     75  C   UNL     1      19.285  32.490  19.080  1.00  0.00     0.114 C 
ATOM     76  O   UNL     1      18.779  30.602  20.459  1.00  0.00    -0.275 OA
ENDBRANCH   4  72
TORSDOF 30
