REMARK VINA RESULT:    -5.805      4.489      8.454
REMARK INTER + INTRA:         -21.832
REMARK INTER:                 -15.541
REMARK INTRA:                  -6.291
REMARK UNBOUND:                -7.203
REMARK SMILES CC(=O)N[C@@H]1[C@@H](O)C[C@](OC[C@H]2O[C@@H](O[C@H]3[C@H](O)[C@@H](O)[C@H](OCCN=[N+]=[N-])O[C@@H]3CO)[C@H](O)[C@@H](O)[C@H]2O)(C(=O)O)O[C@H]1C(O)[C@H](O)CNC(=O)OCc1cn(CC2=CC[C@H]3C[C@@H]2C3(C)C)nn1
REMARK SMILES IDX 9 1 8 2 6 3 5 4 42 5 41 6 10 7 11 8 12 9 14 10 13 11 32 12
REMARK SMILES IDX 34 13 36 14 15 15 16 16 29 17 28 18 21 19 17 20 19 21 30 22
REMARK SMILES IDX 31 23 22 25 23 26 24 27 25 28 26 29 27 30 18 31 20 33 33 35
REMARK SMILES IDX 35 37 37 39 38 41 39 42 40 43 7 45 43 47 44 48 45 50 46 51
REMARK SMILES IDX 47 53 48 54 49 55 50 57 51 58 52 59 53 60 54 61 67 62 55 63
REMARK SMILES IDX 66 64 56 65 57 66 58 67 62 68 59 69 61 70 63 71 60 72 64 73
REMARK SMILES IDX 65 74 4 75 2 76 1 78 3 79
REMARK H PARENT 31 24 18 32 20 34 33 36 35 38 37 40 40 44 7 46 44 49 46 52
REMARK H PARENT 48 56 4 77
REMARK Flexibility Score: inf
ROOT
ATOM      1  C   UNL     1      19.306  30.040  21.475  1.00  0.00     0.272 C 
ATOM      2  C   UNL     1      18.656  31.106  22.296  1.00  0.00     0.113 C 
ATOM      3  C   UNL     1      17.568  30.492  23.194  1.00  0.00     0.145 C 
ATOM      4  C   UNL     1      16.493  29.880  22.370  1.00  0.00     0.142 C 
ATOM      5  C   UNL     1      17.035  29.756  20.961  1.00  0.00     0.178 C 
ATOM      6  O   UNL     1      18.267  29.210  20.932  1.00  0.00    -0.332 OA
ENDROOT
BRANCH   1   7
ATOM      7  O   UNL     1      20.101  29.190  22.106  1.00  0.00    -0.338 OA
BRANCH   7   8
ATOM      8  C   UNL     1      21.394  29.019  22.008  1.00  0.00     0.199 C 
BRANCH   8   9
ATOM      9  C   UNL     1      22.133  27.759  22.180  1.00  0.00     0.179 C 
ATOM     10  C   UNL     1      22.655  26.267  23.868  1.00  0.00     0.282 C 
ATOM     11  O   UNL     1      21.767  27.257  23.467  1.00  0.00    -0.341 OA
ATOM     12  C   UNL     1      23.052  25.309  22.838  1.00  0.00     0.202 C 
ATOM     13  C   UNL     1      22.624  25.521  21.440  1.00  0.00     0.179 C 
ATOM     14  C   UNL     1      21.604  26.622  21.284  1.00  0.00     0.177 C 
BRANCH  10  15
ATOM     15  O   UNL     1      21.977  25.595  24.904  1.00  0.00    -0.341 OA
BRANCH  15  16
ATOM     16  C   UNL     1      22.470  25.913  26.157  1.00  0.00     0.184 C 
ATOM     17  C   UNL     1      22.846  24.663  26.899  1.00  0.00     0.178 C 
ATOM     18  O   UNL     1      23.002  24.838  28.262  1.00  0.00    -0.341 OA
ATOM     19  C   UNL     1      23.016  26.126  28.711  1.00  0.00     0.281 C 
ATOM     20  C   UNL     1      21.314  26.550  26.936  1.00  0.00     0.180 C 
ATOM     21  C   UNL     1      21.803  26.925  28.302  1.00  0.00     0.202 C 
BRANCH  17  22
ATOM     22  C   UNL     1      24.167  24.148  26.314  1.00  0.00     0.191 C 
BRANCH  22  23
ATOM     23  O   UNL     1      24.933  25.249  25.959  1.00  0.00    -0.394 OA
ATOM     24  H   UNL     1      25.852  24.919  25.717  1.00  0.00     0.210 HD
ENDBRANCH  22  23
ENDBRANCH  17  22
BRANCH  19  25
ATOM     25  O   UNL     1      24.166  26.813  28.300  1.00  0.00    -0.350 OA
BRANCH  25  26
ATOM     26  C   UNL     1      24.896  27.302  29.385  1.00  0.00     0.169 C 
BRANCH  26  27
ATOM     27  C   UNL     1      25.872  26.183  29.758  1.00  0.00     0.119 C 
BRANCH  27  28
ATOM     28  N   UNL     1      26.342  26.389  31.111  1.00  0.00    -0.092 NA
ATOM     29  N   UNL     1      27.187  25.678  31.623  1.00  0.00     0.001 N 
ATOM     30  N   UNL     1      27.942  24.851  32.150  1.00  0.00    -0.003 NA
ENDBRANCH  27  28
ENDBRANCH  26  27
ENDBRANCH  25  26
ENDBRANCH  19  25
BRANCH  20  31
ATOM     31  O   UNL     1      20.893  27.721  26.282  1.00  0.00    -0.387 OA
ATOM     32  H   UNL     1      20.137  27.528  25.685  1.00  0.00     0.211 HD
ENDBRANCH  20  31
BRANCH  21  33
ATOM     33  O   UNL     1      20.807  26.830  29.273  1.00  0.00    -0.385 OA
ATOM     34  H   UNL     1      19.974  27.236  28.899  1.00  0.00     0.211 HD
ENDBRANCH  21  33
ENDBRANCH  15  16
ENDBRANCH  10  15
BRANCH  12  35
ATOM     35  O   UNL     1      24.472  25.249  22.843  1.00  0.00    -0.385 OA
ATOM     36  H   UNL     1      24.795  24.356  22.560  1.00  0.00     0.211 HD
ENDBRANCH  12  35
BRANCH  13  37
ATOM     37  O   UNL     1      22.221  24.331  20.824  1.00  0.00    -0.387 OA
ATOM     38  H   UNL     1      22.440  24.360  19.853  1.00  0.00     0.211 HD
ENDBRANCH  13  37
BRANCH  14  39
ATOM     39  O   UNL     1      20.403  26.168  21.865  1.00  0.00    -0.387 OA
ATOM     40  H   UNL     1      19.674  26.813  21.684  1.00  0.00     0.211 HD
ENDBRANCH  14  39
ENDBRANCH   8   9
ENDBRANCH   7   8
ENDBRANCH   1   7
BRANCH   1  41
ATOM     41  C   UNL     1      19.877  30.625  20.234  1.00  0.00     0.364 C 
ATOM     42  O   UNL     1      20.333  31.821  20.244  1.00  0.00    -0.246 OA
BRANCH  41  43
ATOM     43  O   UNL     1      19.946  29.964  19.054  1.00  0.00    -0.477 OA
ATOM     44  H   UNL     1      19.655  30.283  18.144  1.00  0.00     0.296 HD
ENDBRANCH  41  43
ENDBRANCH   1  41
BRANCH   3  45
ATOM     45  O   UNL     1      18.232  29.444  23.848  1.00  0.00    -0.391 OA
ATOM     46  H   UNL     1      17.808  28.597  23.565  1.00  0.00     0.211 HD
ENDBRANCH   3  45
BRANCH   5  47
ATOM     47  C   UNL     1      16.116  28.872  20.113  1.00  0.00     0.176 C 
BRANCH  47  48
ATOM     48  O   UNL     1      16.312  27.548  20.411  1.00  0.00    -0.388 OA
ATOM     49  H   UNL     1      15.812  27.221  21.209  1.00  0.00     0.211 HD
ENDBRANCH  47  48
BRANCH  47  50
ATOM     50  C   UNL     1      16.323  29.140  18.652  1.00  0.00     0.165 C 
BRANCH  50  51
ATOM     51  O   UNL     1      15.014  29.244  18.098  1.00  0.00    -0.388 OA
ATOM     52  H   UNL     1      15.155  29.847  17.302  1.00  0.00     0.211 HD
ENDBRANCH  50  51
BRANCH  50  53
ATOM     53  C   UNL     1      16.969  27.986  17.954  1.00  0.00     0.154 C 
BRANCH  53  54
ATOM     54  N   UNL     1      18.204  28.285  17.305  1.00  0.00    -0.319 N 
ATOM     55  C   UNL     1      18.221  28.680  15.946  1.00  0.00     0.407 C 
ATOM     56  H   UNL     1      19.099  28.217  17.851  1.00  0.00     0.167 HD
ATOM     57  O   UNL     1      17.164  28.768  15.309  1.00  0.00    -0.225 OA
BRANCH  55  58
ATOM     58  O   UNL     1      19.412  28.974  15.309  1.00  0.00    -0.443 OA
BRANCH  58  59
ATOM     59  C   UNL     1      20.630  29.260  15.910  1.00  0.00     0.294 C 
BRANCH  59  60
ATOM     60  C   UNL     1      21.354  28.069  16.442  1.00  0.00     0.120 A 
ATOM     61  C   UNL     1      22.146  27.182  15.753  1.00  0.00     0.138 A 
ATOM     62  N   UNL     1      21.365  27.645  17.736  1.00  0.00    -0.132 NA
ATOM     63  N   UNL     1      22.609  26.267  16.609  1.00  0.00    -0.248 N 
ATOM     64  N   UNL     1      22.123  26.570  17.797  1.00  0.00    -0.067 NA
BRANCH  63  65
ATOM     65  C   UNL     1      23.498  25.132  16.302  1.00  0.00     0.177 C 
BRANCH  65  66
ATOM     66  C   UNL     1      24.763  25.410  17.060  1.00  0.00    -0.049 C 
ATOM     67  C   UNL     1      25.611  26.375  16.652  1.00  0.00    -0.025 C 
ATOM     68  C   UNL     1      25.140  24.664  18.270  1.00  0.00     0.023 C 
ATOM     69  C   UNL     1      26.919  26.515  17.330  1.00  0.00     0.031 C 
ATOM     70  C   UNL     1      25.666  25.697  19.275  1.00  0.00     0.013 C 
ATOM     71  C   UNL     1      26.549  24.174  18.139  1.00  0.00    -0.026 C 
ATOM     72  C   UNL     1      26.994  25.594  18.515  1.00  0.00    -0.000 C 
ATOM     73  C   UNL     1      26.987  23.215  19.220  1.00  0.00     0.012 C 
ATOM     74  C   UNL     1      26.993  23.705  16.795  1.00  0.00     0.012 C 
ENDBRANCH  65  66
ENDBRANCH  63  65
ENDBRANCH  59  60
ENDBRANCH  58  59
ENDBRANCH  55  58
ENDBRANCH  53  54
ENDBRANCH  50  53
ENDBRANCH  47  50
ENDBRANCH   5  47
BRANCH   4  75
ATOM     75  N   UNL     1      15.255  30.574  22.303  1.00  0.00    -0.348 N 
ATOM     76  C   UNL     1      14.131  30.370  23.117  1.00  0.00     0.217 C 
ATOM     77  H   UNL     1      15.190  31.322  21.552  1.00  0.00     0.163 HD
ATOM     78  C   UNL     1      12.893  31.172  22.937  1.00  0.00     0.114 C 
ATOM     79  O   UNL     1      14.222  29.490  23.991  1.00  0.00    -0.275 OA
ENDBRANCH   4  75
TORSDOF 31
