REMARK VINA RESULT:    -5.769      4.206      9.233
REMARK INTER + INTRA:         -22.296
REMARK INTER:                 -14.274
REMARK INTRA:                  -8.022
REMARK UNBOUND:                -7.759
REMARK SMILES CC(=O)N[C@@H]1[C@@H](O)C[C@](OC[C@H]2O[C@@H](O[C@H]3[C@H](O)[C@@H](O)[C@H](OCCN=[N+]=[N-])O[C@@H]3CO)[C@H](O)[C@@H](O)[C@H]2O)(C(=O)O)O[C@H]1C(O)[C@H](O)CNC(=O)OCc1cn(-c2cc(Cl)ccc2C(=O)N(C)C)nn1
REMARK SMILES IDX 9 1 8 2 6 3 5 4 42 5 41 6 10 7 11 8 12 9 14 10 13 11 32 12
REMARK SMILES IDX 34 13 36 14 15 15 16 16 29 17 28 18 21 19 17 20 19 21 30 22
REMARK SMILES IDX 31 23 22 25 23 26 24 27 25 28 26 29 27 30 18 31 20 33 33 35
REMARK SMILES IDX 35 37 37 39 38 41 39 42 40 43 7 45 43 47 44 48 45 50 46 51
REMARK SMILES IDX 47 53 48 54 49 55 50 57 51 58 52 59 53 60 54 61 69 62 55 63
REMARK SMILES IDX 68 64 56 65 57 66 62 67 58 68 61 69 59 70 60 71 63 72 64 73
REMARK SMILES IDX 65 74 66 75 67 76 4 77 2 78 1 80 3 81
REMARK H PARENT 31 24 18 32 20 34 33 36 35 38 37 40 40 44 7 46 44 49 46 52
REMARK H PARENT 48 56 4 79
REMARK Flexibility Score: inf
ROOT
ATOM      1  C   UNL     1      22.404  25.821  23.837  1.00  0.00     0.272 C 
ATOM      2  C   UNL     1      23.152  24.834  24.651  1.00  0.00     0.113 C 
ATOM      3  C   UNL     1      24.511  25.379  25.011  1.00  0.00     0.145 C 
ATOM      4  C   UNL     1      25.225  25.653  23.709  1.00  0.00     0.142 C 
ATOM      5  C   UNL     1      24.446  26.550  22.841  1.00  0.00     0.178 C 
ATOM      6  O   UNL     1      23.097  26.620  22.983  1.00  0.00    -0.332 OA
ENDROOT
BRANCH   1   7
ATOM      7  O   UNL     1      21.629  26.655  24.626  1.00  0.00    -0.338 OA
BRANCH   7   8
ATOM      8  C   UNL     1      21.241  27.849  24.127  1.00  0.00     0.199 C 
BRANCH   8   9
ATOM      9  C   UNL     1      21.063  28.853  25.276  1.00  0.00     0.179 C 
ATOM     10  C   UNL     1      21.141  28.783  27.580  1.00  0.00     0.282 C 
ATOM     11  O   UNL     1      20.625  28.176  26.376  1.00  0.00    -0.341 OA
ATOM     12  C   UNL     1      20.978  30.277  27.417  1.00  0.00     0.202 C 
ATOM     13  C   UNL     1      21.927  30.823  26.371  1.00  0.00     0.179 C 
ATOM     14  C   UNL     1      22.251  29.712  25.388  1.00  0.00     0.177 C 
BRANCH  10  15
ATOM     15  O   UNL     1      22.387  28.338  27.703  1.00  0.00    -0.341 OA
BRANCH  15  16
ATOM     16  C   UNL     1      22.851  27.743  28.862  1.00  0.00     0.184 C 
ATOM     17  C   UNL     1      24.325  27.988  28.900  1.00  0.00     0.178 C 
ATOM     18  O   UNL     1      24.884  27.395  30.045  1.00  0.00    -0.341 OA
ATOM     19  C   UNL     1      24.901  26.009  29.664  1.00  0.00     0.281 C 
ATOM     20  C   UNL     1      22.562  26.264  28.849  1.00  0.00     0.180 C 
ATOM     21  C   UNL     1      23.509  25.501  29.725  1.00  0.00     0.202 C 
BRANCH  17  22
ATOM     22  C   UNL     1      24.637  29.470  28.889  1.00  0.00     0.191 C 
BRANCH  22  23
ATOM     23  O   UNL     1      23.695  30.123  29.653  1.00  0.00    -0.394 OA
ATOM     24  H   UNL     1      22.850  29.608  29.663  1.00  0.00     0.210 HD
ENDBRANCH  22  23
ENDBRANCH  17  22
BRANCH  19  25
ATOM     25  O   UNL     1      25.764  25.371  30.468  1.00  0.00    -0.350 OA
BRANCH  25  26
ATOM     26  C   UNL     1      26.999  25.976  30.623  1.00  0.00     0.169 C 
BRANCH  26  27
ATOM     27  C   UNL     1      27.907  25.823  29.419  1.00  0.00     0.119 C 
BRANCH  27  28
ATOM     28  N   UNL     1      29.056  25.005  29.741  1.00  0.00    -0.092 NA
ATOM     29  N   UNL     1      29.909  25.408  30.524  1.00  0.00     0.001 N 
ATOM     30  N   UNL     1      30.618  25.943  31.402  1.00  0.00    -0.003 NA
ENDBRANCH  27  28
ENDBRANCH  26  27
ENDBRANCH  25  26
ENDBRANCH  19  25
BRANCH  20  31
ATOM     31  O   UNL     1      21.270  25.988  29.310  1.00  0.00    -0.387 OA
ATOM     32  H   UNL     1      20.789  26.838  29.533  1.00  0.00     0.211 HD
ENDBRANCH  20  31
BRANCH  21  33
ATOM     33  O   UNL     1      23.479  24.159  29.355  1.00  0.00    -0.385 OA
ATOM     34  H   UNL     1      23.210  24.013  28.423  1.00  0.00     0.211 HD
ENDBRANCH  21  33
ENDBRANCH  15  16
ENDBRANCH  10  15
BRANCH  12  35
ATOM     35  O   UNL     1      19.673  30.481  26.925  1.00  0.00    -0.385 OA
ATOM     36  H   UNL     1      19.038  30.731  27.670  1.00  0.00     0.211 HD
ENDBRANCH  12  35
BRANCH  13  37
ATOM     37  O   UNL     1      23.100  31.324  26.869  1.00  0.00    -0.387 OA
ATOM     38  H   UNL     1      23.117  32.310  26.932  1.00  0.00     0.211 HD
ENDBRANCH  13  37
BRANCH  14  39
ATOM     39  O   UNL     1      23.467  29.120  25.578  1.00  0.00    -0.387 OA
ATOM     40  H   UNL     1      23.916  28.814  24.760  1.00  0.00     0.211 HD
ENDBRANCH  14  39
ENDBRANCH   8   9
ENDBRANCH   7   8
ENDBRANCH   1   7
BRANCH   1  41
ATOM     41  C   UNL     1      21.363  25.050  23.003  1.00  0.00     0.364 C 
ATOM     42  O   UNL     1      20.641  24.250  23.639  1.00  0.00    -0.246 OA
BRANCH  41  43
ATOM     43  O   UNL     1      21.213  25.203  21.661  1.00  0.00    -0.477 OA
ATOM     44  H   UNL     1      20.466  25.682  21.209  1.00  0.00     0.296 HD
ENDBRANCH  41  43
ENDBRANCH   1  41
BRANCH   3  45
ATOM     45  O   UNL     1      24.378  26.457  25.838  1.00  0.00    -0.391 OA
ATOM     46  H   UNL     1      23.496  26.816  25.978  1.00  0.00     0.211 HD
ENDBRANCH   3  45
BRANCH   5  47
ATOM     47  C   UNL     1      24.940  27.989  22.778  1.00  0.00     0.176 C 
BRANCH  47  48
ATOM     48  O   UNL     1      26.215  28.178  23.233  1.00  0.00    -0.388 OA
ATOM     49  H   UNL     1      26.927  27.776  22.668  1.00  0.00     0.211 HD
ENDBRANCH  47  48
BRANCH  47  50
ATOM     50  C   UNL     1      24.735  28.688  21.485  1.00  0.00     0.165 C 
BRANCH  50  51
ATOM     51  O   UNL     1      23.373  28.988  21.243  1.00  0.00    -0.388 OA
ATOM     52  H   UNL     1      23.272  29.562  20.448  1.00  0.00     0.211 HD
ENDBRANCH  50  51
BRANCH  50  53
ATOM     53  C   UNL     1      25.049  27.648  20.385  1.00  0.00     0.154 C 
BRANCH  53  54
ATOM     54  N   UNL     1      24.078  27.733  19.330  1.00  0.00    -0.319 N 
ATOM     55  C   UNL     1      23.318  26.612  18.940  1.00  0.00     0.407 C 
ATOM     56  H   UNL     1      23.900  28.642  18.810  1.00  0.00     0.167 HD
ATOM     57  O   UNL     1      23.450  25.509  19.518  1.00  0.00    -0.225 OA
BRANCH  55  58
ATOM     58  O   UNL     1      22.392  26.695  17.893  1.00  0.00    -0.443 OA
BRANCH  58  59
ATOM     59  C   UNL     1      21.577  27.820  17.714  1.00  0.00     0.294 C 
BRANCH  59  60
ATOM     60  C   UNL     1      20.693  28.037  18.900  1.00  0.00     0.121 A 
ATOM     61  C   UNL     1      19.569  28.889  18.903  1.00  0.00     0.144 A 
ATOM     62  N   UNL     1      20.748  27.524  20.120  1.00  0.00    -0.131 NA
ATOM     63  N   UNL     1      19.009  28.850  20.103  1.00  0.00    -0.219 N 
ATOM     64  N   UNL     1      19.756  28.004  20.825  1.00  0.00    -0.062 NA
BRANCH  63  65
ATOM     65  C   UNL     1      17.873  29.495  20.649  1.00  0.00     0.081 A 
ATOM     66  C   UNL     1      16.603  28.951  20.422  1.00  0.00     0.049 A 
ATOM     67  C   UNL     1      17.904  30.653  21.372  1.00  0.00     0.065 A 
ATOM     68  C   UNL     1      15.479  29.547  20.894  1.00  0.00     0.043 A 
ATOM     69  C   UNL     1      16.739  31.273  21.861  1.00  0.00     0.017 A 
ATOM     70  Cl  UNL     1      13.916  28.810  20.573  1.00  0.00    -0.084 Cl
ATOM     71  C   UNL     1      15.511  30.708  21.617  1.00  0.00     0.021 A 
BRANCH  67  72
ATOM     72  C   UNL     1      19.168  31.304  21.728  1.00  0.00     0.255 C 
ATOM     73  O   UNL     1      19.708  31.007  22.812  1.00  0.00    -0.269 OA
ATOM     74  N   UNL     1      19.749  32.237  20.865  1.00  0.00    -0.345 N 
ATOM     75  C   UNL     1      19.104  32.577  19.600  1.00  0.00     0.146 C 
ATOM     76  C   UNL     1      21.013  32.893  21.191  1.00  0.00     0.146 C 
ENDBRANCH  67  72
ENDBRANCH  63  65
ENDBRANCH  59  60
ENDBRANCH  58  59
ENDBRANCH  55  58
ENDBRANCH  53  54
ENDBRANCH  50  53
ENDBRANCH  47  50
ENDBRANCH   5  47
BRANCH   4  77
ATOM     77  N   UNL     1      25.488  24.346  23.101  1.00  0.00    -0.348 N 
ATOM     78  C   UNL     1      26.479  24.153  22.116  1.00  0.00     0.217 C 
ATOM     79  H   UNL     1      24.929  23.521  23.394  1.00  0.00     0.163 HD
ATOM     80  C   UNL     1      26.749  22.833  21.495  1.00  0.00     0.114 C 
ATOM     81  O   UNL     1      27.165  25.142  21.746  1.00  0.00    -0.275 OA
ENDBRANCH   4  77
TORSDOF 31
