REMARK VINA RESULT:    -5.626      9.193     12.393
REMARK INTER + INTRA:         -21.268
REMARK INTER:                 -15.436
REMARK INTRA:                  -5.832
REMARK UNBOUND:                -7.419
REMARK SMILES CC(=O)N[C@@H]1[C@@H](O)C[C@](OC[C@H]2O[C@@H](O[C@H]3[C@H](O)[C@@H](O)[C@H](OCCN=[N+]=[N-])O[C@@H]3CO)[C@H](O)[C@@H](O)[C@H]2O)(C(=O)O)O[C@H]1C(O)[C@H](O)CNC(=O)OCc1cn(-c2ccc(C)cc2)nn1
REMARK SMILES IDX 9 1 8 2 6 3 5 4 42 5 41 6 10 7 11 8 12 9 14 10 13 11 32 12
REMARK SMILES IDX 34 13 36 14 15 15 16 16 29 17 28 18 21 19 17 20 19 21 30 22
REMARK SMILES IDX 31 23 22 25 23 26 24 27 25 28 26 29 27 30 18 31 20 33 33 35
REMARK SMILES IDX 35 37 37 39 38 41 39 42 40 43 7 45 43 47 44 48 45 50 46 51
REMARK SMILES IDX 47 53 48 54 49 55 50 57 51 58 52 59 53 60 54 61 64 62 55 63
REMARK SMILES IDX 63 64 56 65 57 66 62 67 58 68 61 69 59 70 60 71 4 72 2 73
REMARK SMILES IDX 1 75 3 76
REMARK H PARENT 31 24 18 32 20 34 33 36 35 38 37 40 40 44 7 46 44 49 46 52
REMARK H PARENT 48 56 4 74
REMARK Flexibility Score: inf
ROOT
ATOM      1  C   UNL     1      13.564  30.920  15.750  1.00  0.00     0.272 C 
ATOM      2  C   UNL     1      12.911  29.543  15.800  1.00  0.00     0.113 C 
ATOM      3  C   UNL     1      12.544  29.055  14.451  1.00  0.00     0.145 C 
ATOM      4  C   UNL     1      13.438  29.490  13.345  1.00  0.00     0.142 C 
ATOM      5  C   UNL     1      14.698  30.243  13.760  1.00  0.00     0.178 C 
ATOM      6  O   UNL     1      14.466  31.066  14.809  1.00  0.00    -0.332 OA
ENDROOT
BRANCH   1   7
ATOM      7  O   UNL     1      14.237  31.017  17.008  1.00  0.00    -0.338 OA
BRANCH   7   8
ATOM      8  C   UNL     1      14.934  32.227  17.035  1.00  0.00     0.199 C 
BRANCH   8   9
ATOM      9  C   UNL     1      15.936  32.281  18.125  1.00  0.00     0.179 C 
ATOM     10  C   UNL     1      16.397  31.620  20.271  1.00  0.00     0.282 C 
ATOM     11  O   UNL     1      15.595  31.403  19.156  1.00  0.00    -0.341 OA
ATOM     12  C   UNL     1      17.785  31.178  20.001  1.00  0.00     0.202 C 
ATOM     13  C   UNL     1      17.996  30.968  18.527  1.00  0.00     0.179 C 
ATOM     14  C   UNL     1      17.349  32.036  17.670  1.00  0.00     0.177 C 
BRANCH  10  15
ATOM     15  O   UNL     1      15.884  30.907  21.352  1.00  0.00    -0.341 OA
BRANCH  15  16
ATOM     16  C   UNL     1      14.536  30.597  21.166  1.00  0.00     0.184 C 
ATOM     17  C   UNL     1      13.584  31.666  21.625  1.00  0.00     0.178 C 
ATOM     18  O   UNL     1      12.783  31.188  22.667  1.00  0.00    -0.341 OA
ATOM     19  C   UNL     1      13.580  30.913  23.763  1.00  0.00     0.281 C 
ATOM     20  C   UNL     1      14.282  29.361  22.001  1.00  0.00     0.180 C 
ATOM     21  C   UNL     1      14.546  29.786  23.454  1.00  0.00     0.202 C 
BRANCH  17  22
ATOM     22  C   UNL     1      12.587  32.004  20.503  1.00  0.00     0.191 C 
BRANCH  22  23
ATOM     23  O   UNL     1      12.743  31.128  19.432  1.00  0.00    -0.394 OA
ATOM     24  H   UNL     1      11.966  31.287  18.816  1.00  0.00     0.210 HD
ENDBRANCH  22  23
ENDBRANCH  17  22
BRANCH  19  25
ATOM     25  O   UNL     1      12.843  30.609  24.897  1.00  0.00    -0.350 OA
BRANCH  25  26
ATOM     26  C   UNL     1      12.376  29.319  24.923  1.00  0.00     0.169 C 
BRANCH  26  27
ATOM     27  C   UNL     1      10.932  29.152  24.542  1.00  0.00     0.119 C 
BRANCH  27  28
ATOM     28  N   UNL     1      10.425  27.851  24.904  1.00  0.00    -0.092 NA
ATOM     29  N   UNL     1       9.249  27.582  24.731  1.00  0.00     0.001 N 
ATOM     30  N   UNL     1       8.086  27.264  24.477  1.00  0.00    -0.003 NA
ENDBRANCH  27  28
ENDBRANCH  26  27
ENDBRANCH  25  26
ENDBRANCH  19  25
BRANCH  20  31
ATOM     31  O   UNL     1      12.986  28.882  21.878  1.00  0.00    -0.387 OA
ATOM     32  H   UNL     1      12.426  29.637  21.573  1.00  0.00     0.211 HD
ENDBRANCH  20  31
BRANCH  21  33
ATOM     33  O   UNL     1      15.837  30.350  23.432  1.00  0.00    -0.385 OA
ATOM     34  H   UNL     1      16.157  30.593  24.331  1.00  0.00     0.211 HD
ENDBRANCH  21  33
ENDBRANCH  15  16
ENDBRANCH  10  15
BRANCH  12  35
ATOM     35  O   UNL     1      18.738  32.077  20.514  1.00  0.00    -0.385 OA
ATOM     36  H   UNL     1      18.393  32.304  21.438  1.00  0.00     0.211 HD
ENDBRANCH  12  35
BRANCH  13  37
ATOM     37  O   UNL     1      17.638  29.685  18.194  1.00  0.00    -0.387 OA
ATOM     38  H   UNL     1      16.936  29.282  18.798  1.00  0.00     0.211 HD
ENDBRANCH  13  37
BRANCH  14  39
ATOM     39  O   UNL     1      17.309  31.596  16.361  1.00  0.00    -0.387 OA
ATOM     40  H   UNL     1      16.618  30.929  16.170  1.00  0.00     0.211 HD
ENDBRANCH  14  39
ENDBRANCH   8   9
ENDBRANCH   7   8
ENDBRANCH   1   7
BRANCH   1  41
ATOM     41  C   UNL     1      12.442  31.878  15.705  1.00  0.00     0.364 C 
ATOM     42  O   UNL     1      11.657  32.070  16.661  1.00  0.00    -0.246 OA
BRANCH  41  43
ATOM     43  O   UNL     1      12.260  32.612  14.518  1.00  0.00    -0.477 OA
ATOM     44  H   UNL     1      11.314  32.714  14.150  1.00  0.00     0.296 HD
ENDBRANCH  41  43
ENDBRANCH   1  41
BRANCH   3  45
ATOM     45  O   UNL     1      12.336  27.657  14.465  1.00  0.00    -0.391 OA
ATOM     46  H   UNL     1      11.750  27.477  13.662  1.00  0.00     0.211 HD
ENDBRANCH   3  45
BRANCH   5  47
ATOM     47  C   UNL     1      15.805  29.238  14.007  1.00  0.00     0.176 C 
BRANCH  47  48
ATOM     48  O   UNL     1      15.362  27.933  14.161  1.00  0.00    -0.388 OA
ATOM     49  H   UNL     1      14.592  27.836  13.541  1.00  0.00     0.211 HD
ENDBRANCH  47  48
BRANCH  47  50
ATOM     50  C   UNL     1      17.058  29.335  13.275  1.00  0.00     0.165 C 
BRANCH  50  51
ATOM     51  O   UNL     1      17.368  28.252  12.426  1.00  0.00    -0.388 OA
ATOM     52  H   UNL     1      17.330  28.542  11.477  1.00  0.00     0.211 HD
ENDBRANCH  50  51
BRANCH  50  53
ATOM     53  C   UNL     1      18.326  29.754  13.933  1.00  0.00     0.154 C 
BRANCH  53  54
ATOM     54  N   UNL     1      18.543  29.183  15.236  1.00  0.00    -0.319 N 
ATOM     55  C   UNL     1      19.799  28.610  15.590  1.00  0.00     0.407 C 
ATOM     56  H   UNL     1      17.774  29.181  15.945  1.00  0.00     0.167 HD
ATOM     57  O   UNL     1      20.731  28.623  14.749  1.00  0.00    -0.225 OA
BRANCH  55  58
ATOM     58  O   UNL     1      19.970  28.050  16.838  1.00  0.00    -0.443 OA
BRANCH  58  59
ATOM     59  C   UNL     1      21.083  28.268  17.636  1.00  0.00     0.294 C 
BRANCH  59  60
ATOM     60  C   UNL     1      20.807  27.966  19.042  1.00  0.00     0.121 A 
ATOM     61  C   UNL     1      21.659  27.282  19.928  1.00  0.00     0.144 A 
ATOM     62  N   UNL     1      19.734  28.256  19.765  1.00  0.00    -0.131 NA
ATOM     63  N   UNL     1      21.054  27.204  21.113  1.00  0.00    -0.220 N 
ATOM     64  N   UNL     1      19.887  27.800  20.993  1.00  0.00    -0.062 NA
BRANCH  63  65
ATOM     65  C   UNL     1      21.627  26.563  22.267  1.00  0.00     0.066 A 
ATOM     66  C   UNL     1      21.232  25.291  22.615  1.00  0.00     0.029 A 
ATOM     67  C   UNL     1      22.584  27.179  23.046  1.00  0.00     0.029 A 
ATOM     68  C   UNL     1      21.793  24.653  23.726  1.00  0.00     0.005 A 
ATOM     69  C   UNL     1      23.147  26.542  24.159  1.00  0.00     0.005 A 
ATOM     70  C   UNL     1      22.749  25.271  24.501  1.00  0.00    -0.051 A 
ATOM     71  C   UNL     1      23.359  24.584  25.685  1.00  0.00     0.044 C 
ENDBRANCH  63  65
ENDBRANCH  59  60
ENDBRANCH  58  59
ENDBRANCH  55  58
ENDBRANCH  53  54
ENDBRANCH  50  53
ENDBRANCH  47  50
ENDBRANCH   5  47
BRANCH   4  72
ATOM     72  N   UNL     1      12.725  30.155  12.272  1.00  0.00    -0.348 N 
ATOM     73  C   UNL     1      13.033  29.983  10.888  1.00  0.00     0.217 C 
ATOM     74  H   UNL     1      11.942  30.807  12.477  1.00  0.00     0.163 HD
ATOM     75  C   UNL     1      12.270  30.702   9.821  1.00  0.00     0.114 C 
ATOM     76  O   UNL     1      13.978  29.194  10.642  1.00  0.00    -0.275 OA
ENDBRANCH   4  72
TORSDOF 30
