REMARK VINA RESULT:    -6.687     14.977     21.248
REMARK INTER + INTRA:         -21.998
REMARK INTER:                 -16.459
REMARK INTRA:                  -5.539
REMARK UNBOUND:                -5.539
REMARK SMILES CC(=O)N[C@@H]1[C@@H](O)C[C@](OC[C@H]2O[C@@H](O[C@H]3[C@H](O)[C@@H](O)[C@H](OCCN=[N+]=[N-])O[C@@H]3CO)[C@H](O)[C@@H](O)[C@H]2O)(C(=O)O)O[C@H]1C(O)[C@H](O)CNC(=O)OCc1cn(-c2c3ccccc3nc3ccccc23)nn1
REMARK SMILES IDX 9 1 8 2 6 3 5 4 42 5 41 6 10 7 11 8 12 9 14 10 13 11 32 12
REMARK SMILES IDX 34 13 36 14 15 15 16 16 29 17 28 18 21 19 17 20 19 21 30 22
REMARK SMILES IDX 31 23 22 25 23 26 24 27 25 28 26 29 27 30 18 31 20 33 33 35
REMARK SMILES IDX 35 37 37 39 38 41 39 42 40 43 7 45 43 47 44 48 45 50 46 51
REMARK SMILES IDX 47 53 48 54 49 55 50 57 51 58 52 59 53 60 54 61 71 62 55 63
REMARK SMILES IDX 70 64 56 65 57 66 69 67 58 68 62 69 64 70 68 71 59 72 61 73
REMARK SMILES IDX 63 74 65 75 67 76 60 77 66 78 4 79 2 80 1 82 3 83
REMARK H PARENT 31 24 18 32 20 34 33 36 35 38 37 40 40 44 7 46 44 49 46 52
REMARK H PARENT 48 56 4 81
REMARK Flexibility Score: inf
ROOT
ATOM      1  C   UNL     1      16.345  30.628  16.354  1.00  0.00     0.272 C 
ATOM      2  C   UNL     1      15.917  29.129  15.963  1.00  0.00     0.113 C 
ATOM      3  C   UNL     1      15.122  29.308  14.722  1.00  0.00     0.145 C 
ATOM      4  C   UNL     1      15.831  30.061  13.616  1.00  0.00     0.142 C 
ATOM      5  C   UNL     1      16.855  31.009  14.083  1.00  0.00     0.178 C 
ATOM      6  O   UNL     1      17.201  30.963  15.391  1.00  0.00    -0.332 OA
ENDROOT
BRANCH   1   7
ATOM      7  O   UNL     1      17.050  30.347  17.526  1.00  0.00    -0.338 OA
BRANCH   7   8
ATOM      8  C   UNL     1      18.343  30.745  17.577  1.00  0.00     0.199 C 
BRANCH   8   9
ATOM      9  C   UNL     1      19.087  30.354  18.795  1.00  0.00     0.179 C 
ATOM     10  C   UNL     1      19.116  30.360  21.129  1.00  0.00     0.282 C 
ATOM     11  O   UNL     1      18.469  30.769  19.943  1.00  0.00    -0.341 OA
ATOM     12  C   UNL     1      20.442  29.758  20.921  1.00  0.00     0.202 C 
ATOM     13  C   UNL     1      20.408  28.642  19.903  1.00  0.00     0.179 C 
ATOM     14  C   UNL     1      19.374  28.851  18.847  1.00  0.00     0.177 C 
BRANCH  10  15
ATOM     15  O   UNL     1      18.258  29.566  21.878  1.00  0.00    -0.341 OA
BRANCH  15  16
ATOM     16  C   UNL     1      17.037  30.216  22.172  1.00  0.00     0.184 C 
ATOM     17  C   UNL     1      16.919  30.428  23.628  1.00  0.00     0.178 C 
ATOM     18  O   UNL     1      15.585  30.629  24.067  1.00  0.00    -0.341 OA
ATOM     19  C   UNL     1      14.903  29.446  23.811  1.00  0.00     0.281 C 
ATOM     20  C   UNL     1      15.971  29.238  21.654  1.00  0.00     0.180 C 
ATOM     21  C   UNL     1      14.633  29.472  22.298  1.00  0.00     0.202 C 
BRANCH  17  22
ATOM     22  C   UNL     1      17.701  31.652  24.081  1.00  0.00     0.191 C 
BRANCH  22  23
ATOM     23  O   UNL     1      16.979  32.816  24.018  1.00  0.00    -0.394 OA
ATOM     24  H   UNL     1      16.019  32.608  24.161  1.00  0.00     0.210 HD
ENDBRANCH  22  23
ENDBRANCH  17  22
BRANCH  19  25
ATOM     25  O   UNL     1      13.750  29.451  24.555  1.00  0.00    -0.350 OA
BRANCH  25  26
ATOM     26  C   UNL     1      13.344  30.712  24.979  1.00  0.00     0.169 C 
BRANCH  26  27
ATOM     27  C   UNL     1      11.903  31.000  24.613  1.00  0.00     0.119 C 
BRANCH  27  28
ATOM     28  N   UNL     1      11.431  29.872  23.818  1.00  0.00    -0.092 NA
ATOM     29  N   UNL     1      10.658  29.039  24.304  1.00  0.00     0.001 N 
ATOM     30  N   UNL     1       9.835  28.219  24.715  1.00  0.00    -0.003 NA
ENDBRANCH  27  28
ENDBRANCH  26  27
ENDBRANCH  25  26
ENDBRANCH  19  25
BRANCH  20  31
ATOM     31  O   UNL     1      15.919  29.289  20.270  1.00  0.00    -0.387 OA
ATOM     32  H   UNL     1      16.711  29.725  19.868  1.00  0.00     0.211 HD
ENDBRANCH  20  31
BRANCH  21  33
ATOM     33  O   UNL     1      13.764  28.469  21.930  1.00  0.00    -0.385 OA
ATOM     34  H   UNL     1      13.640  27.878  22.733  1.00  0.00     0.211 HD
ENDBRANCH  21  33
ENDBRANCH  15  16
ENDBRANCH  10  15
BRANCH  12  35
ATOM     35  O   UNL     1      21.395  30.737  20.603  1.00  0.00    -0.385 OA
ATOM     36  H   UNL     1      21.027  31.212  19.799  1.00  0.00     0.211 HD
ENDBRANCH  12  35
BRANCH  13  37
ATOM     37  O   UNL     1      20.196  27.438  20.601  1.00  0.00    -0.387 OA
ATOM     38  H   UNL     1      19.517  27.665  21.314  1.00  0.00     0.211 HD
ENDBRANCH  13  37
BRANCH  14  39
ATOM     39  O   UNL     1      18.230  28.104  19.039  1.00  0.00    -0.387 OA
ATOM     40  H   UNL     1      17.948  27.607  18.230  1.00  0.00     0.211 HD
ENDBRANCH  14  39
ENDBRANCH   8   9
ENDBRANCH   7   8
ENDBRANCH   1   7
BRANCH   1  41
ATOM     41  C   UNL     1      15.091  31.269  16.565  1.00  0.00     0.364 C 
ATOM     42  O   UNL     1      14.231  30.780  17.366  1.00  0.00    -0.246 OA
BRANCH  41  43
ATOM     43  O   UNL     1      14.659  32.456  15.960  1.00  0.00    -0.477 OA
ATOM     44  H   UNL     1      15.236  33.283  16.048  1.00  0.00     0.296 HD
ENDBRANCH  41  43
ENDBRANCH   1  41
BRANCH   3  45
ATOM     45  O   UNL     1      14.771  28.010  14.278  1.00  0.00    -0.391 OA
ATOM     46  H   UNL     1      14.603  27.434  15.069  1.00  0.00     0.211 HD
ENDBRANCH   3  45
BRANCH   5  47
ATOM     47  C   UNL     1      18.194  30.830  13.314  1.00  0.00     0.176 C 
BRANCH  47  48
ATOM     48  O   UNL     1      18.060  31.228  12.017  1.00  0.00    -0.388 OA
ATOM     49  H   UNL     1      18.438  30.580  11.344  1.00  0.00     0.211 HD
ENDBRANCH  47  48
BRANCH  47  50
ATOM     50  C   UNL     1      19.370  31.238  14.078  1.00  0.00     0.165 C 
BRANCH  50  51
ATOM     51  O   UNL     1      19.514  32.603  14.339  1.00  0.00    -0.388 OA
ATOM     52  H   UNL     1      18.737  33.123  14.013  1.00  0.00     0.211 HD
ENDBRANCH  50  51
BRANCH  50  53
ATOM     53  C   UNL     1      20.651  30.533  13.858  1.00  0.00     0.154 C 
BRANCH  53  54
ATOM     54  N   UNL     1      20.915  29.308  14.515  1.00  0.00    -0.319 N 
ATOM     55  C   UNL     1      21.457  29.171  15.810  1.00  0.00     0.407 C 
ATOM     56  H   UNL     1      20.680  28.388  13.983  1.00  0.00     0.167 HD
ATOM     57  O   UNL     1      21.801  30.115  16.537  1.00  0.00    -0.225 OA
BRANCH  55  58
ATOM     58  O   UNL     1      21.646  27.895  16.376  1.00  0.00    -0.443 OA
BRANCH  58  59
ATOM     59  C   UNL     1      22.857  27.170  16.253  1.00  0.00     0.294 C 
BRANCH  59  60
ATOM     60  C   UNL     1      22.919  26.125  17.316  1.00  0.00     0.121 A 
ATOM     61  C   UNL     1      23.589  26.170  18.520  1.00  0.00     0.144 A 
ATOM     62  N   UNL     1      22.334  24.920  17.287  1.00  0.00    -0.131 NA
ATOM     63  N   UNL     1      23.405  25.013  19.197  1.00  0.00    -0.219 N 
ATOM     64  N   UNL     1      22.636  24.271  18.418  1.00  0.00    -0.062 NA
BRANCH  63  65
ATOM     65  C   UNL     1      23.946  24.679  20.488  1.00  0.00     0.085 A 
ATOM     66  C   UNL     1      25.281  24.323  20.610  1.00  0.00     0.027 A 
ATOM     67  C   UNL     1      23.178  24.694  21.629  1.00  0.00     0.027 A 
ATOM     68  C   UNL     1      26.102  24.290  19.505  1.00  0.00     0.012 A 
ATOM     69  C   UNL     1      25.850  23.987  21.836  1.00  0.00     0.073 A 
ATOM     70  C   UNL     1      23.779  24.356  22.821  1.00  0.00     0.073 A 
ATOM     71  C   UNL     1      21.858  25.036  21.582  1.00  0.00     0.012 A 
ATOM     72  C   UNL     1      27.429  23.938  19.625  1.00  0.00     0.001 A 
ATOM     73  C   UNL     1      27.177  23.635  21.953  1.00  0.00     0.029 A 
ATOM     74  N   UNL     1      25.075  24.012  22.927  1.00  0.00    -0.248 NA
ATOM     75  C   UNL     1      23.041  24.360  23.986  1.00  0.00     0.029 A 
ATOM     76  C   UNL     1      21.139  25.032  22.771  1.00  0.00     0.001 A 
ATOM     77  C   UNL     1      27.998  23.602  20.851  1.00  0.00     0.002 A 
ATOM     78  C   UNL     1      21.701  24.700  23.985  1.00  0.00     0.002 A 
ENDBRANCH  63  65
ENDBRANCH  59  60
ENDBRANCH  58  59
ENDBRANCH  55  58
ENDBRANCH  53  54
ENDBRANCH  50  53
ENDBRANCH  47  50
ENDBRANCH   5  47
BRANCH   4  79
ATOM     79  N   UNL     1      14.842  30.647  12.739  1.00  0.00    -0.348 N 
ATOM     80  C   UNL     1      14.821  30.479  11.322  1.00  0.00     0.217 C 
ATOM     81  H   UNL     1      14.075  31.246  13.121  1.00  0.00     0.163 HD
ATOM     82  C   UNL     1      13.742  31.145  10.518  1.00  0.00     0.114 C 
ATOM     83  O   UNL     1      15.708  29.779  10.807  1.00  0.00    -0.275 OA
ENDBRANCH   4  79
TORSDOF 30
