REMARK VINA RESULT:    -4.850      9.140     12.858
REMARK INTER + INTRA:         -21.067
REMARK INTER:                 -12.993
REMARK INTRA:                  -8.074
REMARK UNBOUND:                -8.562
REMARK SMILES CC(=O)N[C@@H]1[C@@H](O)C[C@](OC[C@H]2O[C@@H](O[C@H]3[C@H](O)[C@@H](O)[C@H](OCCN=[N+]=[N-])O[C@@H]3CO)[C@H](O)[C@@H](O)[C@H]2O)(C(=O)O)O[C@H]1C(O)[C@H](O)CNC(=O)OCc1cn(Cc2ccc(C#N)cc2)nn1
REMARK SMILES IDX 9 1 8 2 6 3 5 4 42 5 41 6 10 7 11 8 12 9 14 10 13 11 32 12
REMARK SMILES IDX 34 13 36 14 15 15 16 16 29 17 28 18 21 19 17 20 19 21 30 22
REMARK SMILES IDX 31 23 22 25 23 26 24 27 25 28 26 29 27 30 18 31 20 33 33 35
REMARK SMILES IDX 35 37 37 39 38 41 39 42 40 43 7 45 43 47 44 48 45 50 46 51
REMARK SMILES IDX 47 53 48 54 49 55 50 57 51 58 52 59 53 60 54 61 66 62 55 63
REMARK SMILES IDX 65 64 56 65 57 66 58 67 64 68 59 69 63 70 60 71 61 72 62 73
REMARK SMILES IDX 4 74 2 75 1 77 3 78
REMARK H PARENT 31 24 18 32 20 34 33 36 35 38 37 40 40 44 7 46 44 49 46 52
REMARK H PARENT 48 56 4 76
REMARK Flexibility Score: inf
ROOT
ATOM      1  C   UNL     1      15.135  29.602  20.267  1.00  0.00     0.272 C 
ATOM      2  C   UNL     1      13.875  29.154  20.920  1.00  0.00     0.113 C 
ATOM      3  C   UNL     1      13.249  30.140  21.840  1.00  0.00     0.145 C 
ATOM      4  C   UNL     1      14.373  30.991  22.454  1.00  0.00     0.142 C 
ATOM      5  C   UNL     1      15.598  30.127  22.453  1.00  0.00     0.178 C 
ATOM      6  O   UNL     1      16.104  30.031  21.188  1.00  0.00    -0.332 OA
ENDROOT
BRANCH   1   7
ATOM      7  O   UNL     1      14.998  30.528  19.256  1.00  0.00    -0.338 OA
BRANCH   7   8
ATOM      8  C   UNL     1      16.042  31.379  19.109  1.00  0.00     0.199 C 
BRANCH   8   9
ATOM      9  C   UNL     1      15.730  32.512  18.117  1.00  0.00     0.179 C 
ATOM     10  C   UNL     1      14.509  32.872  16.192  1.00  0.00     0.282 C 
ATOM     11  O   UNL     1      15.029  31.919  17.066  1.00  0.00    -0.341 OA
ATOM     12  C   UNL     1      13.526  33.791  16.840  1.00  0.00     0.202 C 
ATOM     13  C   UNL     1      13.425  33.461  18.311  1.00  0.00     0.179 C 
ATOM     14  C   UNL     1      14.851  33.499  18.840  1.00  0.00     0.177 C 
BRANCH  10  15
ATOM     15  O   UNL     1      13.850  32.175  15.182  1.00  0.00    -0.341 OA
BRANCH  15  16
ATOM     16  C   UNL     1      13.972  30.792  15.297  1.00  0.00     0.184 C 
ATOM     17  C   UNL     1      14.295  30.206  13.970  1.00  0.00     0.178 C 
ATOM     18  O   UNL     1      13.245  29.712  13.252  1.00  0.00    -0.341 OA
ATOM     19  C   UNL     1      11.988  29.996  13.723  1.00  0.00     0.281 C 
ATOM     20  C   UNL     1      12.816  30.169  16.012  1.00  0.00     0.180 C 
ATOM     21  C   UNL     1      11.853  29.432  15.120  1.00  0.00     0.202 C 
BRANCH  17  22
ATOM     22  C   UNL     1      15.414  29.180  14.133  1.00  0.00     0.191 C 
BRANCH  22  23
ATOM     23  O   UNL     1      14.831  27.913  14.114  1.00  0.00    -0.394 OA
ATOM     24  H   UNL     1      13.846  27.966  14.307  1.00  0.00     0.210 HD
ENDBRANCH  22  23
ENDBRANCH  17  22
BRANCH  19  25
ATOM     25  O   UNL     1      11.088  29.298  12.893  1.00  0.00    -0.350 OA
BRANCH  25  26
ATOM     26  C   UNL     1      11.663  28.130  12.414  1.00  0.00     0.169 C 
BRANCH  26  27
ATOM     27  C   UNL     1      10.820  27.525  11.309  1.00  0.00     0.119 C 
BRANCH  27  28
ATOM     28  N   UNL     1       9.564  26.995  11.805  1.00  0.00    -0.092 NA
ATOM     29  N   UNL     1       8.506  27.432  11.385  1.00  0.00     0.001 N 
ATOM     30  N   UNL     1       7.402  27.431  10.817  1.00  0.00    -0.003 NA
ENDBRANCH  27  28
ENDBRANCH  26  27
ENDBRANCH  25  26
ENDBRANCH  19  25
BRANCH  20  31
ATOM     31  O   UNL     1      13.209  29.367  17.090  1.00  0.00    -0.387 OA
ATOM     32  H   UNL     1      13.836  29.875  17.684  1.00  0.00     0.211 HD
ENDBRANCH  20  31
BRANCH  21  33
ATOM     33  O   UNL     1      10.537  29.538  15.573  1.00  0.00    -0.385 OA
ATOM     34  H   UNL     1      10.043  30.064  14.891  1.00  0.00     0.211 HD
ENDBRANCH  21  33
ENDBRANCH  15  16
ENDBRANCH  10  15
BRANCH  12  35
ATOM     35  O   UNL     1      13.818  35.131  16.713  1.00  0.00    -0.385 OA
ATOM     36  H   UNL     1      13.076  35.593  16.230  1.00  0.00     0.211 HD
ENDBRANCH  12  35
BRANCH  13  37
ATOM     37  O   UNL     1      12.848  32.207  18.435  1.00  0.00    -0.387 OA
ATOM     38  H   UNL     1      13.060  31.736  19.270  1.00  0.00     0.211 HD
ENDBRANCH  13  37
BRANCH  14  39
ATOM     39  O   UNL     1      14.929  33.391  20.208  1.00  0.00    -0.387 OA
ATOM     40  H   UNL     1      14.751  34.261  20.624  1.00  0.00     0.211 HD
ENDBRANCH  14  39
ENDBRANCH   8   9
ENDBRANCH   7   8
ENDBRANCH   1   7
BRANCH   1  41
ATOM     41  C   UNL     1      15.760  28.373  19.673  1.00  0.00     0.364 C 
ATOM     42  O   UNL     1      16.344  27.560  20.397  1.00  0.00    -0.246 OA
BRANCH  41  43
ATOM     43  O   UNL     1      15.665  28.176  18.315  1.00  0.00    -0.477 OA
ATOM     44  H   UNL     1      15.997  27.346  17.839  1.00  0.00     0.296 HD
ENDBRANCH  41  43
ENDBRANCH   1  41
BRANCH   3  45
ATOM     45  O   UNL     1      12.231  30.894  21.328  1.00  0.00    -0.391 OA
ATOM     46  H   UNL     1      12.516  31.386  20.531  1.00  0.00     0.211 HD
ENDBRANCH   3  45
BRANCH   5  47
ATOM     47  C   UNL     1      16.666  30.597  23.448  1.00  0.00     0.176 C 
BRANCH  47  48
ATOM     48  O   UNL     1      17.483  29.460  23.654  1.00  0.00    -0.388 OA
ATOM     49  H   UNL     1      17.928  29.561  24.532  1.00  0.00     0.211 HD
ENDBRANCH  47  48
BRANCH  47  50
ATOM     50  C   UNL     1      17.483  31.682  22.904  1.00  0.00     0.165 C 
BRANCH  50  51
ATOM     51  O   UNL     1      16.718  32.510  22.027  1.00  0.00    -0.388 OA
ATOM     52  H   UNL     1      15.795  32.490  22.431  1.00  0.00     0.211 HD
ENDBRANCH  50  51
BRANCH  50  53
ATOM     53  C   UNL     1      18.756  31.320  22.247  1.00  0.00     0.154 C 
BRANCH  53  54
ATOM     54  N   UNL     1      18.865  30.264  21.341  1.00  0.00    -0.319 N 
ATOM     55  C   UNL     1      19.606  29.070  21.422  1.00  0.00     0.407 C 
ATOM     56  H   UNL     1      18.300  30.352  20.425  1.00  0.00     0.167 HD
ATOM     57  O   UNL     1      20.301  28.764  22.401  1.00  0.00    -0.225 OA
BRANCH  55  58
ATOM     58  O   UNL     1      19.593  28.139  20.371  1.00  0.00    -0.443 OA
BRANCH  58  59
ATOM     59  C   UNL     1      20.385  28.362  19.217  1.00  0.00     0.294 C 
BRANCH  59  60
ATOM     60  C   UNL     1      19.464  28.711  18.078  1.00  0.00     0.120 A 
ATOM     61  C   UNL     1      19.390  29.961  17.499  1.00  0.00     0.138 A 
ATOM     62  N   UNL     1      18.569  27.942  17.432  1.00  0.00    -0.132 NA
ATOM     63  N   UNL     1      18.451  29.911  16.518  1.00  0.00    -0.248 N 
ATOM     64  N   UNL     1      18.000  28.700  16.522  1.00  0.00    -0.067 NA
BRANCH  63  65
ATOM     65  C   UNL     1      18.103  31.070  15.712  1.00  0.00     0.181 C 
BRANCH  65  66
ATOM     66  C   UNL     1      19.073  31.040  14.558  1.00  0.00    -0.026 A 
ATOM     67  C   UNL     1      18.815  30.188  13.513  1.00  0.00     0.007 A 
ATOM     68  C   UNL     1      20.200  31.865  14.572  1.00  0.00     0.007 A 
ATOM     69  C   UNL     1      19.645  30.090  12.420  1.00  0.00     0.020 A 
ATOM     70  C   UNL     1      21.028  31.767  13.482  1.00  0.00     0.020 A 
ATOM     71  C   UNL     1      20.770  30.922  12.452  1.00  0.00     0.052 A 
BRANCH  71  72
ATOM     72  C   UNL     1      21.677  30.822  11.315  1.00  0.00     0.099 C 
ATOM     73  N   UNL     1      22.416  30.739  10.420  1.00  0.00    -0.192 NA
ENDBRANCH  71  72
ENDBRANCH  65  66
ENDBRANCH  63  65
ENDBRANCH  59  60
ENDBRANCH  58  59
ENDBRANCH  55  58
ENDBRANCH  53  54
ENDBRANCH  50  53
ENDBRANCH  47  50
ENDBRANCH   5  47
BRANCH   4  74
ATOM     74  N   UNL     1      13.975  31.474  23.753  1.00  0.00    -0.348 N 
ATOM     75  C   UNL     1      13.445  32.786  23.858  1.00  0.00     0.217 C 
ATOM     76  H   UNL     1      14.057  30.904  24.608  1.00  0.00     0.163 HD
ATOM     77  C   UNL     1      13.016  33.349  25.151  1.00  0.00     0.114 C 
ATOM     78  O   UNL     1      13.323  33.528  22.826  1.00  0.00    -0.275 OA
ENDBRANCH   4  74
TORSDOF 32
