REMARK VINA RESULT:    -6.546     18.785     24.316
REMARK INTER + INTRA:         -22.220
REMARK INTER:                 -15.337
REMARK INTRA:                  -6.883
REMARK UNBOUND:                -5.152
REMARK SMILES CC(=O)N[C@@H]1[C@@H](O)C[C@](OC[C@H]2O[C@@H](O[C@H]3[C@H](O)[C@@H](O)[C@H](OCCN=[N+]=[N-])O[C@@H]3CO)[C@H](O)[C@@H](O)[C@H]2O)(C(=O)O)O[C@H]1C(O)[C@H](O)CNC(=O)OCc1cn(CC(O)c2ccccc2)nn1
REMARK SMILES IDX 9 1 8 2 6 3 5 4 42 5 41 6 10 7 11 8 12 9 14 10 13 11 32 12
REMARK SMILES IDX 34 13 36 14 15 15 16 16 29 17 28 18 21 19 17 20 19 21 30 22
REMARK SMILES IDX 31 23 22 25 23 26 24 27 25 28 26 29 27 30 18 31 20 33 33 35
REMARK SMILES IDX 35 37 37 39 38 41 39 42 40 43 7 45 43 47 44 48 45 50 46 51
REMARK SMILES IDX 47 53 48 54 49 55 50 57 51 58 52 59 53 60 54 61 66 62 55 63
REMARK SMILES IDX 65 64 56 65 57 66 58 67 59 69 60 70 64 71 61 72 63 73 62 74
REMARK SMILES IDX 4 75 2 76 1 78 3 79
REMARK H PARENT 31 24 18 32 20 34 33 36 35 38 37 40 40 44 7 46 44 49 46 52
REMARK H PARENT 48 56 58 68 4 77
REMARK Flexibility Score: inf
ROOT
ATOM      1  C   UNL     1       6.124  23.316  33.816  1.00  0.00     0.272 C 
ATOM      2  C   UNL     1       6.106  23.880  35.186  1.00  0.00     0.113 C 
ATOM      3  C   UNL     1       4.930  24.711  35.558  1.00  0.00     0.145 C 
ATOM      4  C   UNL     1       4.180  25.082  34.317  1.00  0.00     0.142 C 
ATOM      5  C   UNL     1       5.203  25.383  33.237  1.00  0.00     0.178 C 
ATOM      6  O   UNL     1       5.971  24.325  32.858  1.00  0.00    -0.332 OA
ENDROOT
BRANCH   1   7
ATOM      7  O   UNL     1       5.213  22.348  33.517  1.00  0.00    -0.338 OA
BRANCH   7   8
ATOM      8  C   UNL     1       4.918  22.122  32.209  1.00  0.00     0.199 C 
BRANCH   8   9
ATOM      9  C   UNL     1       3.433  21.927  32.005  1.00  0.00     0.179 C 
ATOM     10  C   UNL     1       1.930  21.946  30.263  1.00  0.00     0.282 C 
ATOM     11  O   UNL     1       3.014  22.547  30.844  1.00  0.00    -0.341 OA
ATOM     12  C   UNL     1       2.170  20.535  29.774  1.00  0.00     0.202 C 
ATOM     13  C   UNL     1       3.154  19.876  30.715  1.00  0.00     0.179 C 
ATOM     14  C   UNL     1       2.961  20.513  32.076  1.00  0.00     0.177 C 
BRANCH  10  15
ATOM     15  O   UNL     1       1.478  22.649  29.151  1.00  0.00    -0.341 OA
BRANCH  15  16
ATOM     16  C   UNL     1       2.157  23.801  28.864  1.00  0.00     0.184 C 
ATOM     17  C   UNL     1       1.125  24.806  28.367  1.00  0.00     0.178 C 
ATOM     18  O   UNL     1       1.124  24.882  26.990  1.00  0.00    -0.341 OA
ATOM     19  C   UNL     1       1.039  23.571  26.487  1.00  0.00     0.281 C 
ATOM     20  C   UNL     1       3.166  23.457  27.776  1.00  0.00     0.180 C 
ATOM     21  C   UNL     1       2.454  23.003  26.512  1.00  0.00     0.202 C 
BRANCH  17  22
ATOM     22  C   UNL     1       1.342  26.165  29.009  1.00  0.00     0.191 C 
BRANCH  22  23
ATOM     23  O   UNL     1       2.696  26.471  29.102  1.00  0.00    -0.394 OA
ATOM     24  H   UNL     1       3.268  25.745  28.738  1.00  0.00     0.210 HD
ENDBRANCH  22  23
ENDBRANCH  17  22
BRANCH  19  25
ATOM     25  O   UNL     1       0.523  23.665  25.218  1.00  0.00    -0.350 OA
BRANCH  25  26
ATOM     26  C   UNL     1       0.504  24.929  24.678  1.00  0.00     0.169 C 
BRANCH  26  27
ATOM     27  C   UNL     1      -0.835  25.356  24.145  1.00  0.00     0.119 C 
BRANCH  27  28
ATOM     28  N   UNL     1      -1.261  26.596  24.805  1.00  0.00    -0.092 NA
ATOM     29  N   UNL     1      -0.339  27.249  25.319  1.00  0.00     0.001 N 
ATOM     30  N   UNL     1       0.404  28.130  25.751  1.00  0.00    -0.003 NA
ENDBRANCH  27  28
ENDBRANCH  26  27
ENDBRANCH  25  26
ENDBRANCH  19  25
BRANCH  20  31
ATOM     31  O   UNL     1       3.976  24.552  27.508  1.00  0.00    -0.387 OA
ATOM     32  H   UNL     1       4.669  24.300  26.835  1.00  0.00     0.211 HD
ENDBRANCH  20  31
BRANCH  21  33
ATOM     33  O   UNL     1       2.475  21.625  26.397  1.00  0.00    -0.385 OA
ATOM     34  H   UNL     1       1.544  21.318  26.268  1.00  0.00     0.211 HD
ENDBRANCH  21  33
ENDBRANCH  15  16
ENDBRANCH  10  15
BRANCH  12  35
ATOM     35  O   UNL     1       0.957  19.838  29.815  1.00  0.00    -0.385 OA
ATOM     36  H   UNL     1       0.414  20.147  29.039  1.00  0.00     0.211 HD
ENDBRANCH  12  35
BRANCH  13  37
ATOM     37  O   UNL     1       4.421  20.152  30.207  1.00  0.00    -0.387 OA
ATOM     38  H   UNL     1       5.068  20.432  30.878  1.00  0.00     0.211 HD
ENDBRANCH  13  37
BRANCH  14  39
ATOM     39  O   UNL     1       3.501  19.792  33.115  1.00  0.00    -0.387 OA
ATOM     40  H   UNL     1       4.492  19.775  33.120  1.00  0.00     0.211 HD
ENDBRANCH  14  39
ENDBRANCH   8   9
ENDBRANCH   7   8
ENDBRANCH   1   7
BRANCH   1  41
ATOM     41  C   UNL     1       7.547  22.826  33.596  1.00  0.00     0.364 C 
ATOM     42  O   UNL     1       8.480  23.607  33.685  1.00  0.00    -0.246 OA
BRANCH  41  43
ATOM     43  O   UNL     1       7.686  21.482  33.301  1.00  0.00    -0.477 OA
ATOM     44  H   UNL     1       8.135  21.255  32.439  1.00  0.00     0.296 HD
ENDBRANCH  41  43
ENDBRANCH   1  41
BRANCH   3  45
ATOM     45  O   UNL     1       4.135  24.093  36.525  1.00  0.00    -0.391 OA
ATOM     46  H   UNL     1       4.322  23.116  36.446  1.00  0.00     0.211 HD
ENDBRANCH   3  45
BRANCH   5  47
ATOM     47  C   UNL     1       4.441  26.046  32.118  1.00  0.00     0.176 C 
BRANCH  47  48
ATOM     48  O   UNL     1       4.348  25.144  31.047  1.00  0.00    -0.388 OA
ATOM     49  H   UNL     1       3.712  24.431  31.333  1.00  0.00     0.211 HD
ENDBRANCH  47  48
BRANCH  47  50
ATOM     50  C   UNL     1       5.042  27.350  31.710  1.00  0.00     0.165 C 
BRANCH  50  51
ATOM     51  O   UNL     1       6.259  27.579  32.291  1.00  0.00    -0.388 OA
ATOM     52  H   UNL     1       7.025  27.259  31.790  1.00  0.00     0.211 HD
ENDBRANCH  50  51
BRANCH  50  53
ATOM     53  C   UNL     1       4.084  28.513  31.721  1.00  0.00     0.154 C 
BRANCH  53  54
ATOM     54  N   UNL     1       3.697  29.012  30.434  1.00  0.00    -0.319 N 
ATOM     55  C   UNL     1       4.424  29.987  29.690  1.00  0.00     0.407 C 
ATOM     56  H   UNL     1       2.807  28.636  29.976  1.00  0.00     0.167 HD
ATOM     57  O   UNL     1       5.481  30.467  30.134  1.00  0.00    -0.225 OA
BRANCH  55  58
ATOM     58  O   UNL     1       3.980  30.423  28.461  1.00  0.00    -0.443 OA
BRANCH  58  59
ATOM     59  C   UNL     1       3.307  29.579  27.526  1.00  0.00     0.294 C 
BRANCH  59  60
ATOM     60  C   UNL     1       4.275  28.582  26.970  1.00  0.00     0.120 A 
ATOM     61  C   UNL     1       5.642  28.633  26.891  1.00  0.00     0.138 A 
ATOM     62  N   UNL     1       3.904  27.395  26.441  1.00  0.00    -0.132 NA
ATOM     63  N   UNL     1       6.089  27.477  26.317  1.00  0.00    -0.249 N 
ATOM     64  N   UNL     1       5.002  26.782  26.073  1.00  0.00    -0.067 NA
BRANCH  63  65
ATOM     65  C   UNL     1       7.480  27.138  26.059  1.00  0.00     0.182 C 
BRANCH  65  66
ATOM     66  C   UNL     1       7.843  27.488  24.627  1.00  0.00     0.166 C 
BRANCH  66  67
ATOM     67  O   UNL     1       6.604  27.769  24.002  1.00  0.00    -0.386 OA
ATOM     68  H   UNL     1       6.738  27.858  23.018  1.00  0.00     0.211 HD
ENDBRANCH  66  67
BRANCH  66  69
ATOM     69  C   UNL     1       8.747  28.635  24.499  1.00  0.00    -0.018 A 
ATOM     70  C   UNL     1       8.312  29.901  24.253  1.00  0.00     0.006 A 
ATOM     71  C   UNL     1      10.112  28.344  24.629  1.00  0.00     0.006 A 
ATOM     72  C   UNL     1       9.255  30.910  24.133  1.00  0.00     0.000 A 
ATOM     73  C   UNL     1      11.023  29.358  24.506  1.00  0.00     0.000 A 
ATOM     74  C   UNL     1      10.599  30.648  24.257  1.00  0.00     0.000 A 
ENDBRANCH  66  69
ENDBRANCH  65  66
ENDBRANCH  63  65
ENDBRANCH  59  60
ENDBRANCH  58  59
ENDBRANCH  55  58
ENDBRANCH  53  54
ENDBRANCH  50  53
ENDBRANCH  47  50
ENDBRANCH   5  47
BRANCH   4  75
ATOM     75  N   UNL     1       3.463  26.352  34.519  1.00  0.00    -0.348 N 
ATOM     76  C   UNL     1       2.127  26.402  34.989  1.00  0.00     0.217 C 
ATOM     77  H   UNL     1       3.936  27.258  34.313  1.00  0.00     0.163 HD
ATOM     78  C   UNL     1       1.371  27.663  35.204  1.00  0.00     0.114 C 
ATOM     79  O   UNL     1       1.549  25.309  35.240  1.00  0.00    -0.275 OA
ENDBRANCH   4  75
TORSDOF 33
