REMARK VINA RESULT:    -6.021      2.959      9.841
REMARK INTER + INTRA:         -22.760
REMARK INTER:                 -15.461
REMARK INTRA:                  -7.300
REMARK UNBOUND:                -6.885
REMARK SMILES CCOC(=O)c1cccc(-n2cc(COC(=O)NC[C@@H](O)C(O)[C@@H]3O[C@@](OC[C@H]4O[C@@H](O[C@H]5[C@H](O)[C@@H](O)[C@H](OCCN=[N+]=[N-])O[C@@H]5CO)[C@H](O)[C@@H](O)[C@H]4O)(C(=O)O)C[C@H](O)[C@H]3NC(C)=O)nn2)c1
REMARK SMILES IDX 22 1 24 2 26 3 58 4 25 5 59 6 61 7 27 8 28 9 29 10 31 11
REMARK SMILES IDX 30 12 49 13 51 14 53 15 32 16 33 17 46 18 45 19 38 20 34 21
REMARK SMILES IDX 36 22 47 23 48 24 39 26 40 27 41 28 42 29 43 30 44 31 35 32
REMARK SMILES IDX 37 34 50 36 52 38 54 40 55 42 56 43 57 44 60 46 62 48 63 49
REMARK SMILES IDX 64 51 65 52 23 53 20 55 21 56 19 58 18 59 16 60 17 62 15 63
REMARK SMILES IDX 14 64 13 65 12 66 66 67 11 68 67 69 10 70 68 71 9 72 6 73
REMARK SMILES IDX 8 74 7 75 4 76 5 77 3 78 2 79 1 80
REMARK H PARENT 48 25 35 33 37 35 50 37 52 39 54 41 57 45 60 47 62 50 23 54
REMARK H PARENT 21 57 18 61
REMARK Flexibility Score: inf
ROOT
ATOM      1  C   UNL     1       6.542  24.042  34.656  1.00  0.00     0.176 C 
ENDROOT
BRANCH   1   2
ATOM      2  C   UNL     1       5.204  24.308  34.108  1.00  0.00     0.178 C 
ATOM      3  C   UNL     1       3.357  22.979  33.464  1.00  0.00     0.272 C 
ATOM      4  C   UNL     1       2.839  24.357  33.209  1.00  0.00     0.113 C 
ATOM      5  O   UNL     1       4.787  23.162  33.425  1.00  0.00    -0.332 OA
ATOM      6  C   UNL     1       3.764  25.203  32.349  1.00  0.00     0.145 C 
ATOM      7  C   UNL     1       5.054  25.472  33.193  1.00  0.00     0.142 C 
BRANCH   3   8
ATOM      8  O   UNL     1       3.077  22.161  32.414  1.00  0.00    -0.338 OA
BRANCH   8   9
ATOM      9  C   UNL     1       1.897  21.904  31.908  1.00  0.00     0.199 C 
BRANCH   9  10
ATOM     10  C   UNL     1       1.374  22.302  30.594  1.00  0.00     0.179 C 
ATOM     11  C   UNL     1       1.355  24.019  29.006  1.00  0.00     0.282 C 
ATOM     12  O   UNL     1       1.448  23.629  30.362  1.00  0.00    -0.341 OA
ATOM     13  C   UNL     1       0.799  22.917  28.158  1.00  0.00     0.202 C 
ATOM     14  C   UNL     1       1.563  21.637  28.266  1.00  0.00     0.179 C 
ATOM     15  C   UNL     1       2.310  21.605  29.555  1.00  0.00     0.177 C 
BRANCH  11  16
ATOM     16  O   UNL     1       2.600  24.471  28.678  1.00  0.00    -0.341 OA
BRANCH  16  17
ATOM     17  C   UNL     1       2.737  25.679  28.088  1.00  0.00     0.184 C 
ATOM     18  C   UNL     1       3.940  25.637  27.183  1.00  0.00     0.178 C 
ATOM     19  O   UNL     1       4.108  26.843  26.501  1.00  0.00    -0.341 OA
ATOM     20  C   UNL     1       4.489  27.825  27.457  1.00  0.00     0.281 C 
ATOM     21  C   UNL     1       2.991  26.808  29.102  1.00  0.00     0.180 C 
ATOM     22  C   UNL     1       3.255  28.069  28.282  1.00  0.00     0.202 C 
BRANCH  18  23
ATOM     23  C   UNL     1       3.818  24.535  26.170  1.00  0.00     0.191 C 
BRANCH  23  24
ATOM     24  O   UNL     1       4.273  23.309  26.722  1.00  0.00    -0.394 OA
ATOM     25  H   UNL     1       3.750  23.083  27.532  1.00  0.00     0.210 HD
ENDBRANCH  23  24
ENDBRANCH  18  23
BRANCH  20  26
ATOM     26  O   UNL     1       4.942  28.917  26.776  1.00  0.00    -0.350 OA
BRANCH  26  27
ATOM     27  C   UNL     1       6.260  28.779  26.366  1.00  0.00     0.169 C 
BRANCH  27  28
ATOM     28  C   UNL     1       6.751  29.918  25.524  1.00  0.00     0.119 C 
BRANCH  28  29
ATOM     29  N   UNL     1       7.471  29.379  24.364  1.00  0.00    -0.092 NA
ATOM     30  N   UNL     1       7.893  28.217  24.441  1.00  0.00     0.001 N 
ATOM     31  N   UNL     1       8.155  27.009  24.275  1.00  0.00    -0.003 NA
ENDBRANCH  28  29
ENDBRANCH  27  28
ENDBRANCH  26  27
ENDBRANCH  20  26
BRANCH  21  32
ATOM     32  O   UNL     1       1.850  27.084  29.840  1.00  0.00    -0.387 OA
ATOM     33  H   UNL     1       1.094  26.634  29.392  1.00  0.00     0.211 HD
ENDBRANCH  21  32
BRANCH  22  34
ATOM     34  O   UNL     1       3.388  29.180  29.110  1.00  0.00    -0.385 OA
ATOM     35  H   UNL     1       2.585  29.333  29.693  1.00  0.00     0.211 HD
ENDBRANCH  22  34
ENDBRANCH  16  17
ENDBRANCH  11  16
BRANCH  13  36
ATOM     36  O   UNL     1      -0.568  22.754  28.457  1.00  0.00    -0.385 OA
ATOM     37  H   UNL     1      -0.724  22.024  29.098  1.00  0.00     0.211 HD
ENDBRANCH  13  36
BRANCH  14  38
ATOM     38  O   UNL     1       2.299  21.334  27.143  1.00  0.00    -0.387 OA
ATOM     39  H   UNL     1       3.173  21.801  27.232  1.00  0.00     0.211 HD
ENDBRANCH  14  38
BRANCH  15  40
ATOM     40  O   UNL     1       3.528  22.204  29.485  1.00  0.00    -0.387 OA
ATOM     41  H   UNL     1       3.947  22.005  28.610  1.00  0.00     0.211 HD
ENDBRANCH  15  40
ENDBRANCH   9  10
ENDBRANCH   8   9
ENDBRANCH   3   8
BRANCH   3  42
ATOM     42  C   UNL     1       3.042  22.403  34.763  1.00  0.00     0.364 C 
ATOM     43  O   UNL     1       3.469  21.296  35.126  1.00  0.00    -0.246 OA
BRANCH  42  44
ATOM     44  O   UNL     1       2.230  23.093  35.665  1.00  0.00    -0.477 OA
ATOM     45  H   UNL     1       2.284  24.079  35.819  1.00  0.00     0.296 HD
ENDBRANCH  42  44
ENDBRANCH   3  42
BRANCH   6  46
ATOM     46  O   UNL     1       4.166  24.453  31.273  1.00  0.00    -0.391 OA
ATOM     47  H   UNL     1       3.951  23.502  31.435  1.00  0.00     0.211 HD
ENDBRANCH   6  46
BRANCH   7  48
ATOM     48  N   UNL     1       4.820  26.718  33.884  1.00  0.00    -0.348 N 
ATOM     49  C   UNL     1       5.724  27.831  33.851  1.00  0.00     0.217 C 
ATOM     50  H   UNL     1       3.944  26.884  34.465  1.00  0.00     0.163 HD
ATOM     51  C   UNL     1       5.450  29.100  34.575  1.00  0.00     0.114 C 
ATOM     52  O   UNL     1       6.782  27.747  33.195  1.00  0.00    -0.275 OA
ENDBRANCH   7  48
ENDBRANCH   1   2
BRANCH   1  53
ATOM     53  O   UNL     1       7.554  23.873  33.749  1.00  0.00    -0.388 OA
ATOM     54  H   UNL     1       7.225  23.697  32.837  1.00  0.00     0.211 HD
ENDBRANCH   1  53
BRANCH   1  55
ATOM     55  C   UNL     1       6.984  24.892  35.820  1.00  0.00     0.165 C 
BRANCH  55  56
ATOM     56  O   UNL     1       7.849  25.904  35.391  1.00  0.00    -0.388 OA
ATOM     57  H   UNL     1       8.629  25.511  34.921  1.00  0.00     0.211 HD
ENDBRANCH  55  56
BRANCH  55  58
ATOM     58  C   UNL     1       7.456  24.123  37.017  1.00  0.00     0.154 C 
BRANCH  58  59
ATOM     59  N   UNL     1       8.754  23.523  36.806  1.00  0.00    -0.319 N 
ATOM     60  C   UNL     1       9.835  23.783  37.676  1.00  0.00     0.407 C 
ATOM     61  H   UNL     1       8.918  22.866  35.982  1.00  0.00     0.167 HD
ATOM     62  O   UNL     1       9.790  24.522  38.686  1.00  0.00    -0.225 OA
BRANCH  60  63
ATOM     63  O   UNL     1      11.094  23.198  37.434  1.00  0.00    -0.443 OA
BRANCH  63  64
ATOM     64  C   UNL     1      11.753  23.204  36.205  1.00  0.00     0.294 C 
BRANCH  64  65
ATOM     65  C   UNL     1      11.336  24.243  35.255  1.00  0.00     0.121 A 
ATOM     66  C   UNL     1      11.920  25.496  35.101  1.00  0.00     0.144 A 
ATOM     67  N   UNL     1      10.341  24.189  34.378  1.00  0.00    -0.131 NA
ATOM     68  N   UNL     1      11.251  26.137  34.144  1.00  0.00    -0.220 N 
ATOM     69  N   UNL     1      10.300  25.342  33.711  1.00  0.00    -0.062 NA
BRANCH  68  70
ATOM     70  C   UNL     1      11.527  27.441  33.678  1.00  0.00     0.067 A 
ATOM     71  C   UNL     1      12.815  27.969  33.707  1.00  0.00     0.044 A 
ATOM     72  C   UNL     1      10.547  28.248  33.165  1.00  0.00     0.028 A 
ATOM     73  C   UNL     1      13.134  29.222  33.257  1.00  0.00     0.062 A 
ATOM     74  C   UNL     1      10.829  29.523  32.699  1.00  0.00     0.003 A 
ATOM     75  C   UNL     1      12.113  30.013  32.742  1.00  0.00     0.016 A 
BRANCH  73  76
ATOM     76  C   UNL     1      14.495  29.710  33.319  1.00  0.00     0.338 C 
ATOM     77  O   UNL     1      15.116  29.663  34.398  1.00  0.00    -0.246 OA
BRANCH  76  78
ATOM     78  O   UNL     1      15.097  30.217  32.196  1.00  0.00    -0.462 OA
BRANCH  78  79
ATOM     79  C   UNL     1      15.428  29.452  31.061  1.00  0.00     0.230 C 
ATOM     80  C   UNL     1      16.746  28.743  31.284  1.00  0.00     0.049 C 
ENDBRANCH  78  79
ENDBRANCH  76  78
ENDBRANCH  73  76
ENDBRANCH  68  70
ENDBRANCH  64  65
ENDBRANCH  63  64
ENDBRANCH  60  63
ENDBRANCH  58  59
ENDBRANCH  55  58
ENDBRANCH   1  55
TORSDOF 33
