REMARK VINA RESULT:    -5.122      3.307      9.355
REMARK INTER + INTRA:         -22.438
REMARK INTER:                 -15.242
REMARK INTRA:                  -7.196
REMARK UNBOUND:                -8.334
REMARK SMILES CC[N+](C)(CC)CCCn1cc(COC(=O)NC[C@@H](O)C(O)[C@@H]2O[C@@](OC[C@H]3O[C@@H](O[C@H]4[C@H](O)[C@@H](O)[C@H](OCCN=[N+]=[N-])O[C@@H]4CO)[C@H](O)[C@@H](O)[C@H]3O)(C(=O)O)C[C@H](O)[C@H]2NC(C)=O)nn1
REMARK SMILES IDX 21 1 23 2 25 3 57 4 24 5 58 6 60 7 26 8 27 9 28 10 30 11
REMARK SMILES IDX 29 12 48 13 50 14 52 15 31 16 32 17 45 18 44 19 37 20 33 21
REMARK SMILES IDX 35 22 46 23 47 24 38 26 39 27 40 28 41 29 42 30 43 31 34 32
REMARK SMILES IDX 36 34 49 36 51 38 53 40 54 42 55 43 56 44 59 46 61 48 62 49
REMARK SMILES IDX 63 51 64 52 22 53 19 55 20 56 18 58 17 59 15 60 16 62 14 63
REMARK SMILES IDX 13 64 12 65 11 66 65 67 10 68 66 69 9 70 8 71 7 72 3 73 4 74
REMARK SMILES IDX 2 75 1 76 5 77 6 78
REMARK H PARENT 47 25 34 33 36 35 49 37 51 39 53 41 56 45 59 47 61 50 22 54
REMARK H PARENT 20 57 17 61
REMARK Flexibility Score: inf
ROOT
ATOM      1  C   UNL     1      24.683  27.880  22.431  1.00  0.00     0.176 C 
ENDROOT
BRANCH   1   2
ATOM      2  C   UNL     1      23.905  26.577  22.267  1.00  0.00     0.178 C 
ATOM      3  C   UNL     1      22.635  25.068  23.560  1.00  0.00     0.272 C 
ATOM      4  C   UNL     1      23.179  24.053  22.611  1.00  0.00     0.113 C 
ATOM      5  O   UNL     1      23.555  26.152  23.529  1.00  0.00    -0.332 OA
ATOM      6  C   UNL     1      24.635  24.275  22.297  1.00  0.00     0.145 C 
ATOM      7  C   UNL     1      24.753  25.590  21.531  1.00  0.00     0.142 C 
BRANCH   3   8
ATOM      8  O   UNL     1      22.666  24.677  24.882  1.00  0.00    -0.338 OA
BRANCH   8   9
ATOM      9  C   UNL     1      23.368  25.382  25.784  1.00  0.00     0.199 C 
BRANCH   9  10
ATOM     10  C   UNL     1      22.484  25.769  26.999  1.00  0.00     0.179 C 
ATOM     11  C   UNL     1      24.095  26.498  28.559  1.00  0.00     0.282 C 
ATOM     12  O   UNL     1      23.100  25.607  28.177  1.00  0.00    -0.341 OA
ATOM     13  C   UNL     1      23.892  27.879  28.062  1.00  0.00     0.202 C 
ATOM     14  C   UNL     1      22.360  28.046  27.966  1.00  0.00     0.179 C 
ATOM     15  C   UNL     1      21.965  27.191  26.782  1.00  0.00     0.177 C 
BRANCH  11  16
ATOM     16  O   UNL     1      25.362  25.940  28.338  1.00  0.00    -0.341 OA
BRANCH  16  17
ATOM     17  C   UNL     1      26.267  26.287  29.299  1.00  0.00     0.184 C 
ATOM     18  C   UNL     1      27.673  26.505  28.945  1.00  0.00     0.178 C 
ATOM     19  O   UNL     1      28.327  27.113  30.002  1.00  0.00    -0.341 OA
ATOM     20  C   UNL     1      27.804  27.034  31.242  1.00  0.00     0.281 C 
ATOM     21  C   UNL     1      26.287  25.226  30.424  1.00  0.00     0.180 C 
ATOM     22  C   UNL     1      27.047  25.780  31.600  1.00  0.00     0.202 C 
BRANCH  18  23
ATOM     23  C   UNL     1      27.936  27.339  27.706  1.00  0.00     0.191 C 
BRANCH  23  24
ATOM     24  O   UNL     1      27.063  28.409  27.566  1.00  0.00    -0.394 OA
ATOM     25  H   UNL     1      27.399  28.940  26.773  1.00  0.00     0.210 HD
ENDBRANCH  23  24
ENDBRANCH  18  23
BRANCH  20  26
ATOM     26  O   UNL     1      27.109  28.184  31.569  1.00  0.00    -0.350 OA
BRANCH  26  27
ATOM     27  C   UNL     1      27.814  29.341  31.524  1.00  0.00     0.169 C 
BRANCH  27  28
ATOM     28  C   UNL     1      27.180  30.412  30.662  1.00  0.00     0.119 C 
BRANCH  28  29
ATOM     29  N   UNL     1      27.922  30.532  29.417  1.00  0.00    -0.092 NA
ATOM     30  N   UNL     1      29.139  30.386  29.347  1.00  0.00     0.001 N 
ATOM     31  N   UNL     1      30.357  30.219  29.250  1.00  0.00    -0.003 NA
ENDBRANCH  28  29
ENDBRANCH  27  28
ENDBRANCH  26  27
ENDBRANCH  20  26
BRANCH  21  32
ATOM     32  O   UNL     1      24.978  24.888  30.673  1.00  0.00    -0.387 OA
ATOM     33  H   UNL     1      24.321  25.262  30.064  1.00  0.00     0.211 HD
ENDBRANCH  21  32
BRANCH  22  34
ATOM     34  O   UNL     1      27.861  24.784  32.115  1.00  0.00    -0.385 OA
ATOM     35  H   UNL     1      27.538  23.864  31.929  1.00  0.00     0.211 HD
ENDBRANCH  22  34
ENDBRANCH  16  17
ENDBRANCH  11  16
BRANCH  13  36
ATOM     36  O   UNL     1      24.325  28.872  28.955  1.00  0.00    -0.385 OA
ATOM     37  H   UNL     1      24.236  29.733  28.492  1.00  0.00     0.211 HD
ENDBRANCH  13  36
BRANCH  14  38
ATOM     38  O   UNL     1      22.054  29.386  27.724  1.00  0.00    -0.387 OA
ATOM     39  H   UNL     1      22.129  29.524  26.758  1.00  0.00     0.211 HD
ENDBRANCH  14  38
BRANCH  15  40
ATOM     40  O   UNL     1      22.654  27.709  25.688  1.00  0.00    -0.387 OA
ATOM     41  H   UNL     1      22.120  28.227  25.067  1.00  0.00     0.211 HD
ENDBRANCH  15  40
ENDBRANCH   9  10
ENDBRANCH   8   9
ENDBRANCH   3   8
BRANCH   3  42
ATOM     42  C   UNL     1      21.291  25.568  23.223  1.00  0.00     0.364 C 
ATOM     43  O   UNL     1      20.832  26.618  23.725  1.00  0.00    -0.246 OA
BRANCH  42  44
ATOM     44  O   UNL     1      20.486  24.891  22.339  1.00  0.00    -0.477 OA
ATOM     45  H   UNL     1      19.597  25.254  21.999  1.00  0.00     0.296 HD
ENDBRANCH  42  44
ENDBRANCH   3  42
BRANCH   6  46
ATOM     46  O   UNL     1      25.437  24.322  23.412  1.00  0.00    -0.391 OA
ATOM     47  H   UNL     1      25.333  23.502  23.985  1.00  0.00     0.211 HD
ENDBRANCH   6  46
BRANCH   7  48
ATOM     48  N   UNL     1      24.130  25.315  20.225  1.00  0.00    -0.348 N 
ATOM     49  C   UNL     1      24.611  25.922  19.032  1.00  0.00     0.217 C 
ATOM     50  H   UNL     1      23.317  24.678  20.103  1.00  0.00     0.163 HD
ATOM     51  C   UNL     1      24.018  25.671  17.695  1.00  0.00     0.114 C 
ATOM     52  O   UNL     1      25.579  26.698  19.116  1.00  0.00    -0.275 OA
ENDBRANCH   7  48
ENDBRANCH   1   2
BRANCH   1  53
ATOM     53  O   UNL     1      25.106  27.979  23.800  1.00  0.00    -0.388 OA
ATOM     54  H   UNL     1      25.401  28.919  23.929  1.00  0.00     0.211 HD
ENDBRANCH   1  53
BRANCH   1  55
ATOM     55  C   UNL     1      23.807  29.063  22.177  1.00  0.00     0.165 C 
BRANCH  55  56
ATOM     56  O   UNL     1      22.853  28.999  23.276  1.00  0.00    -0.388 OA
ATOM     57  H   UNL     1      23.249  28.380  23.964  1.00  0.00     0.211 HD
ENDBRANCH  55  56
BRANCH  55  58
ATOM     58  C   UNL     1      23.025  29.089  20.917  1.00  0.00     0.154 C 
BRANCH  58  59
ATOM     59  N   UNL     1      21.637  28.976  20.886  1.00  0.00    -0.319 N 
ATOM     60  C   UNL     1      20.851  27.891  20.433  1.00  0.00     0.407 C 
ATOM     61  H   UNL     1      21.058  29.837  21.257  1.00  0.00     0.167 HD
ATOM     62  O   UNL     1      21.325  26.838  19.980  1.00  0.00    -0.225 OA
BRANCH  60  63
ATOM     63  O   UNL     1      19.438  27.980  20.474  1.00  0.00    -0.443 OA
BRANCH  63  64
ATOM     64  C   UNL     1      18.849  29.164  19.904  1.00  0.00     0.294 C 
BRANCH  64  65
ATOM     65  C   UNL     1      17.369  28.924  20.086  1.00  0.00     0.120 A 
ATOM     66  C   UNL     1      16.387  29.880  20.202  1.00  0.00     0.138 A 
ATOM     67  N   UNL     1      16.714  27.759  20.120  1.00  0.00    -0.132 NA
ATOM     68  N   UNL     1      15.170  29.255  20.299  1.00  0.00    -0.252 N 
ATOM     69  N   UNL     1      15.418  27.959  20.247  1.00  0.00    -0.067 NA
BRANCH  68  70
ATOM     70  C   UNL     1      13.882  29.919  20.390  1.00  0.00     0.152 C 
BRANCH  70  71
ATOM     71  C   UNL     1      13.235  29.735  21.694  1.00  0.00     0.085 C 
BRANCH  71  72
ATOM     72  C   UNL     1      13.050  30.874  22.608  1.00  0.00     0.265 C 
BRANCH  72  73
ATOM     73  N   UNL     1      13.867  30.967  23.772  1.00  0.00    -0.326 N 
ATOM     74  C   UNL     1      14.209  29.654  24.247  1.00  0.00     0.334 C 
BRANCH  73  75
ATOM     75  C   UNL     1      13.349  31.782  24.833  1.00  0.00     0.260 C 
ATOM     76  C   UNL     1      13.492  31.143  26.194  1.00  0.00     0.071 C 
ENDBRANCH  73  75
BRANCH  73  77
ATOM     77  C   UNL     1      15.139  31.559  23.325  1.00  0.00     0.260 C 
ATOM     78  C   UNL     1      16.344  30.798  23.753  1.00  0.00     0.071 C 
ENDBRANCH  73  77
ENDBRANCH  72  73
ENDBRANCH  71  72
ENDBRANCH  70  71
ENDBRANCH  68  70
ENDBRANCH  64  65
ENDBRANCH  63  64
ENDBRANCH  60  63
ENDBRANCH  58  59
ENDBRANCH  55  58
ENDBRANCH   1  55
TORSDOF 35
