REMARK VINA RESULT:    -5.534      4.055     10.151
REMARK INTER + INTRA:         -20.658
REMARK INTER:                 -13.099
REMARK INTRA:                  -7.559
REMARK UNBOUND:                -7.035
REMARK SMILES CC(=O)N[C@@H]1[C@@H](O)C[C@](OC[C@H]2O[C@@H](O[C@H]3[C@H](O)[C@@H](O)[C@H](OCCN=[N+]=[N-])O[C@@H]3CO)[C@H](O)[C@@H](O)[C@H]2O)(C(=O)O)O[C@H]1C(O)[C@H](O)CNC(=O)OCc1cn([C@@H]2C[C@H]3CC[C@@H](C2)N3C)nn1
REMARK SMILES IDX 9 1 8 2 6 3 5 4 42 5 41 6 10 7 11 8 12 9 14 10 13 11 32 12
REMARK SMILES IDX 34 13 36 14 15 15 16 16 29 17 28 18 21 19 17 20 19 21 30 22
REMARK SMILES IDX 31 23 22 25 23 26 24 27 25 28 26 29 27 30 18 31 20 33 33 35
REMARK SMILES IDX 35 37 37 39 38 41 39 42 40 43 7 45 43 47 44 48 45 50 46 51
REMARK SMILES IDX 47 53 48 54 49 55 50 57 51 58 52 59 53 60 54 61 66 62 55 63
REMARK SMILES IDX 65 64 56 65 62 66 57 67 61 68 58 69 63 70 60 71 59 72 64 73
REMARK SMILES IDX 4 74 2 75 1 77 3 78
REMARK H PARENT 31 24 18 32 20 34 33 36 35 38 37 40 40 44 7 46 44 49 46 52
REMARK H PARENT 48 56 4 76
REMARK Flexibility Score: inf
ROOT
ATOM      1  C   UNL     1      13.503  32.743  19.673  1.00  0.00     0.272 C 
ATOM      2  C   UNL     1      14.451  33.293  20.661  1.00  0.00     0.113 C 
ATOM      3  C   UNL     1      15.578  32.317  20.970  1.00  0.00     0.145 C 
ATOM      4  C   UNL     1      14.971  30.955  21.383  1.00  0.00     0.142 C 
ATOM      5  C   UNL     1      13.826  30.591  20.524  1.00  0.00     0.178 C 
ATOM      6  O   UNL     1      13.849  31.391  19.400  1.00  0.00    -0.332 OA
ENDROOT
BRANCH   1   7
ATOM      7  O   UNL     1      13.247  33.362  18.503  1.00  0.00    -0.338 OA
BRANCH   7   8
ATOM      8  C   UNL     1      13.981  33.549  17.454  1.00  0.00     0.199 C 
BRANCH   8   9
ATOM      9  C   UNL     1      13.325  33.355  16.095  1.00  0.00     0.179 C 
ATOM     10  C   UNL     1      14.398  32.077  14.438  1.00  0.00     0.282 C 
ATOM     11  O   UNL     1      14.358  33.238  15.153  1.00  0.00    -0.341 OA
ATOM     12  C   UNL     1      13.128  31.756  13.723  1.00  0.00     0.202 C 
ATOM     13  C   UNL     1      12.012  31.791  14.708  1.00  0.00     0.179 C 
ATOM     14  C   UNL     1      12.426  32.160  16.089  1.00  0.00     0.177 C 
BRANCH  10  15
ATOM     15  O   UNL     1      14.940  31.012  15.136  1.00  0.00    -0.341 OA
BRANCH  15  16
ATOM     16  C   UNL     1      16.038  30.434  14.532  1.00  0.00     0.184 C 
ATOM     17  C   UNL     1      15.886  28.974  14.371  1.00  0.00     0.178 C 
ATOM     18  O   UNL     1      16.921  28.415  13.614  1.00  0.00    -0.341 OA
ATOM     19  C   UNL     1      18.019  29.264  13.468  1.00  0.00     0.281 C 
ATOM     20  C   UNL     1      17.264  30.587  15.495  1.00  0.00     0.180 C 
ATOM     21  C   UNL     1      18.406  29.986  14.742  1.00  0.00     0.202 C 
BRANCH  17  22
ATOM     22  C   UNL     1      14.574  28.469  13.883  1.00  0.00     0.191 C 
BRANCH  22  23
ATOM     23  O   UNL     1      13.634  28.478  14.911  1.00  0.00    -0.394 OA
ATOM     24  H   UNL     1      14.072  28.184  15.748  1.00  0.00     0.210 HD
ENDBRANCH  22  23
ENDBRANCH  17  22
BRANCH  19  25
ATOM     25  O   UNL     1      17.916  30.067  12.367  1.00  0.00    -0.350 OA
BRANCH  25  26
ATOM     26  C   UNL     1      18.787  31.081  12.186  1.00  0.00     0.169 C 
BRANCH  26  27
ATOM     27  C   UNL     1      20.031  30.737  11.453  1.00  0.00     0.119 C 
BRANCH  27  28
ATOM     28  N   UNL     1      21.211  30.655  12.243  1.00  0.00    -0.092 NA
ATOM     29  N   UNL     1      21.532  29.659  12.899  1.00  0.00     0.001 N 
ATOM     30  N   UNL     1      21.844  29.040  13.922  1.00  0.00    -0.003 NA
ENDBRANCH  27  28
ENDBRANCH  26  27
ENDBRANCH  25  26
ENDBRANCH  19  25
BRANCH  20  31
ATOM     31  O   UNL     1      17.520  31.908  15.762  1.00  0.00    -0.387 OA
ATOM     32  H   UNL     1      16.820  32.287  16.358  1.00  0.00     0.211 HD
ENDBRANCH  20  31
BRANCH  21  33
ATOM     33  O   UNL     1      19.119  29.098  15.555  1.00  0.00    -0.385 OA
ATOM     34  H   UNL     1      19.981  28.933  15.145  1.00  0.00     0.211 HD
ENDBRANCH  21  33
ENDBRANCH  15  16
ENDBRANCH  10  15
BRANCH  12  35
ATOM     35  O   UNL     1      12.906  32.719  12.717  1.00  0.00    -0.385 OA
ATOM     36  H   UNL     1      13.792  33.096  12.469  1.00  0.00     0.211 HD
ENDBRANCH  12  35
BRANCH  13  37
ATOM     37  O   UNL     1      11.352  30.540  14.764  1.00  0.00    -0.387 OA
ATOM     38  H   UNL     1      11.462  30.137  15.659  1.00  0.00     0.211 HD
ENDBRANCH  13  37
BRANCH  14  39
ATOM     39  O   UNL     1      12.961  31.043  16.744  1.00  0.00    -0.387 OA
ATOM     40  H   UNL     1      12.976  31.282  17.716  1.00  0.00     0.211 HD
ENDBRANCH  14  39
ENDBRANCH   8   9
ENDBRANCH   7   8
ENDBRANCH   1   7
BRANCH   1  41
ATOM     41  C   UNL     1      12.146  32.681  20.346  1.00  0.00     0.364 C 
ATOM     42  O   UNL     1      11.066  32.530  19.752  1.00  0.00    -0.246 OA
BRANCH  41  43
ATOM     43  O   UNL     1      12.062  32.798  21.737  1.00  0.00    -0.477 OA
ATOM     44  H   UNL     1      12.026  33.726  22.174  1.00  0.00     0.296 HD
ENDBRANCH  41  43
ENDBRANCH   1  41
BRANCH   3  45
ATOM     45  O   UNL     1      16.506  32.183  19.963  1.00  0.00    -0.391 OA
ATOM     46  H   UNL     1      17.170  31.482  20.241  1.00  0.00     0.211 HD
ENDBRANCH   3  45
BRANCH   5  47
ATOM     47  C   UNL     1      14.041  29.168  19.884  1.00  0.00     0.176 C 
BRANCH  47  48
ATOM     48  O   UNL     1      14.651  28.420  20.981  1.00  0.00    -0.388 OA
ATOM     49  H   UNL     1      14.289  27.488  20.882  1.00  0.00     0.211 HD
ENDBRANCH  47  48
BRANCH  47  50
ATOM     50  C   UNL     1      15.127  29.163  18.861  1.00  0.00     0.165 C 
BRANCH  50  51
ATOM     51  O   UNL     1      14.601  29.070  17.593  1.00  0.00    -0.388 OA
ATOM     52  H   UNL     1      14.796  29.808  16.994  1.00  0.00     0.211 HD
ENDBRANCH  50  51
BRANCH  50  53
ATOM     53  C   UNL     1      16.263  28.249  19.126  1.00  0.00     0.154 C 
BRANCH  53  54
ATOM     54  N   UNL     1      17.406  28.988  19.662  1.00  0.00    -0.319 N 
ATOM     55  C   UNL     1      18.690  28.820  19.132  1.00  0.00     0.407 C 
ATOM     56  H   UNL     1      17.236  29.640  20.441  1.00  0.00     0.167 HD
ATOM     57  O   UNL     1      18.849  28.009  18.172  1.00  0.00    -0.225 OA
BRANCH  55  58
ATOM     58  O   UNL     1      19.803  29.503  19.610  1.00  0.00    -0.443 OA
BRANCH  58  59
ATOM     59  C   UNL     1      21.082  28.882  19.631  1.00  0.00     0.294 C 
BRANCH  59  60
ATOM     60  C   UNL     1      21.119  27.846  20.709  1.00  0.00     0.120 A 
ATOM     61  C   UNL     1      21.559  26.544  20.602  1.00  0.00     0.138 A 
ATOM     62  N   UNL     1      20.729  27.988  21.972  1.00  0.00    -0.132 NA
ATOM     63  N   UNL     1      21.428  25.932  21.787  1.00  0.00    -0.249 N 
ATOM     64  N   UNL     1      20.909  26.861  22.611  1.00  0.00    -0.067 NA
BRANCH  63  65
ATOM     65  C   UNL     1      21.744  24.581  22.187  1.00  0.00     0.112 C 
ATOM     66  C   UNL     1      22.849  23.957  21.387  1.00  0.00     0.046 C 
ATOM     67  C   UNL     1      22.238  24.629  23.641  1.00  0.00     0.046 C 
ATOM     68  C   UNL     1      24.172  24.600  21.712  1.00  0.00     0.058 C 
ATOM     69  C   UNL     1      23.519  25.437  23.718  1.00  0.00     0.058 C 
ATOM     70  N   UNL     1      23.882  25.863  22.378  1.00  0.00    -0.300 NA
ATOM     71  C   UNL     1      24.941  23.827  22.750  1.00  0.00     0.021 C 
ATOM     72  C   UNL     1      24.681  24.524  24.056  1.00  0.00     0.021 C 
ATOM     73  C   UNL     1      25.074  26.655  22.359  1.00  0.00     0.105 C 
ENDBRANCH  63  65
ENDBRANCH  59  60
ENDBRANCH  58  59
ENDBRANCH  55  58
ENDBRANCH  53  54
ENDBRANCH  50  53
ENDBRANCH  47  50
ENDBRANCH   5  47
BRANCH   4  74
ATOM     74  N   UNL     1      14.684  31.038  22.821  1.00  0.00    -0.348 N 
ATOM     75  C   UNL     1      15.432  30.240  23.768  1.00  0.00     0.217 C 
ATOM     76  H   UNL     1      13.958  31.647  23.241  1.00  0.00     0.163 HD
ATOM     77  C   UNL     1      15.209  30.264  25.216  1.00  0.00     0.114 C 
ATOM     78  O   UNL     1      16.314  29.496  23.290  1.00  0.00    -0.275 OA
ENDBRANCH   4  74
TORSDOF 30
