REMARK VINA RESULT:    -5.914     14.424     20.599
REMARK INTER + INTRA:         -22.742
REMARK INTER:                 -14.748
REMARK INTRA:                  -7.993
REMARK UNBOUND:                -6.283
REMARK SMILES CC(=O)N[C@@H]1[C@@H](O)C[C@](OC[C@H]2O[C@@H](O[C@H]3[C@H](O)[C@@H](O)[C@H](OCCN=[N+]=[N-])O[C@@H]3CO)[C@H](O)[C@@H](O)[C@H]2O)(C(=O)O)O[C@H]1C(O)[C@H](O)CNC(=O)OCc1cn(C[C@H](CC(=O)O)CC(C)C)nn1
REMARK SMILES IDX 43 1 42 2 9 3 8 4 41 5 6 6 5 7 10 8 11 9 12 10 14 11 13 12
REMARK SMILES IDX 32 13 34 14 36 15 15 16 16 17 29 18 28 19 21 20 17 21 19 22
REMARK SMILES IDX 30 23 31 24 22 26 23 27 24 28 25 29 26 30 27 31 18 32 20 34
REMARK SMILES IDX 33 36 35 38 37 40 38 42 39 43 40 44 7 46 4 48 2 49 1 51 3 52
REMARK SMILES IDX 44 53 45 55 46 56 47 58 48 59 49 60 50 62 51 63 52 64 53 65
REMARK SMILES IDX 54 66 67 67 55 68 66 69 56 70 57 71 58 72 59 73 60 74 61 75
REMARK SMILES IDX 62 77 63 78 64 79 65 80
REMARK H PARENT 31 25 18 33 20 35 33 37 35 39 37 41 40 45 7 47 4 50 44 54
REMARK H PARENT 46 57 48 61 61 76
REMARK Flexibility Score: inf
ROOT
ATOM      1  C   UNL     1      21.560  24.888  21.791  1.00  0.00     0.176 C 
ENDROOT
BRANCH   1   2
ATOM      2  C   UNL     1      22.770  25.644  21.319  1.00  0.00     0.178 C 
ATOM      3  C   UNL     1      22.585  27.094  19.402  1.00  0.00     0.272 C 
ATOM      4  C   UNL     1      23.162  26.044  18.523  1.00  0.00     0.113 C 
ATOM      5  O   UNL     1      22.293  26.712  20.628  1.00  0.00    -0.332 OA
ATOM      6  C   UNL     1      23.301  24.685  19.080  1.00  0.00     0.145 C 
ATOM      7  C   UNL     1      23.639  24.692  20.572  1.00  0.00     0.142 C 
BRANCH   3   8
ATOM      8  O   UNL     1      21.410  27.617  18.797  1.00  0.00    -0.338 OA
BRANCH   8   9
ATOM      9  C   UNL     1      21.434  27.649  17.438  1.00  0.00     0.199 C 
BRANCH   9  10
ATOM     10  C   UNL     1      20.271  28.517  16.906  1.00  0.00     0.179 C 
ATOM     11  C   UNL     1      18.168  29.302  17.493  1.00  0.00     0.282 C 
ATOM     12  O   UNL     1      19.408  28.859  17.927  1.00  0.00    -0.341 OA
ATOM     13  C   UNL     1      18.411  30.074  16.186  1.00  0.00     0.202 C 
ATOM     14  C   UNL     1      19.735  30.806  16.252  1.00  0.00     0.179 C 
ATOM     15  C   UNL     1      20.855  29.826  16.356  1.00  0.00     0.177 C 
BRANCH  11  16
ATOM     16  O   UNL     1      17.699  30.241  18.379  1.00  0.00    -0.341 OA
BRANCH  16  17
ATOM     17  C   UNL     1      16.583  29.902  19.096  1.00  0.00     0.184 C 
ATOM     18  C   UNL     1      15.461  30.894  19.015  1.00  0.00     0.178 C 
ATOM     19  O   UNL     1      15.139  31.511  20.188  1.00  0.00    -0.341 OA
ATOM     20  C   UNL     1      14.827  30.670  21.238  1.00  0.00     0.281 C 
ATOM     21  C   UNL     1      16.996  29.797  20.550  1.00  0.00     0.180 C 
ATOM     22  C   UNL     1      15.735  29.497  21.372  1.00  0.00     0.202 C 
BRANCH  18  23
ATOM     23  C   UNL     1      14.279  30.203  18.360  1.00  0.00     0.191 C 
BRANCH  23  24
ATOM     24  O   UNL     1      14.692  29.135  17.568  1.00  0.00    -0.394 OA
ATOM     25  H   UNL     1      15.444  29.383  16.963  1.00  0.00     0.210 HD
ENDBRANCH  23  24
ENDBRANCH  18  23
BRANCH  20  26
ATOM     26  O   UNL     1      13.482  30.347  21.135  1.00  0.00    -0.350 OA
BRANCH  26  27
ATOM     27  C   UNL     1      13.119  29.263  21.917  1.00  0.00     0.169 C 
BRANCH  27  28
ATOM     28  C   UNL     1      12.446  29.824  23.163  1.00  0.00     0.119 C 
BRANCH  28  29
ATOM     29  N   UNL     1      13.414  29.671  24.239  1.00  0.00    -0.092 NA
ATOM     30  N   UNL     1      13.311  30.375  25.216  1.00  0.00     0.001 N 
ATOM     31  N   UNL     1      13.533  31.047  26.232  1.00  0.00    -0.003 NA
ENDBRANCH  28  29
ENDBRANCH  27  28
ENDBRANCH  26  27
ENDBRANCH  20  26
BRANCH  21  32
ATOM     32  O   UNL     1      17.954  28.813  20.706  1.00  0.00    -0.387 OA
ATOM     33  H   UNL     1      17.898  28.501  21.663  1.00  0.00     0.211 HD
ENDBRANCH  21  32
BRANCH  22  34
ATOM     34  O   UNL     1      16.202  29.317  22.691  1.00  0.00    -0.385 OA
ATOM     35  H   UNL     1      16.990  28.735  22.641  1.00  0.00     0.211 HD
ENDBRANCH  22  34
ENDBRANCH  16  17
ENDBRANCH  11  16
BRANCH  13  36
ATOM     36  O   UNL     1      18.258  29.293  15.068  1.00  0.00    -0.385 OA
ATOM     37  H   UNL     1      17.683  29.671  14.380  1.00  0.00     0.211 HD
ENDBRANCH  13  36
BRANCH  14  38
ATOM     38  O   UNL     1      19.685  31.568  17.438  1.00  0.00    -0.387 OA
ATOM     39  H   UNL     1      20.189  32.393  17.368  1.00  0.00     0.211 HD
ENDBRANCH  14  38
BRANCH  15  40
ATOM     40  O   UNL     1      21.788  30.348  17.277  1.00  0.00    -0.387 OA
ATOM     41  H   UNL     1      22.226  29.636  17.770  1.00  0.00     0.211 HD
ENDBRANCH  15  40
ENDBRANCH   9  10
ENDBRANCH   8   9
ENDBRANCH   3   8
BRANCH   3  42
ATOM     42  C   UNL     1      23.504  28.302  19.414  1.00  0.00     0.364 C 
ATOM     43  O   UNL     1      24.664  28.211  18.993  1.00  0.00    -0.246 OA
BRANCH  42  44
ATOM     44  O   UNL     1      23.062  29.503  19.889  1.00  0.00    -0.477 OA
ATOM     45  H   UNL     1      22.282  29.593  20.539  1.00  0.00     0.296 HD
ENDBRANCH  42  44
ENDBRANCH   3  42
BRANCH   6  46
ATOM     46  O   UNL     1      22.264  23.807  18.850  1.00  0.00    -0.391 OA
ATOM     47  H   UNL     1      22.172  23.723  17.869  1.00  0.00     0.211 HD
ENDBRANCH   6  46
BRANCH   7  48
ATOM     48  N   UNL     1      25.054  24.937  20.643  1.00  0.00    -0.348 N 
ATOM     49  C   UNL     1      25.843  24.117  21.534  1.00  0.00     0.217 C 
ATOM     50  H   UNL     1      25.579  25.663  20.108  1.00  0.00     0.163 HD
ATOM     51  C   UNL     1      27.324  24.371  21.601  1.00  0.00     0.114 C 
ATOM     52  O   UNL     1      25.334  23.214  22.243  1.00  0.00    -0.275 OA
ENDBRANCH   7  48
ENDBRANCH   1   2
BRANCH   1  53
ATOM     53  O   UNL     1      20.470  25.805  21.885  1.00  0.00    -0.388 OA
ATOM     54  H   UNL     1      20.421  26.335  21.048  1.00  0.00     0.211 HD
ENDBRANCH   1  53
BRANCH   1  55
ATOM     55  C   UNL     1      21.626  24.277  23.172  1.00  0.00     0.165 C 
BRANCH  55  56
ATOM     56  O   UNL     1      20.417  24.838  23.775  1.00  0.00    -0.388 OA
ATOM     57  H   UNL     1      20.689  25.804  23.895  1.00  0.00     0.211 HD
ENDBRANCH  55  56
BRANCH  55  58
ATOM     58  C   UNL     1      22.705  24.863  24.016  1.00  0.00     0.154 C 
BRANCH  58  59
ATOM     59  N   UNL     1      22.287  25.101  25.351  1.00  0.00    -0.319 N 
ATOM     60  C   UNL     1      23.219  24.726  26.389  1.00  0.00     0.407 C 
ATOM     61  H   UNL     1      21.394  25.507  25.684  1.00  0.00     0.167 HD
ATOM     62  O   UNL     1      24.334  24.221  26.075  1.00  0.00    -0.225 OA
BRANCH  60  63
ATOM     63  O   UNL     1      22.961  24.881  27.733  1.00  0.00    -0.443 OA
BRANCH  63  64
ATOM     64  C   UNL     1      23.079  26.086  28.461  1.00  0.00     0.294 C 
BRANCH  64  65
ATOM     65  C   UNL     1      22.368  27.228  27.819  1.00  0.00     0.120 A 
ATOM     66  C   UNL     1      22.894  28.396  27.317  1.00  0.00     0.138 A 
ATOM     67  N   UNL     1      21.047  27.285  27.626  1.00  0.00    -0.132 NA
ATOM     68  N   UNL     1      21.864  29.149  26.822  1.00  0.00    -0.252 N 
ATOM     69  N   UNL     1      20.783  28.436  27.034  1.00  0.00    -0.067 NA
BRANCH  68  70
ATOM     70  C   UNL     1      21.946  30.435  26.235  1.00  0.00     0.150 C 
BRANCH  70  71
ATOM     71  C   UNL     1      21.147  30.637  25.018  1.00  0.00     0.022 C 
BRANCH  71  72
ATOM     72  C   UNL     1      21.630  29.993  23.772  1.00  0.00     0.128 C 
BRANCH  72  73
ATOM     73  C   UNL     1      20.899  28.807  23.306  1.00  0.00     0.303 C 
ATOM     74  O   UNL     1      20.382  28.815  22.158  1.00  0.00    -0.252 OA
BRANCH  73  75
ATOM     75  O   UNL     1      20.740  27.654  24.064  1.00  0.00    -0.481 OA
ATOM     76  H   UNL     1      21.543  27.098  24.320  1.00  0.00     0.296 HD
ENDBRANCH  73  75
ENDBRANCH  72  73
ENDBRANCH  71  72
BRANCH  71  77
ATOM     77  C   UNL     1      20.670  32.046  24.803  1.00  0.00     0.009 C 
BRANCH  77  78
ATOM     78  C   UNL     1      19.252  32.300  24.562  1.00  0.00    -0.017 C 
ATOM     79  C   UNL     1      18.663  31.921  23.251  1.00  0.00     0.007 C 
ATOM     80  C   UNL     1      18.328  31.793  25.654  1.00  0.00     0.007 C 
ENDBRANCH  77  78
ENDBRANCH  71  77
ENDBRANCH  70  71
ENDBRANCH  68  70
ENDBRANCH  64  65
ENDBRANCH  63  64
ENDBRANCH  60  63
ENDBRANCH  58  59
ENDBRANCH  55  58
ENDBRANCH   1  55
TORSDOF 36
