REMARK VINA RESULT:    -5.905      4.543     11.135
REMARK INTER + INTRA:         -20.577
REMARK INTER:                 -12.505
REMARK INTRA:                  -8.072
REMARK UNBOUND:                -6.043
REMARK SMILES CC(=O)N[C@@H]1[C@@H](O)C[C@](OC[C@H]2O[C@@H](O[C@H]3[C@H](O)[C@@H](O)[C@H](OCCN=[N+]=[N-])O[C@@H]3CO)[C@H](O)[C@@H](O)[C@H]2O)(C(=O)O)O[C@H]1C(O)[C@H](O)CNC(=O)OCc1cn(-c2ccccc2I)nn1
REMARK SMILES IDX 9 1 8 2 6 3 5 4 42 5 41 6 10 7 11 8 12 9 14 10 13 11 32 12
REMARK SMILES IDX 34 13 36 14 15 15 16 16 29 17 28 18 21 19 17 20 19 21 30 22
REMARK SMILES IDX 31 23 22 25 23 26 24 27 25 28 26 29 27 30 18 31 20 33 33 35
REMARK SMILES IDX 35 37 37 39 38 41 39 42 40 43 7 45 43 47 44 48 45 50 46 51
REMARK SMILES IDX 47 53 48 54 49 55 50 57 51 58 52 59 53 60 54 61 64 62 55 63
REMARK SMILES IDX 63 64 56 65 57 66 61 67 58 68 60 69 62 70 59 71 4 72 2 73
REMARK SMILES IDX 1 75 3 76
REMARK H PARENT 31 24 18 32 20 34 33 36 35 38 37 40 40 44 7 46 44 49 46 52
REMARK H PARENT 48 56 4 74
REMARK Flexibility Score: inf
ROOT
ATOM      1  C   UNL     1      22.344  25.844  26.476  1.00  0.00     0.272 C 
ATOM      2  C   UNL     1      21.699  26.483  27.673  1.00  0.00     0.113 C 
ATOM      3  C   UNL     1      21.684  28.016  27.546  1.00  0.00     0.145 C 
ATOM      4  C   UNL     1      23.184  28.429  27.553  1.00  0.00     0.142 C 
ATOM      5  C   UNL     1      23.908  27.607  26.523  1.00  0.00     0.178 C 
ATOM      6  O   UNL     1      22.948  26.933  25.759  1.00  0.00    -0.332 OA
ENDROOT
BRANCH   1   7
ATOM      7  O   UNL     1      21.537  25.277  25.541  1.00  0.00    -0.338 OA
BRANCH   7   8
ATOM      8  C   UNL     1      21.282  25.680  24.332  1.00  0.00     0.199 C 
BRANCH   8   9
ATOM      9  C   UNL     1      21.492  24.807  23.159  1.00  0.00     0.179 C 
ATOM     10  C   UNL     1      21.504  26.023  21.225  1.00  0.00     0.282 C 
ATOM     11  O   UNL     1      20.849  25.110  22.006  1.00  0.00    -0.341 OA
ATOM     12  C   UNL     1      22.683  25.376  20.510  1.00  0.00     0.202 C 
ATOM     13  C   UNL     1      23.222  24.246  21.419  1.00  0.00     0.179 C 
ATOM     14  C   UNL     1      23.016  24.681  22.857  1.00  0.00     0.177 C 
BRANCH  10  15
ATOM     15  O   UNL     1      21.722  27.266  21.728  1.00  0.00    -0.341 OA
BRANCH  15  16
ATOM     16  C   UNL     1      21.045  28.295  21.114  1.00  0.00     0.184 C 
ATOM     17  C   UNL     1      21.860  29.150  20.179  1.00  0.00     0.178 C 
ATOM     18  O   UNL     1      21.281  30.409  20.046  1.00  0.00    -0.341 OA
ATOM     19  C   UNL     1      19.892  30.412  20.221  1.00  0.00     0.281 C 
ATOM     20  C   UNL     1      20.652  29.280  22.237  1.00  0.00     0.180 C 
ATOM     21  C   UNL     1      19.510  30.095  21.644  1.00  0.00     0.202 C 
BRANCH  17  22
ATOM     22  C   UNL     1      22.180  28.521  18.861  1.00  0.00     0.191 C 
BRANCH  22  23
ATOM     23  O   UNL     1      21.123  27.656  18.555  1.00  0.00    -0.394 OA
ATOM     24  H   UNL     1      20.589  28.075  17.827  1.00  0.00     0.210 HD
ENDBRANCH  22  23
ENDBRANCH  17  22
BRANCH  19  25
ATOM     25  O   UNL     1      19.237  29.672  19.286  1.00  0.00    -0.350 OA
BRANCH  25  26
ATOM     26  C   UNL     1      17.891  29.641  19.480  1.00  0.00     0.169 C 
BRANCH  26  27
ATOM     27  C   UNL     1      17.168  28.402  19.055  1.00  0.00     0.119 C 
BRANCH  27  28
ATOM     28  N   UNL     1      16.486  27.675  20.088  1.00  0.00    -0.092 NA
ATOM     29  N   UNL     1      15.505  28.238  20.609  1.00  0.00     0.001 N 
ATOM     30  N   UNL     1      14.567  28.630  21.305  1.00  0.00    -0.003 NA
ENDBRANCH  27  28
ENDBRANCH  26  27
ENDBRANCH  25  26
ENDBRANCH  19  25
BRANCH  20  31
ATOM     31  O   UNL     1      20.253  28.597  23.369  1.00  0.00    -0.387 OA
ATOM     32  H   UNL     1      20.636  29.082  24.148  1.00  0.00     0.211 HD
ENDBRANCH  20  31
BRANCH  21  33
ATOM     33  O   UNL     1      19.253  31.228  22.412  1.00  0.00    -0.385 OA
ATOM     34  H   UNL     1      18.316  31.144  22.785  1.00  0.00     0.211 HD
ENDBRANCH  21  33
ENDBRANCH  15  16
ENDBRANCH  10  15
BRANCH  12  35
ATOM     35  O   UNL     1      22.319  24.752  19.324  1.00  0.00    -0.385 OA
ATOM     36  H   UNL     1      22.852  25.178  18.603  1.00  0.00     0.211 HD
ENDBRANCH  12  35
BRANCH  13  37
ATOM     37  O   UNL     1      24.513  23.908  21.163  1.00  0.00    -0.387 OA
ATOM     38  H   UNL     1      24.964  23.346  21.865  1.00  0.00     0.211 HD
ENDBRANCH  13  37
BRANCH  14  39
ATOM     39  O   UNL     1      23.540  25.952  23.022  1.00  0.00    -0.387 OA
ATOM     40  H   UNL     1      23.371  26.265  23.966  1.00  0.00     0.211 HD
ENDBRANCH  14  39
ENDBRANCH   8   9
ENDBRANCH   7   8
ENDBRANCH   1   7
BRANCH   1  41
ATOM     41  C   UNL     1      23.427  24.941  26.906  1.00  0.00     0.364 C 
ATOM     42  O   UNL     1      24.210  24.350  26.143  1.00  0.00    -0.246 OA
BRANCH  41  43
ATOM     43  O   UNL     1      23.641  24.683  28.278  1.00  0.00    -0.477 OA
ATOM     44  H   UNL     1      22.860  24.814  28.937  1.00  0.00     0.296 HD
ENDBRANCH  41  43
ENDBRANCH   1  41
BRANCH   3  45
ATOM     45  O   UNL     1      21.067  28.441  26.389  1.00  0.00    -0.391 OA
ATOM     46  H   UNL     1      20.127  28.682  26.569  1.00  0.00     0.211 HD
ENDBRANCH   3  45
BRANCH   5  47
ATOM     47  C   UNL     1      24.564  28.554  25.483  1.00  0.00     0.176 C 
BRANCH  47  48
ATOM     48  O   UNL     1      24.998  29.705  26.249  1.00  0.00    -0.388 OA
ATOM     49  H   UNL     1      25.625  30.194  25.634  1.00  0.00     0.211 HD
ENDBRANCH  47  48
BRANCH  47  50
ATOM     50  C   UNL     1      23.550  29.159  24.560  1.00  0.00     0.165 C 
BRANCH  50  51
ATOM     51  O   UNL     1      23.849  28.770  23.228  1.00  0.00    -0.388 OA
ATOM     52  H   UNL     1      23.046  28.831  22.653  1.00  0.00     0.211 HD
ENDBRANCH  50  51
BRANCH  50  53
ATOM     53  C   UNL     1      23.348  30.614  24.583  1.00  0.00     0.154 C 
BRANCH  53  54
ATOM     54  N   UNL     1      21.973  31.062  24.465  1.00  0.00    -0.319 N 
ATOM     55  C   UNL     1      21.683  32.449  24.632  1.00  0.00     0.407 C 
ATOM     56  H   UNL     1      21.170  30.433  24.264  1.00  0.00     0.167 HD
ATOM     57  O   UNL     1      22.636  33.255  24.889  1.00  0.00    -0.225 OA
BRANCH  55  58
ATOM     58  O   UNL     1      20.426  33.011  24.536  1.00  0.00    -0.443 OA
BRANCH  58  59
ATOM     59  C   UNL     1      19.545  33.031  25.649  1.00  0.00     0.294 C 
BRANCH  59  60
ATOM     60  C   UNL     1      18.310  32.252  25.274  1.00  0.00     0.121 A 
ATOM     61  C   UNL     1      17.039  32.727  25.053  1.00  0.00     0.144 A 
ATOM     62  N   UNL     1      18.251  30.921  25.096  1.00  0.00    -0.131 NA
ATOM     63  N   UNL     1      16.290  31.648  24.754  1.00  0.00    -0.219 N 
ATOM     64  N   UNL     1      17.030  30.557  24.781  1.00  0.00    -0.062 NA
BRANCH  63  65
ATOM     65  C   UNL     1      14.898  31.637  24.455  1.00  0.00     0.080 A 
ATOM     66  C   UNL     1      14.453  31.667  23.139  1.00  0.00     0.029 A 
ATOM     67  C   UNL     1      13.958  31.605  25.458  1.00  0.00     0.039 A 
ATOM     68  C   UNL     1      13.075  31.662  22.893  1.00  0.00     0.002 A 
ATOM     69  C   UNL     1      12.583  31.601  25.193  1.00  0.00     0.017 A 
ATOM     70  I   UNL     1      14.605  31.562  27.471  1.00  0.00    -0.042 I 
ATOM     71  C   UNL     1      12.137  31.629  23.896  1.00  0.00     0.001 A 
ENDBRANCH  63  65
ENDBRANCH  59  60
ENDBRANCH  58  59
ENDBRANCH  55  58
ENDBRANCH  53  54
ENDBRANCH  50  53
ENDBRANCH  47  50
ENDBRANCH   5  47
BRANCH   4  72
ATOM     72  N   UNL     1      23.614  28.276  28.896  1.00  0.00    -0.348 N 
ATOM     73  C   UNL     1      24.253  29.333  29.636  1.00  0.00     0.217 C 
ATOM     74  H   UNL     1      23.495  27.397  29.430  1.00  0.00     0.163 HD
ATOM     75  C   UNL     1      24.704  29.185  31.033  1.00  0.00     0.114 C 
ATOM     76  O   UNL     1      24.415  30.421  29.021  1.00  0.00    -0.275 OA
ENDBRANCH   4  72
TORSDOF 30
