REMARK VINA RESULT:    -5.978     13.600     19.191
REMARK INTER + INTRA:         -24.570
REMARK INTER:                 -16.941
REMARK INTRA:                  -7.629
REMARK UNBOUND:                -8.981
REMARK SMILES CC(=O)N[C@@H]1[C@@H](O)C[C@](OC[C@H]2O[C@@H](O[C@H]3[C@H](O)[C@@H](O)[C@H](OCCN=[N+]=[N-])O[C@@H]3CO)[C@H](O)[C@@H](O)[C@H]2O)(C(=O)O)O[C@H]1C(O)[C@H](O)CNC(=O)OCc1cn(-c2cc(C(=O)O)nc(-c3ccccc3)c2)nn1
REMARK SMILES IDX 9 1 8 2 6 3 5 4 42 5 41 6 10 7 11 8 12 9 14 10 13 11 32 12
REMARK SMILES IDX 34 13 36 14 15 15 16 16 29 17 28 18 21 19 17 20 19 21 30 22
REMARK SMILES IDX 31 23 22 25 23 26 24 27 25 28 26 29 27 30 18 31 20 33 33 35
REMARK SMILES IDX 35 37 37 39 38 41 39 42 40 43 7 45 43 47 44 48 45 50 46 51
REMARK SMILES IDX 47 53 48 54 49 55 50 57 51 58 52 59 53 60 54 61 72 62 55 63
REMARK SMILES IDX 71 64 56 65 57 66 70 67 58 68 63 69 62 70 59 71 60 72 61 73
REMARK SMILES IDX 64 75 65 76 69 77 66 78 68 79 67 80 4 81 2 82 1 84 3 85
REMARK H PARENT 31 24 18 32 20 34 33 36 35 38 37 40 40 44 7 46 44 49 46 52
REMARK H PARENT 48 56 61 74 4 83
REMARK Flexibility Score: inf
ROOT
ATOM      1  C   UNL     1      13.959  30.052  15.585  1.00  0.00     0.272 C 
ATOM      2  C   UNL     1      14.655  31.353  15.136  1.00  0.00     0.113 C 
ATOM      3  C   UNL     1      14.189  32.567  15.852  1.00  0.00     0.145 C 
ATOM      4  C   UNL     1      12.681  32.595  16.075  1.00  0.00     0.142 C 
ATOM      5  C   UNL     1      12.162  31.386  15.291  1.00  0.00     0.178 C 
ATOM      6  O   UNL     1      12.638  30.281  15.962  1.00  0.00    -0.332 OA
ENDROOT
BRANCH   1   7
ATOM      7  O   UNL     1      14.668  29.619  16.659  1.00  0.00    -0.338 OA
BRANCH   7   8
ATOM      8  C   UNL     1      15.890  29.057  16.478  1.00  0.00     0.199 C 
BRANCH   8   9
ATOM      9  C   UNL     1      16.933  29.709  17.420  1.00  0.00     0.179 C 
ATOM     10  C   UNL     1      16.985  30.981  19.382  1.00  0.00     0.282 C 
ATOM     11  O   UNL     1      16.255  30.375  18.391  1.00  0.00    -0.341 OA
ATOM     12  C   UNL     1      18.415  30.481  19.312  1.00  0.00     0.202 C 
ATOM     13  C   UNL     1      18.515  28.981  19.180  1.00  0.00     0.179 C 
ATOM     14  C   UNL     1      17.670  28.533  18.041  1.00  0.00     0.177 C 
BRANCH  10  15
ATOM     15  O   UNL     1      16.396  30.665  20.593  1.00  0.00    -0.341 OA
BRANCH  15  16
ATOM     16  C   UNL     1      15.055  30.328  20.521  1.00  0.00     0.184 C 
ATOM     17  C   UNL     1      14.139  31.454  20.832  1.00  0.00     0.178 C 
ATOM     18  O   UNL     1      13.357  31.195  21.944  1.00  0.00    -0.341 OA
ATOM     19  C   UNL     1      14.114  30.799  23.045  1.00  0.00     0.281 C 
ATOM     20  C   UNL     1      14.853  29.108  21.373  1.00  0.00     0.180 C 
ATOM     21  C   UNL     1      14.508  29.360  22.798  1.00  0.00     0.202 C 
BRANCH  17  22
ATOM     22  C   UNL     1      13.193  31.671  19.670  1.00  0.00     0.191 C 
BRANCH  22  23
ATOM     23  O   UNL     1      13.275  30.659  18.731  1.00  0.00    -0.394 OA
ATOM     24  H   UNL     1      13.459  31.052  17.837  1.00  0.00     0.210 HD
ENDBRANCH  22  23
ENDBRANCH  17  22
BRANCH  19  25
ATOM     25  O   UNL     1      13.279  30.859  24.151  1.00  0.00    -0.350 OA
BRANCH  25  26
ATOM     26  C   UNL     1      12.080  31.515  23.865  1.00  0.00     0.169 C 
BRANCH  26  27
ATOM     27  C   UNL     1      10.903  30.629  24.186  1.00  0.00     0.119 C 
BRANCH  27  28
ATOM     28  N   UNL     1      11.382  29.319  24.565  1.00  0.00    -0.092 NA
ATOM     29  N   UNL     1      10.563  28.461  24.863  1.00  0.00     0.001 N 
ATOM     30  N   UNL     1       9.997  27.358  24.956  1.00  0.00    -0.003 NA
ENDBRANCH  27  28
ENDBRANCH  26  27
ENDBRANCH  25  26
ENDBRANCH  19  25
BRANCH  20  31
ATOM     31  O   UNL     1      13.770  28.392  20.811  1.00  0.00    -0.387 OA
ATOM     32  H   UNL     1      13.641  28.647  19.864  1.00  0.00     0.211 HD
ENDBRANCH  20  31
BRANCH  21  33
ATOM     33  O   UNL     1      15.611  28.986  23.593  1.00  0.00    -0.385 OA
ATOM     34  H   UNL     1      15.349  28.328  24.293  1.00  0.00     0.211 HD
ENDBRANCH  21  33
ENDBRANCH  15  16
ENDBRANCH  10  15
BRANCH  12  35
ATOM     35  O   UNL     1      19.149  31.057  18.283  1.00  0.00    -0.385 OA
ATOM     36  H   UNL     1      20.082  31.123  18.633  1.00  0.00     0.211 HD
ENDBRANCH  12  35
BRANCH  13  37
ATOM     37  O   UNL     1      18.112  28.443  20.403  1.00  0.00    -0.387 OA
ATOM     38  H   UNL     1      18.932  28.314  20.945  1.00  0.00     0.211 HD
ENDBRANCH  13  37
BRANCH  14  39
ATOM     39  O   UNL     1      16.708  27.648  18.570  1.00  0.00    -0.387 OA
ATOM     40  H   UNL     1      16.475  27.855  19.490  1.00  0.00     0.211 HD
ENDBRANCH  14  39
ENDBRANCH   8   9
ENDBRANCH   7   8
ENDBRANCH   1   7
BRANCH   1  41
ATOM     41  C   UNL     1      13.922  29.122  14.427  1.00  0.00     0.364 C 
ATOM     42  O   UNL     1      14.526  29.365  13.348  1.00  0.00    -0.246 OA
BRANCH  41  43
ATOM     43  O   UNL     1      13.214  27.944  14.501  1.00  0.00    -0.477 OA
ATOM     44  H   UNL     1      12.207  27.870  14.309  1.00  0.00     0.296 HD
ENDBRANCH  41  43
ENDBRANCH   1  41
BRANCH   3  45
ATOM     45  O   UNL     1      14.902  32.846  16.997  1.00  0.00    -0.391 OA
ATOM     46  H   UNL     1      14.278  32.976  17.740  1.00  0.00     0.211 HD
ENDBRANCH   3  45
BRANCH   5  47
ATOM     47  C   UNL     1      10.705  31.423  15.025  1.00  0.00     0.176 C 
BRANCH  47  48
ATOM     48  O   UNL     1      10.045  31.877  16.189  1.00  0.00    -0.388 OA
ATOM     49  H   UNL     1       9.203  32.369  15.930  1.00  0.00     0.211 HD
ENDBRANCH  47  48
BRANCH  47  50
ATOM     50  C   UNL     1      10.087  30.137  14.551  1.00  0.00     0.165 C 
BRANCH  50  51
ATOM     51  O   UNL     1      10.905  29.544  13.611  1.00  0.00    -0.388 OA
ATOM     52  H   UNL     1      11.025  28.571  13.770  1.00  0.00     0.211 HD
ENDBRANCH  50  51
BRANCH  50  53
ATOM     53  C   UNL     1       8.733  30.489  13.985  1.00  0.00     0.154 C 
BRANCH  53  54
ATOM     54  N   UNL     1       7.633  30.384  14.875  1.00  0.00    -0.319 N 
ATOM     55  C   UNL     1       6.413  29.770  14.490  1.00  0.00     0.407 C 
ATOM     56  H   UNL     1       7.693  30.761  15.853  1.00  0.00     0.167 HD
ATOM     57  O   UNL     1       6.292  29.326  13.333  1.00  0.00    -0.225 OA
BRANCH  55  58
ATOM     58  O   UNL     1       5.343  29.655  15.398  1.00  0.00    -0.443 OA
BRANCH  58  59
ATOM     59  C   UNL     1       5.063  30.739  16.248  1.00  0.00     0.294 C 
BRANCH  59  60
ATOM     60  C   UNL     1       5.186  30.352  17.673  1.00  0.00     0.121 A 
ATOM     61  C   UNL     1       5.780  31.014  18.722  1.00  0.00     0.144 A 
ATOM     62  N   UNL     1       4.735  29.194  18.237  1.00  0.00    -0.131 NA
ATOM     63  N   UNL     1       5.692  30.287  19.858  1.00  0.00    -0.220 N 
ATOM     64  N   UNL     1       5.041  29.175  19.517  1.00  0.00    -0.062 NA
BRANCH  63  65
ATOM     65  C   UNL     1       6.214  30.631  21.129  1.00  0.00     0.071 A 
ATOM     66  C   UNL     1       6.915  31.823  21.231  1.00  0.00     0.064 A 
ATOM     67  C   UNL     1       6.069  29.884  22.280  1.00  0.00     0.057 A 
ATOM     68  C   UNL     1       7.427  32.203  22.457  1.00  0.00     0.151 A 
ATOM     69  C   UNL     1       6.575  30.264  23.482  1.00  0.00     0.073 A 
ATOM     70  N   UNL     1       7.251  31.428  23.548  1.00  0.00    -0.241 NA
BRANCH  68  71
ATOM     71  C   UNL     1       8.164  33.451  22.597  1.00  0.00     0.354 C 
ATOM     72  O   UNL     1       9.415  33.414  22.478  1.00  0.00    -0.245 OA
BRANCH  71  73
ATOM     73  O   UNL     1       7.575  34.666  22.850  1.00  0.00    -0.477 OA
ATOM     74  H   UNL     1       7.212  35.276  22.107  1.00  0.00     0.297 HD
ENDBRANCH  71  73
ENDBRANCH  68  71
BRANCH  69  75
ATOM     75  C   UNL     1       6.404  29.462  24.687  1.00  0.00     0.000 A 
ATOM     76  C   UNL     1       6.563  28.082  24.580  1.00  0.00     0.010 A 
ATOM     77  C   UNL     1       6.097  29.981  25.912  1.00  0.00     0.010 A 
ATOM     78  C   UNL     1       6.423  27.250  25.659  1.00  0.00     0.001 A 
ATOM     79  C   UNL     1       5.956  29.131  26.995  1.00  0.00     0.001 A 
ATOM     80  C   UNL     1       6.112  27.779  26.899  1.00  0.00     0.000 A 
ENDBRANCH  69  75
ENDBRANCH  63  65
ENDBRANCH  59  60
ENDBRANCH  58  59
ENDBRANCH  55  58
ENDBRANCH  53  54
ENDBRANCH  50  53
ENDBRANCH  47  50
ENDBRANCH   5  47
BRANCH   4  81
ATOM     81  N   UNL     1      12.097  33.829  15.666  1.00  0.00    -0.348 N 
ATOM     82  C   UNL     1      12.038  34.923  16.568  1.00  0.00     0.217 C 
ATOM     83  H   UNL     1      11.716  33.912  14.695  1.00  0.00     0.163 HD
ATOM     84  C   UNL     1      11.442  36.233  16.197  1.00  0.00     0.114 C 
ATOM     85  O   UNL     1      12.506  34.815  17.751  1.00  0.00    -0.275 OA
ENDBRANCH   4  81
TORSDOF 33
