REMARK VINA RESULT:    -5.226      3.197      9.134
REMARK INTER + INTRA:         -20.170
REMARK INTER:                 -13.119
REMARK INTRA:                  -7.050
REMARK UNBOUND:                -6.390
REMARK SMILES CCOC(=O)Cn1cc(COC(=O)NC[C@@H](O)C(O)[C@@H]2O[C@@](OC[C@H]3O[C@@H](O[C@H]4[C@H](O)[C@@H](O)[C@H](OCCN=[N+]=[N-])O[C@@H]4CO)[C@H](O)[C@@H](O)[C@H]3O)(C(=O)O)C[C@H](O)[C@H]2NC(C)=O)nn1
REMARK SMILES IDX 18 1 20 2 22 3 54 4 21 5 55 6 57 7 23 8 24 9 25 10 27 11
REMARK SMILES IDX 26 12 45 13 47 14 49 15 28 16 29 17 42 18 41 19 34 20 30 21
REMARK SMILES IDX 32 22 43 23 44 24 35 26 36 27 37 28 38 29 39 30 40 31 31 32
REMARK SMILES IDX 33 34 46 36 48 38 50 40 51 42 52 43 53 44 56 46 58 48 59 49
REMARK SMILES IDX 60 51 61 52 19 53 16 55 17 56 15 58 14 59 12 60 13 62 11 63
REMARK SMILES IDX 10 64 9 65 8 66 62 67 7 68 63 69 6 70 4 71 5 72 3 73 2 74
REMARK SMILES IDX 1 75
REMARK H PARENT 44 25 31 33 33 35 46 37 48 39 50 41 53 45 56 47 58 50 19 54
REMARK H PARENT 17 57 14 61
REMARK Flexibility Score: inf
ROOT
ATOM      1  C   UNL     1      22.361  28.651  22.635  1.00  0.00     0.176 C 
ENDROOT
BRANCH   1   2
ATOM      2  C   UNL     1      22.424  29.057  21.189  1.00  0.00     0.178 C 
ATOM      3  C   UNL     1      21.073  29.876  19.464  1.00  0.00     0.272 C 
ATOM      4  C   UNL     1      22.245  29.483  18.631  1.00  0.00     0.113 C 
ATOM      5  O   UNL     1      21.379  29.873  20.842  1.00  0.00    -0.332 OA
ATOM      6  C   UNL     1      22.812  28.142  18.968  1.00  0.00     0.145 C 
ATOM      7  C   UNL     1      22.363  27.777  20.374  1.00  0.00     0.142 C 
BRANCH   3   8
ATOM      8  O   UNL     1      19.927  29.138  19.265  1.00  0.00    -0.338 OA
BRANCH   8   9
ATOM      9  C   UNL     1      19.627  28.738  18.008  1.00  0.00     0.199 C 
BRANCH   9  10
ATOM     10  C   UNL     1      18.135  28.353  17.969  1.00  0.00     0.179 C 
ATOM     11  C   UNL     1      16.275  28.018  19.314  1.00  0.00     0.282 C 
ATOM     12  O   UNL     1      17.645  28.119  19.215  1.00  0.00    -0.341 OA
ATOM     13  C   UNL     1      15.535  29.158  18.683  1.00  0.00     0.202 C 
ATOM     14  C   UNL     1      15.885  29.150  17.216  1.00  0.00     0.179 C 
ATOM     15  C   UNL     1      17.364  29.315  17.116  1.00  0.00     0.177 C 
BRANCH  11  16
ATOM     16  O   UNL     1      15.835  27.884  20.620  1.00  0.00    -0.341 OA
BRANCH  16  17
ATOM     17  C   UNL     1      15.698  29.056  21.318  1.00  0.00     0.184 C 
ATOM     18  C   UNL     1      16.981  29.515  21.980  1.00  0.00     0.178 C 
ATOM     19  O   UNL     1      16.914  29.399  23.361  1.00  0.00    -0.341 OA
ATOM     20  C   UNL     1      15.953  30.275  23.919  1.00  0.00     0.281 C 
ATOM     21  C   UNL     1      14.635  28.880  22.402  1.00  0.00     0.180 C 
ATOM     22  C   UNL     1      14.639  30.167  23.214  1.00  0.00     0.202 C 
BRANCH  18  23
ATOM     23  C   UNL     1      17.343  30.897  21.503  1.00  0.00     0.191 C 
BRANCH  23  24
ATOM     24  O   UNL     1      18.649  31.239  21.902  1.00  0.00    -0.394 OA
ATOM     25  H   UNL     1      18.654  32.048  22.451  1.00  0.00     0.210 HD
ENDBRANCH  23  24
ENDBRANCH  18  23
BRANCH  20  26
ATOM     26  O   UNL     1      16.431  31.559  23.954  1.00  0.00    -0.350 OA
BRANCH  26  27
ATOM     27  C   UNL     1      17.020  32.035  25.076  1.00  0.00     0.169 C 
BRANCH  27  28
ATOM     28  C   UNL     1      17.756  33.321  25.028  1.00  0.00     0.119 C 
BRANCH  28  29
ATOM     29  N   UNL     1      18.940  33.374  24.240  1.00  0.00    -0.092 NA
ATOM     30  N   UNL     1      19.863  32.548  24.402  1.00  0.00     0.001 N 
ATOM     31  N   UNL     1      20.552  31.529  24.585  1.00  0.00    -0.003 NA
ENDBRANCH  28  29
ENDBRANCH  27  28
ENDBRANCH  26  27
ENDBRANCH  20  26
BRANCH  21  32
ATOM     32  O   UNL     1      13.388  28.706  21.797  1.00  0.00    -0.387 OA
ATOM     33  H   UNL     1      13.402  29.251  20.951  1.00  0.00     0.211 HD
ENDBRANCH  21  32
BRANCH  22  34
ATOM     34  O   UNL     1      13.548  30.163  24.088  1.00  0.00    -0.385 OA
ATOM     35  H   UNL     1      13.662  29.554  24.858  1.00  0.00     0.211 HD
ENDBRANCH  22  34
ENDBRANCH  16  17
ENDBRANCH  11  16
BRANCH  13  36
ATOM     36  O   UNL     1      14.172  28.954  18.854  1.00  0.00    -0.385 OA
ATOM     37  H   UNL     1      13.594  29.581  18.393  1.00  0.00     0.211 HD
ENDBRANCH  13  36
BRANCH  14  38
ATOM     38  O   UNL     1      15.253  30.265  16.619  1.00  0.00    -0.387 OA
ATOM     39  H   UNL     1      15.756  30.553  15.817  1.00  0.00     0.211 HD
ENDBRANCH  14  38
BRANCH  15  40
ATOM     40  O   UNL     1      17.662  30.655  17.453  1.00  0.00    -0.387 OA
ATOM     41  H   UNL     1      17.668  31.133  16.579  1.00  0.00     0.211 HD
ENDBRANCH  15  40
ENDBRANCH   9  10
ENDBRANCH   8   9
ENDBRANCH   3   8
BRANCH   3  42
ATOM     42  C   UNL     1      20.784  31.303  19.180  1.00  0.00     0.364 C 
ATOM     43  O   UNL     1      20.570  31.666  18.002  1.00  0.00    -0.246 OA
BRANCH  42  44
ATOM     44  O   UNL     1      20.750  32.225  20.188  1.00  0.00    -0.477 OA
ATOM     45  H   UNL     1      21.273  32.107  21.052  1.00  0.00     0.296 HD
ENDBRANCH  42  44
ENDBRANCH   3  42
BRANCH   6  46
ATOM     46  O   UNL     1      22.536  27.148  18.060  1.00  0.00    -0.391 OA
ATOM     47  H   UNL     1      21.627  26.783  18.253  1.00  0.00     0.211 HD
ENDBRANCH   6  46
BRANCH   7  48
ATOM     48  N   UNL     1      23.226  26.749  20.939  1.00  0.00    -0.348 N 
ATOM     49  C   UNL     1      22.937  25.369  20.811  1.00  0.00     0.217 C 
ATOM     50  H   UNL     1      24.080  27.039  21.446  1.00  0.00     0.163 HD
ATOM     51  C   UNL     1      23.813  24.305  21.387  1.00  0.00     0.114 C 
ATOM     52  O   UNL     1      21.894  25.038  20.184  1.00  0.00    -0.275 OA
ENDBRANCH   7  48
ENDBRANCH   1   2
BRANCH   1  53
ATOM     53  O   UNL     1      22.702  29.709  23.454  1.00  0.00    -0.388 OA
ATOM     54  H   UNL     1      22.435  29.573  24.409  1.00  0.00     0.211 HD
ENDBRANCH   1  53
BRANCH   1  55
ATOM     55  C   UNL     1      20.994  28.134  23.049  1.00  0.00     0.165 C 
BRANCH  55  56
ATOM     56  O   UNL     1      20.034  29.117  23.079  1.00  0.00    -0.388 OA
ATOM     57  H   UNL     1      19.460  29.095  23.880  1.00  0.00     0.211 HD
ENDBRANCH  55  56
BRANCH  55  58
ATOM     58  C   UNL     1      21.127  27.453  24.370  1.00  0.00     0.154 C 
BRANCH  58  59
ATOM     59  N   UNL     1      22.389  26.846  24.604  1.00  0.00    -0.319 N 
ATOM     60  C   UNL     1      22.650  25.450  24.574  1.00  0.00     0.407 C 
ATOM     61  H   UNL     1      23.249  27.459  24.827  1.00  0.00     0.167 HD
ATOM     62  O   UNL     1      21.761  24.618  24.326  1.00  0.00    -0.225 OA
BRANCH  60  63
ATOM     63  O   UNL     1      23.955  24.992  24.830  1.00  0.00    -0.443 OA
BRANCH  63  64
ATOM     64  C   UNL     1      24.238  24.237  25.960  1.00  0.00     0.294 C 
BRANCH  64  65
ATOM     65  C   UNL     1      23.780  24.845  27.224  1.00  0.00     0.120 A 
ATOM     66  C   UNL     1      24.387  25.887  27.900  1.00  0.00     0.139 A 
ATOM     67  N   UNL     1      22.715  24.513  27.964  1.00  0.00    -0.132 NA
ATOM     68  N   UNL     1      23.683  26.160  29.025  1.00  0.00    -0.241 N 
ATOM     69  N   UNL     1      22.679  25.310  29.029  1.00  0.00    -0.066 NA
BRANCH  68  70
ATOM     70  C   UNL     1      24.032  27.196  29.989  1.00  0.00     0.268 C 
BRANCH  70  71
ATOM     71  C   UNL     1      24.640  26.506  31.183  1.00  0.00     0.327 C 
ATOM     72  O   UNL     1      24.487  26.933  32.344  1.00  0.00    -0.250 OA
BRANCH  71  73
ATOM     73  O   UNL     1      25.401  25.360  31.035  1.00  0.00    -0.465 OA
BRANCH  73  74
ATOM     74  C   UNL     1      26.792  25.302  31.173  1.00  0.00     0.229 C 
ATOM     75  C   UNL     1      27.526  25.696  29.915  1.00  0.00     0.049 C 
ENDBRANCH  73  74
ENDBRANCH  71  73
ENDBRANCH  70  71
ENDBRANCH  68  70
ENDBRANCH  64  65
ENDBRANCH  63  64
ENDBRANCH  60  63
ENDBRANCH  58  59
ENDBRANCH  55  58
ENDBRANCH   1  55
TORSDOF 33
