REMARK VINA RESULT:    -6.113      3.366      6.116
REMARK INTER + INTRA:         -21.567
REMARK INTER:                 -13.262
REMARK INTRA:                  -8.305
REMARK UNBOUND:                -5.091
REMARK SMILES C=CCCCCn1cc(COC(=O)NC[C@@H](O)C(O)[C@@H]2O[C@@](OC[C@H]3O[C@@H](O[C@H]4[C@H](O)[C@@H](O)[C@H](OCCN=[N+]=[N-])O[C@@H]4CO)[C@H](O)[C@@H](O)[C@H]3O)(C(=O)O)C[C@H](O)[C@H]2NC(C)=O)nn1
REMARK SMILES IDX 18 1 20 2 22 3 54 4 21 5 55 6 57 7 23 8 24 9 25 10 27 11
REMARK SMILES IDX 26 12 45 13 47 14 49 15 28 16 29 17 42 18 41 19 34 20 30 21
REMARK SMILES IDX 32 22 43 23 44 24 35 26 36 27 37 28 38 29 39 30 40 31 31 32
REMARK SMILES IDX 33 34 46 36 48 38 50 40 51 42 52 43 53 44 56 46 58 48 59 49
REMARK SMILES IDX 60 51 61 52 19 53 16 55 17 56 15 58 14 59 12 60 13 62 11 63
REMARK SMILES IDX 10 64 9 65 8 66 62 67 7 68 63 69 6 70 5 71 4 72 3 73 2 74
REMARK SMILES IDX 1 75
REMARK H PARENT 44 25 31 33 33 35 46 37 48 39 50 41 53 45 56 47 58 50 19 54
REMARK H PARENT 17 57 14 61
REMARK Flexibility Score: inf
ROOT
ATOM      1  C   UNL     1      16.665  31.609  24.351  1.00  0.00     0.176 C 
ENDROOT
BRANCH   1   2
ATOM      2  C   UNL     1      15.187  31.472  24.726  1.00  0.00     0.178 C 
ATOM      3  C   UNL     1      13.097  31.338  23.775  1.00  0.00     0.272 C 
ATOM      4  C   UNL     1      12.541  32.182  24.845  1.00  0.00     0.113 C 
ATOM      5  O   UNL     1      14.476  31.743  23.611  1.00  0.00    -0.332 OA
ATOM      6  C   UNL     1      13.251  32.141  26.127  1.00  0.00     0.145 C 
ATOM      7  C   UNL     1      14.758  31.971  26.021  1.00  0.00     0.142 C 
BRANCH   3   8
ATOM      8  O   UNL     1      12.621  31.645  22.509  1.00  0.00    -0.338 OA
BRANCH   8   9
ATOM      9  C   UNL     1      13.154  32.572  21.738  1.00  0.00     0.199 C 
BRANCH   9  10
ATOM     10  C   UNL     1      13.777  32.245  20.436  1.00  0.00     0.179 C 
ATOM     11  C   UNL     1      15.900  31.914  19.502  1.00  0.00     0.282 C 
ATOM     12  O   UNL     1      15.158  32.553  20.457  1.00  0.00    -0.341 OA
ATOM     13  C   UNL     1      15.109  31.352  18.386  1.00  0.00     0.202 C 
ATOM     14  C   UNL     1      13.969  30.464  18.809  1.00  0.00     0.179 C 
ATOM     15  C   UNL     1      13.670  30.736  20.251  1.00  0.00     0.177 C 
BRANCH  11  16
ATOM     16  O   UNL     1      16.792  31.095  20.141  1.00  0.00    -0.341 OA
BRANCH  16  17
ATOM     17  C   UNL     1      17.605  30.330  19.359  1.00  0.00     0.184 C 
ATOM     18  C   UNL     1      17.807  28.989  20.024  1.00  0.00     0.178 C 
ATOM     19  O   UNL     1      19.132  28.546  19.873  1.00  0.00    -0.341 OA
ATOM     20  C   UNL     1      19.907  29.261  20.781  1.00  0.00     0.281 C 
ATOM     21  C   UNL     1      19.017  30.949  19.242  1.00  0.00     0.180 C 
ATOM     22  C   UNL     1      19.777  30.734  20.531  1.00  0.00     0.202 C 
BRANCH  18  23
ATOM     23  C   UNL     1      16.834  27.930  19.533  1.00  0.00     0.191 C 
BRANCH  23  24
ATOM     24  O   UNL     1      15.869  27.665  20.489  1.00  0.00    -0.394 OA
ATOM     25  H   UNL     1      15.196  28.385  20.471  1.00  0.00     0.210 HD
ENDBRANCH  23  24
ENDBRANCH  18  23
BRANCH  20  26
ATOM     26  O   UNL     1      21.226  28.845  20.594  1.00  0.00    -0.350 OA
BRANCH  26  27
ATOM     27  C   UNL     1      21.336  27.587  20.032  1.00  0.00     0.169 C 
BRANCH  27  28
ATOM     28  C   UNL     1      22.816  27.259  19.944  1.00  0.00     0.119 C 
BRANCH  28  29
ATOM     29  N   UNL     1      23.133  26.532  18.743  1.00  0.00    -0.092 NA
ATOM     30  N   UNL     1      22.935  25.327  18.651  1.00  0.00     0.001 N 
ATOM     31  N   UNL     1      22.522  24.167  18.625  1.00  0.00    -0.003 NA
ENDBRANCH  28  29
ENDBRANCH  27  28
ENDBRANCH  26  27
ENDBRANCH  20  26
BRANCH  21  32
ATOM     32  O   UNL     1      19.668  30.220  18.249  1.00  0.00    -0.387 OA
ATOM     33  H   UNL     1      20.064  29.382  18.560  1.00  0.00     0.211 HD
ENDBRANCH  21  32
BRANCH  22  34
ATOM     34  O   UNL     1      19.171  31.424  21.577  1.00  0.00    -0.385 OA
ATOM     35  H   UNL     1      18.212  31.154  21.589  1.00  0.00     0.211 HD
ENDBRANCH  22  34
ENDBRANCH  16  17
ENDBRANCH  11  16
BRANCH  13  36
ATOM     36  O   UNL     1      14.569  32.426  17.665  1.00  0.00    -0.385 OA
ATOM     37  H   UNL     1      14.057  32.135  16.889  1.00  0.00     0.211 HD
ENDBRANCH  13  36
BRANCH  14  38
ATOM     38  O   UNL     1      14.242  29.113  18.588  1.00  0.00    -0.387 OA
ATOM     39  H   UNL     1      13.381  28.663  18.466  1.00  0.00     0.211 HD
ENDBRANCH  14  38
BRANCH  15  40
ATOM     40  O   UNL     1      14.553  30.071  21.110  1.00  0.00    -0.387 OA
ATOM     41  H   UNL     1      15.490  30.278  20.935  1.00  0.00     0.211 HD
ENDBRANCH  15  40
ENDBRANCH   9  10
ENDBRANCH   8   9
ENDBRANCH   3   8
BRANCH   3  42
ATOM     42  C   UNL     1      13.169  29.931  24.143  1.00  0.00     0.364 C 
ATOM     43  O   UNL     1      12.349  29.427  24.941  1.00  0.00    -0.246 OA
BRANCH  42  44
ATOM     44  O   UNL     1      14.128  29.095  23.653  1.00  0.00    -0.477 OA
ATOM     45  H   UNL     1      13.914  28.340  23.025  1.00  0.00     0.296 HD
ENDBRANCH  42  44
ENDBRANCH   3  42
BRANCH   6  46
ATOM     46  O   UNL     1      12.954  33.324  26.849  1.00  0.00    -0.391 OA
ATOM     47  H   UNL     1      13.542  33.429  27.638  1.00  0.00     0.211 HD
ENDBRANCH   6  46
BRANCH   7  48
ATOM     48  N   UNL     1      15.204  31.050  27.084  1.00  0.00    -0.348 N 
ATOM     49  C   UNL     1      15.544  31.479  28.387  1.00  0.00     0.217 C 
ATOM     50  H   UNL     1      15.294  30.011  26.914  1.00  0.00     0.163 HD
ATOM     51  C   UNL     1      16.004  30.487  29.429  1.00  0.00     0.114 C 
ATOM     52  O   UNL     1      15.458  32.701  28.665  1.00  0.00    -0.275 OA
ENDBRANCH   7  48
ENDBRANCH   1   2
BRANCH   1  53
ATOM     53  O   UNL     1      16.765  30.809  23.094  1.00  0.00    -0.388 OA
ATOM     54  H   UNL     1      15.848  30.994  22.712  1.00  0.00     0.211 HD
ENDBRANCH   1  53
BRANCH   1  55
ATOM     55  C   UNL     1      17.078  32.926  23.869  1.00  0.00     0.165 C 
BRANCH  55  56
ATOM     56  O   UNL     1      17.021  33.108  22.469  1.00  0.00    -0.388 OA
ATOM     57  H   UNL     1      16.613  33.999  22.344  1.00  0.00     0.211 HD
ENDBRANCH  55  56
BRANCH  55  58
ATOM     58  C   UNL     1      18.303  33.548  24.393  1.00  0.00     0.154 C 
BRANCH  58  59
ATOM     59  N   UNL     1      19.184  32.695  25.093  1.00  0.00    -0.319 N 
ATOM     60  C   UNL     1      20.407  32.117  24.730  1.00  0.00     0.407 C 
ATOM     61  H   UNL     1      18.862  32.435  26.101  1.00  0.00     0.167 HD
ATOM     62  O   UNL     1      20.905  32.315  23.610  1.00  0.00    -0.225 OA
BRANCH  60  63
ATOM     63  O   UNL     1      21.117  31.295  25.616  1.00  0.00    -0.443 OA
BRANCH  63  64
ATOM     64  C   UNL     1      22.107  30.421  25.071  1.00  0.00     0.294 C 
BRANCH  64  65
ATOM     65  C   UNL     1      21.546  29.063  24.856  1.00  0.00     0.120 A 
ATOM     66  C   UNL     1      22.095  28.104  24.006  1.00  0.00     0.138 A 
ATOM     67  N   UNL     1      20.457  28.494  25.394  1.00  0.00    -0.132 NA
ATOM     68  N   UNL     1      21.319  27.018  24.073  1.00  0.00    -0.252 N 
ATOM     69  N   UNL     1      20.338  27.255  24.905  1.00  0.00    -0.067 NA
BRANCH  68  70
ATOM     70  C   UNL     1      21.578  25.788  23.312  1.00  0.00     0.146 C 
BRANCH  70  71
ATOM     71  C   UNL     1      21.614  24.624  24.266  1.00  0.00     0.024 C 
BRANCH  71  72
ATOM     72  C   UNL     1      22.932  24.658  25.009  1.00  0.00     0.006 C 
BRANCH  72  73
ATOM     73  C   UNL     1      22.697  24.423  26.483  1.00  0.00     0.027 C 
BRANCH  73  74
ATOM     74  C   UNL     1      22.549  25.700  27.216  1.00  0.00    -0.035 C 
ATOM     75  C   UNL     1      23.447  26.656  27.081  1.00  0.00     0.004 C 
ENDBRANCH  73  74
ENDBRANCH  72  73
ENDBRANCH  71  72
ENDBRANCH  70  71
ENDBRANCH  68  70
ENDBRANCH  64  65
ENDBRANCH  63  64
ENDBRANCH  60  63
ENDBRANCH  58  59
ENDBRANCH  55  58
ENDBRANCH   1  55
TORSDOF 34
