REMARK VINA RESULT:    -5.364      2.808      6.961
REMARK INTER + INTRA:         -21.556
REMARK INTER:                 -12.176
REMARK INTRA:                  -9.380
REMARK UNBOUND:                -8.354
REMARK SMILES CC(=O)N[C@@H]1[C@@H](O)C[C@](OC[C@H]2O[C@@H](O[C@H]3[C@H](O)[C@@H](O)[C@H](OCCN=[N+]=[N-])O[C@@H]3CO)[C@H](O)[C@@H](O)[C@H]2O)(C(=O)O)O[C@H]1C(O)[C@H](O)CNC(=O)OCc1cn(-c2cccc(Cl)c2)nn1
REMARK SMILES IDX 9 1 8 2 6 3 5 4 42 5 41 6 10 7 11 8 12 9 14 10 13 11 32 12
REMARK SMILES IDX 34 13 36 14 15 15 16 16 29 17 28 18 21 19 17 20 19 21 30 22
REMARK SMILES IDX 31 23 22 25 23 26 24 27 25 28 26 29 27 30 18 31 20 33 33 35
REMARK SMILES IDX 35 37 37 39 38 41 39 42 40 43 7 45 43 47 44 48 45 50 46 51
REMARK SMILES IDX 47 53 48 54 49 55 50 57 51 58 52 59 53 60 54 61 64 62 55 63
REMARK SMILES IDX 63 64 56 65 57 66 62 67 58 68 60 69 59 70 61 71 4 72 2 73
REMARK SMILES IDX 1 75 3 76
REMARK H PARENT 31 24 18 32 20 34 33 36 35 38 37 40 40 44 7 46 44 49 46 52
REMARK H PARENT 48 56 4 74
REMARK Flexibility Score: inf
ROOT
ATOM      1  C   UNL     1      20.593  29.635  24.354  1.00  0.00     0.272 C 
ATOM      2  C   UNL     1      21.464  30.716  24.817  1.00  0.00     0.113 C 
ATOM      3  C   UNL     1      20.865  31.842  25.592  1.00  0.00     0.145 C 
ATOM      4  C   UNL     1      19.369  31.733  25.748  1.00  0.00     0.142 C 
ATOM      5  C   UNL     1      18.879  31.114  24.429  1.00  0.00     0.178 C 
ATOM      6  O   UNL     1      19.216  29.797  24.524  1.00  0.00    -0.332 OA
ENDROOT
BRANCH   1   7
ATOM      7  O   UNL     1      20.857  28.346  24.700  1.00  0.00    -0.338 OA
BRANCH   7   8
ATOM      8  C   UNL     1      20.717  27.850  25.928  1.00  0.00     0.199 C 
BRANCH   8   9
ATOM      9  C   UNL     1      21.674  26.828  26.445  1.00  0.00     0.179 C 
ATOM     10  C   UNL     1      23.102  25.149  25.758  1.00  0.00     0.282 C 
ATOM     11  O   UNL     1      22.307  26.229  25.336  1.00  0.00    -0.341 OA
ATOM     12  C   UNL     1      24.170  25.655  26.679  1.00  0.00     0.202 C 
ATOM     13  C   UNL     1      23.734  26.556  27.791  1.00  0.00     0.179 C 
ATOM     14  C   UNL     1      22.777  27.582  27.225  1.00  0.00     0.177 C 
BRANCH  10  15
ATOM     15  O   UNL     1      23.723  24.710  24.618  1.00  0.00    -0.341 OA
BRANCH  15  16
ATOM     16  C   UNL     1      23.353  25.296  23.409  1.00  0.00     0.184 C 
ATOM     17  C   UNL     1      22.685  24.405  22.470  1.00  0.00     0.178 C 
ATOM     18  O   UNL     1      23.160  24.476  21.182  1.00  0.00    -0.341 OA
ATOM     19  C   UNL     1      24.527  24.711  21.069  1.00  0.00     0.281 C 
ATOM     20  C   UNL     1      24.515  26.127  22.990  1.00  0.00     0.180 C 
ATOM     21  C   UNL     1      24.679  26.165  21.503  1.00  0.00     0.202 C 
BRANCH  17  22
ATOM     22  C   UNL     1      21.192  24.754  22.353  1.00  0.00     0.191 C 
BRANCH  22  23
ATOM     23  O   UNL     1      21.059  26.113  22.738  1.00  0.00    -0.394 OA
ATOM     24  H   UNL     1      21.619  26.276  23.518  1.00  0.00     0.210 HD
ENDBRANCH  22  23
ENDBRANCH  17  22
BRANCH  19  25
ATOM     25  O   UNL     1      24.885  24.571  19.759  1.00  0.00    -0.350 OA
BRANCH  25  26
ATOM     26  C   UNL     1      23.870  24.614  18.838  1.00  0.00     0.169 C 
BRANCH  26  27
ATOM     27  C   UNL     1      23.836  25.850  17.979  1.00  0.00     0.119 C 
BRANCH  27  28
ATOM     28  N   UNL     1      22.463  26.374  18.037  1.00  0.00    -0.092 NA
ATOM     29  N   UNL     1      22.065  26.747  19.161  1.00  0.00     0.001 N 
ATOM     30  N   UNL     1      21.749  27.497  20.102  1.00  0.00    -0.003 NA
ENDBRANCH  27  28
ENDBRANCH  26  27
ENDBRANCH  25  26
ENDBRANCH  19  25
BRANCH  20  31
ATOM     31  O   UNL     1      24.407  27.426  23.524  1.00  0.00    -0.387 OA
ATOM     32  H   UNL     1      24.862  27.390  24.403  1.00  0.00     0.211 HD
ENDBRANCH  20  31
BRANCH  21  33
ATOM     33  O   UNL     1      25.978  26.602  21.221  1.00  0.00    -0.385 OA
ATOM     34  H   UNL     1      26.332  26.202  20.410  1.00  0.00     0.211 HD
ENDBRANCH  21  33
ENDBRANCH  15  16
ENDBRANCH  10  15
BRANCH  12  35
ATOM     35  O   UNL     1      24.852  24.597  27.300  1.00  0.00    -0.385 OA
ATOM     36  H   UNL     1      24.843  24.681  28.280  1.00  0.00     0.211 HD
ENDBRANCH  12  35
BRANCH  13  37
ATOM     37  O   UNL     1      24.852  27.247  28.260  1.00  0.00    -0.387 OA
ATOM     38  H   UNL     1      25.481  26.700  28.760  1.00  0.00     0.211 HD
ENDBRANCH  13  37
BRANCH  14  39
ATOM     39  O   UNL     1      23.495  28.249  26.205  1.00  0.00    -0.387 OA
ATOM     40  H   UNL     1      23.826  29.117  26.482  1.00  0.00     0.211 HD
ENDBRANCH  14  39
ENDBRANCH   8   9
ENDBRANCH   7   8
ENDBRANCH   1   7
BRANCH   1  41
ATOM     41  C   UNL     1      20.727  29.617  22.823  1.00  0.00     0.364 C 
ATOM     42  O   UNL     1      21.495  30.373  22.204  1.00  0.00    -0.246 OA
BRANCH  41  43
ATOM     43  O   UNL     1      19.953  28.710  22.089  1.00  0.00    -0.477 OA
ATOM     44  H   UNL     1      19.662  27.842  22.554  1.00  0.00     0.296 HD
ENDBRANCH  41  43
ENDBRANCH   1  41
BRANCH   3  45
ATOM     45  O   UNL     1      21.427  32.022  26.843  1.00  0.00    -0.391 OA
ATOM     46  H   UNL     1      20.879  32.600  27.421  1.00  0.00     0.211 HD
ENDBRANCH   3  45
BRANCH   5  47
ATOM     47  C   UNL     1      17.402  31.390  24.203  1.00  0.00     0.176 C 
BRANCH  47  48
ATOM     48  O   UNL     1      17.394  32.221  23.051  1.00  0.00    -0.388 OA
ATOM     49  H   UNL     1      17.931  31.747  22.348  1.00  0.00     0.211 HD
ENDBRANCH  47  48
BRANCH  47  50
ATOM     50  C   UNL     1      16.725  30.103  23.782  1.00  0.00     0.165 C 
BRANCH  50  51
ATOM     51  O   UNL     1      17.281  29.646  22.599  1.00  0.00    -0.388 OA
ATOM     52  H   UNL     1      18.070  30.158  22.313  1.00  0.00     0.211 HD
ENDBRANCH  50  51
BRANCH  50  53
ATOM     53  C   UNL     1      15.245  30.391  23.505  1.00  0.00     0.154 C 
BRANCH  53  54
ATOM     54  N   UNL     1      14.952  30.393  22.099  1.00  0.00    -0.319 N 
ATOM     55  C   UNL     1      13.846  29.784  21.486  1.00  0.00     0.407 C 
ATOM     56  H   UNL     1      15.636  30.904  21.455  1.00  0.00     0.167 HD
ATOM     57  O   UNL     1      12.991  29.189  22.184  1.00  0.00    -0.225 OA
BRANCH  55  58
ATOM     58  O   UNL     1      13.658  29.821  20.075  1.00  0.00    -0.443 OA
BRANCH  58  59
ATOM     59  C   UNL     1      14.208  28.809  19.275  1.00  0.00     0.294 C 
BRANCH  59  60
ATOM     60  C   UNL     1      15.681  28.661  19.412  1.00  0.00     0.121 A 
ATOM     61  C   UNL     1      16.669  29.219  18.595  1.00  0.00     0.144 A 
ATOM     62  N   UNL     1      16.380  27.963  20.322  1.00  0.00    -0.131 NA
ATOM     63  N   UNL     1      17.885  28.844  19.033  1.00  0.00    -0.220 N 
ATOM     64  N   UNL     1      17.696  28.084  20.080  1.00  0.00    -0.062 NA
BRANCH  63  65
ATOM     65  C   UNL     1      19.093  29.243  18.401  1.00  0.00     0.068 A 
ATOM     66  C   UNL     1      19.552  28.704  17.220  1.00  0.00     0.028 A 
ATOM     67  C   UNL     1      19.898  30.240  18.977  1.00  0.00     0.049 A 
ATOM     68  C   UNL     1      20.744  29.129  16.640  1.00  0.00     0.004 A 
ATOM     69  C   UNL     1      21.074  30.657  18.403  1.00  0.00     0.043 A 
ATOM     70  C   UNL     1      21.519  30.109  17.222  1.00  0.00     0.020 A 
ATOM     71  Cl  UNL     1      22.068  31.907  19.138  1.00  0.00    -0.084 Cl
ENDBRANCH  63  65
ENDBRANCH  59  60
ENDBRANCH  58  59
ENDBRANCH  55  58
ENDBRANCH  53  54
ENDBRANCH  50  53
ENDBRANCH  47  50
ENDBRANCH   5  47
BRANCH   4  72
ATOM     72  N   UNL     1      18.743  32.976  26.059  1.00  0.00    -0.348 N 
ATOM     73  C   UNL     1      18.104  33.197  27.330  1.00  0.00     0.217 C 
ATOM     74  H   UNL     1      18.700  33.803  25.417  1.00  0.00     0.163 HD
ATOM     75  C   UNL     1      17.453  34.469  27.675  1.00  0.00     0.114 C 
ATOM     76  O   UNL     1      18.110  32.265  28.162  1.00  0.00    -0.275 OA
ENDBRANCH   4  72
TORSDOF 30
