REMARK VINA RESULT:    -5.829      1.783      2.794
REMARK INTER + INTRA:         -22.448
REMARK INTER:                 -14.282
REMARK INTRA:                  -8.166
REMARK UNBOUND:                -7.759
REMARK SMILES CC(=O)N[C@@H]1[C@@H](O)C[C@](OC[C@H]2O[C@@H](O[C@H]3[C@H](O)[C@@H](O)[C@H](OCCN=[N+]=[N-])O[C@@H]3CO)[C@H](O)[C@@H](O)[C@H]2O)(C(=O)O)O[C@H]1C(O)[C@H](O)CNC(=O)OCc1cn(-c2cc(Cl)ccc2C(=O)N(C)C)nn1
REMARK SMILES IDX 9 1 8 2 6 3 5 4 42 5 41 6 10 7 11 8 12 9 14 10 13 11 32 12
REMARK SMILES IDX 34 13 36 14 15 15 16 16 29 17 28 18 21 19 17 20 19 21 30 22
REMARK SMILES IDX 31 23 22 25 23 26 24 27 25 28 26 29 27 30 18 31 20 33 33 35
REMARK SMILES IDX 35 37 37 39 38 41 39 42 40 43 7 45 43 47 44 48 45 50 46 51
REMARK SMILES IDX 47 53 48 54 49 55 50 57 51 58 52 59 53 60 54 61 69 62 55 63
REMARK SMILES IDX 68 64 56 65 57 66 62 67 58 68 61 69 59 70 60 71 63 72 64 73
REMARK SMILES IDX 65 74 66 75 67 76 4 77 2 78 1 80 3 81
REMARK H PARENT 31 24 18 32 20 34 33 36 35 38 37 40 40 44 7 46 44 49 46 52
REMARK H PARENT 48 56 4 79
REMARK Flexibility Score: inf
ROOT
ATOM      1  C   UNL     1      15.276  31.099  19.750  1.00  0.00     0.272 C 
ATOM      2  C   UNL     1      14.694  30.676  18.454  1.00  0.00     0.113 C 
ATOM      3  C   UNL     1      15.424  29.469  17.925  1.00  0.00     0.145 C 
ATOM      4  C   UNL     1      16.869  29.875  17.758  1.00  0.00     0.142 C 
ATOM      5  C   UNL     1      17.434  30.397  19.012  1.00  0.00     0.178 C 
ATOM      6  O   UNL     1      16.610  30.932  19.950  1.00  0.00    -0.332 OA
ENDROOT
BRANCH   1   7
ATOM      7  O   UNL     1      14.632  30.502  20.821  1.00  0.00    -0.338 OA
BRANCH   7   8
ATOM      8  C   UNL     1      13.297  30.310  20.753  1.00  0.00     0.199 C 
BRANCH   8   9
ATOM      9  C   UNL     1      12.739  30.071  22.164  1.00  0.00     0.179 C 
ATOM     10  C   UNL     1      13.602  29.488  24.223  1.00  0.00     0.282 C 
ATOM     11  O   UNL     1      13.561  29.193  22.810  1.00  0.00    -0.341 OA
ATOM     12  C   UNL     1      12.176  29.747  24.653  1.00  0.00     0.202 C 
ATOM     13  C   UNL     1      11.657  31.051  24.086  1.00  0.00     0.179 C 
ATOM     14  C   UNL     1      12.413  31.354  22.805  1.00  0.00     0.177 C 
BRANCH  10  15
ATOM     15  O   UNL     1      14.448  30.505  24.355  1.00  0.00    -0.341 OA
BRANCH  15  16
ATOM     16  C   UNL     1      15.796  30.318  24.604  1.00  0.00     0.184 C 
ATOM     17  C   UNL     1      16.175  31.328  25.639  1.00  0.00     0.178 C 
ATOM     18  O   UNL     1      17.544  31.221  25.940  1.00  0.00    -0.341 OA
ATOM     19  C   UNL     1      18.134  31.852  24.791  1.00  0.00     0.281 C 
ATOM     20  C   UNL     1      16.600  30.525  23.346  1.00  0.00     0.180 C 
ATOM     21  C   UNL     1      18.015  30.917  23.645  1.00  0.00     0.202 C 
BRANCH  17  22
ATOM     22  C   UNL     1      15.360  31.152  26.904  1.00  0.00     0.191 C 
BRANCH  22  23
ATOM     23  O   UNL     1      14.197  31.882  26.782  1.00  0.00    -0.394 OA
ATOM     24  H   UNL     1      14.392  32.768  26.387  1.00  0.00     0.210 HD
ENDBRANCH  22  23
ENDBRANCH  17  22
BRANCH  19  25
ATOM     25  O   UNL     1      19.392  32.190  25.107  1.00  0.00    -0.350 OA
BRANCH  25  26
ATOM     26  C   UNL     1      19.976  31.449  26.120  1.00  0.00     0.169 C 
BRANCH  26  27
ATOM     27  C   UNL     1      21.264  32.048  26.646  1.00  0.00     0.119 C 
BRANCH  27  28
ATOM     28  N   UNL     1      21.906  32.861  25.635  1.00  0.00    -0.092 NA
ATOM     29  N   UNL     1      23.082  32.677  25.340  1.00  0.00     0.001 N 
ATOM     30  N   UNL     1      24.245  32.286  25.113  1.00  0.00    -0.003 NA
ENDBRANCH  27  28
ENDBRANCH  26  27
ENDBRANCH  25  26
ENDBRANCH  19  25
BRANCH  20  31
ATOM     31  O   UNL     1      16.655  29.360  22.574  1.00  0.00    -0.387 OA
ATOM     32  H   UNL     1      17.416  28.779  22.871  1.00  0.00     0.211 HD
ENDBRANCH  20  31
BRANCH  21  33
ATOM     33  O   UNL     1      18.570  31.494  22.505  1.00  0.00    -0.385 OA
ATOM     34  H   UNL     1      19.127  30.878  21.984  1.00  0.00     0.211 HD
ENDBRANCH  21  33
ENDBRANCH  15  16
ENDBRANCH  10  15
BRANCH  12  35
ATOM     35  O   UNL     1      11.398  28.719  24.082  1.00  0.00    -0.385 OA
ATOM     36  H   UNL     1      11.504  28.698  23.078  1.00  0.00     0.211 HD
ENDBRANCH  12  35
BRANCH  13  37
ATOM     37  O   UNL     1      11.772  32.126  24.927  1.00  0.00    -0.387 OA
ATOM     38  H   UNL     1      11.439  32.971  24.541  1.00  0.00     0.211 HD
ENDBRANCH  13  37
BRANCH  14  39
ATOM     39  O   UNL     1      13.402  32.286  22.933  1.00  0.00    -0.387 OA
ATOM     40  H   UNL     1      14.295  31.925  23.132  1.00  0.00     0.211 HD
ENDBRANCH  14  39
ENDBRANCH   8   9
ENDBRANCH   7   8
ENDBRANCH   1   7
BRANCH   1  41
ATOM     41  C   UNL     1      14.967  32.597  19.938  1.00  0.00     0.364 C 
ATOM     42  O   UNL     1      14.396  33.159  18.976  1.00  0.00    -0.246 OA
BRANCH  41  43
ATOM     43  O   UNL     1      15.281  33.294  21.061  1.00  0.00    -0.477 OA
ATOM     44  H   UNL     1      16.110  33.185  21.602  1.00  0.00     0.296 HD
ENDBRANCH  41  43
ENDBRANCH   1  41
BRANCH   3  45
ATOM     45  O   UNL     1      15.215  28.398  18.746  1.00  0.00    -0.391 OA
ATOM     46  H   UNL     1      15.299  28.532  19.696  1.00  0.00     0.211 HD
ENDBRANCH   3  45
BRANCH   5  47
ATOM     47  C   UNL     1      18.362  29.446  19.757  1.00  0.00     0.176 C 
BRANCH  47  48
ATOM     48  O   UNL     1      17.767  28.303  20.210  1.00  0.00    -0.388 OA
ATOM     49  H   UNL     1      17.138  28.429  20.969  1.00  0.00     0.211 HD
ENDBRANCH  47  48
BRANCH  47  50
ATOM     50  C   UNL     1      19.649  29.139  19.084  1.00  0.00     0.165 C 
BRANCH  50  51
ATOM     51  O   UNL     1      19.564  27.995  18.254  1.00  0.00    -0.388 OA
ATOM     52  H   UNL     1      18.676  27.572  18.322  1.00  0.00     0.211 HD
ENDBRANCH  50  51
BRANCH  50  53
ATOM     53  C   UNL     1      20.611  28.672  20.200  1.00  0.00     0.154 C 
BRANCH  53  54
ATOM     54  N   UNL     1      20.901  27.273  20.053  1.00  0.00    -0.319 N 
ATOM     55  C   UNL     1      22.155  26.826  19.592  1.00  0.00     0.407 C 
ATOM     56  H   UNL     1      20.180  26.528  20.287  1.00  0.00     0.167 HD
ATOM     57  O   UNL     1      23.068  27.638  19.316  1.00  0.00    -0.225 OA
BRANCH  55  58
ATOM     58  O   UNL     1      22.421  25.462  19.424  1.00  0.00    -0.443 OA
BRANCH  58  59
ATOM     59  C   UNL     1      22.980  24.687  20.448  1.00  0.00     0.294 C 
BRANCH  59  60
ATOM     60  C   UNL     1      22.242  24.881  21.734  1.00  0.00     0.121 A 
ATOM     61  C   UNL     1      22.836  25.354  22.922  1.00  0.00     0.144 A 
ATOM     62  N   UNL     1      20.969  24.677  22.034  1.00  0.00    -0.131 NA
ATOM     63  N   UNL     1      21.909  25.413  23.867  1.00  0.00    -0.219 N 
ATOM     64  N   UNL     1      20.776  24.990  23.290  1.00  0.00    -0.062 NA
BRANCH  63  65
ATOM     65  C   UNL     1      21.951  25.814  25.224  1.00  0.00     0.081 A 
ATOM     66  C   UNL     1      22.379  24.899  26.194  1.00  0.00     0.049 A 
ATOM     67  C   UNL     1      21.572  27.040  25.689  1.00  0.00     0.065 A 
ATOM     68  C   UNL     1      22.408  25.222  27.511  1.00  0.00     0.043 A 
ATOM     69  C   UNL     1      21.600  27.375  27.055  1.00  0.00     0.017 A 
ATOM     70  Cl  UNL     1      22.956  24.025  28.677  1.00  0.00    -0.084 Cl
ATOM     71  C   UNL     1      22.025  26.450  27.976  1.00  0.00     0.021 A 
BRANCH  67  72
ATOM     72  C   UNL     1      21.151  28.111  24.780  1.00  0.00     0.255 C 
ATOM     73  O   UNL     1      19.934  28.246  24.539  1.00  0.00    -0.269 OA
ATOM     74  N   UNL     1      22.099  28.958  24.200  1.00  0.00    -0.345 N 
ATOM     75  C   UNL     1      23.520  28.787  24.490  1.00  0.00     0.146 C 
ATOM     76  C   UNL     1      21.706  30.039  23.299  1.00  0.00     0.146 C 
ENDBRANCH  67  72
ENDBRANCH  63  65
ENDBRANCH  59  60
ENDBRANCH  58  59
ENDBRANCH  55  58
ENDBRANCH  53  54
ENDBRANCH  50  53
ENDBRANCH  47  50
ENDBRANCH   5  47
BRANCH   4  77
ATOM     77  N   UNL     1      16.898  30.847  16.662  1.00  0.00    -0.348 N 
ATOM     78  C   UNL     1      17.915  30.858  15.684  1.00  0.00     0.217 C 
ATOM     79  H   UNL     1      16.151  31.564  16.591  1.00  0.00     0.163 HD
ATOM     80  C   UNL     1      17.952  31.840  14.573  1.00  0.00     0.114 C 
ATOM     81  O   UNL     1      18.832  29.997  15.755  1.00  0.00    -0.275 OA
ENDBRANCH   4  77
TORSDOF 31
