REMARK VINA RESULT:    -5.834      5.290     13.789
REMARK INTER + INTRA:         -25.201
REMARK INTER:                 -17.667
REMARK INTRA:                  -7.534
REMARK UNBOUND:                -8.963
REMARK SMILES CC(=O)N[C@@H]1[C@@H](O)C[C@](OC[C@H]2O[C@@H](O[C@H]3[C@H](O)[C@@H](O)[C@H](OCCN=[N+]=[N-])O[C@@H]3CO)[C@H](O)[C@@H](O)[C@H]2O)(C(=O)O)O[C@H]1C(O)[C@H](O)CNC(=O)OCc1cn(C[C@@H](C(=O)O)C(c2ccccc2)c2ccccc2)nn1
REMARK SMILES IDX 43 1 42 2 9 3 8 4 41 5 6 6 5 7 10 8 11 9 12 10 14 11 13 12
REMARK SMILES IDX 32 13 34 14 36 15 15 16 16 17 29 18 28 19 21 20 17 21 19 22
REMARK SMILES IDX 30 23 31 24 22 26 23 27 24 28 25 29 26 30 27 31 18 32 20 34
REMARK SMILES IDX 33 36 35 38 37 40 38 42 39 43 40 44 7 46 4 48 2 49 1 51 3 52
REMARK SMILES IDX 44 53 45 55 46 56 47 58 48 59 49 60 50 62 51 63 52 64 53 65
REMARK SMILES IDX 54 66 75 67 55 68 74 69 56 70 57 71 58 72 59 73 60 74 61 76
REMARK SMILES IDX 62 77 63 78 67 79 64 80 66 81 65 82 68 83 69 84 73 85 70 86
REMARK SMILES IDX 72 87 71 88
REMARK H PARENT 31 25 18 33 20 35 33 37 35 39 37 41 40 45 7 47 4 50 44 54
REMARK H PARENT 46 57 48 61 60 75
REMARK Flexibility Score: inf
ROOT
ATOM      1  C   UNL     1      14.688  31.114  16.946  1.00  0.00     0.176 C 
ENDROOT
BRANCH   1   2
ATOM      2  C   UNL     1      13.432  30.601  16.210  1.00  0.00     0.178 C 
ATOM      3  C   UNL     1      12.487  29.779  14.267  1.00  0.00     0.272 C 
ATOM      4  C   UNL     1      11.342  29.668  15.328  1.00  0.00     0.113 C 
ATOM      5  O   UNL     1      13.614  30.329  14.904  1.00  0.00    -0.332 OA
ATOM      6  C   UNL     1      11.064  30.974  15.988  1.00  0.00     0.145 C 
ATOM      7  C   UNL     1      12.321  31.574  16.530  1.00  0.00     0.142 C 
BRANCH   3   8
ATOM      8  O   UNL     1      12.022  30.420  13.246  1.00  0.00    -0.338 OA
BRANCH   8   9
ATOM      9  C   UNL     1      11.585  30.224  12.065  1.00  0.00     0.199 C 
BRANCH   9  10
ATOM     10  C   UNL     1      12.320  30.571  10.798  1.00  0.00     0.179 C 
ATOM     11  C   UNL     1      14.620  30.796  10.262  1.00  0.00     0.282 C 
ATOM     12  O   UNL     1      13.577  31.012  11.079  1.00  0.00    -0.341 OA
ATOM     13  C   UNL     1      14.411  30.181   8.934  1.00  0.00     0.202 C 
ATOM     14  C   UNL     1      13.033  29.640   8.682  1.00  0.00     0.179 C 
ATOM     15  C   UNL     1      12.482  29.248  10.016  1.00  0.00     0.177 C 
BRANCH  11  16
ATOM     16  O   UNL     1      15.472  29.909  10.983  1.00  0.00    -0.341 OA
BRANCH  16  17
ATOM     17  C   UNL     1      16.797  30.064  10.688  1.00  0.00     0.184 C 
ATOM     18  C   UNL     1      17.491  28.745  10.877  1.00  0.00     0.178 C 
ATOM     19  O   UNL     1      17.895  28.535  12.190  1.00  0.00    -0.341 OA
ATOM     20  C   UNL     1      17.110  29.214  13.132  1.00  0.00     0.281 C 
ATOM     21  C   UNL     1      17.481  31.076  11.597  1.00  0.00     0.180 C 
ATOM     22  C   UNL     1      17.278  30.693  13.050  1.00  0.00     0.202 C 
BRANCH  18  23
ATOM     23  C   UNL     1      18.664  28.526   9.963  1.00  0.00     0.191 C 
BRANCH  23  24
ATOM     24  O   UNL     1      19.146  27.233   9.999  1.00  0.00    -0.394 OA
ATOM     25  H   UNL     1      19.246  26.989  10.968  1.00  0.00     0.210 HD
ENDBRANCH  23  24
ENDBRANCH  18  23
BRANCH  20  26
ATOM     26  O   UNL     1      17.497  28.805  14.388  1.00  0.00    -0.350 OA
BRANCH  26  27
ATOM     27  C   UNL     1      18.743  29.161  14.799  1.00  0.00     0.169 C 
BRANCH  27  28
ATOM     28  C   UNL     1      18.977  29.035  16.269  1.00  0.00     0.119 C 
BRANCH  28  29
ATOM     29  N   UNL     1      19.171  30.410  16.771  1.00  0.00    -0.092 NA
ATOM     30  N   UNL     1      20.177  30.613  17.457  1.00  0.00     0.001 N 
ATOM     31  N   UNL     1      21.090  30.799  18.258  1.00  0.00    -0.003 NA
ENDBRANCH  28  29
ENDBRANCH  27  28
ENDBRANCH  26  27
ENDBRANCH  20  26
BRANCH  21  32
ATOM     32  O   UNL     1      18.845  31.006  11.332  1.00  0.00    -0.387 OA
ATOM     33  H   UNL     1      19.393  31.478  12.001  1.00  0.00     0.211 HD
ENDBRANCH  21  32
BRANCH  22  34
ATOM     34  O   UNL     1      16.144  31.315  13.554  1.00  0.00    -0.385 OA
ATOM     35  H   UNL     1      15.737  31.836  12.791  1.00  0.00     0.211 HD
ENDBRANCH  22  34
ENDBRANCH  16  17
ENDBRANCH  11  16
BRANCH  13  36
ATOM     36  O   UNL     1      14.642  31.133   7.912  1.00  0.00    -0.385 OA
ATOM     37  H   UNL     1      13.778  31.399   7.487  1.00  0.00     0.211 HD
ENDBRANCH  13  36
BRANCH  14  38
ATOM     38  O   UNL     1      13.096  28.553   7.834  1.00  0.00    -0.387 OA
ATOM     39  H   UNL     1      13.475  28.844   6.963  1.00  0.00     0.211 HD
ENDBRANCH  14  38
BRANCH  15  40
ATOM     40  O   UNL     1      13.388  28.409  10.649  1.00  0.00    -0.387 OA
ATOM     41  H   UNL     1      12.944  28.015  11.428  1.00  0.00     0.211 HD
ENDBRANCH  15  40
ENDBRANCH   9  10
ENDBRANCH   8   9
ENDBRANCH   3   8
BRANCH   3  42
ATOM     42  C   UNL     1      12.837  28.363  14.042  1.00  0.00     0.364 C 
ATOM     43  O   UNL     1      12.155  27.384  14.409  1.00  0.00    -0.246 OA
BRANCH  42  44
ATOM     44  O   UNL     1      14.032  28.049  13.360  1.00  0.00    -0.477 OA
ATOM     45  H   UNL     1      14.858  27.942  13.910  1.00  0.00     0.296 HD
ENDBRANCH  42  44
ENDBRANCH   3  42
BRANCH   6  46
ATOM     46  O   UNL     1      10.402  31.871  15.137  1.00  0.00    -0.391 OA
ATOM     47  H   UNL     1      11.027  32.501  14.707  1.00  0.00     0.211 HD
ENDBRANCH   6  46
BRANCH   7  48
ATOM     48  N   UNL     1      12.219  31.680  17.967  1.00  0.00    -0.348 N 
ATOM     49  C   UNL     1      11.794  32.880  18.589  1.00  0.00     0.217 C 
ATOM     50  H   UNL     1      12.468  30.835  18.556  1.00  0.00     0.163 HD
ATOM     51  C   UNL     1      11.685  32.996  20.084  1.00  0.00     0.114 C 
ATOM     52  O   UNL     1      11.511  33.850  17.839  1.00  0.00    -0.275 OA
ENDBRANCH   7  48
ENDBRANCH   1   2
BRANCH   1  53
ATOM     53  O   UNL     1      15.306  32.104  16.231  1.00  0.00    -0.388 OA
ATOM     54  H   UNL     1      16.273  32.181  16.398  1.00  0.00     0.211 HD
ENDBRANCH   1  53
BRANCH   1  55
ATOM     55  C   UNL     1      15.629  30.004  17.209  1.00  0.00     0.165 C 
BRANCH  55  56
ATOM     56  O   UNL     1      15.390  28.868  16.408  1.00  0.00    -0.388 OA
ATOM     57  H   UNL     1      15.955  28.147  16.829  1.00  0.00     0.211 HD
ENDBRANCH  55  56
BRANCH  55  58
ATOM     58  C   UNL     1      15.919  29.567  18.596  1.00  0.00     0.154 C 
BRANCH  58  59
ATOM     59  N   UNL     1      17.112  30.051  19.186  1.00  0.00    -0.319 N 
ATOM     60  C   UNL     1      17.402  30.120  20.565  1.00  0.00     0.407 C 
ATOM     61  H   UNL     1      17.895  30.405  18.509  1.00  0.00     0.167 HD
ATOM     62  O   UNL     1      16.590  29.788  21.445  1.00  0.00    -0.225 OA
BRANCH  60  63
ATOM     63  O   UNL     1      18.649  30.573  20.942  1.00  0.00    -0.443 OA
BRANCH  63  64
ATOM     64  C   UNL     1      19.498  29.826  21.740  1.00  0.00     0.294 C 
BRANCH  64  65
ATOM     65  C   UNL     1      20.292  28.818  21.022  1.00  0.00     0.120 A 
ATOM     66  C   UNL     1      21.599  28.437  21.210  1.00  0.00     0.138 A 
ATOM     67  N   UNL     1      19.864  28.064  19.962  1.00  0.00    -0.132 NA
ATOM     68  N   UNL     1      21.926  27.507  20.307  1.00  0.00    -0.251 N 
ATOM     69  N   UNL     1      20.855  27.300  19.564  1.00  0.00    -0.067 NA
BRANCH  68  70
ATOM     70  C   UNL     1      23.216  26.813  20.133  1.00  0.00     0.162 C 
BRANCH  70  71
ATOM     71  C   UNL     1      23.000  25.335  20.131  1.00  0.00     0.132 C 
BRANCH  71  72
ATOM     72  C   UNL     1      23.154  24.777  18.753  1.00  0.00     0.309 C 
ATOM     73  O   UNL     1      23.989  25.206  17.940  1.00  0.00    -0.252 OA
BRANCH  72  74
ATOM     74  O   UNL     1      22.339  23.734  18.349  1.00  0.00    -0.481 OA
ATOM     75  H   UNL     1      21.561  23.443  18.947  1.00  0.00     0.296 HD
ENDBRANCH  72  74
ENDBRANCH  71  72
BRANCH  71  76
ATOM     76  C   UNL     1      23.695  24.523  21.159  1.00  0.00     0.065 C 
BRANCH  76  77
ATOM     77  C   UNL     1      25.159  24.538  21.167  1.00  0.00    -0.040 A 
ATOM     78  C   UNL     1      25.871  25.738  21.024  1.00  0.00     0.004 A 
ATOM     79  C   UNL     1      25.946  23.392  21.304  1.00  0.00     0.004 A 
ATOM     80  C   UNL     1      27.229  25.799  21.020  1.00  0.00     0.000 A 
ATOM     81  C   UNL     1      27.318  23.464  21.298  1.00  0.00     0.000 A 
ATOM     82  C   UNL     1      27.975  24.670  21.155  1.00  0.00     0.000 A 
ENDBRANCH  76  77
BRANCH  76  83
ATOM     83  C   UNL     1      23.062  24.592  22.503  1.00  0.00    -0.040 A 
ATOM     84  C   UNL     1      21.684  24.573  22.542  1.00  0.00     0.004 A 
ATOM     85  C   UNL     1      23.787  24.661  23.662  1.00  0.00     0.004 A 
ATOM     86  C   UNL     1      21.016  24.621  23.732  1.00  0.00     0.000 A 
ATOM     87  C   UNL     1      23.094  24.708  24.868  1.00  0.00     0.000 A 
ATOM     88  C   UNL     1      21.718  24.690  24.913  1.00  0.00     0.000 A 
ENDBRANCH  76  83
ENDBRANCH  71  76
ENDBRANCH  70  71
ENDBRANCH  68  70
ENDBRANCH  64  65
ENDBRANCH  63  64
ENDBRANCH  60  63
ENDBRANCH  58  59
ENDBRANCH  55  58
ENDBRANCH   1  55
TORSDOF 36
