REMARK VINA RESULT:    -5.857      4.270      7.897
REMARK INTER + INTRA:         -21.576
REMARK INTER:                 -13.119
REMARK INTRA:                  -8.457
REMARK UNBOUND:                -6.131
REMARK SMILES COCC(C(N)=O)n1cc(COC(=O)NC[C@@H](O)C(O)[C@@H]2O[C@@](OC[C@H]3O[C@@H](O[C@H]4[C@H](O)[C@@H](O)[C@H](OCCN=[N+]=[N-])O[C@@H]4CO)[C@H](O)[C@@H](O)[C@H]3O)(C(=O)O)C[C@H](O)[C@H]2NC(C)=O)nn1
REMARK SMILES IDX 23 1 55 2 56 3 58 4 21 5 22 6 24 7 25 8 26 9 28 10 27 11
REMARK SMILES IDX 46 12 48 13 50 14 29 15 30 16 43 17 42 18 35 19 31 20 33 21
REMARK SMILES IDX 44 22 45 23 36 25 37 26 38 27 39 28 40 29 41 30 32 31 34 33
REMARK SMILES IDX 47 35 49 37 51 39 52 41 53 42 54 43 57 45 19 47 20 48 17 50
REMARK SMILES IDX 18 51 16 53 15 54 13 55 14 57 12 58 11 59 10 60 9 61 63 62
REMARK SMILES IDX 8 63 64 64 4 65 3 66 2 67 1 68 5 69 7 70 6 71 59 74 60 75
REMARK SMILES IDX 61 77 62 78
REMARK H PARENT 45 24 32 32 34 34 47 36 49 38 51 40 54 44 57 46 20 49 18 52
REMARK H PARENT 15 56 6 72 6 73 59 76
REMARK Flexibility Score: inf
ROOT
ATOM      1  C   UNL     1      17.071  29.196  18.724  1.00  0.00     0.272 C 
ATOM      2  C   UNL     1      16.698  28.221  17.675  1.00  0.00     0.113 C 
ATOM      3  C   UNL     1      16.474  28.749  16.306  1.00  0.00     0.145 C 
ATOM      4  C   UNL     1      15.786  30.086  16.372  1.00  0.00     0.142 C 
ATOM      5  C   UNL     1      15.200  30.217  17.770  1.00  0.00     0.178 C 
ATOM      6  O   UNL     1      16.217  30.298  18.684  1.00  0.00    -0.332 OA
ENDROOT
BRANCH   1   7
ATOM      7  O   UNL     1      18.352  29.674  18.714  1.00  0.00    -0.338 OA
BRANCH   7   8
ATOM      8  C   UNL     1      19.369  28.778  18.691  1.00  0.00     0.199 C 
BRANCH   8   9
ATOM      9  C   UNL     1      20.732  29.444  18.460  1.00  0.00     0.179 C 
ATOM     10  C   UNL     1      22.348  28.075  19.413  1.00  0.00     0.282 C 
ATOM     11  O   UNL     1      21.585  29.231  19.505  1.00  0.00    -0.341 OA
ATOM     12  C   UNL     1      23.098  27.964  18.131  1.00  0.00     0.202 C 
ATOM     13  C   UNL     1      22.201  28.052  16.941  1.00  0.00     0.179 C 
ATOM     14  C   UNL     1      21.275  29.205  17.096  1.00  0.00     0.177 C 
BRANCH  10  15
ATOM     15  O   UNL     1      21.615  26.932  19.677  1.00  0.00    -0.341 OA
BRANCH  15  16
ATOM     16  C   UNL     1      22.086  26.293  20.823  1.00  0.00     0.184 C 
ATOM     17  C   UNL     1      22.332  24.839  20.683  1.00  0.00     0.178 C 
ATOM     18  O   UNL     1      22.961  24.317  21.786  1.00  0.00    -0.341 OA
ATOM     19  C   UNL     1      22.639  24.946  22.990  1.00  0.00     0.281 C 
ATOM     20  C   UNL     1      20.972  26.456  21.872  1.00  0.00     0.180 C 
ATOM     21  C   UNL     1      21.211  25.469  22.963  1.00  0.00     0.202 C 
BRANCH  17  22
ATOM     22  C   UNL     1      23.170  24.450  19.480  1.00  0.00     0.191 C 
BRANCH  22  23
ATOM     23  O   UNL     1      22.351  24.294  18.363  1.00  0.00    -0.394 OA
ATOM     24  H   UNL     1      21.478  23.898  18.595  1.00  0.00     0.210 HD
ENDBRANCH  22  23
ENDBRANCH  17  22
BRANCH  19  25
ATOM     25  O   UNL     1      23.556  25.897  23.268  1.00  0.00    -0.350 OA
BRANCH  25  26
ATOM     26  C   UNL     1      23.868  26.207  24.547  1.00  0.00     0.169 C 
BRANCH  26  27
ATOM     27  C   UNL     1      23.681  27.614  24.995  1.00  0.00     0.119 C 
BRANCH  27  28
ATOM     28  N   UNL     1      22.632  27.769  25.952  1.00  0.00    -0.092 NA
ATOM     29  N   UNL     1      21.472  27.921  25.578  1.00  0.00     0.001 N 
ATOM     30  N   UNL     1      20.299  27.604  25.320  1.00  0.00    -0.003 NA
ENDBRANCH  27  28
ENDBRANCH  26  27
ENDBRANCH  25  26
ENDBRANCH  19  25
BRANCH  20  31
ATOM     31  O   UNL     1      20.973  27.765  22.352  1.00  0.00    -0.387 OA
ATOM     32  H   UNL     1      20.090  27.907  22.764  1.00  0.00     0.211 HD
ENDBRANCH  20  31
BRANCH  21  33
ATOM     33  O   UNL     1      20.380  24.339  22.809  1.00  0.00    -0.385 OA
ATOM     34  H   UNL     1      20.872  23.529  23.132  1.00  0.00     0.211 HD
ENDBRANCH  21  33
ENDBRANCH  15  16
ENDBRANCH  10  15
BRANCH  12  35
ATOM     35  O   UNL     1      23.964  29.072  18.067  1.00  0.00    -0.385 OA
ATOM     36  H   UNL     1      24.382  29.137  17.183  1.00  0.00     0.211 HD
ENDBRANCH  12  35
BRANCH  13  37
ATOM     37  O   UNL     1      21.569  26.844  16.650  1.00  0.00    -0.387 OA
ATOM     38  H   UNL     1      21.040  26.602  17.458  1.00  0.00     0.211 HD
ENDBRANCH  13  37
BRANCH  14  39
ATOM     39  O   UNL     1      20.207  29.113  16.201  1.00  0.00    -0.387 OA
ATOM     40  H   UNL     1      20.204  29.887  15.577  1.00  0.00     0.211 HD
ENDBRANCH  14  39
ENDBRANCH   8   9
ENDBRANCH   7   8
ENDBRANCH   1   7
BRANCH   1  41
ATOM     41  C   UNL     1      16.772  28.548  20.052  1.00  0.00     0.364 C 
ATOM     42  O   UNL     1      16.456  27.346  20.134  1.00  0.00    -0.246 OA
BRANCH  41  43
ATOM     43  O   UNL     1      16.854  29.314  21.185  1.00  0.00    -0.477 OA
ATOM     44  H   UNL     1      17.314  29.003  22.026  1.00  0.00     0.296 HD
ENDBRANCH  41  43
ENDBRANCH   1  41
BRANCH   3  45
ATOM     45  O   UNL     1      17.619  28.784  15.515  1.00  0.00    -0.391 OA
ATOM     46  H   UNL     1      18.331  29.296  15.974  1.00  0.00     0.211 HD
ENDBRANCH   3  45
BRANCH   5  47
ATOM     47  C   UNL     1      14.348  31.469  17.848  1.00  0.00     0.176 C 
BRANCH  47  48
ATOM     48  O   UNL     1      13.172  31.366  17.170  1.00  0.00    -0.388 OA
ATOM     49  H   UNL     1      12.557  32.111  17.197  1.00  0.00     0.211 HD
ENDBRANCH  47  48
BRANCH  47  50
ATOM     50  C   UNL     1      14.096  31.835  19.285  1.00  0.00     0.165 C 
BRANCH  50  51
ATOM     51  O   UNL     1      15.308  32.384  19.772  1.00  0.00    -0.388 OA
ATOM     52  H   UNL     1      15.878  31.647  20.126  1.00  0.00     0.211 HD
ENDBRANCH  50  51
BRANCH  50  53
ATOM     53  C   UNL     1      13.774  30.682  20.175  1.00  0.00     0.154 C 
BRANCH  53  54
ATOM     54  N   UNL     1      14.110  30.841  21.552  1.00  0.00    -0.319 N 
ATOM     55  C   UNL     1      13.186  31.308  22.525  1.00  0.00     0.407 C 
ATOM     56  H   UNL     1      15.080  30.612  21.900  1.00  0.00     0.167 HD
ATOM     57  O   UNL     1      12.032  31.597  22.174  1.00  0.00    -0.225 OA
BRANCH  55  58
ATOM     58  O   UNL     1      13.540  31.453  23.870  1.00  0.00    -0.443 OA
BRANCH  58  59
ATOM     59  C   UNL     1      14.231  30.468  24.577  1.00  0.00     0.294 C 
BRANCH  59  60
ATOM     60  C   UNL     1      15.669  30.392  24.292  1.00  0.00     0.120 A 
ATOM     61  C   UNL     1      16.496  31.482  24.190  1.00  0.00     0.139 A 
ATOM     62  N   UNL     1      16.380  29.276  24.093  1.00  0.00    -0.132 NA
ATOM     63  N   UNL     1      17.711  30.996  23.927  1.00  0.00    -0.237 N 
ATOM     64  N   UNL     1      17.626  29.665  23.872  1.00  0.00    -0.066 NA
BRANCH  63  65
ATOM     65  C   UNL     1      18.909  31.792  23.736  1.00  0.00     0.223 C 
BRANCH  65  66
ATOM     66  C   UNL     1      19.990  31.241  24.609  1.00  0.00     0.197 C 
BRANCH  66  67
ATOM     67  O   UNL     1      21.172  31.086  23.929  1.00  0.00    -0.382 OA
ATOM     68  C   UNL     1      22.254  31.270  24.748  1.00  0.00     0.195 C 
ENDBRANCH  66  67
ENDBRANCH  65  66
BRANCH  65  69
ATOM     69  C   UNL     1      19.280  31.661  22.287  1.00  0.00     0.244 C 
ATOM     70  O   UNL     1      19.372  32.696  21.598  1.00  0.00    -0.273 OA
ATOM     71  N   UNL     1      19.511  30.370  21.751  1.00  0.00    -0.368 N 
ATOM     72  H   UNL     1      18.861  29.879  21.115  1.00  0.00     0.159 HD
ATOM     73  H   UNL     1      20.396  29.888  22.021  1.00  0.00     0.159 HD
ENDBRANCH  65  69
ENDBRANCH  63  65
ENDBRANCH  59  60
ENDBRANCH  58  59
ENDBRANCH  55  58
ENDBRANCH  53  54
ENDBRANCH  50  53
ENDBRANCH  47  50
ENDBRANCH   5  47
BRANCH   4  74
ATOM     74  N   UNL     1      14.758  30.203  15.341  1.00  0.00    -0.348 N 
ATOM     75  C   UNL     1      15.021  30.661  14.021  1.00  0.00     0.217 C 
ATOM     76  H   UNL     1      13.763  29.940  15.551  1.00  0.00     0.163 HD
ATOM     77  C   UNL     1      14.003  30.785  12.966  1.00  0.00     0.114 C 
ATOM     78  O   UNL     1      16.228  30.980  13.749  1.00  0.00    -0.275 OA
ENDBRANCH   4  74
TORSDOF 33
