REMARK VINA RESULT:    -5.162      6.122     13.896
REMARK INTER + INTRA:         -22.392
REMARK INTER:                 -15.272
REMARK INTRA:                  -7.119
REMARK UNBOUND:                -8.780
REMARK SMILES COc1ccc(Cn2cc(COC(=O)NC[C@@H](O)C(O)[C@@H]3O[C@@](OC[C@H]4O[C@@H](O[C@H]5[C@H](O)[C@@H](O)[C@H](OCCN=[N+]=[N-])O[C@@H]5CO)[C@H](O)[C@@H](O)[C@H]4O)(C(=O)O)C[C@H](O)[C@H]3NC(C)=O)nn2)cc1OC
REMARK SMILES IDX 23 1 55 2 56 3 58 4 21 5 22 6 24 7 25 8 26 9 28 10 27 11
REMARK SMILES IDX 46 12 48 13 50 14 29 15 30 16 43 17 42 18 35 19 31 20 33 21
REMARK SMILES IDX 44 22 45 23 36 25 37 26 38 27 39 28 40 29 41 30 32 31 34 33
REMARK SMILES IDX 47 35 49 37 51 39 52 41 53 42 54 43 57 45 19 47 20 48 17 50
REMARK SMILES IDX 18 51 16 53 15 54 13 55 14 57 12 58 11 59 10 60 9 61 63 62
REMARK SMILES IDX 8 63 64 64 7 65 6 66 65 67 5 68 66 69 4 70 3 71 67 72 68 73
REMARK SMILES IDX 2 74 1 75 59 76 60 77 61 79 62 80
REMARK H PARENT 45 24 32 32 34 34 47 36 49 38 51 40 54 44 57 46 20 49 18 52
REMARK H PARENT 15 56 59 78
REMARK Flexibility Score: inf
ROOT
ATOM      1  C   UNL     1      16.926  29.645  21.286  1.00  0.00     0.272 C 
ATOM      2  C   UNL     1      15.929  28.590  20.839  1.00  0.00     0.113 C 
ATOM      3  C   UNL     1      15.815  28.289  19.389  1.00  0.00     0.145 C 
ATOM      4  C   UNL     1      16.348  29.466  18.577  1.00  0.00     0.142 C 
ATOM      5  C   UNL     1      16.059  30.664  19.390  1.00  0.00     0.178 C 
ATOM      6  O   UNL     1      16.979  30.754  20.418  1.00  0.00    -0.332 OA
ENDROOT
BRANCH   1   7
ATOM      7  O   UNL     1      18.156  29.001  21.231  1.00  0.00    -0.338 OA
BRANCH   7   8
ATOM      8  C   UNL     1      19.258  29.769  21.009  1.00  0.00     0.199 C 
BRANCH   8   9
ATOM      9  C   UNL     1      20.441  28.921  20.630  1.00  0.00     0.179 C 
ATOM     10  C   UNL     1      21.612  27.015  21.032  1.00  0.00     0.282 C 
ATOM     11  O   UNL     1      20.289  27.602  21.095  1.00  0.00    -0.341 OA
ATOM     12  C   UNL     1      21.967  26.757  19.642  1.00  0.00     0.202 C 
ATOM     13  C   UNL     1      21.643  27.926  18.727  1.00  0.00     0.179 C 
ATOM     14  C   UNL     1      20.467  28.739  19.106  1.00  0.00     0.177 C 
BRANCH  10  15
ATOM     15  O   UNL     1      21.575  25.905  21.851  1.00  0.00    -0.341 OA
BRANCH  15  16
ATOM     16  C   UNL     1      22.282  26.150  23.029  1.00  0.00     0.184 C 
ATOM     17  C   UNL     1      23.358  25.171  23.287  1.00  0.00     0.178 C 
ATOM     18  O   UNL     1      24.155  25.669  24.314  1.00  0.00    -0.341 OA
ATOM     19  C   UNL     1      23.457  26.305  25.277  1.00  0.00     0.281 C 
ATOM     20  C   UNL     1      21.262  26.113  24.174  1.00  0.00     0.180 C 
ATOM     21  C   UNL     1      22.031  25.844  25.475  1.00  0.00     0.202 C 
BRANCH  17  22
ATOM     22  C   UNL     1      24.175  24.847  22.058  1.00  0.00     0.191 C 
BRANCH  22  23
ATOM     23  O   UNL     1      23.420  23.945  21.309  1.00  0.00    -0.394 OA
ATOM     24  H   UNL     1      22.513  24.343  21.143  1.00  0.00     0.210 HD
ENDBRANCH  22  23
ENDBRANCH  17  22
BRANCH  19  25
ATOM     25  O   UNL     1      23.361  27.696  24.911  1.00  0.00    -0.350 OA
BRANCH  25  26
ATOM     26  C   UNL     1      24.121  28.414  25.857  1.00  0.00     0.169 C 
BRANCH  26  27
ATOM     27  C   UNL     1      23.777  28.046  27.289  1.00  0.00     0.119 C 
BRANCH  27  28
ATOM     28  N   UNL     1      22.869  29.027  27.815  1.00  0.00    -0.092 NA
ATOM     29  N   UNL     1      21.703  29.123  27.423  1.00  0.00     0.001 N 
ATOM     30  N   UNL     1      20.676  29.091  26.715  1.00  0.00    -0.003 NA
ENDBRANCH  27  28
ENDBRANCH  26  27
ENDBRANCH  25  26
ENDBRANCH  19  25
BRANCH  20  31
ATOM     31  O   UNL     1      20.715  27.382  24.278  1.00  0.00    -0.387 OA
ATOM     32  H   UNL     1      19.999  27.468  23.580  1.00  0.00     0.211 HD
ENDBRANCH  20  31
BRANCH  21  33
ATOM     33  O   UNL     1      22.009  24.491  25.714  1.00  0.00    -0.385 OA
ATOM     34  H   UNL     1      21.300  24.024  25.191  1.00  0.00     0.211 HD
ENDBRANCH  21  33
ENDBRANCH  15  16
ENDBRANCH  10  15
BRANCH  12  35
ATOM     35  O   UNL     1      23.324  26.522  19.492  1.00  0.00    -0.385 OA
ATOM     36  H   UNL     1      23.822  27.351  19.233  1.00  0.00     0.211 HD
ENDBRANCH  12  35
BRANCH  13  37
ATOM     37  O   UNL     1      21.504  27.407  17.412  1.00  0.00    -0.387 OA
ATOM     38  H   UNL     1      22.421  27.341  17.038  1.00  0.00     0.211 HD
ENDBRANCH  13  37
BRANCH  14  39
ATOM     39  O   UNL     1      19.258  28.080  18.791  1.00  0.00    -0.387 OA
ATOM     40  H   UNL     1      19.117  28.051  17.784  1.00  0.00     0.211 HD
ENDBRANCH  14  39
ENDBRANCH   8   9
ENDBRANCH   7   8
ENDBRANCH   1   7
BRANCH   1  41
ATOM     41  C   UNL     1      16.518  30.125  22.631  1.00  0.00     0.364 C 
ATOM     42  O   UNL     1      16.314  31.320  22.857  1.00  0.00    -0.246 OA
BRANCH  41  43
ATOM     43  O   UNL     1      16.335  29.264  23.746  1.00  0.00    -0.477 OA
ATOM     44  H   UNL     1      16.786  28.324  23.660  1.00  0.00     0.296 HD
ENDBRANCH  41  43
ENDBRANCH   1  41
BRANCH   3  45
ATOM     45  O   UNL     1      16.529  27.166  19.042  1.00  0.00    -0.391 OA
ATOM     46  H   UNL     1      17.224  27.395  18.359  1.00  0.00     0.211 HD
ENDBRANCH   3  45
BRANCH   5  47
ATOM     47  C   UNL     1      15.798  31.874  18.619  1.00  0.00     0.176 C 
BRANCH  47  48
ATOM     48  O   UNL     1      14.824  31.783  17.632  1.00  0.00    -0.388 OA
ATOM     49  H   UNL     1      13.915  31.907  17.929  1.00  0.00     0.211 HD
ENDBRANCH  47  48
BRANCH  47  50
ATOM     50  C   UNL     1      15.012  32.908  19.594  1.00  0.00     0.165 C 
BRANCH  50  51
ATOM     51  O   UNL     1      15.830  33.180  20.621  1.00  0.00    -0.388 OA
ATOM     52  H   UNL     1      16.735  33.500  20.335  1.00  0.00     0.211 HD
ENDBRANCH  50  51
BRANCH  50  53
ATOM     53  C   UNL     1      13.639  32.495  19.755  1.00  0.00     0.154 C 
BRANCH  53  54
ATOM     54  N   UNL     1      12.956  32.403  21.002  1.00  0.00    -0.319 N 
ATOM     55  C   UNL     1      12.671  31.095  21.468  1.00  0.00     0.407 C 
ATOM     56  H   UNL     1      12.639  33.175  21.583  1.00  0.00     0.167 HD
ATOM     57  O   UNL     1      13.009  30.075  20.782  1.00  0.00    -0.225 OA
BRANCH  55  58
ATOM     58  O   UNL     1      12.025  30.788  22.660  1.00  0.00    -0.443 OA
BRANCH  58  59
ATOM     59  C   UNL     1      11.967  31.865  23.658  1.00  0.00     0.294 C 
BRANCH  59  60
ATOM     60  C   UNL     1      13.133  31.554  24.536  1.00  0.00     0.120 A 
ATOM     61  C   UNL     1      13.895  32.518  25.236  1.00  0.00     0.138 A 
ATOM     62  N   UNL     1      13.604  30.359  24.872  1.00  0.00    -0.132 NA
ATOM     63  N   UNL     1      14.790  31.809  25.965  1.00  0.00    -0.248 N 
ATOM     64  N   UNL     1      14.614  30.553  25.747  1.00  0.00    -0.067 NA
BRANCH  63  65
ATOM     65  C   UNL     1      15.761  32.421  26.911  1.00  0.00     0.181 C 
BRANCH  65  66
ATOM     66  C   UNL     1      15.424  31.730  28.233  1.00  0.00    -0.023 A 
ATOM     67  C   UNL     1      14.198  31.878  28.847  1.00  0.00     0.056 A 
ATOM     68  C   UNL     1      16.338  30.856  28.727  1.00  0.00     0.010 A 
ATOM     69  C   UNL     1      13.988  31.059  29.993  1.00  0.00     0.161 A 
ATOM     70  C   UNL     1      16.107  30.044  29.880  1.00  0.00     0.051 A 
ATOM     71  C   UNL     1      14.884  30.195  30.477  1.00  0.00     0.160 A 
BRANCH  69  72
ATOM     72  O   UNL     1      12.769  31.166  30.665  1.00  0.00    -0.493 OA
ATOM     73  C   UNL     1      12.506  32.229  31.587  1.00  0.00     0.278 C 
ENDBRANCH  69  72
BRANCH  71  74
ATOM     74  O   UNL     1      14.548  29.408  31.615  1.00  0.00    -0.493 OA
ATOM     75  C   UNL     1      15.409  29.486  32.771  1.00  0.00     0.278 C 
ENDBRANCH  71  74
ENDBRANCH  65  66
ENDBRANCH  63  65
ENDBRANCH  59  60
ENDBRANCH  58  59
ENDBRANCH  55  58
ENDBRANCH  53  54
ENDBRANCH  50  53
ENDBRANCH  47  50
ENDBRANCH   5  47
BRANCH   4  76
ATOM     76  N   UNL     1      15.726  29.443  17.280  1.00  0.00    -0.348 N 
ATOM     77  C   UNL     1      16.434  28.934  16.186  1.00  0.00     0.217 C 
ATOM     78  H   UNL     1      14.738  29.774  17.099  1.00  0.00     0.163 HD
ATOM     79  C   UNL     1      15.944  28.863  14.775  1.00  0.00     0.114 C 
ATOM     80  O   UNL     1      17.636  28.458  16.295  1.00  0.00    -0.275 OA
ENDBRANCH   4  76
TORSDOF 33
