REMARK VINA RESULT:    -6.607      2.755      4.355
REMARK INTER + INTRA:         -24.068
REMARK INTER:                 -18.059
REMARK INTRA:                  -6.010
REMARK UNBOUND:                -7.033
REMARK SMILES CC(=O)N[C@@H]1[C@@H](O)C[C@](OC[C@H]2O[C@@H](O[C@H]3[C@H](O)[C@@H](O)[C@H](OCCN=[N+]=[N-])O[C@@H]3CO)[C@H](O)[C@@H](O)[C@H]2O)(C(=O)O)O[C@H]1C(O)[C@H](O)CNC(=O)OCc1cn(C(C)(C)C(=O)c2c[nH]c3ccccc23)nn1
REMARK SMILES IDX 9 1 8 2 6 3 5 4 42 5 41 6 10 7 11 8 12 9 14 10 13 11 32 12
REMARK SMILES IDX 34 13 36 14 15 15 16 16 29 17 28 18 21 19 17 20 19 21 30 22
REMARK SMILES IDX 31 23 22 25 23 26 24 27 25 28 26 29 27 30 18 31 20 33 33 35
REMARK SMILES IDX 35 37 37 39 38 41 39 42 40 43 7 45 43 47 44 48 45 50 46 51
REMARK SMILES IDX 47 53 48 54 49 55 50 57 51 58 52 59 53 60 54 61 71 62 55 63
REMARK SMILES IDX 70 64 56 65 57 66 58 67 59 68 60 69 61 70 62 71 69 72 63 73
REMARK SMILES IDX 64 74 68 75 65 77 67 78 66 79 4 80 2 81 1 83 3 84
REMARK H PARENT 31 24 18 32 20 34 33 36 35 38 37 40 40 44 7 46 44 49 46 52
REMARK H PARENT 48 56 63 76 4 82
REMARK Flexibility Score: inf
ROOT
ATOM      1  C   UNL     1      14.835  30.390  20.691  1.00  0.00     0.272 C 
ATOM      2  C   UNL     1      13.403  30.721  20.306  1.00  0.00     0.113 C 
ATOM      3  C   UNL     1      13.014  32.112  20.741  1.00  0.00     0.145 C 
ATOM      4  C   UNL     1      12.955  32.139  22.308  1.00  0.00     0.142 C 
ATOM      5  C   UNL     1      14.067  31.244  22.750  1.00  0.00     0.178 C 
ATOM      6  O   UNL     1      15.071  31.199  21.805  1.00  0.00    -0.332 OA
ENDROOT
BRANCH   1   7
ATOM      7  O   UNL     1      15.772  30.533  19.751  1.00  0.00    -0.338 OA
BRANCH   7   8
ATOM      8  C   UNL     1      15.846  30.316  18.480  1.00  0.00     0.199 C 
BRANCH   8   9
ATOM      9  C   UNL     1      16.642  29.072  18.080  1.00  0.00     0.179 C 
ATOM     10  C   UNL     1      16.319  29.089  15.730  1.00  0.00     0.282 C 
ATOM     11  O   UNL     1      16.154  28.521  16.944  1.00  0.00    -0.341 OA
ATOM     12  C   UNL     1      17.706  29.613  15.478  1.00  0.00     0.202 C 
ATOM     13  C   UNL     1      18.640  29.163  16.595  1.00  0.00     0.179 C 
ATOM     14  C   UNL     1      18.090  29.452  17.940  1.00  0.00     0.177 C 
BRANCH  10  15
ATOM     15  O   UNL     1      15.412  30.118  15.545  1.00  0.00    -0.341 OA
BRANCH  15  16
ATOM     16  C   UNL     1      14.303  29.754  14.839  1.00  0.00     0.184 C 
ATOM     17  C   UNL     1      14.062  30.427  13.536  1.00  0.00     0.178 C 
ATOM     18  O   UNL     1      13.171  29.603  12.819  1.00  0.00    -0.341 OA
ATOM     19  C   UNL     1      11.952  29.458  13.416  1.00  0.00     0.281 C 
ATOM     20  C   UNL     1      13.022  29.860  15.643  1.00  0.00     0.180 C 
ATOM     21  C   UNL     1      11.996  29.055  14.875  1.00  0.00     0.202 C 
BRANCH  17  22
ATOM     22  C   UNL     1      15.289  30.552  12.656  1.00  0.00     0.191 C 
BRANCH  22  23
ATOM     23  O   UNL     1      15.785  29.259  12.452  1.00  0.00    -0.394 OA
ATOM     24  H   UNL     1      15.560  28.644  13.188  1.00  0.00     0.210 HD
ENDBRANCH  22  23
ENDBRANCH  17  22
BRANCH  19  25
ATOM     25  O   UNL     1      11.276  28.426  12.757  1.00  0.00    -0.350 OA
BRANCH  25  26
ATOM     26  C   UNL     1      10.470  28.984  11.782  1.00  0.00     0.169 C 
BRANCH  26  27
ATOM     27  C   UNL     1       9.016  28.648  11.974  1.00  0.00     0.119 C 
BRANCH  27  28
ATOM     28  N   UNL     1       8.506  29.019  13.275  1.00  0.00    -0.092 NA
ATOM     29  N   UNL     1       7.344  29.454  13.410  1.00  0.00     0.001 N 
ATOM     30  N   UNL     1       6.119  29.398  13.542  1.00  0.00    -0.003 NA
ENDBRANCH  27  28
ENDBRANCH  26  27
ENDBRANCH  25  26
ENDBRANCH  19  25
BRANCH  20  31
ATOM     31  O   UNL     1      13.144  29.363  16.919  1.00  0.00    -0.387 OA
ATOM     32  H   UNL     1      12.850  28.427  16.914  1.00  0.00     0.211 HD
ENDBRANCH  20  31
BRANCH  21  33
ATOM     33  O   UNL     1      10.743  29.338  15.416  1.00  0.00    -0.385 OA
ATOM     34  H   UNL     1      10.808  29.674  16.351  1.00  0.00     0.211 HD
ENDBRANCH  21  33
ENDBRANCH  15  16
ENDBRANCH  10  15
BRANCH  12  35
ATOM     35  O   UNL     1      18.226  29.255  14.235  1.00  0.00    -0.385 OA
ATOM     36  H   UNL     1      19.125  28.884  14.354  1.00  0.00     0.211 HD
ENDBRANCH  12  35
BRANCH  13  37
ATOM     37  O   UNL     1      19.843  29.872  16.368  1.00  0.00    -0.387 OA
ATOM     38  H   UNL     1      20.380  29.436  15.663  1.00  0.00     0.211 HD
ENDBRANCH  13  37
BRANCH  14  39
ATOM     39  O   UNL     1      18.181  30.838  18.226  1.00  0.00    -0.387 OA
ATOM     40  H   UNL     1      18.555  31.309  17.436  1.00  0.00     0.211 HD
ENDBRANCH  14  39
ENDBRANCH   8   9
ENDBRANCH   7   8
ENDBRANCH   1   7
BRANCH   1  41
ATOM     41  C   UNL     1      14.866  28.971  21.108  1.00  0.00     0.364 C 
ATOM     42  O   UNL     1      15.981  28.401  21.231  1.00  0.00    -0.246 OA
BRANCH  41  43
ATOM     43  O   UNL     1      13.756  28.231  21.364  1.00  0.00    -0.477 OA
ATOM     44  H   UNL     1      13.714  27.231  21.547  1.00  0.00     0.296 HD
ENDBRANCH  41  43
ENDBRANCH   1  41
BRANCH   3  45
ATOM     45  O   UNL     1      13.916  33.104  20.439  1.00  0.00    -0.391 OA
ATOM     46  H   UNL     1      13.948  33.834  21.121  1.00  0.00     0.211 HD
ENDBRANCH   3  45
BRANCH   5  47
ATOM     47  C   UNL     1      14.717  31.549  24.048  1.00  0.00     0.176 C 
BRANCH  47  48
ATOM     48  O   UNL     1      15.190  30.436  24.705  1.00  0.00    -0.388 OA
ATOM     49  H   UNL     1      14.730  30.231  25.567  1.00  0.00     0.211 HD
ENDBRANCH  47  48
BRANCH  47  50
ATOM     50  C   UNL     1      15.659  32.733  24.079  1.00  0.00     0.165 C 
BRANCH  50  51
ATOM     51  O   UNL     1      15.518  33.567  23.019  1.00  0.00    -0.388 OA
ATOM     52  H   UNL     1      16.322  33.646  22.485  1.00  0.00     0.211 HD
ENDBRANCH  50  51
BRANCH  50  53
ATOM     53  C   UNL     1      17.034  32.232  24.379  1.00  0.00     0.154 C 
BRANCH  53  54
ATOM     54  N   UNL     1      17.832  31.815  23.289  1.00  0.00    -0.319 N 
ATOM     55  C   UNL     1      18.213  30.448  23.051  1.00  0.00     0.407 C 
ATOM     56  H   UNL     1      18.191  32.525  22.581  1.00  0.00     0.167 HD
ATOM     57  O   UNL     1      17.870  29.531  23.825  1.00  0.00    -0.225 OA
BRANCH  55  58
ATOM     58  O   UNL     1      18.978  30.108  21.951  1.00  0.00    -0.443 OA
BRANCH  58  59
ATOM     59  C   UNL     1      20.353  29.871  22.043  1.00  0.00     0.294 C 
BRANCH  59  60
ATOM     60  C   UNL     1      20.688  28.725  21.141  1.00  0.00     0.120 A 
ATOM     61  C   UNL     1      21.761  27.834  21.329  1.00  0.00     0.139 A 
ATOM     62  N   UNL     1      20.115  28.310  20.004  1.00  0.00    -0.132 NA
ATOM     63  N   UNL     1      21.789  26.947  20.326  1.00  0.00    -0.239 N 
ATOM     64  N   UNL     1      20.789  27.245  19.532  1.00  0.00    -0.066 NA
BRANCH  63  65
ATOM     65  C   UNL     1      22.756  25.878  20.188  1.00  0.00     0.122 C 
ATOM     66  C   UNL     1      24.123  26.461  20.692  1.00  0.00     0.046 C 
ATOM     67  C   UNL     1      23.046  25.506  18.754  1.00  0.00     0.046 C 
BRANCH  65  68
ATOM     68  C   UNL     1      22.453  24.745  21.040  1.00  0.00     0.192 C 
ATOM     69  O   UNL     1      22.507  23.589  20.432  1.00  0.00    -0.291 OA
BRANCH  68  70
ATOM     70  C   UNL     1      22.106  24.678  22.426  1.00  0.00     0.045 A 
ATOM     71  C   UNL     1      20.786  24.643  22.893  1.00  0.00     0.095 A 
ATOM     72  C   UNL     1      22.915  24.658  23.545  1.00  0.00     0.010 A 
ATOM     73  N   UNL     1      20.823  24.607  24.211  1.00  0.00    -0.360 N 
ATOM     74  C   UNL     1      22.077  24.615  24.663  1.00  0.00     0.046 A 
ATOM     75  C   UNL     1      24.266  24.674  23.761  1.00  0.00     0.011 A 
ATOM     76  H   UNL     1      19.949  24.577  24.809  1.00  0.00     0.166 HD
ATOM     77  C   UNL     1      22.593  24.587  25.946  1.00  0.00     0.027 A 
ATOM     78  C   UNL     1      24.781  24.647  25.056  1.00  0.00     0.001 A 
ATOM     79  C   UNL     1      23.945  24.605  26.132  1.00  0.00     0.002 A 
ENDBRANCH  68  70
ENDBRANCH  65  68
ENDBRANCH  63  65
ENDBRANCH  59  60
ENDBRANCH  58  59
ENDBRANCH  55  58
ENDBRANCH  53  54
ENDBRANCH  50  53
ENDBRANCH  47  50
ENDBRANCH   5  47
BRANCH   4  80
ATOM     80  N   UNL     1      11.657  31.529  22.584  1.00  0.00    -0.348 N 
ATOM     81  C   UNL     1      10.697  32.078  23.471  1.00  0.00     0.217 C 
ATOM     82  H   UNL     1      11.410  30.623  22.102  1.00  0.00     0.163 HD
ATOM     83  C   UNL     1       9.378  31.452  23.752  1.00  0.00     0.114 C 
ATOM     84  O   UNL     1      11.018  33.175  24.043  1.00  0.00    -0.275 OA
ENDBRANCH   4  80
TORSDOF 32
