REMARK VINA RESULT:    -6.325     11.321     18.277
REMARK INTER + INTRA:         -22.509
REMARK INTER:                 -15.691
REMARK INTRA:                  -6.818
REMARK UNBOUND:                -6.939
REMARK SMILES CC(=O)N[C@@H]1[C@@H](O)C[C@](OC[C@H]2O[C@@H](O[C@H]3[C@H](O)[C@@H](O)[C@H](OCCN=[N+]=[N-])O[C@@H]3CO)[C@H](O)[C@@H](O)[C@H]2O)(C(=O)O)O[C@H]1C(O)[C@H](O)CNC(=O)OCc1cn([C@H]2C[C@H]3CC[C@@H](C2)N3C)nn1
REMARK SMILES IDX 9 1 8 2 6 3 5 4 42 5 41 6 10 7 11 8 12 9 14 10 13 11 32 12
REMARK SMILES IDX 34 13 36 14 15 15 16 16 29 17 28 18 21 19 17 20 19 21 30 22
REMARK SMILES IDX 31 23 22 25 23 26 24 27 25 28 26 29 27 30 18 31 20 33 33 35
REMARK SMILES IDX 35 37 37 39 38 41 39 42 40 43 7 45 43 47 44 48 45 50 46 51
REMARK SMILES IDX 47 53 48 54 49 55 50 57 51 58 52 59 53 60 54 61 66 62 55 63
REMARK SMILES IDX 65 64 56 65 62 66 57 67 61 68 58 69 63 70 60 71 59 72 64 73
REMARK SMILES IDX 4 74 2 75 1 77 3 78
REMARK H PARENT 31 24 18 32 20 34 33 36 35 38 37 40 40 44 7 46 44 49 46 52
REMARK H PARENT 48 56 4 76
REMARK Flexibility Score: inf
ROOT
ATOM      1  C   UNL     1       4.202  23.907  32.644  1.00  0.00     0.272 C 
ATOM      2  C   UNL     1       5.466  23.069  32.570  1.00  0.00     0.113 C 
ATOM      3  C   UNL     1       5.237  21.588  32.542  1.00  0.00     0.145 C 
ATOM      4  C   UNL     1       4.013  21.286  33.323  1.00  0.00     0.142 C 
ATOM      5  C   UNL     1       3.864  22.380  34.383  1.00  0.00     0.178 C 
ATOM      6  O   UNL     1       3.315  23.468  33.588  1.00  0.00    -0.332 OA
ENDROOT
BRANCH   1   7
ATOM      7  O   UNL     1       3.688  24.008  31.387  1.00  0.00    -0.338 OA
BRANCH   7   8
ATOM      8  C   UNL     1       2.356  23.965  31.191  1.00  0.00     0.199 C 
BRANCH   8   9
ATOM      9  C   UNL     1       1.831  23.608  29.851  1.00  0.00     0.179 C 
ATOM     10  C   UNL     1       1.431  24.617  27.871  1.00  0.00     0.282 C 
ATOM     11  O   UNL     1       2.382  24.519  28.894  1.00  0.00    -0.341 OA
ATOM     12  C   UNL     1       1.036  23.324  27.294  1.00  0.00     0.202 C 
ATOM     13  C   UNL     1       1.402  22.084  28.017  1.00  0.00     0.179 C 
ATOM     14  C   UNL     1       2.193  22.271  29.292  1.00  0.00     0.177 C 
BRANCH  10  15
ATOM     15  O   UNL     1       1.947  25.500  26.953  1.00  0.00    -0.341 OA
BRANCH  15  16
ATOM     16  C   UNL     1       3.318  25.710  27.122  1.00  0.00     0.184 C 
ATOM     17  C   UNL     1       3.687  27.073  27.605  1.00  0.00     0.178 C 
ATOM     18  O   UNL     1       3.663  28.084  26.698  1.00  0.00    -0.341 OA
ATOM     19  C   UNL     1       4.201  27.795  25.492  1.00  0.00     0.281 C 
ATOM     20  C   UNL     1       3.931  25.421  25.770  1.00  0.00     0.180 C 
ATOM     21  C   UNL     1       3.499  26.584  24.879  1.00  0.00     0.202 C 
BRANCH  17  22
ATOM     22  C   UNL     1       4.952  27.033  28.471  1.00  0.00     0.191 C 
BRANCH  22  23
ATOM     23  O   UNL     1       4.956  26.015  29.398  1.00  0.00    -0.394 OA
ATOM     24  H   UNL     1       4.556  26.275  30.255  1.00  0.00     0.210 HD
ENDBRANCH  22  23
ENDBRANCH  17  22
BRANCH  19  25
ATOM     25  O   UNL     1       5.558  27.713  25.397  1.00  0.00    -0.350 OA
BRANCH  25  26
ATOM     26  C   UNL     1       6.181  28.424  24.418  1.00  0.00     0.169 C 
BRANCH  26  27
ATOM     27  C   UNL     1       7.664  28.418  24.561  1.00  0.00     0.119 C 
BRANCH  27  28
ATOM     28  N   UNL     1       8.221  27.069  24.381  1.00  0.00    -0.092 NA
ATOM     29  N   UNL     1       8.907  26.555  25.281  1.00  0.00     0.001 N 
ATOM     30  N   UNL     1       9.096  26.007  26.385  1.00  0.00    -0.003 NA
ENDBRANCH  27  28
ENDBRANCH  26  27
ENDBRANCH  25  26
ENDBRANCH  19  25
BRANCH  20  31
ATOM     31  O   UNL     1       5.303  25.349  25.786  1.00  0.00    -0.387 OA
ATOM     32  H   UNL     1       5.643  24.461  25.982  1.00  0.00     0.211 HD
ENDBRANCH  20  31
BRANCH  21  33
ATOM     33  O   UNL     1       2.119  26.764  24.926  1.00  0.00    -0.385 OA
ATOM     34  H   UNL     1       1.962  27.722  25.141  1.00  0.00     0.211 HD
ENDBRANCH  21  33
ENDBRANCH  15  16
ENDBRANCH  10  15
BRANCH  12  35
ATOM     35  O   UNL     1      -0.375  23.340  27.159  1.00  0.00    -0.385 OA
ATOM     36  H   UNL     1      -0.667  23.793  26.339  1.00  0.00     0.211 HD
ENDBRANCH  12  35
BRANCH  13  37
ATOM     37  O   UNL     1       2.173  21.221  27.199  1.00  0.00    -0.387 OA
ATOM     38  H   UNL     1       2.998  21.737  26.927  1.00  0.00     0.211 HD
ENDBRANCH  13  37
BRANCH  14  39
ATOM     39  O   UNL     1       3.553  22.280  28.899  1.00  0.00    -0.387 OA
ATOM     40  H   UNL     1       4.028  22.618  29.722  1.00  0.00     0.211 HD
ENDBRANCH  14  39
ENDBRANCH   8   9
ENDBRANCH   7   8
ENDBRANCH   1   7
BRANCH   1  41
ATOM     41  C   UNL     1       4.689  25.245  33.107  1.00  0.00     0.364 C 
ATOM     42  O   UNL     1       4.432  25.680  34.225  1.00  0.00    -0.246 OA
BRANCH  41  43
ATOM     43  O   UNL     1       5.464  26.049  32.260  1.00  0.00    -0.477 OA
ATOM     44  H   UNL     1       6.071  26.746  32.714  1.00  0.00     0.296 HD
ENDBRANCH  41  43
ENDBRANCH   1  41
BRANCH   3  45
ATOM     45  O   UNL     1       5.108  21.232  31.178  1.00  0.00    -0.391 OA
ATOM     46  H   UNL     1       4.892  22.031  30.636  1.00  0.00     0.211 HD
ENDBRANCH   3  45
BRANCH   5  47
ATOM     47  C   UNL     1       2.870  22.090  35.437  1.00  0.00     0.176 C 
BRANCH  47  48
ATOM     48  O   UNL     1       1.566  22.133  34.778  1.00  0.00    -0.388 OA
ATOM     49  H   UNL     1       0.912  22.457  35.449  1.00  0.00     0.211 HD
ENDBRANCH  47  48
BRANCH  47  50
ATOM     50  C   UNL     1       2.641  23.198  36.455  1.00  0.00     0.165 C 
BRANCH  50  51
ATOM     51  O   UNL     1       3.844  23.944  36.480  1.00  0.00    -0.388 OA
ATOM     52  H   UNL     1       4.486  23.567  37.130  1.00  0.00     0.211 HD
ENDBRANCH  50  51
BRANCH  50  53
ATOM     53  C   UNL     1       2.257  22.804  37.823  1.00  0.00     0.154 C 
BRANCH  53  54
ATOM     54  N   UNL     1       3.475  22.908  38.652  1.00  0.00    -0.319 N 
ATOM     55  C   UNL     1       4.288  21.777  38.916  1.00  0.00     0.407 C 
ATOM     56  H   UNL     1       3.728  23.833  39.042  1.00  0.00     0.167 HD
ATOM     57  O   UNL     1       3.958  20.657  38.412  1.00  0.00    -0.225 OA
BRANCH  55  58
ATOM     58  O   UNL     1       5.420  21.891  39.706  1.00  0.00    -0.443 OA
BRANCH  58  59
ATOM     59  C   UNL     1       6.067  23.142  39.772  1.00  0.00     0.294 C 
BRANCH  59  60
ATOM     60  C   UNL     1       7.457  23.116  39.276  1.00  0.00     0.120 A 
ATOM     61  C   UNL     1       7.949  23.926  38.274  1.00  0.00     0.138 A 
ATOM     62  N   UNL     1       8.482  22.339  39.642  1.00  0.00    -0.132 NA
ATOM     63  N   UNL     1       9.236  23.632  38.054  1.00  0.00    -0.249 N 
ATOM     64  N   UNL     1       9.551  22.654  38.904  1.00  0.00    -0.067 NA
BRANCH  63  65
ATOM     65  C   UNL     1      10.070  24.286  37.056  1.00  0.00     0.112 C 
ATOM     66  C   UNL     1       9.577  25.686  36.919  1.00  0.00     0.046 C 
ATOM     67  C   UNL     1      10.047  23.460  35.811  1.00  0.00     0.046 C 
ATOM     68  C   UNL     1       9.472  26.183  35.513  1.00  0.00     0.058 C 
ATOM     69  C   UNL     1       9.969  24.231  34.530  1.00  0.00     0.058 C 
ATOM     70  N   UNL     1      10.449  25.592  34.653  1.00  0.00    -0.300 NA
ATOM     71  C   UNL     1       8.157  25.686  34.918  1.00  0.00     0.021 C 
ATOM     72  C   UNL     1       8.508  24.420  34.174  1.00  0.00     0.021 C 
ATOM     73  C   UNL     1      11.808  25.665  35.133  1.00  0.00     0.105 C 
ENDBRANCH  63  65
ENDBRANCH  59  60
ENDBRANCH  58  59
ENDBRANCH  55  58
ENDBRANCH  53  54
ENDBRANCH  50  53
ENDBRANCH  47  50
ENDBRANCH   5  47
BRANCH   4  74
ATOM     74  N   UNL     1       3.796  19.951  33.689  1.00  0.00    -0.348 N 
ATOM     75  C   UNL     1       2.608  19.229  33.327  1.00  0.00     0.217 C 
ATOM     76  H   UNL     1       4.515  19.407  34.218  1.00  0.00     0.163 HD
ATOM     77  C   UNL     1       2.475  17.796  33.755  1.00  0.00     0.114 C 
ATOM     78  O   UNL     1       1.702  19.761  32.675  1.00  0.00    -0.275 OA
ENDBRANCH   4  74
TORSDOF 30
