REMARK VINA RESULT:    -6.530      9.510     15.813
REMARK INTER + INTRA:         -21.277
REMARK INTER:                 -17.562
REMARK INTRA:                  -3.715
REMARK UNBOUND:                -4.822
REMARK SMILES CC(=O)N[C@@H]1[C@@H](O)C[C@](OC[C@H]2O[C@@H](O[C@H]3[C@H](O)[C@@H](O)[C@H](OCCN=[N+]=[N-])O[C@@H]3CO)[C@H](O)[C@@H](O)[C@H]2O)(C(=O)O)O[C@H]1C(O)[C@H](O)CNC(=O)OCc1cn(Cc2ccccc2Br)nn1
REMARK SMILES IDX 9 1 8 2 6 3 5 4 42 5 41 6 10 7 11 8 12 9 14 10 13 11 32 12
REMARK SMILES IDX 34 13 36 14 15 15 16 16 29 17 28 18 21 19 17 20 19 21 30 22
REMARK SMILES IDX 31 23 22 25 23 26 24 27 25 28 26 29 27 30 18 31 20 33 33 35
REMARK SMILES IDX 35 37 37 39 38 41 39 42 40 43 7 45 43 47 44 48 45 50 46 51
REMARK SMILES IDX 47 53 48 54 49 55 50 57 51 58 52 59 53 60 54 61 65 62 55 63
REMARK SMILES IDX 64 64 56 65 57 66 58 67 62 68 59 69 61 70 63 71 60 72 4 73
REMARK SMILES IDX 2 74 1 76 3 77
REMARK H PARENT 31 24 18 32 20 34 33 36 35 38 37 40 40 44 7 46 44 49 46 52
REMARK H PARENT 48 56 4 75
REMARK Flexibility Score: inf
ROOT
ATOM      1  C   UNL     1      18.934  28.816  19.215  1.00  0.00     0.272 C 
ATOM      2  C   UNL     1      19.420  30.211  19.218  1.00  0.00     0.113 C 
ATOM      3  C   UNL     1      18.391  31.151  18.700  1.00  0.00     0.145 C 
ATOM      4  C   UNL     1      17.137  31.015  19.518  1.00  0.00     0.142 C 
ATOM      5  C   UNL     1      16.863  29.638  19.986  1.00  0.00     0.178 C 
ATOM      6  O   UNL     1      17.905  28.829  20.270  1.00  0.00    -0.332 OA
ENDROOT
BRANCH   1   7
ATOM      7  O   UNL     1      19.810  27.888  19.642  1.00  0.00    -0.338 OA
BRANCH   7   8
ATOM      8  C   UNL     1      20.610  27.884  20.659  1.00  0.00     0.199 C 
BRANCH   8   9
ATOM      9  C   UNL     1      21.575  26.880  21.110  1.00  0.00     0.179 C 
ATOM     10  C   UNL     1      22.243  25.282  22.614  1.00  0.00     0.282 C 
ATOM     11  O   UNL     1      21.126  25.917  22.020  1.00  0.00    -0.341 OA
ATOM     12  C   UNL     1      22.755  24.299  21.598  1.00  0.00     0.202 C 
ATOM     13  C   UNL     1      22.953  24.938  20.267  1.00  0.00     0.179 C 
ATOM     14  C   UNL     1      22.616  26.400  20.165  1.00  0.00     0.177 C 
BRANCH  10  15
ATOM     15  O   UNL     1      21.794  24.696  23.759  1.00  0.00    -0.341 OA
BRANCH  15  16
ATOM     16  C   UNL     1      21.906  25.391  24.925  1.00  0.00     0.184 C 
ATOM     17  C   UNL     1      22.374  26.800  24.812  1.00  0.00     0.178 C 
ATOM     18  O   UNL     1      23.405  26.994  25.727  1.00  0.00    -0.341 OA
ATOM     19  C   UNL     1      24.466  26.159  25.294  1.00  0.00     0.281 C 
ATOM     20  C   UNL     1      22.704  24.650  25.987  1.00  0.00     0.180 C 
ATOM     21  C   UNL     1      24.192  24.739  25.711  1.00  0.00     0.202 C 
BRANCH  17  22
ATOM     22  C   UNL     1      21.281  27.803  25.178  1.00  0.00     0.191 C 
BRANCH  22  23
ATOM     23  O   UNL     1      20.030  27.330  24.782  1.00  0.00    -0.394 OA
ATOM     24  H   UNL     1      19.418  28.055  24.522  1.00  0.00     0.210 HD
ENDBRANCH  22  23
ENDBRANCH  17  22
BRANCH  19  25
ATOM     25  O   UNL     1      25.620  26.689  25.867  1.00  0.00    -0.350 OA
BRANCH  25  26
ATOM     26  C   UNL     1      25.794  26.249  27.179  1.00  0.00     0.169 C 
BRANCH  26  27
ATOM     27  C   UNL     1      27.050  26.907  27.724  1.00  0.00     0.119 C 
BRANCH  27  28
ATOM     28  N   UNL     1      27.053  26.745  29.156  1.00  0.00    -0.092 NA
ATOM     29  N   UNL     1      27.898  26.051  29.730  1.00  0.00     0.001 N 
ATOM     30  N   UNL     1      28.491  25.026  30.123  1.00  0.00    -0.003 NA
ENDBRANCH  27  28
ENDBRANCH  26  27
ENDBRANCH  25  26
ENDBRANCH  19  25
BRANCH  20  31
ATOM     31  O   UNL     1      22.508  25.224  27.245  1.00  0.00    -0.387 OA
ATOM     32  H   UNL     1      22.588  26.210  27.118  1.00  0.00     0.211 HD
ENDBRANCH  20  31
BRANCH  21  33
ATOM     33  O   UNL     1      24.635  23.795  24.821  1.00  0.00    -0.385 OA
ATOM     34  H   UNL     1      23.974  23.066  24.756  1.00  0.00     0.211 HD
ENDBRANCH  21  33
ENDBRANCH  15  16
ENDBRANCH  10  15
BRANCH  12  35
ATOM     35  O   UNL     1      24.004  23.780  21.976  1.00  0.00    -0.385 OA
ATOM     36  H   UNL     1      24.339  24.356  22.701  1.00  0.00     0.211 HD
ENDBRANCH  12  35
BRANCH  13  37
ATOM     37  O   UNL     1      22.190  24.250  19.314  1.00  0.00    -0.387 OA
ATOM     38  H   UNL     1      21.948  24.816  18.554  1.00  0.00     0.211 HD
ENDBRANCH  13  37
BRANCH  14  39
ATOM     39  O   UNL     1      22.299  26.642  18.836  1.00  0.00    -0.387 OA
ATOM     40  H   UNL     1      21.720  25.995  18.409  1.00  0.00     0.211 HD
ENDBRANCH  14  39
ENDBRANCH   8   9
ENDBRANCH   7   8
ENDBRANCH   1   7
BRANCH   1  41
ATOM     41  C   UNL     1      18.120  28.370  18.065  1.00  0.00     0.364 C 
ATOM     42  O   UNL     1      18.189  28.803  16.892  1.00  0.00    -0.246 OA
BRANCH  41  43
ATOM     43  O   UNL     1      17.171  27.381  18.269  1.00  0.00    -0.477 OA
ATOM     44  H   UNL     1      16.416  27.213  17.603  1.00  0.00     0.296 HD
ENDBRANCH  41  43
ENDBRANCH   1  41
BRANCH   3  45
ATOM     45  O   UNL     1      18.927  32.459  18.933  1.00  0.00    -0.391 OA
ATOM     46  H   UNL     1      19.351  32.505  19.812  1.00  0.00     0.211 HD
ENDBRANCH   3  45
BRANCH   5  47
ATOM     47  C   UNL     1      15.999  29.694  21.250  1.00  0.00     0.176 C 
BRANCH  47  48
ATOM     48  O   UNL     1      16.828  29.420  22.327  1.00  0.00    -0.388 OA
ATOM     49  H   UNL     1      17.632  28.927  22.088  1.00  0.00     0.211 HD
ENDBRANCH  47  48
BRANCH  47  50
ATOM     50  C   UNL     1      14.878  28.716  21.225  1.00  0.00     0.165 C 
BRANCH  50  51
ATOM     51  O   UNL     1      14.813  28.019  20.006  1.00  0.00    -0.388 OA
ATOM     52  H   UNL     1      13.907  27.640  19.876  1.00  0.00     0.211 HD
ENDBRANCH  50  51
BRANCH  50  53
ATOM     53  C   UNL     1      13.554  29.423  21.356  1.00  0.00     0.154 C 
BRANCH  53  54
ATOM     54  N   UNL     1      12.902  29.054  22.562  1.00  0.00    -0.319 N 
ATOM     55  C   UNL     1      12.276  29.965  23.438  1.00  0.00     0.407 C 
ATOM     56  H   UNL     1      12.888  28.022  22.816  1.00  0.00     0.167 HD
ATOM     57  O   UNL     1      12.254  31.197  23.196  1.00  0.00    -0.225 OA
BRANCH  55  58
ATOM     58  O   UNL     1      11.652  29.533  24.616  1.00  0.00    -0.443 OA
BRANCH  58  59
ATOM     59  C   UNL     1      10.617  28.587  24.599  1.00  0.00     0.294 C 
BRANCH  59  60
ATOM     60  C   UNL     1       9.257  29.171  24.593  1.00  0.00     0.120 A 
ATOM     61  C   UNL     1       8.097  28.454  24.925  1.00  0.00     0.138 A 
ATOM     62  N   UNL     1       8.842  30.406  24.298  1.00  0.00    -0.132 NA
ATOM     63  N   UNL     1       7.059  29.276  24.815  1.00  0.00    -0.248 N 
ATOM     64  N   UNL     1       7.534  30.464  24.431  1.00  0.00    -0.067 NA
BRANCH  63  65
ATOM     65  C   UNL     1       5.641  29.016  25.064  1.00  0.00     0.182 C 
BRANCH  65  66
ATOM     66  C   UNL     1       5.344  28.655  26.466  1.00  0.00    -0.012 A 
ATOM     67  C   UNL     1       5.489  29.665  27.432  1.00  0.00     0.007 A 
ATOM     68  C   UNL     1       4.968  27.406  26.880  1.00  0.00     0.023 A 
ATOM     69  C   UNL     1       5.254  29.368  28.739  1.00  0.00     0.000 A 
ATOM     70  C   UNL     1       4.733  27.119  28.215  1.00  0.00     0.016 A 
ATOM     71  Br  UNL     1       4.696  26.012  25.619  1.00  0.00    -0.050 Br
ATOM     72  C   UNL     1       4.880  28.115  29.144  1.00  0.00     0.001 A 
ENDBRANCH  65  66
ENDBRANCH  63  65
ENDBRANCH  59  60
ENDBRANCH  58  59
ENDBRANCH  55  58
ENDBRANCH  53  54
ENDBRANCH  50  53
ENDBRANCH  47  50
ENDBRANCH   5  47
BRANCH   4  73
ATOM     73  N   UNL     1      16.024  31.514  18.753  1.00  0.00    -0.348 N 
ATOM     74  C   UNL     1      15.526  32.847  18.870  1.00  0.00     0.217 C 
ATOM     75  H   UNL     1      15.515  30.918  18.067  1.00  0.00     0.163 HD
ATOM     76  C   UNL     1      14.362  33.299  18.044  1.00  0.00     0.114 C 
ATOM     77  O   UNL     1      16.083  33.611  19.668  1.00  0.00    -0.275 OA
ENDBRANCH   4  73
TORSDOF 31
