REMARK VINA RESULT:    -6.049     24.161     28.509
REMARK INTER + INTRA:         -22.380
REMARK INTER:                 -14.295
REMARK INTRA:                  -8.084
REMARK UNBOUND:                -6.784
REMARK SMILES COc1ccc(Cn2cc(COC(=O)NC[C@@H](O)C(O)[C@@H]3O[C@@](OC[C@H]4O[C@@H](O[C@H]5[C@H](O)[C@@H](O)[C@H](OCCN=[N+]=[N-])O[C@@H]5CO)[C@H](O)[C@@H](O)[C@H]4O)(C(=O)O)C[C@H](O)[C@H]3NC(C)=O)nn2)cc1
REMARK SMILES IDX 23 1 55 2 56 3 58 4 21 5 22 6 24 7 25 8 26 9 28 10 27 11
REMARK SMILES IDX 46 12 48 13 50 14 29 15 30 16 43 17 42 18 35 19 31 20 33 21
REMARK SMILES IDX 44 22 45 23 36 25 37 26 38 27 39 28 40 29 41 30 32 31 34 33
REMARK SMILES IDX 47 35 49 37 51 39 52 41 53 42 54 43 57 45 19 47 20 48 17 50
REMARK SMILES IDX 18 51 16 53 15 54 13 55 14 57 12 58 11 59 10 60 9 61 63 62
REMARK SMILES IDX 8 63 64 64 7 65 6 66 5 67 65 68 4 69 66 70 3 71 2 72 1 73
REMARK SMILES IDX 59 74 60 75 61 77 62 78
REMARK H PARENT 45 24 32 32 34 34 47 36 49 38 51 40 54 44 57 46 20 49 18 52
REMARK H PARENT 15 56 59 76
REMARK Flexibility Score: inf
ROOT
ATOM      1  C   UNL     1      16.902  24.374  41.156  1.00  0.00     0.272 C 
ATOM      2  C   UNL     1      17.390  24.235  39.729  1.00  0.00     0.113 C 
ATOM      3  C   UNL     1      18.775  23.620  39.717  1.00  0.00     0.145 C 
ATOM      4  C   UNL     1      18.911  22.424  40.614  1.00  0.00     0.142 C 
ATOM      5  C   UNL     1      17.660  22.134  41.425  1.00  0.00     0.178 C 
ATOM      6  O   UNL     1      17.080  23.288  41.914  1.00  0.00    -0.332 OA
ENDROOT
BRANCH   1   7
ATOM      7  O   UNL     1      15.717  25.022  41.229  1.00  0.00    -0.338 OA
BRANCH   7   8
ATOM      8  C   UNL     1      14.722  24.664  42.049  1.00  0.00     0.199 C 
BRANCH   8   9
ATOM      9  C   UNL     1      13.429  24.364  41.323  1.00  0.00     0.179 C 
ATOM     10  C   UNL     1      12.645  24.329  39.185  1.00  0.00     0.282 C 
ATOM     11  O   UNL     1      13.720  23.917  40.003  1.00  0.00    -0.341 OA
ATOM     12  C   UNL     1      11.334  24.131  39.851  1.00  0.00     0.202 C 
ATOM     13  C   UNL     1      11.314  23.254  41.058  1.00  0.00     0.179 C 
ATOM     14  C   UNL     1      12.556  23.328  41.923  1.00  0.00     0.177 C 
BRANCH  10  15
ATOM     15  O   UNL     1      12.777  23.883  37.901  1.00  0.00    -0.341 OA
BRANCH  15  16
ATOM     16  C   UNL     1      11.859  24.346  36.982  1.00  0.00     0.184 C 
ATOM     17  C   UNL     1      11.180  23.275  36.164  1.00  0.00     0.178 C 
ATOM     18  O   UNL     1      10.811  23.765  34.912  1.00  0.00    -0.341 OA
ATOM     19  C   UNL     1      10.477  25.131  34.938  1.00  0.00     0.281 C 
ATOM     20  C   UNL     1      12.692  25.107  35.933  1.00  0.00     0.180 C 
ATOM     21  C   UNL     1      11.728  25.993  35.193  1.00  0.00     0.202 C 
BRANCH  17  22
ATOM     22  C   UNL     1       9.951  22.689  36.784  1.00  0.00     0.191 C 
BRANCH  22  23
ATOM     23  O   UNL     1      10.321  21.765  37.759  1.00  0.00    -0.394 OA
ATOM     24  H   UNL     1       9.486  21.492  38.236  1.00  0.00     0.210 HD
ENDBRANCH  22  23
ENDBRANCH  17  22
BRANCH  19  25
ATOM     25  O   UNL     1       9.480  25.452  35.802  1.00  0.00    -0.350 OA
BRANCH  25  26
ATOM     26  C   UNL     1       8.279  25.865  35.314  1.00  0.00     0.169 C 
BRANCH  26  27
ATOM     27  C   UNL     1       7.054  25.221  35.845  1.00  0.00     0.119 C 
BRANCH  27  28
ATOM     28  N   UNL     1       6.837  23.890  35.393  1.00  0.00    -0.092 NA
ATOM     29  N   UNL     1       7.209  23.451  34.295  1.00  0.00     0.001 N 
ATOM     30  N   UNL     1       7.875  22.797  33.461  1.00  0.00    -0.003 NA
ENDBRANCH  27  28
ENDBRANCH  26  27
ENDBRANCH  25  26
ENDBRANCH  19  25
BRANCH  20  31
ATOM     31  O   UNL     1      13.760  25.757  36.487  1.00  0.00    -0.387 OA
ATOM     32  H   UNL     1      14.641  25.375  36.173  1.00  0.00     0.211 HD
ENDBRANCH  20  31
BRANCH  21  33
ATOM     33  O   UNL     1      12.277  26.462  33.999  1.00  0.00    -0.385 OA
ATOM     34  H   UNL     1      13.252  26.275  33.998  1.00  0.00     0.211 HD
ENDBRANCH  21  33
ENDBRANCH  15  16
ENDBRANCH  10  15
BRANCH  12  35
ATOM     35  O   UNL     1      10.692  25.363  40.137  1.00  0.00    -0.385 OA
ATOM     36  H   UNL     1      10.092  25.243  40.935  1.00  0.00     0.211 HD
ENDBRANCH  12  35
BRANCH  13  37
ATOM     37  O   UNL     1      11.010  21.912  40.724  1.00  0.00    -0.387 OA
ATOM     38  H   UNL     1      11.239  21.779  39.769  1.00  0.00     0.211 HD
ENDBRANCH  13  37
BRANCH  14  39
ATOM     39  O   UNL     1      13.175  22.087  42.042  1.00  0.00    -0.387 OA
ATOM     40  H   UNL     1      12.635  21.448  42.567  1.00  0.00     0.211 HD
ENDBRANCH  14  39
ENDBRANCH   8   9
ENDBRANCH   7   8
ENDBRANCH   1   7
BRANCH   1  41
ATOM     41  C   UNL     1      17.835  25.509  41.693  1.00  0.00     0.364 C 
ATOM     42  O   UNL     1      17.706  26.673  41.255  1.00  0.00    -0.246 OA
BRANCH  41  43
ATOM     43  O   UNL     1      18.791  25.296  42.625  1.00  0.00    -0.477 OA
ATOM     44  H   UNL     1      19.671  25.736  42.735  1.00  0.00     0.296 HD
ENDBRANCH  41  43
ENDBRANCH   1  41
BRANCH   3  45
ATOM     45  O   UNL     1      18.954  23.224  38.359  1.00  0.00    -0.391 OA
ATOM     46  H   UNL     1      18.096  23.293  37.868  1.00  0.00     0.211 HD
ENDBRANCH   3  45
BRANCH   5  47
ATOM     47  C   UNL     1      16.817  21.211  40.634  1.00  0.00     0.176 C 
BRANCH  47  48
ATOM     48  O   UNL     1      15.430  21.538  40.658  1.00  0.00    -0.388 OA
ATOM     49  H   UNL     1      15.110  21.527  39.730  1.00  0.00     0.211 HD
ENDBRANCH  47  48
BRANCH  47  50
ATOM     50  C   UNL     1      16.700  19.787  41.253  1.00  0.00     0.165 C 
BRANCH  50  51
ATOM     51  O   UNL     1      15.665  19.028  40.875  1.00  0.00    -0.388 OA
ATOM     52  H   UNL     1      14.838  19.280  41.357  1.00  0.00     0.211 HD
ENDBRANCH  50  51
BRANCH  50  53
ATOM     53  C   UNL     1      16.724  19.981  42.785  1.00  0.00     0.154 C 
BRANCH  53  54
ATOM     54  N   UNL     1      15.422  20.127  43.346  1.00  0.00    -0.319 N 
ATOM     55  C   UNL     1      15.205  21.085  44.390  1.00  0.00     0.407 C 
ATOM     56  H   UNL     1      14.631  19.560  43.023  1.00  0.00     0.167 HD
ATOM     57  O   UNL     1      16.175  21.786  44.791  1.00  0.00    -0.225 OA
BRANCH  55  58
ATOM     58  O   UNL     1      13.932  21.203  44.917  1.00  0.00    -0.443 OA
BRANCH  58  59
ATOM     59  C   UNL     1      13.195  20.014  45.260  1.00  0.00     0.294 C 
BRANCH  59  60
ATOM     60  C   UNL     1      12.116  19.842  44.265  1.00  0.00     0.120 A 
ATOM     61  C   UNL     1      10.738  19.869  44.507  1.00  0.00     0.138 A 
ATOM     62  N   UNL     1      12.244  19.615  42.953  1.00  0.00    -0.132 NA
ATOM     63  N   UNL     1      10.127  19.657  43.335  1.00  0.00    -0.248 N 
ATOM     64  N   UNL     1      11.052  19.505  42.400  1.00  0.00    -0.067 NA
BRANCH  63  65
ATOM     65  C   UNL     1       8.702  19.601  43.122  1.00  0.00     0.181 C 
BRANCH  65  66
ATOM     66  C   UNL     1       8.247  20.890  42.557  1.00  0.00    -0.026 A 
ATOM     67  C   UNL     1       7.640  20.917  41.304  1.00  0.00     0.009 A 
ATOM     68  C   UNL     1       8.379  22.082  43.220  1.00  0.00     0.009 A 
ATOM     69  C   UNL     1       7.182  22.087  40.737  1.00  0.00     0.047 A 
ATOM     70  C   UNL     1       7.914  23.269  42.644  1.00  0.00     0.047 A 
ATOM     71  C   UNL     1       7.317  23.291  41.413  1.00  0.00     0.118 A 
BRANCH  71  72
ATOM     72  O   UNL     1       6.842  24.437  40.802  1.00  0.00    -0.497 OA
ATOM     73  C   UNL     1       7.331  24.969  39.607  1.00  0.00     0.278 C 
ENDBRANCH  71  72
ENDBRANCH  65  66
ENDBRANCH  63  65
ENDBRANCH  59  60
ENDBRANCH  58  59
ENDBRANCH  55  58
ENDBRANCH  53  54
ENDBRANCH  50  53
ENDBRANCH  47  50
ENDBRANCH   5  47
BRANCH   4  74
ATOM     74  N   UNL     1      20.105  22.401  41.431  1.00  0.00    -0.348 N 
ATOM     75  C   UNL     1      21.422  22.205  40.932  1.00  0.00     0.217 C 
ATOM     76  H   UNL     1      20.012  22.519  42.451  1.00  0.00     0.163 HD
ATOM     77  C   UNL     1      22.599  22.195  41.883  1.00  0.00     0.114 C 
ATOM     78  O   UNL     1      21.605  22.041  39.702  1.00  0.00    -0.275 OA
ENDBRANCH   4  74
TORSDOF 32
