REMARK VINA RESULT:    -5.853     22.110     27.273
REMARK INTER + INTRA:         -20.370
REMARK INTER:                 -14.443
REMARK INTRA:                  -5.927
REMARK UNBOUND:                -5.964
REMARK SMILES CC(=O)N[C@@H]1[C@@H](O)C[C@](OC[C@H]2O[C@@H](O[C@H]3[C@H](O)[C@@H](O)[C@H](OCCN=[N+]=[N-])O[C@@H]3CO)[C@H](O)[C@@H](O)[C@H]2O)(C(=O)O)O[C@H]1C(O)[C@H](O)CNC(=O)OCc1cn(C2CCN(C)CC2)nn1
REMARK SMILES IDX 9 1 8 2 6 3 5 4 42 5 41 6 10 7 11 8 12 9 14 10 13 11 32 12
REMARK SMILES IDX 34 13 36 14 15 15 16 16 29 17 28 18 21 19 17 20 19 21 30 22
REMARK SMILES IDX 31 23 22 25 23 26 24 27 25 28 26 29 27 30 18 31 20 33 33 35
REMARK SMILES IDX 35 37 37 39 38 41 39 42 40 43 7 45 43 47 44 48 45 50 46 51
REMARK SMILES IDX 47 53 48 54 49 55 50 57 51 58 52 59 53 60 54 61 64 62 55 63
REMARK SMILES IDX 63 64 56 65 57 66 62 67 58 68 61 69 59 70 60 71 4 72 2 73
REMARK SMILES IDX 1 75 3 76
REMARK H PARENT 31 24 18 32 20 34 33 36 35 38 37 40 40 44 7 46 44 49 46 52
REMARK H PARENT 48 56 4 74
REMARK Flexibility Score: inf
ROOT
ATOM      1  C   UNL     1       4.340  22.413  33.246  1.00  0.00     0.272 C 
ATOM      2  C   UNL     1       4.676  21.269  32.305  1.00  0.00     0.113 C 
ATOM      3  C   UNL     1       3.649  20.916  31.313  1.00  0.00     0.145 C 
ATOM      4  C   UNL     1       2.915  22.094  30.710  1.00  0.00     0.142 C 
ATOM      5  C   UNL     1       2.975  23.316  31.543  1.00  0.00     0.178 C 
ATOM      6  O   UNL     1       3.971  23.509  32.400  1.00  0.00    -0.332 OA
ENDROOT
BRANCH   1   7
ATOM      7  O   UNL     1       5.480  22.852  33.801  1.00  0.00    -0.338 OA
BRANCH   7   8
ATOM      8  C   UNL     1       6.122  23.969  33.745  1.00  0.00     0.199 C 
BRANCH   8   9
ATOM      9  C   UNL     1       6.144  24.987  34.843  1.00  0.00     0.179 C 
ATOM     10  C   UNL     1       8.197  26.196  34.684  1.00  0.00     0.282 C 
ATOM     11  O   UNL     1       7.458  25.175  35.176  1.00  0.00    -0.341 OA
ATOM     12  C   UNL     1       7.502  27.048  33.714  1.00  0.00     0.202 C 
ATOM     13  C   UNL     1       6.191  27.474  34.398  1.00  0.00     0.179 C 
ATOM     14  C   UNL     1       5.385  26.234  34.537  1.00  0.00     0.177 C 
BRANCH  10  15
ATOM     15  O   UNL     1       9.389  25.598  34.294  1.00  0.00    -0.341 OA
BRANCH  15  16
ATOM     16  C   UNL     1      10.161  25.072  35.245  1.00  0.00     0.184 C 
ATOM     17  C   UNL     1      11.574  25.526  35.115  1.00  0.00     0.178 C 
ATOM     18  O   UNL     1      12.226  25.307  36.334  1.00  0.00    -0.341 OA
ATOM     19  C   UNL     1      12.349  23.956  36.560  1.00  0.00     0.281 C 
ATOM     20  C   UNL     1      10.263  23.539  35.190  1.00  0.00     0.180 C 
ATOM     21  C   UNL     1      11.074  23.169  36.428  1.00  0.00     0.202 C 
BRANCH  17  22
ATOM     22  C   UNL     1      11.753  26.918  34.615  1.00  0.00     0.191 C 
BRANCH  22  23
ATOM     23  O   UNL     1      11.817  26.891  33.229  1.00  0.00    -0.394 OA
ATOM     24  H   UNL     1      11.824  27.802  32.839  1.00  0.00     0.210 HD
ENDBRANCH  22  23
ENDBRANCH  17  22
BRANCH  19  25
ATOM     25  O   UNL     1      12.751  23.814  37.896  1.00  0.00    -0.350 OA
BRANCH  25  26
ATOM     26  C   UNL     1      11.922  24.427  38.800  1.00  0.00     0.169 C 
BRANCH  26  27
ATOM     27  C   UNL     1      12.374  24.276  40.238  1.00  0.00     0.119 C 
BRANCH  27  28
ATOM     28  N   UNL     1      13.504  23.371  40.337  1.00  0.00    -0.092 NA
ATOM     29  N   UNL     1      14.571  23.742  40.822  1.00  0.00     0.001 N 
ATOM     30  N   UNL     1      15.759  24.073  40.837  1.00  0.00    -0.003 NA
ENDBRANCH  27  28
ENDBRANCH  26  27
ENDBRANCH  25  26
ENDBRANCH  19  25
BRANCH  20  31
ATOM     31  O   UNL     1       9.051  22.913  35.312  1.00  0.00    -0.387 OA
ATOM     32  H   UNL     1       9.199  21.958  35.483  1.00  0.00     0.211 HD
ENDBRANCH  20  31
BRANCH  21  33
ATOM     33  O   UNL     1      11.342  21.823  36.408  1.00  0.00    -0.385 OA
ATOM     34  H   UNL     1      11.734  21.499  37.236  1.00  0.00     0.211 HD
ENDBRANCH  21  33
ENDBRANCH  15  16
ENDBRANCH  10  15
BRANCH  12  35
ATOM     35  O   UNL     1       8.126  28.263  33.440  1.00  0.00    -0.385 OA
ATOM     36  H   UNL     1       7.463  28.998  33.445  1.00  0.00     0.211 HD
ENDBRANCH  12  35
BRANCH  13  37
ATOM     37  O   UNL     1       5.536  28.466  33.712  1.00  0.00    -0.387 OA
ATOM     38  H   UNL     1       4.830  28.038  33.164  1.00  0.00     0.211 HD
ENDBRANCH  13  37
BRANCH  14  39
ATOM     39  O   UNL     1       4.662  26.045  33.362  1.00  0.00    -0.387 OA
ATOM     40  H   UNL     1       5.229  26.031  32.556  1.00  0.00     0.211 HD
ENDBRANCH  14  39
ENDBRANCH   8   9
ENDBRANCH   7   8
ENDBRANCH   1   7
BRANCH   1  41
ATOM     41  C   UNL     1       3.186  22.043  34.050  1.00  0.00     0.364 C 
ATOM     42  O   UNL     1       2.562  23.006  34.658  1.00  0.00    -0.246 OA
BRANCH  41  43
ATOM     43  O   UNL     1       2.619  20.821  34.295  1.00  0.00    -0.477 OA
ATOM     44  H   UNL     1       3.140  19.993  34.587  1.00  0.00     0.296 HD
ENDBRANCH  41  43
ENDBRANCH   1  41
BRANCH   3  45
ATOM     45  O   UNL     1       4.268  20.183  30.256  1.00  0.00    -0.391 OA
ATOM     46  H   UNL     1       5.213  20.015  30.453  1.00  0.00     0.211 HD
ENDBRANCH   3  45
BRANCH   5  47
ATOM     47  C   UNL     1       2.887  24.589  30.657  1.00  0.00     0.176 C 
BRANCH  47  48
ATOM     48  O   UNL     1       4.171  25.049  30.396  1.00  0.00    -0.388 OA
ATOM     49  H   UNL     1       4.195  25.765  29.728  1.00  0.00     0.211 HD
ENDBRANCH  47  48
BRANCH  47  50
ATOM     50  C   UNL     1       2.061  25.608  31.296  1.00  0.00     0.165 C 
BRANCH  50  51
ATOM     51  O   UNL     1       1.670  25.058  32.579  1.00  0.00    -0.388 OA
ATOM     52  H   UNL     1       1.639  24.074  32.507  1.00  0.00     0.211 HD
ENDBRANCH  50  51
BRANCH  50  53
ATOM     53  C   UNL     1       0.839  26.105  30.653  1.00  0.00     0.154 C 
BRANCH  53  54
ATOM     54  N   UNL     1       0.540  25.894  29.300  1.00  0.00    -0.319 N 
ATOM     55  C   UNL     1      -0.195  24.821  28.739  1.00  0.00     0.407 C 
ATOM     56  H   UNL     1       0.906  26.623  28.597  1.00  0.00     0.167 HD
ATOM     57  O   UNL     1      -0.702  23.935  29.454  1.00  0.00    -0.225 OA
BRANCH  55  58
ATOM     58  O   UNL     1      -0.343  24.771  27.334  1.00  0.00    -0.443 OA
BRANCH  58  59
ATOM     59  C   UNL     1       0.347  23.781  26.615  1.00  0.00     0.294 C 
BRANCH  59  60
ATOM     60  C   UNL     1       1.760  24.203  26.463  1.00  0.00     0.120 A 
ATOM     61  C   UNL     1       2.201  25.400  25.873  1.00  0.00     0.138 A 
ATOM     62  N   UNL     1       2.895  23.594  26.834  1.00  0.00    -0.132 NA
ATOM     63  N   UNL     1       3.543  25.458  25.914  1.00  0.00    -0.249 N 
ATOM     64  N   UNL     1       3.935  24.357  26.498  1.00  0.00    -0.067 NA
BRANCH  63  65
ATOM     65  C   UNL     1       4.371  26.529  25.411  1.00  0.00     0.111 C 
ATOM     66  C   UNL     1       4.238  27.690  26.355  1.00  0.00     0.043 C 
ATOM     67  C   UNL     1       5.819  26.133  25.312  1.00  0.00     0.043 C 
ATOM     68  C   UNL     1       5.470  27.768  27.227  1.00  0.00     0.086 C 
ATOM     69  C   UNL     1       6.753  27.312  25.253  1.00  0.00     0.086 C 
ATOM     70  N   UNL     1       6.582  28.202  26.382  1.00  0.00    -0.306 NA
ATOM     71  C   UNL     1       6.269  29.534  25.893  1.00  0.00     0.105 C 
ENDBRANCH  63  65
ENDBRANCH  59  60
ENDBRANCH  58  59
ENDBRANCH  55  58
ENDBRANCH  53  54
ENDBRANCH  50  53
ENDBRANCH  47  50
ENDBRANCH   5  47
BRANCH   4  72
ATOM     72  N   UNL     1       1.548  21.752  30.368  1.00  0.00    -0.348 N 
ATOM     73  C   UNL     1       1.286  21.090  29.147  1.00  0.00     0.217 C 
ATOM     74  H   UNL     1       0.740  21.980  30.997  1.00  0.00     0.163 HD
ATOM     75  C   UNL     1      -0.109  20.718  28.745  1.00  0.00     0.114 C 
ATOM     76  O   UNL     1       2.246  20.799  28.364  1.00  0.00    -0.275 OA
ENDBRANCH   4  72
TORSDOF 30
