REMARK VINA RESULT:    -5.517      3.427      8.552
REMARK INTER + INTRA:         -21.090
REMARK INTER:                 -13.178
REMARK INTRA:                  -7.912
REMARK UNBOUND:                -6.864
REMARK SMILES CC(=O)N[C@@H]1[C@@H](O)C[C@](OC[C@H]2O[C@@H](O[C@H]3[C@H](O)[C@@H](O)[C@H](OCCN=[N+]=[N-])O[C@@H]3CO)[C@H](O)[C@@H](O)[C@H]2O)(C(=O)O)O[C@H]1C(O)[C@H](O)CNC(=O)OCc1cn(CCC2OCCO2)nn1
REMARK SMILES IDX 9 1 8 2 6 3 5 4 42 5 41 6 10 7 11 8 12 9 14 10 13 11 32 12
REMARK SMILES IDX 34 13 36 14 15 15 16 16 29 17 28 18 21 19 17 20 19 21 30 22
REMARK SMILES IDX 31 23 22 25 23 26 24 27 25 28 26 29 27 30 18 31 20 33 33 35
REMARK SMILES IDX 35 37 37 39 38 41 39 42 40 43 7 45 43 47 44 48 45 50 46 51
REMARK SMILES IDX 47 53 48 54 49 55 50 57 51 58 52 59 53 60 54 61 64 62 55 63
REMARK SMILES IDX 63 64 56 65 57 66 58 67 59 68 62 69 60 70 61 71 4 72 2 73
REMARK SMILES IDX 1 75 3 76
REMARK H PARENT 31 24 18 32 20 34 33 36 35 38 37 40 40 44 7 46 44 49 46 52
REMARK H PARENT 48 56 4 74
REMARK Flexibility Score: inf
ROOT
ATOM      1  C   UNL     1      18.585  30.701  22.272  1.00  0.00     0.272 C 
ATOM      2  C   UNL     1      19.785  31.706  22.426  1.00  0.00     0.113 C 
ATOM      3  C   UNL     1      21.016  31.007  22.823  1.00  0.00     0.145 C 
ATOM      4  C   UNL     1      21.364  29.956  21.789  1.00  0.00     0.142 C 
ATOM      5  C   UNL     1      20.178  29.531  20.991  1.00  0.00     0.178 C 
ATOM      6  O   UNL     1      18.971  29.572  21.593  1.00  0.00    -0.332 OA
ENDROOT
BRANCH   1   7
ATOM      7  O   UNL     1      17.711  31.407  21.555  1.00  0.00    -0.338 OA
BRANCH   7   8
ATOM      8  C   UNL     1      16.629  32.041  21.948  1.00  0.00     0.199 C 
BRANCH   8   9
ATOM      9  C   UNL     1      15.256  31.561  21.601  1.00  0.00     0.179 C 
ATOM     10  C   UNL     1      13.976  30.911  19.753  1.00  0.00     0.282 C 
ATOM     11  O   UNL     1      15.050  31.626  20.243  1.00  0.00    -0.341 OA
ATOM     12  C   UNL     1      13.013  30.412  20.766  1.00  0.00     0.202 C 
ATOM     13  C   UNL     1      13.661  29.755  21.953  1.00  0.00     0.179 C 
ATOM     14  C   UNL     1      15.122  30.057  21.949  1.00  0.00     0.177 C 
BRANCH  10  15
ATOM     15  O   UNL     1      14.457  29.957  18.856  1.00  0.00    -0.341 OA
BRANCH  15  16
ATOM     16  C   UNL     1      14.892  30.492  17.652  1.00  0.00     0.184 C 
ATOM     17  C   UNL     1      14.289  29.854  16.438  1.00  0.00     0.178 C 
ATOM     18  O   UNL     1      14.753  30.546  15.317  1.00  0.00    -0.341 OA
ATOM     19  C   UNL     1      16.112  30.380  15.092  1.00  0.00     0.281 C 
ATOM     20  C   UNL     1      16.421  30.242  17.514  1.00  0.00     0.180 C 
ATOM     21  C   UNL     1      16.825  31.029  16.274  1.00  0.00     0.202 C 
BRANCH  17  22
ATOM     22  C   UNL     1      12.785  30.064  16.453  1.00  0.00     0.191 C 
BRANCH  22  23
ATOM     23  O   UNL     1      12.250  28.963  15.738  1.00  0.00    -0.394 OA
ATOM     24  H   UNL     1      12.088  28.185  16.312  1.00  0.00     0.210 HD
ENDBRANCH  22  23
ENDBRANCH  17  22
BRANCH  19  25
ATOM     25  O   UNL     1      16.444  30.997  13.918  1.00  0.00    -0.350 OA
BRANCH  25  26
ATOM     26  C   UNL     1      16.598  30.185  12.832  1.00  0.00     0.169 C 
BRANCH  26  27
ATOM     27  C   UNL     1      17.804  29.273  12.884  1.00  0.00     0.119 C 
BRANCH  27  28
ATOM     28  N   UNL     1      19.006  30.048  13.132  1.00  0.00    -0.092 NA
ATOM     29  N   UNL     1      19.972  29.604  13.749  1.00  0.00     0.001 N 
ATOM     30  N   UNL     1      21.033  29.190  14.206  1.00  0.00    -0.003 NA
ENDBRANCH  27  28
ENDBRANCH  26  27
ENDBRANCH  25  26
ENDBRANCH  19  25
BRANCH  20  31
ATOM     31  O   UNL     1      17.048  30.749  18.626  1.00  0.00    -0.387 OA
ATOM     32  H   UNL     1      16.358  31.134  19.233  1.00  0.00     0.211 HD
ENDBRANCH  20  31
BRANCH  21  33
ATOM     33  O   UNL     1      18.197  30.948  16.164  1.00  0.00    -0.385 OA
ATOM     34  H   UNL     1      18.598  31.622  16.769  1.00  0.00     0.211 HD
ENDBRANCH  21  33
ENDBRANCH  15  16
ENDBRANCH  10  15
BRANCH  12  35
ATOM     35  O   UNL     1      12.175  31.480  21.177  1.00  0.00    -0.385 OA
ATOM     36  H   UNL     1      11.262  31.211  20.892  1.00  0.00     0.211 HD
ENDBRANCH  12  35
BRANCH  13  37
ATOM     37  O   UNL     1      13.390  28.388  22.005  1.00  0.00    -0.387 OA
ATOM     38  H   UNL     1      12.573  28.223  21.465  1.00  0.00     0.211 HD
ENDBRANCH  13  37
BRANCH  14  39
ATOM     39  O   UNL     1      15.851  29.326  21.035  1.00  0.00    -0.387 OA
ATOM     40  H   UNL     1      16.495  29.863  20.508  1.00  0.00     0.211 HD
ENDBRANCH  14  39
ENDBRANCH   8   9
ENDBRANCH   7   8
ENDBRANCH   1   7
BRANCH   1  41
ATOM     41  C   UNL     1      18.300  30.319  23.655  1.00  0.00     0.364 C 
ATOM     42  O   UNL     1      17.558  29.276  23.882  1.00  0.00    -0.246 OA
BRANCH  41  43
ATOM     43  O   UNL     1      18.724  30.925  24.815  1.00  0.00    -0.477 OA
ATOM     44  H   UNL     1      18.746  30.400  25.678  1.00  0.00     0.296 HD
ENDBRANCH  41  43
ENDBRANCH   1  41
BRANCH   3  45
ATOM     45  O   UNL     1      22.042  31.996  22.864  1.00  0.00    -0.391 OA
ATOM     46  H   UNL     1      22.695  31.683  23.561  1.00  0.00     0.211 HD
ENDBRANCH   3  45
BRANCH   5  47
ATOM     47  C   UNL     1      20.228  30.145  19.624  1.00  0.00     0.176 C 
BRANCH  47  48
ATOM     48  O   UNL     1      21.504  30.616  19.281  1.00  0.00    -0.388 OA
ATOM     49  H   UNL     1      21.850  30.144  18.469  1.00  0.00     0.211 HD
ENDBRANCH  47  48
BRANCH  47  50
ATOM     50  C   UNL     1      19.961  29.052  18.550  1.00  0.00     0.165 C 
BRANCH  50  51
ATOM     51  O   UNL     1      19.402  27.961  19.170  1.00  0.00    -0.388 OA
ATOM     52  H   UNL     1      20.050  27.313  19.502  1.00  0.00     0.211 HD
ENDBRANCH  50  51
BRANCH  50  53
ATOM     53  C   UNL     1      21.206  28.844  17.788  1.00  0.00     0.154 C 
BRANCH  53  54
ATOM     54  N   UNL     1      21.880  27.642  18.165  1.00  0.00    -0.319 N 
ATOM     55  C   UNL     1      23.118  27.594  18.806  1.00  0.00     0.407 C 
ATOM     56  H   UNL     1      21.394  26.739  17.938  1.00  0.00     0.167 HD
ATOM     57  O   UNL     1      23.740  28.630  19.087  1.00  0.00    -0.225 OA
BRANCH  55  58
ATOM     58  O   UNL     1      23.746  26.395  19.173  1.00  0.00    -0.443 OA
BRANCH  58  59
ATOM     59  C   UNL     1      22.987  25.247  19.509  1.00  0.00     0.294 C 
BRANCH  59  60
ATOM     60  C   UNL     1      22.182  25.433  20.738  1.00  0.00     0.120 A 
ATOM     61  C   UNL     1      22.357  24.715  21.926  1.00  0.00     0.138 A 
ATOM     62  N   UNL     1      21.163  26.269  20.991  1.00  0.00    -0.132 NA
ATOM     63  N   UNL     1      21.446  25.143  22.842  1.00  0.00    -0.252 N 
ATOM     64  N   UNL     1      20.741  26.079  22.249  1.00  0.00    -0.067 NA
BRANCH  63  65
ATOM     65  C   UNL     1      21.371  24.597  24.189  1.00  0.00     0.151 C 
BRANCH  65  66
ATOM     66  C   UNL     1      22.743  24.619  24.849  1.00  0.00     0.086 C 
BRANCH  66  67
ATOM     67  C   UNL     1      22.634  24.777  26.338  1.00  0.00     0.251 C 
ATOM     68  O   UNL     1      23.914  24.823  26.892  1.00  0.00    -0.350 OA
ATOM     69  O   UNL     1      22.020  25.952  26.725  1.00  0.00    -0.350 OA
ATOM     70  C   UNL     1      23.733  25.382  28.152  1.00  0.00     0.192 C 
ATOM     71  C   UNL     1      22.327  25.957  28.106  1.00  0.00     0.192 C 
ENDBRANCH  66  67
ENDBRANCH  65  66
ENDBRANCH  63  65
ENDBRANCH  59  60
ENDBRANCH  58  59
ENDBRANCH  55  58
ENDBRANCH  53  54
ENDBRANCH  50  53
ENDBRANCH  47  50
ENDBRANCH   5  47
BRANCH   4  72
ATOM     72  N   UNL     1      22.067  28.836  22.410  1.00  0.00    -0.348 N 
ATOM     73  C   UNL     1      23.454  28.796  22.583  1.00  0.00     0.217 C 
ATOM     74  H   UNL     1      21.463  28.026  22.736  1.00  0.00     0.163 HD
ATOM     75  C   UNL     1      24.102  27.609  23.231  1.00  0.00     0.114 C 
ATOM     76  O   UNL     1      24.123  29.785  22.178  1.00  0.00    -0.275 OA
ENDBRANCH   4  72
TORSDOF 32
