REMARK VINA RESULT:    -6.646      9.524     13.886
REMARK INTER + INTRA:         -22.098
REMARK INTER:                 -15.368
REMARK INTRA:                  -6.730
REMARK UNBOUND:                -5.351
REMARK SMILES CC(=O)N[C@@H]1[C@@H](O)C[C@](OC[C@H]2O[C@@H](O[C@H]3[C@H](O)[C@@H](O)[C@H](OCCN=[N+]=[N-])O[C@@H]3CO)[C@H](O)[C@@H](O)[C@H]2O)(C(=O)O)O[C@H]1C(O)[C@H](O)CNC(=O)OCc1cn(-c2ccc([N+](=O)[O-])cc2)nn1
REMARK SMILES IDX 9 1 8 2 6 3 5 4 42 5 41 6 10 7 11 8 12 9 14 10 13 11 32 12
REMARK SMILES IDX 34 13 36 14 15 15 16 16 29 17 28 18 21 19 17 20 19 21 30 22
REMARK SMILES IDX 31 23 22 25 23 26 24 27 25 28 26 29 27 30 18 31 20 33 33 35
REMARK SMILES IDX 35 37 37 39 38 41 39 42 40 43 7 45 43 47 44 48 45 50 46 51
REMARK SMILES IDX 47 53 48 54 49 55 50 57 51 58 52 59 53 60 54 61 66 62 55 63
REMARK SMILES IDX 65 64 56 65 57 66 64 67 58 68 63 69 59 70 60 71 61 72 62 73
REMARK SMILES IDX 4 74 2 75 1 77 3 78
REMARK H PARENT 31 24 18 32 20 34 33 36 35 38 37 40 40 44 7 46 44 49 46 52
REMARK H PARENT 48 56 4 76
REMARK Flexibility Score: inf
ROOT
ATOM      1  C   UNL     1      25.401  26.364  21.184  1.00  0.00     0.272 C 
ATOM      2  C   UNL     1      26.081  27.112  22.284  1.00  0.00     0.113 C 
ATOM      3  C   UNL     1      25.313  28.314  22.633  1.00  0.00     0.145 C 
ATOM      4  C   UNL     1      24.212  28.719  21.636  1.00  0.00     0.142 C 
ATOM      5  C   UNL     1      24.663  28.415  20.284  1.00  0.00     0.178 C 
ATOM      6  O   UNL     1      25.311  27.200  20.085  1.00  0.00    -0.332 OA
ENDROOT
BRANCH   1   7
ATOM      7  O   UNL     1      24.231  25.756  21.517  1.00  0.00    -0.338 OA
BRANCH   7   8
ATOM      8  C   UNL     1      24.310  24.662  22.317  1.00  0.00     0.199 C 
BRANCH   8   9
ATOM      9  C   UNL     1      22.940  24.234  22.828  1.00  0.00     0.179 C 
ATOM     10  C   UNL     1      22.243  25.758  24.459  1.00  0.00     0.282 C 
ATOM     11  O   UNL     1      22.737  24.531  24.150  1.00  0.00    -0.341 OA
ATOM     12  C   UNL     1      21.897  26.681  23.362  1.00  0.00     0.202 C 
ATOM     13  C   UNL     1      21.261  25.954  22.208  1.00  0.00     0.179 C 
ATOM     14  C   UNL     1      21.802  24.595  21.941  1.00  0.00     0.177 C 
BRANCH  10  15
ATOM     15  O   UNL     1      23.073  26.310  25.430  1.00  0.00    -0.341 OA
BRANCH  15  16
ATOM     16  C   UNL     1      22.622  26.310  26.707  1.00  0.00     0.184 C 
ATOM     17  C   UNL     1      22.756  27.641  27.414  1.00  0.00     0.178 C 
ATOM     18  O   UNL     1      22.308  27.481  28.741  1.00  0.00    -0.341 OA
ATOM     19  C   UNL     1      23.259  26.752  29.455  1.00  0.00     0.281 C 
ATOM     20  C   UNL     1      23.558  25.372  27.494  1.00  0.00     0.180 C 
ATOM     21  C   UNL     1      23.107  25.314  28.940  1.00  0.00     0.202 C 
BRANCH  17  22
ATOM     22  C   UNL     1      21.916  28.743  26.824  1.00  0.00     0.191 C 
BRANCH  22  23
ATOM     23  O   UNL     1      22.635  29.188  25.687  1.00  0.00    -0.394 OA
ATOM     24  H   UNL     1      22.025  29.637  25.043  1.00  0.00     0.210 HD
ENDBRANCH  22  23
ENDBRANCH  17  22
BRANCH  19  25
ATOM     25  O   UNL     1      22.968  26.765  30.794  1.00  0.00    -0.350 OA
BRANCH  25  26
ATOM     26  C   UNL     1      23.899  27.358  31.608  1.00  0.00     0.169 C 
BRANCH  26  27
ATOM     27  C   UNL     1      25.330  27.112  31.223  1.00  0.00     0.119 C 
BRANCH  27  28
ATOM     28  N   UNL     1      25.692  25.757  31.646  1.00  0.00    -0.092 NA
ATOM     29  N   UNL     1      26.840  25.364  31.493  1.00  0.00     0.001 N 
ATOM     30  N   UNL     1      28.027  25.090  31.546  1.00  0.00    -0.003 NA
ENDBRANCH  27  28
ENDBRANCH  26  27
ENDBRANCH  25  26
ENDBRANCH  19  25
BRANCH  20  31
ATOM     31  O   UNL     1      23.664  24.141  26.910  1.00  0.00    -0.387 OA
ATOM     32  H   UNL     1      24.115  24.120  26.044  1.00  0.00     0.211 HD
ENDBRANCH  20  31
BRANCH  21  33
ATOM     33  O   UNL     1      23.881  24.427  29.637  1.00  0.00    -0.385 OA
ATOM     34  H   UNL     1      24.546  24.030  29.025  1.00  0.00     0.211 HD
ENDBRANCH  21  33
ENDBRANCH  15  16
ENDBRANCH  10  15
BRANCH  12  35
ATOM     35  O   UNL     1      20.899  27.567  23.813  1.00  0.00    -0.385 OA
ATOM     36  H   UNL     1      20.840  27.585  24.786  1.00  0.00     0.211 HD
ENDBRANCH  12  35
BRANCH  13  37
ATOM     37  O   UNL     1      21.332  26.777  21.058  1.00  0.00    -0.387 OA
ATOM     38  H   UNL     1      20.721  27.520  21.196  1.00  0.00     0.211 HD
ENDBRANCH  13  37
BRANCH  14  39
ATOM     39  O   UNL     1      22.139  24.350  20.617  1.00  0.00    -0.387 OA
ATOM     40  H   UNL     1      23.064  23.981  20.615  1.00  0.00     0.211 HD
ENDBRANCH  14  39
ENDBRANCH   8   9
ENDBRANCH   7   8
ENDBRANCH   1   7
BRANCH   1  41
ATOM     41  C   UNL     1      26.362  25.300  20.695  1.00  0.00     0.364 C 
ATOM     42  O   UNL     1      27.460  25.139  21.261  1.00  0.00    -0.246 OA
BRANCH  41  43
ATOM     43  O   UNL     1      26.019  24.521  19.625  1.00  0.00    -0.477 OA
ATOM     44  H   UNL     1      25.823  24.868  18.690  1.00  0.00     0.296 HD
ENDBRANCH  41  43
ENDBRANCH   1  41
BRANCH   3  45
ATOM     45  O   UNL     1      24.678  28.167  23.864  1.00  0.00    -0.391 OA
ATOM     46  H   UNL     1      25.324  27.983  24.575  1.00  0.00     0.211 HD
ENDBRANCH   3  45
BRANCH   5  47
ATOM     47  C   UNL     1      23.798  28.555  19.110  1.00  0.00     0.176 C 
BRANCH  47  48
ATOM     48  O   UNL     1      22.779  27.608  18.971  1.00  0.00    -0.388 OA
ATOM     49  H   UNL     1      23.080  26.713  18.737  1.00  0.00     0.211 HD
ENDBRANCH  47  48
BRANCH  47  50
ATOM     50  C   UNL     1      23.176  29.870  18.769  1.00  0.00     0.165 C 
BRANCH  50  51
ATOM     51  O   UNL     1      23.940  30.979  18.962  1.00  0.00    -0.388 OA
ATOM     52  H   UNL     1      24.433  30.964  19.823  1.00  0.00     0.211 HD
ENDBRANCH  50  51
BRANCH  50  53
ATOM     53  C   UNL     1      21.724  29.958  19.155  1.00  0.00     0.154 C 
BRANCH  53  54
ATOM     54  N   UNL     1      20.793  29.697  18.089  1.00  0.00    -0.319 N 
ATOM     55  C   UNL     1      19.950  28.563  18.021  1.00  0.00     0.407 C 
ATOM     56  H   UNL     1      20.704  30.374  17.284  1.00  0.00     0.167 HD
ATOM     57  O   UNL     1      19.992  27.712  18.914  1.00  0.00    -0.225 OA
BRANCH  55  58
ATOM     58  O   UNL     1      19.061  28.370  16.961  1.00  0.00    -0.443 OA
BRANCH  58  59
ATOM     59  C   UNL     1      17.752  28.873  16.926  1.00  0.00     0.294 C 
BRANCH  59  60
ATOM     60  C   UNL     1      17.013  28.483  18.146  1.00  0.00     0.121 A 
ATOM     61  C   UNL     1      16.376  29.307  19.072  1.00  0.00     0.144 A 
ATOM     62  N   UNL     1      16.786  27.220  18.614  1.00  0.00    -0.131 NA
ATOM     63  N   UNL     1      15.806  28.551  20.029  1.00  0.00    -0.220 N 
ATOM     64  N   UNL     1      16.073  27.301  19.723  1.00  0.00    -0.062 NA
BRANCH  63  65
ATOM     65  C   UNL     1      15.046  29.006  21.154  1.00  0.00     0.067 A 
ATOM     66  C   UNL     1      13.672  29.002  21.200  1.00  0.00     0.035 A 
ATOM     67  C   UNL     1      15.713  29.492  22.270  1.00  0.00     0.035 A 
ATOM     68  C   UNL     1      12.981  29.466  22.318  1.00  0.00     0.088 A 
ATOM     69  C   UNL     1      15.032  29.953  23.377  1.00  0.00     0.088 A 
ATOM     70  C   UNL     1      13.655  29.949  23.425  1.00  0.00     0.269 A 
BRANCH  70  71
ATOM     71  N   UNL     1      12.938  30.424  24.560  1.00  0.00     0.062 N 
ATOM     72  O   UNL     1      13.448  30.620  25.674  1.00  0.00    -0.258 OA
ATOM     73  O   UNL     1      11.598  30.677  24.409  1.00  0.00    -0.258 OA
ENDBRANCH  70  71
ENDBRANCH  63  65
ENDBRANCH  59  60
ENDBRANCH  58  59
ENDBRANCH  55  58
ENDBRANCH  53  54
ENDBRANCH  50  53
ENDBRANCH  47  50
ENDBRANCH   5  47
BRANCH   4  74
ATOM     74  N   UNL     1      24.193  30.177  21.835  1.00  0.00    -0.348 N 
ATOM     75  C   UNL     1      23.177  30.830  22.553  1.00  0.00     0.217 C 
ATOM     76  H   UNL     1      24.974  30.722  21.430  1.00  0.00     0.163 HD
ATOM     77  C   UNL     1      23.251  32.316  22.694  1.00  0.00     0.114 C 
ATOM     78  O   UNL     1      22.228  30.223  23.071  1.00  0.00    -0.275 OA
ENDBRANCH   4  74
TORSDOF 31
