REMARK VINA RESULT:    -5.358      4.662      8.922
REMARK INTER + INTRA:         -22.858
REMARK INTER:                 -14.807
REMARK INTRA:                  -8.051
REMARK UNBOUND:                -8.417
REMARK SMILES CC(=O)N[C@@H]1[C@@H](O)C[C@](OC[C@H]2O[C@@H](O[C@H]3[C@H](O)[C@@H](O)[C@H](OCCN=[N+]=[N-])O[C@@H]3CO)[C@H](O)[C@@H](O)[C@H]2O)(C(=O)O)O[C@H]1C(O)[C@H](O)CNC(=O)OCc1cn(CCNC(=O)NCc2ccco2)nn1
REMARK SMILES IDX 43 1 42 2 9 3 8 4 41 5 6 6 5 7 10 8 11 9 12 10 14 11 13 12
REMARK SMILES IDX 32 13 34 14 36 15 15 16 16 17 29 18 28 19 21 20 17 21 19 22
REMARK SMILES IDX 30 23 31 24 22 26 23 27 24 28 25 29 26 30 27 31 18 32 20 34
REMARK SMILES IDX 33 36 35 38 37 40 38 42 39 43 40 44 7 46 4 48 2 49 1 51 3 52
REMARK SMILES IDX 44 53 45 55 46 56 47 58 48 59 49 60 50 62 51 63 52 64 53 65
REMARK SMILES IDX 54 66 69 67 55 68 68 69 56 70 57 71 58 72 59 73 60 75 61 76
REMARK SMILES IDX 62 78 63 79 64 80 67 81 65 82 66 83
REMARK H PARENT 31 25 18 33 20 35 33 37 35 39 37 41 40 45 7 47 4 50 44 54
REMARK H PARENT 46 57 48 61 58 74 61 77
REMARK Flexibility Score: inf
ROOT
ATOM      1  C   UNL     1      22.220  25.651  25.778  1.00  0.00     0.176 C 
ENDROOT
BRANCH   1   2
ATOM      2  C   UNL     1      23.007  26.110  24.592  1.00  0.00     0.178 C 
ATOM      3  C   UNL     1      22.193  28.260  23.986  1.00  0.00     0.272 C 
ATOM      4  C   UNL     1      21.067  27.401  23.323  1.00  0.00     0.113 C 
ATOM      5  O   UNL     1      23.146  27.461  24.506  1.00  0.00    -0.332 OA
ATOM      6  C   UNL     1      21.596  26.232  22.593  1.00  0.00     0.145 C 
ATOM      7  C   UNL     1      22.679  25.454  23.300  1.00  0.00     0.142 C 
BRANCH   3   8
ATOM      8  O   UNL     1      21.540  28.892  25.023  1.00  0.00    -0.338 OA
BRANCH   8   9
ATOM      9  C   UNL     1      21.934  30.085  25.460  1.00  0.00     0.199 C 
BRANCH   9  10
ATOM     10  C   UNL     1      22.727  30.374  26.638  1.00  0.00     0.179 C 
ATOM     11  C   UNL     1      23.328  29.889  28.798  1.00  0.00     0.282 C 
ATOM     12  O   UNL     1      22.756  29.402  27.623  1.00  0.00    -0.341 OA
ATOM     13  C   UNL     1      24.210  31.070  28.628  1.00  0.00     0.202 C 
ATOM     14  C   UNL     1      24.941  31.163  27.320  1.00  0.00     0.179 C 
ATOM     15  C   UNL     1      24.197  30.512  26.192  1.00  0.00     0.177 C 
BRANCH  11  16
ATOM     16  O   UNL     1      24.006  28.904  29.498  1.00  0.00    -0.341 OA
BRANCH  16  17
ATOM     17  C   UNL     1      23.179  28.221  30.413  1.00  0.00     0.184 C 
ATOM     18  C   UNL     1      23.567  28.675  31.790  1.00  0.00     0.178 C 
ATOM     19  O   UNL     1      23.438  27.661  32.736  1.00  0.00    -0.341 OA
ATOM     20  C   UNL     1      24.395  26.704  32.423  1.00  0.00     0.281 C 
ATOM     21  C   UNL     1      23.326  26.760  30.152  1.00  0.00     0.180 C 
ATOM     22  C   UNL     1      23.959  25.944  31.216  1.00  0.00     0.202 C 
BRANCH  18  23
ATOM     23  C   UNL     1      22.597  29.777  32.215  1.00  0.00     0.191 C 
BRANCH  23  24
ATOM     24  O   UNL     1      23.218  31.009  31.914  1.00  0.00    -0.394 OA
ATOM     25  H   UNL     1      23.683  30.845  31.042  1.00  0.00     0.210 HD
ENDBRANCH  23  24
ENDBRANCH  18  23
BRANCH  20  26
ATOM     26  O   UNL     1      24.420  25.811  33.497  1.00  0.00    -0.350 OA
BRANCH  26  27
ATOM     27  C   UNL     1      24.851  26.433  34.669  1.00  0.00     0.169 C 
BRANCH  27  28
ATOM     28  C   UNL     1      23.823  26.084  35.748  1.00  0.00     0.119 C 
BRANCH  28  29
ATOM     29  N   UNL     1      24.405  25.017  36.543  1.00  0.00    -0.092 NA
ATOM     30  N   UNL     1      23.738  24.022  36.859  1.00  0.00     0.001 N 
ATOM     31  N   UNL     1      23.161  22.921  36.893  1.00  0.00    -0.003 NA
ENDBRANCH  28  29
ENDBRANCH  27  28
ENDBRANCH  26  27
ENDBRANCH  20  26
BRANCH  21  32
ATOM     32  O   UNL     1      22.042  26.258  29.860  1.00  0.00    -0.387 OA
ATOM     33  H   UNL     1      21.890  26.170  28.901  1.00  0.00     0.211 HD
ENDBRANCH  21  32
BRANCH  22  34
ATOM     34  O   UNL     1      25.133  25.356  30.680  1.00  0.00    -0.385 OA
ATOM     35  H   UNL     1      25.803  25.387  31.429  1.00  0.00     0.211 HD
ENDBRANCH  22  34
ENDBRANCH  16  17
ENDBRANCH  11  16
BRANCH  13  36
ATOM     36  O   UNL     1      23.579  32.276  28.964  1.00  0.00    -0.385 OA
ATOM     37  H   UNL     1      24.221  32.956  29.265  1.00  0.00     0.211 HD
ENDBRANCH  13  36
BRANCH  14  38
ATOM     38  O   UNL     1      26.243  30.652  27.412  1.00  0.00    -0.387 OA
ATOM     39  H   UNL     1      26.237  29.824  26.856  1.00  0.00     0.211 HD
ENDBRANCH  14  38
BRANCH  15  40
ATOM     40  O   UNL     1      24.715  29.299  25.804  1.00  0.00    -0.387 OA
ATOM     41  H   UNL     1      24.182  28.964  25.059  1.00  0.00     0.211 HD
ENDBRANCH  15  40
ENDBRANCH   9  10
ENDBRANCH   8   9
ENDBRANCH   3   8
BRANCH   3  42
ATOM     42  C   UNL     1      22.568  29.196  22.929  1.00  0.00     0.364 C 
ATOM     43  O   UNL     1      23.745  29.549  22.764  1.00  0.00    -0.246 OA
BRANCH  42  44
ATOM     44  O   UNL     1      21.650  29.758  22.036  1.00  0.00    -0.477 OA
ATOM     45  H   UNL     1      21.044  29.139  21.495  1.00  0.00     0.296 HD
ENDBRANCH  42  44
ENDBRANCH   3  42
BRANCH   6  46
ATOM     46  O   UNL     1      20.515  25.366  22.341  1.00  0.00    -0.391 OA
ATOM     47  H   UNL     1      20.422  25.243  21.363  1.00  0.00     0.211 HD
ENDBRANCH   6  46
BRANCH   7  48
ATOM     48  N   UNL     1      23.847  25.382  22.421  1.00  0.00    -0.348 N 
ATOM     49  C   UNL     1      23.899  24.480  21.349  1.00  0.00     0.217 C 
ATOM     50  H   UNL     1      24.644  26.024  22.615  1.00  0.00     0.163 HD
ATOM     51  C   UNL     1      25.068  24.368  20.426  1.00  0.00     0.114 C 
ATOM     52  O   UNL     1      22.890  23.727  21.171  1.00  0.00    -0.275 OA
ENDBRANCH   7  48
ENDBRANCH   1   2
BRANCH   1  53
ATOM     53  O   UNL     1      22.275  26.696  26.768  1.00  0.00    -0.388 OA
ATOM     54  H   UNL     1      22.096  27.516  26.284  1.00  0.00     0.211 HD
ENDBRANCH   1  53
BRANCH   1  55
ATOM     55  C   UNL     1      22.766  24.468  26.524  1.00  0.00     0.165 C 
BRANCH  55  56
ATOM     56  O   UNL     1      22.362  24.316  27.829  1.00  0.00    -0.388 OA
ATOM     57  H   UNL     1      22.832  23.588  28.307  1.00  0.00     0.211 HD
ENDBRANCH  55  56
BRANCH  55  58
ATOM     58  C   UNL     1      24.294  24.407  26.422  1.00  0.00     0.154 C 
BRANCH  58  59
ATOM     59  N   UNL     1      24.913  25.103  27.524  1.00  0.00    -0.319 N 
ATOM     60  C   UNL     1      25.710  26.260  27.361  1.00  0.00     0.407 C 
ATOM     61  H   UNL     1      24.763  24.737  28.484  1.00  0.00     0.167 HD
ATOM     62  O   UNL     1      25.899  26.720  26.205  1.00  0.00    -0.225 OA
BRANCH  60  63
ATOM     63  O   UNL     1      26.296  26.909  28.443  1.00  0.00    -0.443 OA
BRANCH  63  64
ATOM     64  C   UNL     1      27.614  27.429  28.298  1.00  0.00     0.294 C 
BRANCH  64  65
ATOM     65  C   UNL     1      28.496  26.469  29.029  1.00  0.00     0.120 A 
ATOM     66  C   UNL     1      29.858  26.563  29.126  1.00  0.00     0.138 A 
ATOM     67  N   UNL     1      28.107  25.363  29.712  1.00  0.00    -0.132 NA
ATOM     68  N   UNL     1      30.253  25.528  29.852  1.00  0.00    -0.250 N 
ATOM     69  N   UNL     1      29.189  24.805  30.203  1.00  0.00    -0.067 NA
BRANCH  68  70
ATOM     70  C   UNL     1      31.643  25.231  30.195  1.00  0.00     0.167 C 
BRANCH  70  71
ATOM     71  C   UNL     1      32.334  24.780  28.907  1.00  0.00     0.141 C 
BRANCH  71  72
ATOM     72  N   UNL     1      31.621  23.631  28.430  1.00  0.00    -0.336 N 
ATOM     73  C   UNL     1      32.234  22.533  27.793  1.00  0.00     0.315 C 
ATOM     74  H   UNL     1      30.576  23.633  28.576  1.00  0.00     0.165 HD
ATOM     75  O   UNL     1      33.467  22.510  27.585  1.00  0.00    -0.249 OA
ATOM     76  N   UNL     1      31.415  21.428  27.383  1.00  0.00    -0.331 N 
ATOM     77  H   UNL     1      30.383  21.491  27.578  1.00  0.00     0.165 HD
BRANCH  76  78
ATOM     78  C   UNL     1      32.003  20.291  26.733  1.00  0.00     0.193 C 
BRANCH  78  79
ATOM     79  C   UNL     1      31.938  19.097  27.618  1.00  0.00     0.122 A 
ATOM     80  C   UNL     1      32.486  19.036  28.893  1.00  0.00     0.047 A 
ATOM     81  O   UNL     1      31.382  17.963  27.356  1.00  0.00    -0.467 OA
ATOM     82  C   UNL     1      32.211  17.785  29.361  1.00  0.00     0.042 A 
ATOM     83  C   UNL     1      31.519  17.140  28.372  1.00  0.00     0.195 A 
ENDBRANCH  78  79
ENDBRANCH  76  78
ENDBRANCH  71  72
ENDBRANCH  70  71
ENDBRANCH  68  70
ENDBRANCH  64  65
ENDBRANCH  63  64
ENDBRANCH  60  63
ENDBRANCH  58  59
ENDBRANCH  55  58
ENDBRANCH   1  55
TORSDOF 34
