REMARK VINA RESULT:    -5.964      0.000      0.000
REMARK INTER + INTRA:         -22.225
REMARK INTER:                 -16.358
REMARK INTRA:                  -5.867
REMARK UNBOUND:                -7.546
REMARK SMILES CC(=O)N[C@@H]1[C@@H](O)C[C@](OC[C@H]2O[C@@H](O[C@H]3[C@H](O)[C@@H](O)[C@H](OCCN=[N+]=[N-])O[C@@H]3CO)[C@H](O)[C@@H](O)[C@H]2O)(C(=O)O)O[C@H]1C(O)[C@H](O)CNC(=O)OCc1cn(-c2ccc3[nH]ncc3c2)nn1
REMARK SMILES IDX 9 1 8 2 6 3 5 4 42 5 41 6 10 7 11 8 12 9 14 10 13 11 32 12
REMARK SMILES IDX 34 13 36 14 15 15 16 16 29 17 28 18 21 19 17 20 19 21 30 22
REMARK SMILES IDX 31 23 22 25 23 26 24 27 25 28 26 29 27 30 18 31 20 33 33 35
REMARK SMILES IDX 35 37 37 39 38 41 39 42 40 43 7 45 43 47 44 48 45 50 46 51
REMARK SMILES IDX 47 53 48 54 49 55 50 57 51 58 52 59 53 60 54 61 66 62 55 63
REMARK SMILES IDX 65 64 56 65 57 66 64 67 58 68 63 69 59 70 62 71 60 72 61 73
REMARK SMILES IDX 4 75 2 76 1 78 3 79
REMARK H PARENT 31 24 18 32 20 34 33 36 35 38 37 40 40 44 7 46 44 49 46 52
REMARK H PARENT 48 56 60 74 4 77
REMARK Flexibility Score: inf
ROOT
ATOM      1  C   UNL     1      16.798  30.133  20.659  1.00  0.00     0.272 C 
ATOM      2  C   UNL     1      16.759  31.072  21.810  1.00  0.00     0.113 C 
ATOM      3  C   UNL     1      17.548  30.647  23.021  1.00  0.00     0.145 C 
ATOM      4  C   UNL     1      19.002  30.487  22.503  1.00  0.00     0.142 C 
ATOM      5  C   UNL     1      18.906  29.524  21.384  1.00  0.00     0.178 C 
ATOM      6  O   UNL     1      18.116  29.824  20.329  1.00  0.00    -0.332 OA
ENDROOT
BRANCH   1   7
ATOM      7  O   UNL     1      16.206  30.772  19.548  1.00  0.00    -0.338 OA
BRANCH   7   8
ATOM      8  C   UNL     1      16.805  30.540  18.354  1.00  0.00     0.199 C 
BRANCH   8   9
ATOM      9  C   UNL     1      15.876  29.781  17.380  1.00  0.00     0.179 C 
ATOM     10  C   UNL     1      15.648  30.164  15.107  1.00  0.00     0.282 C 
ATOM     11  O   UNL     1      15.388  30.609  16.415  1.00  0.00    -0.341 OA
ATOM     12  C   UNL     1      17.134  30.153  14.954  1.00  0.00     0.202 C 
ATOM     13  C   UNL     1      17.649  28.984  15.808  1.00  0.00     0.179 C 
ATOM     14  C   UNL     1      16.616  28.579  16.824  1.00  0.00     0.177 C 
BRANCH  10  15
ATOM     15  O   UNL     1      14.962  30.957  14.206  1.00  0.00    -0.341 OA
BRANCH  15  16
ATOM     16  C   UNL     1      13.715  30.402  13.950  1.00  0.00     0.184 C 
ATOM     17  C   UNL     1      12.630  30.840  14.887  1.00  0.00     0.178 C 
ATOM     18  O   UNL     1      11.438  30.335  14.527  1.00  0.00    -0.341 OA
ATOM     19  C   UNL     1      11.340  29.261  13.701  1.00  0.00     0.281 C 
ATOM     20  C   UNL     1      13.781  28.879  14.176  1.00  0.00     0.180 C 
ATOM     21  C   UNL     1      12.489  28.312  13.696  1.00  0.00     0.202 C 
BRANCH  17  22
ATOM     22  C   UNL     1      12.514  32.342  15.048  1.00  0.00     0.191 C 
BRANCH  22  23
ATOM     23  O   UNL     1      13.460  32.846  15.921  1.00  0.00    -0.394 OA
ATOM     24  H   UNL     1      12.938  33.246  16.682  1.00  0.00     0.210 HD
ENDBRANCH  22  23
ENDBRANCH  17  22
BRANCH  19  25
ATOM     25  O   UNL     1      11.092  29.733  12.435  1.00  0.00    -0.350 OA
BRANCH  25  26
ATOM     26  C   UNL     1       9.902  30.335  12.219  1.00  0.00     0.169 C 
BRANCH  26  27
ATOM     27  C   UNL     1       9.239  29.957  10.934  1.00  0.00     0.119 C 
BRANCH  27  28
ATOM     28  N   UNL     1       9.470  28.616  10.489  1.00  0.00    -0.092 NA
ATOM     29  N   UNL     1       9.054  27.629  11.064  1.00  0.00     0.001 N 
ATOM     30  N   UNL     1       8.950  26.631  11.811  1.00  0.00    -0.003 NA
ENDBRANCH  27  28
ENDBRANCH  26  27
ENDBRANCH  25  26
ENDBRANCH  19  25
BRANCH  20  31
ATOM     31  O   UNL     1      14.867  28.319  13.561  1.00  0.00    -0.387 OA
ATOM     32  H   UNL     1      15.430  27.767  14.164  1.00  0.00     0.211 HD
ENDBRANCH  20  31
BRANCH  21  33
ATOM     33  O   UNL     1      12.217  27.176  14.479  1.00  0.00    -0.385 OA
ATOM     34  H   UNL     1      11.516  27.360  15.155  1.00  0.00     0.211 HD
ENDBRANCH  21  33
ENDBRANCH  15  16
ENDBRANCH  10  15
BRANCH  12  35
ATOM     35  O   UNL     1      17.607  30.071  13.669  1.00  0.00    -0.385 OA
ATOM     36  H   UNL     1      17.288  29.239  13.203  1.00  0.00     0.211 HD
ENDBRANCH  12  35
BRANCH  13  37
ATOM     37  O   UNL     1      18.899  29.240  16.332  1.00  0.00    -0.387 OA
ATOM     38  H   UNL     1      19.151  30.169  16.046  1.00  0.00     0.211 HD
ENDBRANCH  13  37
BRANCH  14  39
ATOM     39  O   UNL     1      17.326  27.997  17.904  1.00  0.00    -0.387 OA
ATOM     40  H   UNL     1      18.153  27.577  17.624  1.00  0.00     0.211 HD
ENDBRANCH  14  39
ENDBRANCH   8   9
ENDBRANCH   7   8
ENDBRANCH   1   7
BRANCH   1  41
ATOM     41  C   UNL     1      16.135  28.824  20.908  1.00  0.00     0.364 C 
ATOM     42  O   UNL     1      15.089  28.842  21.638  1.00  0.00    -0.246 OA
BRANCH  41  43
ATOM     43  O   UNL     1      16.519  27.603  20.446  1.00  0.00    -0.477 OA
ATOM     44  H   UNL     1      17.097  27.468  19.616  1.00  0.00     0.296 HD
ENDBRANCH  41  43
ENDBRANCH   1  41
BRANCH   3  45
ATOM     45  O   UNL     1      17.488  31.661  23.957  1.00  0.00    -0.391 OA
ATOM     46  H   UNL     1      18.402  32.001  24.199  1.00  0.00     0.211 HD
ENDBRANCH   3  45
BRANCH   5  47
ATOM     47  C   UNL     1      20.250  28.978  21.006  1.00  0.00     0.176 C 
BRANCH  47  48
ATOM     48  O   UNL     1      20.130  27.566  21.281  1.00  0.00    -0.388 OA
ATOM     49  H   UNL     1      19.382  27.401  21.889  1.00  0.00     0.211 HD
ENDBRANCH  47  48
BRANCH  47  50
ATOM     50  C   UNL     1      20.595  29.045  19.539  1.00  0.00     0.165 C 
BRANCH  50  51
ATOM     51  O   UNL     1      19.792  28.044  18.924  1.00  0.00    -0.388 OA
ATOM     52  H   UNL     1      19.722  27.242  19.470  1.00  0.00     0.211 HD
ENDBRANCH  50  51
BRANCH  50  53
ATOM     53  C   UNL     1      22.014  28.793  19.194  1.00  0.00     0.154 C 
BRANCH  53  54
ATOM     54  N   UNL     1      22.635  27.635  19.732  1.00  0.00    -0.319 N 
ATOM     55  C   UNL     1      22.701  26.346  19.152  1.00  0.00     0.407 C 
ATOM     56  H   UNL     1      23.121  27.709  20.683  1.00  0.00     0.167 HD
ATOM     57  O   UNL     1      22.201  26.111  18.048  1.00  0.00    -0.225 OA
BRANCH  55  58
ATOM     58  O   UNL     1      23.341  25.311  19.828  1.00  0.00    -0.443 OA
BRANCH  58  59
ATOM     59  C   UNL     1      22.714  24.274  20.519  1.00  0.00     0.294 C 
BRANCH  59  60
ATOM     60  C   UNL     1      22.150  24.649  21.823  1.00  0.00     0.121 A 
ATOM     61  C   UNL     1      22.826  24.710  23.020  1.00  0.00     0.144 A 
ATOM     62  N   UNL     1      20.867  24.987  22.070  1.00  0.00    -0.131 NA
ATOM     63  N   UNL     1      21.921  25.080  23.929  1.00  0.00    -0.220 N 
ATOM     64  N   UNL     1      20.751  25.242  23.338  1.00  0.00    -0.062 NA
BRANCH  63  65
ATOM     65  C   UNL     1      22.191  25.265  25.318  1.00  0.00     0.067 A 
ATOM     66  C   UNL     1      23.050  24.426  25.992  1.00  0.00     0.030 A 
ATOM     67  C   UNL     1      21.591  26.290  26.012  1.00  0.00     0.040 A 
ATOM     68  C   UNL     1      23.306  24.603  27.329  1.00  0.00     0.030 A 
ATOM     69  C   UNL     1      21.862  26.456  27.368  1.00  0.00     0.022 A 
ATOM     70  C   UNL     1      22.722  25.621  28.059  1.00  0.00     0.065 A 
ATOM     71  C   UNL     1      21.394  27.391  28.263  1.00  0.00     0.143 A 
ATOM     72  N   UNL     1      22.768  26.045  29.334  1.00  0.00    -0.278 N 
ATOM     73  N   UNL     1      21.979  27.089  29.434  1.00  0.00    -0.183 NA
ATOM     74  H   UNL     1      23.343  25.597  30.088  1.00  0.00     0.190 HD
ENDBRANCH  63  65
ENDBRANCH  59  60
ENDBRANCH  58  59
ENDBRANCH  55  58
ENDBRANCH  53  54
ENDBRANCH  50  53
ENDBRANCH  47  50
ENDBRANCH   5  47
BRANCH   4  75
ATOM     75  N   UNL     1      19.669  29.841  23.638  1.00  0.00    -0.348 N 
ATOM     76  C   UNL     1      20.515  30.601  24.449  1.00  0.00     0.217 C 
ATOM     77  H   UNL     1      19.534  28.840  23.854  1.00  0.00     0.163 HD
ATOM     78  C   UNL     1      21.239  30.015  25.626  1.00  0.00     0.114 C 
ATOM     79  O   UNL     1      20.683  31.838  24.194  1.00  0.00    -0.275 OA
ENDBRANCH   4  75
TORSDOF 30
