REMARK VINA RESULT:    -6.202     13.605     19.055
REMARK INTER + INTRA:         -22.077
REMARK INTER:                 -14.083
REMARK INTRA:                  -7.994
REMARK UNBOUND:                -6.268
REMARK SMILES CC(=O)N[C@@H]1[C@@H](O)C[C@](OC[C@H]2O[C@@H](O[C@H]3[C@H](O)[C@@H](O)[C@H](OCCN=[N+]=[N-])O[C@@H]3CO)[C@H](O)[C@@H](O)[C@H]2O)(C(=O)O)O[C@H]1C(O)[C@H](O)CNC(=O)OCc1cn(C(C)(C)CO)nn1
REMARK SMILES IDX 9 1 8 2 6 3 5 4 42 5 41 6 10 7 11 8 12 9 14 10 13 11 32 12
REMARK SMILES IDX 34 13 36 14 15 15 16 16 29 17 28 18 21 19 17 20 19 21 30 22
REMARK SMILES IDX 31 23 22 25 23 26 24 27 25 28 26 29 27 30 18 31 20 33 33 35
REMARK SMILES IDX 35 37 37 39 38 41 39 42 40 43 7 45 43 47 44 48 45 50 46 51
REMARK SMILES IDX 47 53 48 54 49 55 50 57 51 58 52 59 53 60 54 61 62 62 55 63
REMARK SMILES IDX 61 64 56 65 57 66 58 67 59 68 60 69 4 71 2 72 1 74 3 75
REMARK H PARENT 31 24 18 32 20 34 33 36 35 38 37 40 40 44 7 46 44 49 46 52
REMARK H PARENT 48 56 60 70 4 73
REMARK Flexibility Score: inf
ROOT
ATOM      1  C   UNL     1       2.680  22.483  31.506  1.00  0.00     0.272 C 
ATOM      2  C   UNL     1       1.774  22.484  32.708  1.00  0.00     0.113 C 
ATOM      3  C   UNL     1       2.342  23.460  33.710  1.00  0.00     0.145 C 
ATOM      4  C   UNL     1       3.623  22.782  34.249  1.00  0.00     0.142 C 
ATOM      5  C   UNL     1       4.461  22.440  33.053  1.00  0.00     0.178 C 
ATOM      6  O   UNL     1       3.979  22.994  31.884  1.00  0.00    -0.332 OA
ENDROOT
BRANCH   1   7
ATOM      7  O   UNL     1       2.306  23.344  30.526  1.00  0.00    -0.338 OA
BRANCH   7   8
ATOM      8  C   UNL     1       1.172  23.259  29.853  1.00  0.00     0.199 C 
BRANCH   8   9
ATOM      9  C   UNL     1       1.052  23.102  28.392  1.00  0.00     0.179 C 
ATOM     10  C   UNL     1       1.106  24.366  26.464  1.00  0.00     0.282 C 
ATOM     11  O   UNL     1       1.486  24.326  27.779  1.00  0.00    -0.341 OA
ATOM     12  C   UNL     1       0.793  23.062  25.823  1.00  0.00     0.202 C 
ATOM     13  C   UNL     1       1.599  21.899  26.359  1.00  0.00     0.179 C 
ATOM     14  C   UNL     1       2.016  22.093  27.781  1.00  0.00     0.177 C 
BRANCH  10  15
ATOM     15  O   UNL     1       2.059  25.116  25.769  1.00  0.00    -0.341 OA
BRANCH  15  16
ATOM     16  C   UNL     1       2.874  25.869  26.581  1.00  0.00     0.184 C 
ATOM     17  C   UNL     1       2.606  27.355  26.499  1.00  0.00     0.178 C 
ATOM     18  O   UNL     1       3.750  28.117  26.382  1.00  0.00    -0.341 OA
ATOM     19  C   UNL     1       4.509  27.892  25.266  1.00  0.00     0.281 C 
ATOM     20  C   UNL     1       4.309  25.625  26.078  1.00  0.00     0.180 C 
ATOM     21  C   UNL     1       4.402  26.454  24.810  1.00  0.00     0.202 C 
BRANCH  17  22
ATOM     22  C   UNL     1       1.966  27.735  27.829  1.00  0.00     0.191 C 
BRANCH  22  23
ATOM     23  O   UNL     1       0.690  27.175  27.910  1.00  0.00    -0.394 OA
ATOM     24  H   UNL     1       0.521  26.487  27.239  1.00  0.00     0.210 HD
ENDBRANCH  22  23
ENDBRANCH  17  22
BRANCH  19  25
ATOM     25  O   UNL     1       5.809  28.258  25.564  1.00  0.00    -0.350 OA
BRANCH  25  26
ATOM     26  C   UNL     1       6.537  28.755  24.530  1.00  0.00     0.169 C 
BRANCH  26  27
ATOM     27  C   UNL     1       5.987  30.047  23.945  1.00  0.00     0.119 C 
BRANCH  27  28
ATOM     28  N   UNL     1       6.421  30.226  22.573  1.00  0.00    -0.092 NA
ATOM     29  N   UNL     1       6.072  29.368  21.749  1.00  0.00     0.001 N 
ATOM     30  N   UNL     1       5.494  28.792  20.802  1.00  0.00    -0.003 NA
ENDBRANCH  27  28
ENDBRANCH  26  27
ENDBRANCH  25  26
ENDBRANCH  19  25
BRANCH  20  31
ATOM     31  O   UNL     1       5.141  26.116  27.089  1.00  0.00    -0.387 OA
ATOM     32  H   UNL     1       4.838  27.048  27.252  1.00  0.00     0.211 HD
ENDBRANCH  20  31
BRANCH  21  33
ATOM     33  O   UNL     1       3.172  26.325  24.143  1.00  0.00    -0.385 OA
ATOM     34  H   UNL     1       3.213  26.790  23.255  1.00  0.00     0.211 HD
ENDBRANCH  21  33
ENDBRANCH  15  16
ENDBRANCH  10  15
BRANCH  12  35
ATOM     35  O   UNL     1      -0.567  22.754  25.770  1.00  0.00    -0.385 OA
ATOM     36  H   UNL     1      -0.944  23.269  25.029  1.00  0.00     0.211 HD
ENDBRANCH  12  35
BRANCH  13  37
ATOM     37  O   UNL     1       2.709  21.635  25.537  1.00  0.00    -0.387 OA
ATOM     38  H   UNL     1       3.485  21.331  26.077  1.00  0.00     0.211 HD
ENDBRANCH  13  37
BRANCH  14  39
ATOM     39  O   UNL     1       3.284  22.718  27.748  1.00  0.00    -0.387 OA
ATOM     40  H   UNL     1       3.378  23.320  28.516  1.00  0.00     0.211 HD
ENDBRANCH  14  39
ENDBRANCH   8   9
ENDBRANCH   7   8
ENDBRANCH   1   7
BRANCH   1  41
ATOM     41  C   UNL     1       2.995  21.136  31.032  1.00  0.00     0.364 C 
ATOM     42  O   UNL     1       2.360  20.141  31.390  1.00  0.00    -0.246 OA
BRANCH  41  43
ATOM     43  O   UNL     1       4.048  20.882  30.134  1.00  0.00    -0.477 OA
ATOM     44  H   UNL     1       4.258  19.911  29.936  1.00  0.00     0.296 HD
ENDBRANCH  41  43
ENDBRANCH   1  41
BRANCH   3  45
ATOM     45  O   UNL     1       2.803  24.570  32.999  1.00  0.00    -0.391 OA
ATOM     46  H   UNL     1       2.072  25.181  32.778  1.00  0.00     0.211 HD
ENDBRANCH   3  45
BRANCH   5  47
ATOM     47  C   UNL     1       5.807  23.155  33.268  1.00  0.00     0.176 C 
BRANCH  47  48
ATOM     48  O   UNL     1       5.920  24.181  32.299  1.00  0.00    -0.388 OA
ATOM     49  H   UNL     1       5.083  24.658  32.173  1.00  0.00     0.211 HD
ENDBRANCH  47  48
BRANCH  47  50
ATOM     50  C   UNL     1       6.986  22.241  32.976  1.00  0.00     0.165 C 
BRANCH  50  51
ATOM     51  O   UNL     1       6.691  20.923  33.100  1.00  0.00    -0.388 OA
ATOM     52  H   UNL     1       5.808  20.640  32.766  1.00  0.00     0.211 HD
ENDBRANCH  50  51
BRANCH  50  53
ATOM     53  C   UNL     1       8.164  22.622  33.850  1.00  0.00     0.154 C 
BRANCH  53  54
ATOM     54  N   UNL     1       8.036  23.833  34.574  1.00  0.00    -0.319 N 
ATOM     55  C   UNL     1       8.970  24.873  34.553  1.00  0.00     0.407 C 
ATOM     56  H   UNL     1       7.165  23.985  35.192  1.00  0.00     0.167 HD
ATOM     57  O   UNL     1      10.008  24.821  33.873  1.00  0.00    -0.225 OA
BRANCH  55  58
ATOM     58  O   UNL     1       8.779  26.050  35.315  1.00  0.00    -0.443 OA
BRANCH  58  59
ATOM     59  C   UNL     1       8.372  27.257  34.710  1.00  0.00     0.294 C 
BRANCH  59  60
ATOM     60  C   UNL     1       7.054  27.172  34.049  1.00  0.00     0.120 A 
ATOM     61  C   UNL     1       6.667  27.776  32.869  1.00  0.00     0.139 A 
ATOM     62  N   UNL     1       5.979  26.486  34.469  1.00  0.00    -0.132 NA
ATOM     63  N   UNL     1       5.378  27.445  32.606  1.00  0.00    -0.244 N 
ATOM     64  N   UNL     1       4.985  26.660  33.595  1.00  0.00    -0.066 NA
BRANCH  63  65
ATOM     65  C   UNL     1       4.619  27.878  31.460  1.00  0.00     0.082 C 
ATOM     66  C   UNL     1       5.132  29.205  30.984  1.00  0.00     0.039 C 
ATOM     67  C   UNL     1       3.148  28.084  31.851  1.00  0.00     0.039 C 
BRANCH  65  68
ATOM     68  C   UNL     1       4.635  26.904  30.318  1.00  0.00     0.186 C 
BRANCH  68  69
ATOM     69  O   UNL     1       4.279  25.625  30.678  1.00  0.00    -0.394 OA
ATOM     70  H   UNL     1       4.549  24.928  30.060  1.00  0.00     0.210 HD
ENDBRANCH  68  69
ENDBRANCH  65  68
ENDBRANCH  63  65
ENDBRANCH  59  60
ENDBRANCH  58  59
ENDBRANCH  55  58
ENDBRANCH  53  54
ENDBRANCH  50  53
ENDBRANCH  47  50
ENDBRANCH   5  47
BRANCH   4  71
ATOM     71  N   UNL     1       3.172  21.671  35.024  1.00  0.00    -0.348 N 
ATOM     72  C   UNL     1       2.873  21.680  36.407  1.00  0.00     0.217 C 
ATOM     73  H   UNL     1       3.038  20.725  34.556  1.00  0.00     0.163 HD
ATOM     74  C   UNL     1       2.409  20.465  37.130  1.00  0.00     0.114 C 
ATOM     75  O   UNL     1       2.999  22.736  37.048  1.00  0.00    -0.275 OA
ENDBRANCH   4  71
TORSDOF 32
