REMARK VINA RESULT:    -5.327      8.835     15.943
REMARK INTER + INTRA:         -20.600
REMARK INTER:                 -15.586
REMARK INTRA:                  -5.014
REMARK UNBOUND:                -6.864
REMARK SMILES CC(=O)N[C@@H]1[C@@H](O)C[C@](OC[C@H]2O[C@@H](O[C@H]3[C@H](O)[C@@H](O)[C@H](OCCN=[N+]=[N-])O[C@@H]3CO)[C@H](O)[C@@H](O)[C@H]2O)(C(=O)O)O[C@H]1C(O)[C@H](O)CNC(=O)OCc1cn(CCC2OCCO2)nn1
REMARK SMILES IDX 9 1 8 2 6 3 5 4 42 5 41 6 10 7 11 8 12 9 14 10 13 11 32 12
REMARK SMILES IDX 34 13 36 14 15 15 16 16 29 17 28 18 21 19 17 20 19 21 30 22
REMARK SMILES IDX 31 23 22 25 23 26 24 27 25 28 26 29 27 30 18 31 20 33 33 35
REMARK SMILES IDX 35 37 37 39 38 41 39 42 40 43 7 45 43 47 44 48 45 50 46 51
REMARK SMILES IDX 47 53 48 54 49 55 50 57 51 58 52 59 53 60 54 61 64 62 55 63
REMARK SMILES IDX 63 64 56 65 57 66 58 67 59 68 62 69 60 70 61 71 4 72 2 73
REMARK SMILES IDX 1 75 3 76
REMARK H PARENT 31 24 18 32 20 34 33 36 35 38 37 40 40 44 7 46 44 49 46 52
REMARK H PARENT 48 56 4 74
REMARK Flexibility Score: inf
ROOT
ATOM      1  C   UNL     1      29.840  19.513  18.468  1.00  0.00     0.272 C 
ATOM      2  C   UNL     1      28.738  18.879  19.394  1.00  0.00     0.113 C 
ATOM      3  C   UNL     1      29.236  18.696  20.765  1.00  0.00     0.145 C 
ATOM      4  C   UNL     1      29.671  20.033  21.334  1.00  0.00     0.142 C 
ATOM      5  C   UNL     1      29.996  21.024  20.268  1.00  0.00     0.178 C 
ATOM      6  O   UNL     1      30.478  20.551  19.099  1.00  0.00    -0.332 OA
ENDROOT
BRANCH   1   7
ATOM      7  O   UNL     1      29.124  19.957  17.434  1.00  0.00    -0.338 OA
BRANCH   7   8
ATOM      8  C   UNL     1      28.901  19.391  16.270  1.00  0.00     0.199 C 
BRANCH   8   9
ATOM      9  C   UNL     1      28.265  20.129  15.136  1.00  0.00     0.179 C 
ATOM     10  C   UNL     1      26.166  20.514  14.173  1.00  0.00     0.282 C 
ATOM     11  O   UNL     1      26.971  19.702  14.946  1.00  0.00    -0.341 OA
ATOM     12  C   UNL     1      26.863  21.577  13.407  1.00  0.00     0.202 C 
ATOM     13  C   UNL     1      27.873  22.348  14.212  1.00  0.00     0.179 C 
ATOM     14  C   UNL     1      28.135  21.630  15.494  1.00  0.00     0.177 C 
BRANCH  10  15
ATOM     15  O   UNL     1      25.094  20.940  14.956  1.00  0.00    -0.341 OA
BRANCH  15  16
ATOM     16  C   UNL     1      23.962  21.266  14.222  1.00  0.00     0.184 C 
ATOM     17  C   UNL     1      23.772  20.447  12.982  1.00  0.00     0.178 C 
ATOM     18  O   UNL     1      22.561  20.828  12.400  1.00  0.00    -0.341 OA
ATOM     19  C   UNL     1      22.576  22.121  11.897  1.00  0.00     0.281 C 
ATOM     20  C   UNL     1      24.098  22.730  13.713  1.00  0.00     0.180 C 
ATOM     21  C   UNL     1      22.740  23.047  13.099  1.00  0.00     0.202 C 
BRANCH  17  22
ATOM     22  C   UNL     1      23.597  18.988  13.365  1.00  0.00     0.191 C 
BRANCH  22  23
ATOM     23  O   UNL     1      22.963  19.009  14.632  1.00  0.00    -0.394 OA
ATOM     24  H   UNL     1      22.098  19.471  14.612  1.00  0.00     0.210 HD
ENDBRANCH  22  23
ENDBRANCH  17  22
BRANCH  19  25
ATOM     25  O   UNL     1      21.395  22.358  11.252  1.00  0.00    -0.350 OA
BRANCH  25  26
ATOM     26  C   UNL     1      21.324  21.945   9.952  1.00  0.00     0.169 C 
BRANCH  26  27
ATOM     27  C   UNL     1      20.101  21.121   9.612  1.00  0.00     0.119 C 
BRANCH  27  28
ATOM     28  N   UNL     1      20.151  19.844  10.300  1.00  0.00    -0.092 NA
ATOM     29  N   UNL     1      19.346  19.522  11.170  1.00  0.00     0.001 N 
ATOM     30  N   UNL     1      18.496  19.059  11.926  1.00  0.00    -0.003 NA
ENDBRANCH  27  28
ENDBRANCH  26  27
ENDBRANCH  25  26
ENDBRANCH  19  25
BRANCH  20  31
ATOM     31  O   UNL     1      24.336  23.546  14.791  1.00  0.00    -0.387 OA
ATOM     32  H   UNL     1      24.209  24.493  14.508  1.00  0.00     0.211 HD
ENDBRANCH  20  31
BRANCH  21  33
ATOM     33  O   UNL     1      22.753  24.376  12.735  1.00  0.00    -0.385 OA
ATOM     34  H   UNL     1      23.477  24.829  13.236  1.00  0.00     0.211 HD
ENDBRANCH  21  33
ENDBRANCH  15  16
ENDBRANCH  10  15
BRANCH  12  35
ATOM     35  O   UNL     1      27.466  21.003  12.259  1.00  0.00    -0.385 OA
ATOM     36  H   UNL     1      27.413  21.710  11.563  1.00  0.00     0.211 HD
ENDBRANCH  12  35
BRANCH  13  37
ATOM     37  O   UNL     1      27.487  23.674  14.401  1.00  0.00    -0.387 OA
ATOM     38  H   UNL     1      28.224  24.136  14.880  1.00  0.00     0.211 HD
ENDBRANCH  13  37
BRANCH  14  39
ATOM     39  O   UNL     1      27.141  21.776  16.439  1.00  0.00    -0.387 OA
ATOM     40  H   UNL     1      26.654  22.636  16.383  1.00  0.00     0.211 HD
ENDBRANCH  14  39
ENDBRANCH   8   9
ENDBRANCH   7   8
ENDBRANCH   1   7
BRANCH   1  41
ATOM     41  C   UNL     1      30.802  18.422  18.312  1.00  0.00     0.364 C 
ATOM     42  O   UNL     1      32.065  18.705  18.199  1.00  0.00    -0.246 OA
BRANCH  41  43
ATOM     43  O   UNL     1      30.562  17.068  18.270  1.00  0.00    -0.477 OA
ATOM     44  H   UNL     1      31.060  16.488  17.609  1.00  0.00     0.296 HD
ENDBRANCH  41  43
ENDBRANCH   1  41
BRANCH   3  45
ATOM     45  O   UNL     1      28.142  18.187  21.523  1.00  0.00    -0.391 OA
ATOM     46  H   UNL     1      27.904  18.911  22.180  1.00  0.00     0.211 HD
ENDBRANCH   3  45
BRANCH   5  47
ATOM     47  C   UNL     1      28.889  22.026  20.140  1.00  0.00     0.176 C 
BRANCH  47  48
ATOM     48  O   UNL     1      27.818  21.776  21.012  1.00  0.00    -0.388 OA
ATOM     49  H   UNL     1      28.073  21.988  21.957  1.00  0.00     0.211 HD
ENDBRANCH  47  48
BRANCH  47  50
ATOM     50  C   UNL     1      29.392  23.424  20.601  1.00  0.00     0.165 C 
BRANCH  50  51
ATOM     51  O   UNL     1      29.084  23.578  21.932  1.00  0.00    -0.388 OA
ATOM     52  H   UNL     1      28.488  24.325  22.122  1.00  0.00     0.211 HD
ENDBRANCH  50  51
BRANCH  50  53
ATOM     53  C   UNL     1      28.876  24.432  19.657  1.00  0.00     0.154 C 
BRANCH  53  54
ATOM     54  N   UNL     1      27.509  24.202  19.309  1.00  0.00    -0.319 N 
ATOM     55  C   UNL     1      26.976  24.372  18.032  1.00  0.00     0.407 C 
ATOM     56  H   UNL     1      26.874  23.880  20.081  1.00  0.00     0.167 HD
ATOM     57  O   UNL     1      27.679  24.761  17.085  1.00  0.00    -0.225 OA
BRANCH  55  58
ATOM     58  O   UNL     1      25.631  24.125  17.722  1.00  0.00    -0.443 OA
BRANCH  58  59
ATOM     59  C   UNL     1      24.629  25.083  18.008  1.00  0.00     0.294 C 
BRANCH  59  60
ATOM     60  C   UNL     1      23.837  24.742  19.213  1.00  0.00     0.120 A 
ATOM     61  C   UNL     1      24.320  24.773  20.524  1.00  0.00     0.138 A 
ATOM     62  N   UNL     1      22.560  24.346  19.329  1.00  0.00    -0.132 NA
ATOM     63  N   UNL     1      23.325  24.400  21.374  1.00  0.00    -0.252 N 
ATOM     64  N   UNL     1      22.277  24.148  20.624  1.00  0.00    -0.067 NA
BRANCH  63  65
ATOM     65  C   UNL     1      23.507  24.336  22.817  1.00  0.00     0.151 C 
BRANCH  65  66
ATOM     66  C   UNL     1      23.608  25.738  23.402  1.00  0.00     0.086 C 
BRANCH  66  67
ATOM     67  C   UNL     1      22.544  25.981  24.434  1.00  0.00     0.251 C 
ATOM     68  O   UNL     1      23.122  26.562  25.564  1.00  0.00    -0.350 OA
ATOM     69  O   UNL     1      21.566  26.864  24.022  1.00  0.00    -0.350 OA
ATOM     70  C   UNL     1      22.055  27.125  26.255  1.00  0.00     0.192 C 
ATOM     71  C   UNL     1      20.914  27.114  25.252  1.00  0.00     0.192 C 
ENDBRANCH  66  67
ENDBRANCH  65  66
ENDBRANCH  63  65
ENDBRANCH  59  60
ENDBRANCH  58  59
ENDBRANCH  55  58
ENDBRANCH  53  54
ENDBRANCH  50  53
ENDBRANCH  47  50
ENDBRANCH   5  47
BRANCH   4  72
ATOM     72  N   UNL     1      30.753  19.853  22.299  1.00  0.00    -0.348 N 
ATOM     73  C   UNL     1      30.785  20.481  23.548  1.00  0.00     0.217 C 
ATOM     74  H   UNL     1      31.541  19.206  22.004  1.00  0.00     0.163 HD
ATOM     75  C   UNL     1      31.933  20.245  24.483  1.00  0.00     0.114 C 
ATOM     76  O   UNL     1      29.823  21.239  23.847  1.00  0.00    -0.275 OA
ENDBRANCH   4  72
TORSDOF 32
