REMARK VINA RESULT:    -5.863     25.554     30.039
REMARK INTER + INTRA:         -21.512
REMARK INTER:                 -10.693
REMARK INTRA:                 -10.819
REMARK UNBOUND:                -6.052
REMARK SMILES CC(=O)N[C@@H]1[C@@H](O)C[C@](OC[C@H]2O[C@@H](O[C@H]3[C@H](O)[C@@H](O)[C@H](OCCN=[N+]=[N-])O[C@@H]3CO)[C@H](O)[C@@H](O)[C@H]2O)(C(=O)O)O[C@H]1C(O)[C@H](O)CNC(=O)OCc1cn(CC(O)CO)nn1
REMARK SMILES IDX 43 1 42 2 9 3 8 4 41 5 6 6 5 7 10 8 11 9 12 10 14 11 13 12
REMARK SMILES IDX 32 13 34 14 36 15 15 16 16 17 29 18 28 19 21 20 17 21 19 22
REMARK SMILES IDX 30 23 31 24 22 26 23 27 24 28 25 29 26 30 27 31 18 32 20 34
REMARK SMILES IDX 33 36 35 38 37 40 38 42 39 43 40 44 7 46 4 48 2 49 1 51 3 52
REMARK SMILES IDX 44 53 45 55 46 56 47 58 48 59 49 60 50 62 51 63 52 64 53 65
REMARK SMILES IDX 54 66 62 67 55 68 61 69 56 70 57 71 58 72 59 74 60 75
REMARK H PARENT 31 25 18 33 20 35 33 37 35 39 37 41 40 45 7 47 4 50 44 54
REMARK H PARENT 46 57 48 61 58 73 60 76
REMARK Flexibility Score: inf
ROOT
ATOM      1  C   UNL     1      22.619  20.981  12.920  1.00  0.00     0.176 C 
ENDROOT
BRANCH   1   2
ATOM      2  C   UNL     1      23.753  20.965  11.878  1.00  0.00     0.178 C 
ATOM      3  C   UNL     1      24.988  22.362  10.428  1.00  0.00     0.272 C 
ATOM      4  C   UNL     1      24.734  21.427   9.279  1.00  0.00     0.113 C 
ATOM      5  O   UNL     1      23.986  22.182  11.393  1.00  0.00    -0.332 OA
ATOM      6  C   UNL     1      23.685  20.396   9.463  1.00  0.00     0.145 C 
ATOM      7  C   UNL     1      23.438  19.941  10.853  1.00  0.00     0.142 C 
BRANCH   3   8
ATOM      8  O   UNL     1      24.941  23.618  10.033  1.00  0.00    -0.338 OA
BRANCH   8   9
ATOM      9  C   UNL     1      24.787  24.391   9.043  1.00  0.00     0.199 C 
BRANCH   9  10
ATOM     10  C   UNL     1      23.513  25.081   8.678  1.00  0.00     0.179 C 
ATOM     11  C   UNL     1      22.015  25.258   6.958  1.00  0.00     0.282 C 
ATOM     12  O   UNL     1      22.915  24.384   7.559  1.00  0.00    -0.341 OA
ATOM     13  C   UNL     1      21.457  26.312   7.853  1.00  0.00     0.202 C 
ATOM     14  C   UNL     1      21.332  25.934   9.297  1.00  0.00     0.179 C 
ATOM     15  C   UNL     1      22.401  24.938   9.718  1.00  0.00     0.177 C 
BRANCH  11  16
ATOM     16  O   UNL     1      20.983  24.642   6.280  1.00  0.00    -0.341 OA
BRANCH  16  17
ATOM     17  C   UNL     1      20.988  23.252   6.382  1.00  0.00     0.184 C 
ATOM     18  C   UNL     1      21.239  22.654   5.031  1.00  0.00     0.178 C 
ATOM     19  O   UNL     1      20.175  21.903   4.555  1.00  0.00    -0.341 OA
ATOM     20  C   UNL     1      18.953  22.554   4.795  1.00  0.00     0.281 C 
ATOM     21  C   UNL     1      19.779  22.788   7.080  1.00  0.00     0.180 C 
ATOM     22  C   UNL     1      18.644  22.295   6.250  1.00  0.00     0.202 C 
BRANCH  18  23
ATOM     23  C   UNL     1      22.467  21.766   5.020  1.00  0.00     0.191 C 
BRANCH  23  24
ATOM     24  O   UNL     1      22.865  21.420   6.303  1.00  0.00    -0.394 OA
ATOM     25  H   UNL     1      23.404  20.569   6.218  1.00  0.00     0.210 HD
ENDBRANCH  23  24
ENDBRANCH  18  23
BRANCH  20  26
ATOM     26  O   UNL     1      18.023  21.945   3.969  1.00  0.00    -0.350 OA
BRANCH  26  27
ATOM     27  C   UNL     1      17.067  22.806   3.454  1.00  0.00     0.169 C 
BRANCH  27  28
ATOM     28  C   UNL     1      15.731  22.135   3.225  1.00  0.00     0.119 C 
BRANCH  28  29
ATOM     29  N   UNL     1      14.653  22.807   3.899  1.00  0.00    -0.092 NA
ATOM     30  N   UNL     1      14.602  23.042   5.101  1.00  0.00     0.001 N 
ATOM     31  N   UNL     1      14.636  23.126   6.328  1.00  0.00    -0.003 NA
ENDBRANCH  28  29
ENDBRANCH  27  28
ENDBRANCH  26  27
ENDBRANCH  20  26
BRANCH  21  32
ATOM     32  O   UNL     1      20.075  21.787   8.038  1.00  0.00    -0.387 OA
ATOM     33  H   UNL     1      21.080  21.686   7.976  1.00  0.00     0.211 HD
ENDBRANCH  21  32
BRANCH  22  34
ATOM     34  O   UNL     1      17.408  22.820   6.621  1.00  0.00    -0.385 OA
ATOM     35  H   UNL     1      16.857  22.194   7.118  1.00  0.00     0.211 HD
ENDBRANCH  22  34
ENDBRANCH  16  17
ENDBRANCH  11  16
BRANCH  13  36
ATOM     36  O   UNL     1      22.098  27.560   7.666  1.00  0.00    -0.385 OA
ATOM     37  H   UNL     1      21.493  28.317   7.769  1.00  0.00     0.211 HD
ENDBRANCH  13  36
BRANCH  14  38
ATOM     38  O   UNL     1      20.063  25.479   9.645  1.00  0.00    -0.387 OA
ATOM     39  H   UNL     1      19.646  26.126  10.263  1.00  0.00     0.211 HD
ENDBRANCH  14  38
BRANCH  15  40
ATOM     40  O   UNL     1      21.843  23.647   9.515  1.00  0.00    -0.387 OA
ATOM     41  H   UNL     1      22.527  23.025   9.167  1.00  0.00     0.211 HD
ENDBRANCH  15  40
ENDBRANCH   9  10
ENDBRANCH   8   9
ENDBRANCH   3   8
BRANCH   3  42
ATOM     42  C   UNL     1      26.298  22.056  11.092  1.00  0.00     0.364 C 
ATOM     43  O   UNL     1      26.843  23.012  11.727  1.00  0.00    -0.246 OA
BRANCH  42  44
ATOM     44  O   UNL     1      26.910  20.831  11.041  1.00  0.00    -0.477 OA
ATOM     45  H   UNL     1      26.399  19.961  11.228  1.00  0.00     0.296 HD
ENDBRANCH  42  44
ENDBRANCH   3  42
BRANCH   6  46
ATOM     46  O   UNL     1      22.480  20.935   8.954  1.00  0.00    -0.391 OA
ATOM     47  H   UNL     1      22.648  21.832   8.604  1.00  0.00     0.211 HD
ENDBRANCH   6  46
BRANCH   7  48
ATOM     48  N   UNL     1      24.121  18.669  11.070  1.00  0.00    -0.348 N 
ATOM     49  C   UNL     1      23.445  17.528  11.570  1.00  0.00     0.217 C 
ATOM     50  H   UNL     1      25.134  18.554  10.866  1.00  0.00     0.163 HD
ATOM     51  C   UNL     1      24.135  16.231  11.794  1.00  0.00     0.114 C 
ATOM     52  O   UNL     1      22.220  17.643  11.825  1.00  0.00    -0.275 OA
ENDBRANCH   7  48
ENDBRANCH   1   2
BRANCH   1  53
ATOM     53  O   UNL     1      23.167  20.939  14.187  1.00  0.00    -0.388 OA
ATOM     54  H   UNL     1      24.061  21.364  14.196  1.00  0.00     0.211 HD
ENDBRANCH   1  53
BRANCH   1  55
ATOM     55  C   UNL     1      21.788  22.244  12.762  1.00  0.00     0.165 C 
BRANCH  55  56
ATOM     56  O   UNL     1      21.919  22.917  14.001  1.00  0.00    -0.388 OA
ATOM     57  H   UNL     1      21.038  22.960  14.446  1.00  0.00     0.211 HD
ENDBRANCH  55  56
BRANCH  55  58
ATOM     58  C   UNL     1      20.341  21.989  12.516  1.00  0.00     0.154 C 
BRANCH  58  59
ATOM     59  N   UNL     1      20.100  21.402  11.214  1.00  0.00    -0.319 N 
ATOM     60  C   UNL     1      19.561  20.101  11.096  1.00  0.00     0.407 C 
ATOM     61  H   UNL     1      20.315  21.921  10.317  1.00  0.00     0.167 HD
ATOM     62  O   UNL     1      19.284  19.402  12.098  1.00  0.00    -0.225 OA
BRANCH  60  63
ATOM     63  O   UNL     1      19.311  19.543   9.859  1.00  0.00    -0.443 OA
BRANCH  63  64
ATOM     64  C   UNL     1      19.658  18.279   9.412  1.00  0.00     0.294 C 
BRANCH  64  65
ATOM     65  C   UNL     1      20.724  18.230   8.387  1.00  0.00     0.120 A 
ATOM     66  C   UNL     1      21.746  17.324   8.362  1.00  0.00     0.138 A 
ATOM     67  N   UNL     1      20.863  19.078   7.324  1.00  0.00    -0.132 NA
ATOM     68  N   UNL     1      22.489  17.635   7.285  1.00  0.00    -0.249 N 
ATOM     69  N   UNL     1      21.954  18.672   6.687  1.00  0.00    -0.067 NA
BRANCH  68  70
ATOM     70  C   UNL     1      23.692  16.965   6.841  1.00  0.00     0.180 C 
BRANCH  70  71
ATOM     71  C   UNL     1      24.834  17.456   7.741  1.00  0.00     0.161 C 
BRANCH  71  72
ATOM     72  O   UNL     1      25.516  16.346   8.175  1.00  0.00    -0.389 OA
ATOM     73  H   UNL     1      26.181  16.560   8.875  1.00  0.00     0.211 HD
ENDBRANCH  71  72
BRANCH  71  74
ATOM     74  C   UNL     1      25.725  18.394   6.962  1.00  0.00     0.189 C 
BRANCH  74  75
ATOM     75  O   UNL     1      24.964  19.337   6.307  1.00  0.00    -0.394 OA
ATOM     76  H   UNL     1      24.336  19.758   6.948  1.00  0.00     0.210 HD
ENDBRANCH  74  75
ENDBRANCH  71  74
ENDBRANCH  70  71
ENDBRANCH  68  70
ENDBRANCH  64  65
ENDBRANCH  63  64
ENDBRANCH  60  63
ENDBRANCH  58  59
ENDBRANCH  55  58
ENDBRANCH   1  55
TORSDOF 34
