REMARK VINA RESULT:    -5.984      7.408     11.956
REMARK INTER + INTRA:         -21.219
REMARK INTER:                 -13.426
REMARK INTRA:                  -7.793
REMARK UNBOUND:                -5.091
REMARK SMILES C=CCCCCn1cc(COC(=O)NC[C@@H](O)C(O)[C@@H]2O[C@@](OC[C@H]3O[C@@H](O[C@H]4[C@H](O)[C@@H](O)[C@H](OCCN=[N+]=[N-])O[C@@H]4CO)[C@H](O)[C@@H](O)[C@H]3O)(C(=O)O)C[C@H](O)[C@H]2NC(C)=O)nn1
REMARK SMILES IDX 18 1 20 2 22 3 54 4 21 5 55 6 57 7 23 8 24 9 25 10 27 11
REMARK SMILES IDX 26 12 45 13 47 14 49 15 28 16 29 17 42 18 41 19 34 20 30 21
REMARK SMILES IDX 32 22 43 23 44 24 35 26 36 27 37 28 38 29 39 30 40 31 31 32
REMARK SMILES IDX 33 34 46 36 48 38 50 40 51 42 52 43 53 44 56 46 58 48 59 49
REMARK SMILES IDX 60 51 61 52 19 53 16 55 17 56 15 58 14 59 12 60 13 62 11 63
REMARK SMILES IDX 10 64 9 65 8 66 62 67 7 68 63 69 6 70 5 71 4 72 3 73 2 74
REMARK SMILES IDX 1 75
REMARK H PARENT 44 25 31 33 33 35 46 37 48 39 50 41 53 45 56 47 58 50 19 54
REMARK H PARENT 17 57 14 61
REMARK Flexibility Score: inf
ROOT
ATOM      1  C   UNL     1      29.442  23.161  18.654  1.00  0.00     0.176 C 
ENDROOT
BRANCH   1   2
ATOM      2  C   UNL     1      29.371  24.676  18.868  1.00  0.00     0.178 C 
ATOM      3  C   UNL     1      27.960  26.468  18.570  1.00  0.00     0.272 C 
ATOM      4  C   UNL     1      29.095  27.311  18.160  1.00  0.00     0.113 C 
ATOM      5  O   UNL     1      28.295  25.115  18.181  1.00  0.00    -0.332 OA
ATOM      6  C   UNL     1      30.405  26.925  18.695  1.00  0.00     0.145 C 
ATOM      7  C   UNL     1      30.613  25.429  18.866  1.00  0.00     0.142 C 
BRANCH   3   8
ATOM      8  O   UNL     1      26.819  26.646  17.802  1.00  0.00    -0.338 OA
BRANCH   8   9
ATOM      9  C   UNL     1      26.120  25.648  17.300  1.00  0.00     0.199 C 
BRANCH   9  10
ATOM     10  C   UNL     1      24.835  25.214  17.894  1.00  0.00     0.179 C 
ATOM     11  C   UNL     1      23.971  24.479  19.943  1.00  0.00     0.282 C 
ATOM     12  O   UNL     1      25.059  24.539  19.118  1.00  0.00    -0.341 OA
ATOM     13  C   UNL     1      22.679  24.751  19.277  1.00  0.00     0.202 C 
ATOM     14  C   UNL     1      22.637  26.032  18.488  1.00  0.00     0.179 C 
ATOM     15  C   UNL     1      24.044  26.473  18.229  1.00  0.00     0.177 C 
BRANCH  11  16
ATOM     16  O   UNL     1      24.270  25.175  21.084  1.00  0.00    -0.341 OA
BRANCH  16  17
ATOM     17  C   UNL     1      23.955  24.586  22.273  1.00  0.00     0.184 C 
ATOM     18  C   UNL     1      22.870  25.391  22.949  1.00  0.00     0.178 C 
ATOM     19  O   UNL     1      23.089  25.468  24.334  1.00  0.00    -0.341 OA
ATOM     20  C   UNL     1      24.095  26.406  24.538  1.00  0.00     0.281 C 
ATOM     21  C   UNL     1      25.156  24.613  23.247  1.00  0.00     0.180 C 
ATOM     22  C   UNL     1      25.337  26.009  23.797  1.00  0.00     0.202 C 
BRANCH  18  23
ATOM     23  C   UNL     1      21.474  24.866  22.659  1.00  0.00     0.191 C 
BRANCH  23  24
ATOM     24  O   UNL     1      20.727  25.805  21.968  1.00  0.00    -0.394 OA
ATOM     25  H   UNL     1      20.823  25.639  21.000  1.00  0.00     0.210 HD
ENDBRANCH  23  24
ENDBRANCH  18  23
BRANCH  20  26
ATOM     26  O   UNL     1      24.334  26.444  25.912  1.00  0.00    -0.350 OA
BRANCH  26  27
ATOM     27  C   UNL     1      23.588  27.398  26.579  1.00  0.00     0.169 C 
BRANCH  27  28
ATOM     28  C   UNL     1      22.605  26.663  27.472  1.00  0.00     0.119 C 
BRANCH  28  29
ATOM     29  N   UNL     1      21.256  27.123  27.277  1.00  0.00    -0.092 NA
ATOM     30  N   UNL     1      20.792  27.295  26.156  1.00  0.00     0.001 N 
ATOM     31  N   UNL     1      20.395  27.253  24.992  1.00  0.00    -0.003 NA
ENDBRANCH  28  29
ENDBRANCH  27  28
ENDBRANCH  26  27
ENDBRANCH  20  26
BRANCH  21  32
ATOM     32  O   UNL     1      24.795  23.790  24.312  1.00  0.00    -0.387 OA
ATOM     33  H   UNL     1      24.261  24.234  25.001  1.00  0.00     0.211 HD
ENDBRANCH  21  32
BRANCH  22  34
ATOM     34  O   UNL     1      25.684  26.894  22.779  1.00  0.00    -0.385 OA
ATOM     35  H   UNL     1      26.554  27.306  23.034  1.00  0.00     0.211 HD
ENDBRANCH  22  34
ENDBRANCH  16  17
ENDBRANCH  11  16
BRANCH  13  36
ATOM     36  O   UNL     1      22.430  23.695  18.389  1.00  0.00    -0.385 OA
ATOM     37  H   UNL     1      22.785  22.846  18.709  1.00  0.00     0.211 HD
ENDBRANCH  13  36
BRANCH  14  38
ATOM     38  O   UNL     1      21.900  27.026  19.135  1.00  0.00    -0.387 OA
ATOM     39  H   UNL     1      21.668  27.696  18.460  1.00  0.00     0.211 HD
ENDBRANCH  14  38
BRANCH  15  40
ATOM     40  O   UNL     1      24.606  27.128  19.332  1.00  0.00    -0.387 OA
ATOM     41  H   UNL     1      25.404  27.642  19.108  1.00  0.00     0.211 HD
ENDBRANCH  15  40
ENDBRANCH   9  10
ENDBRANCH   8   9
ENDBRANCH   3   8
BRANCH   3  42
ATOM     42  C   UNL     1      27.795  26.404  20.016  1.00  0.00     0.364 C 
ATOM     43  O   UNL     1      28.088  27.377  20.745  1.00  0.00    -0.246 OA
BRANCH  42  44
ATOM     44  O   UNL     1      27.327  25.291  20.650  1.00  0.00    -0.477 OA
ATOM     45  H   UNL     1      26.548  24.762  20.301  1.00  0.00     0.296 HD
ENDBRANCH  42  44
ENDBRANCH   3  42
BRANCH   6  46
ATOM     46  O   UNL     1      31.413  27.454  17.850  1.00  0.00    -0.391 OA
ATOM     47  H   UNL     1      31.048  27.730  16.973  1.00  0.00     0.211 HD
ENDBRANCH   6  46
BRANCH   7  48
ATOM     48  N   UNL     1      31.340  25.196  20.128  1.00  0.00    -0.348 N 
ATOM     49  C   UNL     1      32.696  24.800  20.178  1.00  0.00     0.217 C 
ATOM     50  H   UNL     1      30.871  25.314  21.067  1.00  0.00     0.163 HD
ATOM     51  C   UNL     1      33.383  24.567  21.503  1.00  0.00     0.114 C 
ATOM     52  O   UNL     1      33.322  24.643  19.099  1.00  0.00    -0.275 OA
ENDBRANCH   7  48
ENDBRANCH   1   2
BRANCH   1  53
ATOM     53  O   UNL     1      29.901  22.660  19.984  1.00  0.00    -0.388 OA
ATOM     54  H   UNL     1      30.699  22.116  19.685  1.00  0.00     0.211 HD
ENDBRANCH   1  53
BRANCH   1  55
ATOM     55  C   UNL     1      28.156  22.477  18.534  1.00  0.00     0.165 C 
BRANCH  55  56
ATOM     56  O   UNL     1      27.272  22.647  19.623  1.00  0.00    -0.388 OA
ATOM     57  H   UNL     1      27.644  22.082  20.344  1.00  0.00     0.211 HD
ENDBRANCH  55  56
BRANCH  55  58
ATOM     58  C   UNL     1      28.109  21.078  18.081  1.00  0.00     0.154 C 
BRANCH  58  59
ATOM     59  N   UNL     1      28.328  20.095  19.070  1.00  0.00    -0.319 N 
ATOM     60  C   UNL     1      29.430  19.274  19.339  1.00  0.00     0.407 C 
ATOM     61  H   UNL     1      27.494  19.943  19.755  1.00  0.00     0.167 HD
ATOM     62  O   UNL     1      30.457  19.326  18.643  1.00  0.00    -0.225 OA
BRANCH  60  63
ATOM     63  O   UNL     1      29.417  18.361  20.403  1.00  0.00    -0.443 OA
BRANCH  63  64
ATOM     64  C   UNL     1      28.580  18.650  21.523  1.00  0.00     0.294 C 
BRANCH  64  65
ATOM     65  C   UNL     1      29.014  19.902  22.193  1.00  0.00     0.120 A 
ATOM     66  C   UNL     1      30.085  19.995  23.080  1.00  0.00     0.138 A 
ATOM     67  N   UNL     1      28.504  21.140  22.104  1.00  0.00    -0.132 NA
ATOM     68  N   UNL     1      30.167  21.269  23.477  1.00  0.00    -0.252 N 
ATOM     69  N   UNL     1      29.218  21.952  22.890  1.00  0.00    -0.067 NA
BRANCH  68  70
ATOM     70  C   UNL     1      31.181  21.762  24.419  1.00  0.00     0.146 C 
BRANCH  70  71
ATOM     71  C   UNL     1      31.854  20.582  25.068  1.00  0.00     0.024 C 
BRANCH  71  72
ATOM     72  C   UNL     1      31.310  20.437  26.473  1.00  0.00     0.006 C 
BRANCH  72  73
ATOM     73  C   UNL     1      32.374  19.859  27.378  1.00  0.00     0.027 C 
BRANCH  73  74
ATOM     74  C   UNL     1      31.803  18.868  28.317  1.00  0.00    -0.035 C 
ATOM     75  C   UNL     1      31.451  17.671  27.893  1.00  0.00     0.004 C 
ENDBRANCH  73  74
ENDBRANCH  72  73
ENDBRANCH  71  72
ENDBRANCH  70  71
ENDBRANCH  68  70
ENDBRANCH  64  65
ENDBRANCH  63  64
ENDBRANCH  60  63
ENDBRANCH  58  59
ENDBRANCH  55  58
ENDBRANCH   1  55
TORSDOF 34
