REMARK VINA RESULT:    -6.261      2.830      9.307
REMARK INTER + INTRA:         -23.178
REMARK INTER:                 -16.547
REMARK INTRA:                  -6.631
REMARK UNBOUND:                -7.033
REMARK SMILES CC(=O)N[C@@H]1[C@@H](O)C[C@](OC[C@H]2O[C@@H](O[C@H]3[C@H](O)[C@@H](O)[C@H](OCCN=[N+]=[N-])O[C@@H]3CO)[C@H](O)[C@@H](O)[C@H]2O)(C(=O)O)O[C@H]1C(O)[C@H](O)CNC(=O)OCc1cn(C(C)(C)C(=O)c2c[nH]c3ccccc23)nn1
REMARK SMILES IDX 9 1 8 2 6 3 5 4 42 5 41 6 10 7 11 8 12 9 14 10 13 11 32 12
REMARK SMILES IDX 34 13 36 14 15 15 16 16 29 17 28 18 21 19 17 20 19 21 30 22
REMARK SMILES IDX 31 23 22 25 23 26 24 27 25 28 26 29 27 30 18 31 20 33 33 35
REMARK SMILES IDX 35 37 37 39 38 41 39 42 40 43 7 45 43 47 44 48 45 50 46 51
REMARK SMILES IDX 47 53 48 54 49 55 50 57 51 58 52 59 53 60 54 61 71 62 55 63
REMARK SMILES IDX 70 64 56 65 57 66 58 67 59 68 60 69 61 70 62 71 69 72 63 73
REMARK SMILES IDX 64 74 68 75 65 77 67 78 66 79 4 80 2 81 1 83 3 84
REMARK H PARENT 31 24 18 32 20 34 33 36 35 38 37 40 40 44 7 46 44 49 46 52
REMARK H PARENT 48 56 63 76 4 82
REMARK Flexibility Score: inf
ROOT
ATOM      1  C   UNL     1      14.395  32.182  16.688  1.00  0.00     0.272 C 
ATOM      2  C   UNL     1      13.009  31.716  16.277  1.00  0.00     0.113 C 
ATOM      3  C   UNL     1      12.930  30.213  16.180  1.00  0.00     0.145 C 
ATOM      4  C   UNL     1      13.812  29.751  14.968  1.00  0.00     0.142 C 
ATOM      5  C   UNL     1      14.984  30.678  14.971  1.00  0.00     0.178 C 
ATOM      6  O   UNL     1      15.233  31.158  16.240  1.00  0.00    -0.332 OA
ENDROOT
BRANCH   1   7
ATOM      7  O   UNL     1      14.589  32.471  17.977  1.00  0.00    -0.338 OA
BRANCH   7   8
ATOM      8  C   UNL     1      14.736  31.790  19.063  1.00  0.00     0.199 C 
BRANCH   8   9
ATOM      9  C   UNL     1      16.139  31.837  19.673  1.00  0.00     0.179 C 
ATOM     10  C   UNL     1      15.645  31.329  21.936  1.00  0.00     0.282 C 
ATOM     11  O   UNL     1      16.095  32.172  20.983  1.00  0.00    -0.341 OA
ATOM     12  C   UNL     1      16.146  29.918  21.797  1.00  0.00     0.202 C 
ATOM     13  C   UNL     1      17.225  29.856  20.723  1.00  0.00     0.179 C 
ATOM     14  C   UNL     1      16.801  30.503  19.459  1.00  0.00     0.177 C 
BRANCH  10  15
ATOM     15  O   UNL     1      14.261  31.311  21.959  1.00  0.00    -0.341 OA
BRANCH  15  16
ATOM     16  C   UNL     1      13.722  31.870  23.081  1.00  0.00     0.184 C 
ATOM     17  C   UNL     1      12.663  31.108  23.792  1.00  0.00     0.178 C 
ATOM     18  O   UNL     1      12.598  31.638  25.097  1.00  0.00    -0.341 OA
ATOM     19  C   UNL     1      12.232  32.952  25.142  1.00  0.00     0.281 C 
ATOM     20  C   UNL     1      13.190  33.271  22.852  1.00  0.00     0.180 C 
ATOM     21  C   UNL     1      13.020  33.869  24.232  1.00  0.00     0.202 C 
BRANCH  17  22
ATOM     22  C   UNL     1      12.962  29.634  23.972  1.00  0.00     0.191 C 
BRANCH  22  23
ATOM     23  O   UNL     1      11.749  28.947  23.841  1.00  0.00    -0.394 OA
ATOM     24  H   UNL     1      11.068  29.252  24.483  1.00  0.00     0.210 HD
ENDBRANCH  22  23
ENDBRANCH  17  22
BRANCH  19  25
ATOM     25  O   UNL     1      12.463  33.414  26.441  1.00  0.00    -0.350 OA
BRANCH  25  26
ATOM     26  C   UNL     1      13.822  33.358  26.689  1.00  0.00     0.169 C 
BRANCH  26  27
ATOM     27  C   UNL     1      14.151  32.575  27.931  1.00  0.00     0.119 C 
BRANCH  27  28
ATOM     28  N   UNL     1      15.389  31.834  27.834  1.00  0.00    -0.092 NA
ATOM     29  N   UNL     1      15.579  31.021  26.906  1.00  0.00     0.001 N 
ATOM     30  N   UNL     1      15.890  30.643  25.774  1.00  0.00    -0.003 NA
ENDBRANCH  27  28
ENDBRANCH  26  27
ENDBRANCH  25  26
ENDBRANCH  19  25
BRANCH  20  31
ATOM     31  O   UNL     1      14.038  34.056  22.106  1.00  0.00    -0.387 OA
ATOM     32  H   UNL     1      14.141  33.643  21.221  1.00  0.00     0.211 HD
ENDBRANCH  20  31
BRANCH  21  33
ATOM     33  O   UNL     1      12.285  35.046  24.098  1.00  0.00    -0.385 OA
ATOM     34  H   UNL     1      11.819  35.096  23.219  1.00  0.00     0.211 HD
ENDBRANCH  21  33
ENDBRANCH  15  16
ENDBRANCH  10  15
BRANCH  12  35
ATOM     35  O   UNL     1      16.614  29.366  22.989  1.00  0.00    -0.385 OA
ATOM     36  H   UNL     1      17.043  30.066  23.525  1.00  0.00     0.211 HD
ENDBRANCH  12  35
BRANCH  13  37
ATOM     37  O   UNL     1      17.471  28.475  20.536  1.00  0.00    -0.387 OA
ATOM     38  H   UNL     1      17.781  28.057  21.375  1.00  0.00     0.211 HD
ENDBRANCH  13  37
BRANCH  14  39
ATOM     39  O   UNL     1      15.867  29.686  18.773  1.00  0.00    -0.387 OA
ATOM     40  H   UNL     1      15.610  28.925  19.356  1.00  0.00     0.211 HD
ENDBRANCH  14  39
ENDBRANCH   8   9
ENDBRANCH   7   8
ENDBRANCH   1   7
BRANCH   1  41
ATOM     41  C   UNL     1      14.692  33.417  15.928  1.00  0.00     0.364 C 
ATOM     42  O   UNL     1      15.891  33.698  15.675  1.00  0.00    -0.246 OA
BRANCH  41  43
ATOM     43  O   UNL     1      13.741  34.280  15.484  1.00  0.00    -0.477 OA
ATOM     44  H   UNL     1      13.884  35.234  15.157  1.00  0.00     0.296 HD
ENDBRANCH  41  43
ENDBRANCH   1  41
BRANCH   3  45
ATOM     45  O   UNL     1      13.461  29.519  17.242  1.00  0.00    -0.391 OA
ATOM     46  H   UNL     1      14.425  29.722  17.408  1.00  0.00     0.211 HD
ENDBRANCH   3  45
BRANCH   5  47
ATOM     47  C   UNL     1      16.273  30.154  14.454  1.00  0.00     0.176 C 
BRANCH  47  48
ATOM     48  O   UNL     1      17.179  31.138  14.128  1.00  0.00    -0.388 OA
ATOM     49  H   UNL     1      17.832  30.887  13.416  1.00  0.00     0.211 HD
ENDBRANCH  47  48
BRANCH  47  50
ATOM     50  C   UNL     1      16.875  28.976  15.187  1.00  0.00     0.165 C 
BRANCH  50  51
ATOM     51  O   UNL     1      16.021  28.385  16.059  1.00  0.00    -0.388 OA
ATOM     52  H   UNL     1      16.034  28.788  16.940  1.00  0.00     0.211 HD
ENDBRANCH  50  51
BRANCH  50  53
ATOM     53  C   UNL     1      18.215  29.380  15.708  1.00  0.00     0.154 C 
BRANCH  53  54
ATOM     54  N   UNL     1      18.513  29.077  17.057  1.00  0.00    -0.319 N 
ATOM     55  C   UNL     1      19.611  28.243  17.466  1.00  0.00     0.407 C 
ATOM     56  H   UNL     1      17.912  29.470  17.842  1.00  0.00     0.167 HD
ATOM     57  O   UNL     1      20.372  27.709  16.634  1.00  0.00    -0.225 OA
BRANCH  55  58
ATOM     58  O   UNL     1      19.859  28.006  18.805  1.00  0.00    -0.443 OA
BRANCH  58  59
ATOM     59  C   UNL     1      20.825  28.719  19.523  1.00  0.00     0.294 C 
BRANCH  59  60
ATOM     60  C   UNL     1      20.937  28.109  20.884  1.00  0.00     0.120 A 
ATOM     61  C   UNL     1      21.539  26.869  21.168  1.00  0.00     0.139 A 
ATOM     62  N   UNL     1      20.503  28.540  22.075  1.00  0.00    -0.132 NA
ATOM     63  N   UNL     1      21.443  26.613  22.479  1.00  0.00    -0.239 N 
ATOM     64  N   UNL     1      20.816  27.631  23.016  1.00  0.00    -0.066 NA
BRANCH  63  65
ATOM     65  C   UNL     1      21.953  25.426  23.133  1.00  0.00     0.122 C 
ATOM     66  C   UNL     1      22.566  24.533  21.999  1.00  0.00     0.046 C 
ATOM     67  C   UNL     1      20.874  24.548  23.721  1.00  0.00     0.046 C 
BRANCH  65  68
ATOM     68  C   UNL     1      23.035  25.723  24.052  1.00  0.00     0.192 C 
ATOM     69  O   UNL     1      23.978  26.472  23.544  1.00  0.00    -0.291 OA
BRANCH  68  70
ATOM     70  C   UNL     1      23.245  25.335  25.413  1.00  0.00     0.045 A 
ATOM     71  C   UNL     1      24.157  24.347  25.806  1.00  0.00     0.095 A 
ATOM     72  C   UNL     1      22.636  25.783  26.568  1.00  0.00     0.010 A 
ATOM     73  N   UNL     1      24.082  24.224  27.116  1.00  0.00    -0.360 N 
ATOM     74  C   UNL     1      23.183  25.062  27.633  1.00  0.00     0.046 A 
ATOM     75  C   UNL     1      21.678  26.716  26.856  1.00  0.00     0.011 A 
ATOM     76  H   UNL     1      24.675  23.536  27.663  1.00  0.00     0.166 HD
ATOM     77  C   UNL     1      22.773  25.282  28.936  1.00  0.00     0.027 A 
ATOM     78  C   UNL     1      21.267  26.934  28.170  1.00  0.00     0.001 A 
ATOM     79  C   UNL     1      21.814  26.219  29.194  1.00  0.00     0.002 A 
ENDBRANCH  68  70
ENDBRANCH  65  68
ENDBRANCH  63  65
ENDBRANCH  59  60
ENDBRANCH  58  59
ENDBRANCH  55  58
ENDBRANCH  53  54
ENDBRANCH  50  53
ENDBRANCH  47  50
ENDBRANCH   5  47
BRANCH   4  80
ATOM     80  N   UNL     1      12.942  30.019  13.826  1.00  0.00    -0.348 N 
ATOM     81  C   UNL     1      12.123  29.041  13.208  1.00  0.00     0.217 C 
ATOM     82  H   UNL     1      12.915  30.996  13.428  1.00  0.00     0.163 HD
ATOM     83  C   UNL     1      11.241  29.317  12.043  1.00  0.00     0.114 C 
ATOM     84  O   UNL     1      12.173  27.865  13.707  1.00  0.00    -0.275 OA
ENDBRANCH   4  80
TORSDOF 32
