REMARK VINA RESULT:    -6.117      3.358     11.145
REMARK INTER + INTRA:         -21.970
REMARK INTER:                 -13.602
REMARK INTRA:                  -8.368
REMARK UNBOUND:                -6.197
REMARK SMILES CC(=O)N[C@@H]1[C@@H](O)C[C@](OC[C@H]2O[C@@H](O[C@H]3[C@H](O)[C@@H](O)[C@H](OCCN=[N+]=[N-])O[C@@H]3CO)[C@H](O)[C@@H](O)[C@H]2O)(C(=O)O)O[C@H]1C(O)[C@H](O)CNC(=O)OCc1cn(Cc2cccc(C#N)c2)nn1
REMARK SMILES IDX 9 1 8 2 6 3 5 4 42 5 41 6 10 7 11 8 12 9 14 10 13 11 32 12
REMARK SMILES IDX 34 13 36 14 15 15 16 16 29 17 28 18 21 19 17 20 19 21 30 22
REMARK SMILES IDX 31 23 22 25 23 26 24 27 25 28 26 29 27 30 18 31 20 33 33 35
REMARK SMILES IDX 35 37 37 39 38 41 39 42 40 43 7 45 43 47 44 48 45 50 46 51
REMARK SMILES IDX 47 53 48 54 49 55 50 57 51 58 52 59 53 60 54 61 66 62 55 63
REMARK SMILES IDX 65 64 56 65 57 66 58 67 64 68 59 69 61 70 60 71 62 72 63 73
REMARK SMILES IDX 4 74 2 75 1 77 3 78
REMARK H PARENT 31 24 18 32 20 34 33 36 35 38 37 40 40 44 7 46 44 49 46 52
REMARK H PARENT 48 56 4 76
REMARK Flexibility Score: inf
ROOT
ATOM      1  C   UNL     1      23.462  25.503  22.939  1.00  0.00     0.272 C 
ATOM      2  C   UNL     1      22.466  24.515  23.497  1.00  0.00     0.113 C 
ATOM      3  C   UNL     1      21.514  25.007  24.503  1.00  0.00     0.145 C 
ATOM      4  C   UNL     1      22.113  26.126  25.362  1.00  0.00     0.142 C 
ATOM      5  C   UNL     1      22.811  27.143  24.576  1.00  0.00     0.178 C 
ATOM      6  O   UNL     1      23.391  26.775  23.406  1.00  0.00    -0.332 OA
ENDROOT
BRANCH   1   7
ATOM      7  O   UNL     1      23.338  25.533  21.625  1.00  0.00    -0.338 OA
BRANCH   7   8
ATOM      8  C   UNL     1      22.613  25.475  20.614  1.00  0.00     0.199 C 
BRANCH   8   9
ATOM      9  C   UNL     1      22.393  26.531  19.567  1.00  0.00     0.179 C 
ATOM     10  C   UNL     1      20.785  27.831  18.673  1.00  0.00     0.282 C 
ATOM     11  O   UNL     1      21.138  27.184  19.865  1.00  0.00    -0.341 OA
ATOM     12  C   UNL     1      21.681  28.988  18.386  1.00  0.00     0.202 C 
ATOM     13  C   UNL     1      23.140  28.674  18.660  1.00  0.00     0.179 C 
ATOM     14  C   UNL     1      23.354  27.716  19.781  1.00  0.00     0.177 C 
BRANCH  10  15
ATOM     15  O   UNL     1      19.465  28.266  18.767  1.00  0.00    -0.341 OA
BRANCH  15  16
ATOM     16  C   UNL     1      19.334  29.616  18.572  1.00  0.00     0.184 C 
ATOM     17  C   UNL     1      18.658  30.303  19.701  1.00  0.00     0.178 C 
ATOM     18  O   UNL     1      18.442  31.645  19.489  1.00  0.00    -0.341 OA
ATOM     19  C   UNL     1      17.829  31.977  18.301  1.00  0.00     0.281 C 
ATOM     20  C   UNL     1      18.329  29.754  17.382  1.00  0.00     0.180 C 
ATOM     21  C   UNL     1      18.318  31.241  17.095  1.00  0.00     0.202 C 
BRANCH  17  22
ATOM     22  C   UNL     1      19.481  30.188  20.964  1.00  0.00     0.191 C 
BRANCH  22  23
ATOM     23  O   UNL     1      19.179  28.990  21.618  1.00  0.00    -0.394 OA
ATOM     24  H   UNL     1      19.967  28.475  21.859  1.00  0.00     0.210 HD
ENDBRANCH  22  23
ENDBRANCH  17  22
BRANCH  19  25
ATOM     25  O   UNL     1      18.117  33.339  18.071  1.00  0.00    -0.350 OA
BRANCH  25  26
ATOM     26  C   UNL     1      19.474  33.531  18.044  1.00  0.00     0.169 C 
BRANCH  26  27
ATOM     27  C   UNL     1      19.871  34.776  17.302  1.00  0.00     0.119 C 
BRANCH  27  28
ATOM     28  N   UNL     1      20.458  34.506  16.011  1.00  0.00    -0.092 NA
ATOM     29  N   UNL     1      19.773  33.925  15.158  1.00  0.00     0.001 N 
ATOM     30  N   UNL     1      19.221  33.269  14.245  1.00  0.00    -0.003 NA
ENDBRANCH  27  28
ENDBRANCH  26  27
ENDBRANCH  25  26
ENDBRANCH  19  25
BRANCH  20  31
ATOM     31  O   UNL     1      18.803  28.989  16.350  1.00  0.00    -0.387 OA
ATOM     32  H   UNL     1      18.121  28.866  15.629  1.00  0.00     0.211 HD
ENDBRANCH  20  31
BRANCH  21  33
ATOM     33  O   UNL     1      17.427  31.456  16.047  1.00  0.00    -0.385 OA
ATOM     34  H   UNL     1      16.958  30.585  15.888  1.00  0.00     0.211 HD
ENDBRANCH  21  33
ENDBRANCH  15  16
ENDBRANCH  10  15
BRANCH  12  35
ATOM     35  O   UNL     1      21.624  29.245  16.998  1.00  0.00    -0.385 OA
ATOM     36  H   UNL     1      21.847  28.390  16.555  1.00  0.00     0.211 HD
ENDBRANCH  12  35
BRANCH  13  37
ATOM     37  O   UNL     1      23.729  29.892  19.033  1.00  0.00    -0.387 OA
ATOM     38  H   UNL     1      24.529  29.781  19.582  1.00  0.00     0.211 HD
ENDBRANCH  13  37
BRANCH  14  39
ATOM     39  O   UNL     1      22.954  28.368  20.959  1.00  0.00    -0.387 OA
ATOM     40  H   UNL     1      22.257  29.034  20.796  1.00  0.00     0.211 HD
ENDBRANCH  14  39
ENDBRANCH   8   9
ENDBRANCH   7   8
ENDBRANCH   1   7
BRANCH   1  41
ATOM     41  C   UNL     1      24.817  25.004  23.371  1.00  0.00     0.364 C 
ATOM     42  O   UNL     1      25.865  25.311  22.709  1.00  0.00    -0.246 OA
BRANCH  41  43
ATOM     43  O   UNL     1      24.976  24.213  24.476  1.00  0.00    -0.477 OA
ATOM     44  H   UNL     1      24.780  24.644  25.394  1.00  0.00     0.296 HD
ENDBRANCH  41  43
ENDBRANCH   1  41
BRANCH   3  45
ATOM     45  O   UNL     1      20.366  25.484  23.885  1.00  0.00    -0.391 OA
ATOM     46  H   UNL     1      20.552  26.079  23.121  1.00  0.00     0.211 HD
ENDBRANCH   3  45
BRANCH   5  47
ATOM     47  C   UNL     1      21.971  28.339  24.176  1.00  0.00     0.176 C 
BRANCH  47  48
ATOM     48  O   UNL     1      21.240  27.877  23.031  1.00  0.00    -0.388 OA
ATOM     49  H   UNL     1      20.573  27.234  23.362  1.00  0.00     0.211 HD
ENDBRANCH  47  48
BRANCH  47  50
ATOM     50  C   UNL     1      20.946  28.833  25.109  1.00  0.00     0.165 C 
BRANCH  50  51
ATOM     51  O   UNL     1      19.706  28.460  24.430  1.00  0.00    -0.388 OA
ATOM     52  H   UNL     1      19.495  29.203  23.789  1.00  0.00     0.211 HD
ENDBRANCH  50  51
BRANCH  50  53
ATOM     53  C   UNL     1      20.799  30.298  25.296  1.00  0.00     0.154 C 
BRANCH  53  54
ATOM     54  N   UNL     1      19.596  30.898  24.817  1.00  0.00    -0.319 N 
ATOM     55  C   UNL     1      18.593  31.326  25.749  1.00  0.00     0.407 C 
ATOM     56  H   UNL     1      19.397  31.053  23.821  1.00  0.00     0.167 HD
ATOM     57  O   UNL     1      18.832  31.148  26.965  1.00  0.00    -0.225 OA
BRANCH  55  58
ATOM     58  O   UNL     1      17.418  31.909  25.371  1.00  0.00    -0.443 OA
BRANCH  58  59
ATOM     59  C   UNL     1      16.155  31.225  25.500  1.00  0.00     0.294 C 
BRANCH  59  60
ATOM     60  C   UNL     1      15.913  30.421  24.268  1.00  0.00     0.120 A 
ATOM     61  C   UNL     1      14.696  30.116  23.704  1.00  0.00     0.138 A 
ATOM     62  N   UNL     1      16.832  29.843  23.488  1.00  0.00    -0.132 NA
ATOM     63  N   UNL     1      14.895  29.358  22.588  1.00  0.00    -0.248 N 
ATOM     64  N   UNL     1      16.207  29.211  22.485  1.00  0.00    -0.067 NA
BRANCH  63  65
ATOM     65  C   UNL     1      13.876  28.831  21.728  1.00  0.00     0.181 C 
BRANCH  65  66
ATOM     66  C   UNL     1      13.651  29.766  20.602  1.00  0.00    -0.025 A 
ATOM     67  C   UNL     1      12.950  30.937  20.726  1.00  0.00     0.006 A 
ATOM     68  C   UNL     1      14.168  29.455  19.349  1.00  0.00     0.025 A 
ATOM     69  C   UNL     1      12.743  31.794  19.678  1.00  0.00     0.002 A 
ATOM     70  C   UNL     1      13.961  30.314  18.299  1.00  0.00     0.052 A 
ATOM     71  C   UNL     1      13.247  31.507  18.417  1.00  0.00     0.019 A 
BRANCH  70  72
ATOM     72  C   UNL     1      14.503  29.986  17.006  1.00  0.00     0.099 C 
ATOM     73  N   UNL     1      14.945  29.705  15.960  1.00  0.00    -0.192 NA
ENDBRANCH  70  72
ENDBRANCH  65  66
ENDBRANCH  63  65
ENDBRANCH  59  60
ENDBRANCH  58  59
ENDBRANCH  55  58
ENDBRANCH  53  54
ENDBRANCH  50  53
ENDBRANCH  47  50
ENDBRANCH   5  47
BRANCH   4  74
ATOM     74  N   UNL     1      22.873  25.516  26.451  1.00  0.00    -0.348 N 
ATOM     75  C   UNL     1      22.512  25.793  27.785  1.00  0.00     0.217 C 
ATOM     76  H   UNL     1      23.678  24.873  26.316  1.00  0.00     0.163 HD
ATOM     77  C   UNL     1      23.231  25.217  28.957  1.00  0.00     0.114 C 
ATOM     78  O   UNL     1      21.554  26.554  27.998  1.00  0.00    -0.275 OA
ENDBRANCH   4  74
TORSDOF 32
