REMARK VINA RESULT:    -6.919      3.718     10.835
REMARK INTER + INTRA:         -22.625
REMARK INTER:                 -14.767
REMARK INTRA:                  -7.858
REMARK UNBOUND:                -5.593
REMARK SMILES CC(=O)N[C@@H]1[C@@H](O)C[C@](OC[C@H]2O[C@@H](O[C@H]3[C@H](O)[C@@H](O)[C@H](OCCN=[N+]=[N-])O[C@@H]3CO)[C@H](O)[C@@H](O)[C@H]2O)(C(=O)O)O[C@H]1C(O)[C@H](O)CNC(=O)OCc1cn(C2c3ccccc3-c3ccccc32)nn1
REMARK SMILES IDX 9 1 8 2 6 3 5 4 42 5 41 6 10 7 11 8 12 9 14 10 13 11 32 12
REMARK SMILES IDX 34 13 36 14 15 15 16 16 29 17 28 18 21 19 17 20 19 21 30 22
REMARK SMILES IDX 31 23 22 25 23 26 24 27 25 28 26 29 27 30 18 31 20 33 33 35
REMARK SMILES IDX 35 37 37 39 38 41 39 42 40 43 7 45 43 47 44 48 45 50 46 51
REMARK SMILES IDX 47 53 48 54 49 55 50 57 51 58 52 59 53 60 54 61 70 62 55 63
REMARK SMILES IDX 69 64 56 65 57 66 68 67 58 68 62 69 63 70 67 71 59 72 61 73
REMARK SMILES IDX 64 74 66 75 60 76 65 77 4 78 2 79 1 81 3 82
REMARK H PARENT 31 24 18 32 20 34 33 36 35 38 37 40 40 44 7 46 44 49 46 52
REMARK H PARENT 48 56 4 80
REMARK Flexibility Score: inf
ROOT
ATOM      1  C   UNL     1      15.032  35.054  22.313  1.00  0.00     0.272 C 
ATOM      2  C   UNL     1      15.869  35.699  21.284  1.00  0.00     0.113 C 
ATOM      3  C   UNL     1      17.120  34.956  21.002  1.00  0.00     0.145 C 
ATOM      4  C   UNL     1      17.541  34.024  22.104  1.00  0.00     0.142 C 
ATOM      5  C   UNL     1      17.044  34.556  23.403  1.00  0.00     0.178 C 
ATOM      6  O   UNL     1      15.711  34.789  23.512  1.00  0.00    -0.332 OA
ENDROOT
BRANCH   1   7
ATOM      7  O   UNL     1      14.444  33.892  21.890  1.00  0.00    -0.338 OA
BRANCH   7   8
ATOM      8  C   UNL     1      13.963  33.054  22.857  1.00  0.00     0.199 C 
BRANCH   8   9
ATOM      9  C   UNL     1      12.757  32.302  22.338  1.00  0.00     0.179 C 
ATOM     10  C   UNL     1      14.054  30.577  21.422  1.00  0.00     0.282 C 
ATOM     11  O   UNL     1      13.146  31.581  21.233  1.00  0.00    -0.341 OA
ATOM     12  C   UNL     1      13.709  29.751  22.601  1.00  0.00     0.202 C 
ATOM     13  C   UNL     1      12.201  29.966  22.831  1.00  0.00     0.179 C 
ATOM     14  C   UNL     1      12.139  31.408  23.378  1.00  0.00     0.177 C 
BRANCH  10  15
ATOM     15  O   UNL     1      15.344  31.020  21.305  1.00  0.00    -0.341 OA
BRANCH  15  16
ATOM     16  C   UNL     1      16.029  30.641  20.182  1.00  0.00     0.184 C 
ATOM     17  C   UNL     1      15.128  30.564  19.008  1.00  0.00     0.178 C 
ATOM     18  O   UNL     1      15.401  29.488  18.169  1.00  0.00    -0.341 OA
ATOM     19  C   UNL     1      16.715  29.159  18.103  1.00  0.00     0.281 C 
ATOM     20  C   UNL     1      16.641  29.290  20.544  1.00  0.00     0.180 C 
ATOM     21  C   UNL     1      17.089  28.467  19.409  1.00  0.00     0.202 C 
BRANCH  17  22
ATOM     22  C   UNL     1      15.190  31.815  18.159  1.00  0.00     0.191 C 
BRANCH  22  23
ATOM     23  O   UNL     1      14.756  32.939  18.902  1.00  0.00    -0.394 OA
ATOM     24  H   UNL     1      15.089  33.778  18.463  1.00  0.00     0.210 HD
ENDBRANCH  22  23
ENDBRANCH  17  22
BRANCH  19  25
ATOM     25  O   UNL     1      17.610  30.199  17.938  1.00  0.00    -0.350 OA
BRANCH  25  26
ATOM     26  C   UNL     1      18.706  29.889  17.183  1.00  0.00     0.169 C 
BRANCH  26  27
ATOM     27  C   UNL     1      20.037  30.181  17.784  1.00  0.00     0.119 C 
BRANCH  27  28
ATOM     28  N   UNL     1      20.659  29.022  18.391  1.00  0.00    -0.092 NA
ATOM     29  N   UNL     1      21.124  28.178  17.614  1.00  0.00     0.001 N 
ATOM     30  N   UNL     1      21.519  27.244  16.906  1.00  0.00    -0.003 NA
ENDBRANCH  27  28
ENDBRANCH  26  27
ENDBRANCH  25  26
ENDBRANCH  19  25
BRANCH  20  31
ATOM     31  O   UNL     1      17.759  29.507  21.394  1.00  0.00    -0.387 OA
ATOM     32  H   UNL     1      17.779  28.827  22.113  1.00  0.00     0.211 HD
ENDBRANCH  20  31
BRANCH  21  33
ATOM     33  O   UNL     1      16.429  27.231  19.411  1.00  0.00    -0.385 OA
ATOM     34  H   UNL     1      15.767  27.154  20.146  1.00  0.00     0.211 HD
ENDBRANCH  21  33
ENDBRANCH  15  16
ENDBRANCH  10  15
BRANCH  12  35
ATOM     35  O   UNL     1      13.846  28.381  22.382  1.00  0.00    -0.385 OA
ATOM     36  H   UNL     1      12.946  27.986  22.301  1.00  0.00     0.211 HD
ENDBRANCH  12  35
BRANCH  13  37
ATOM     37  O   UNL     1      11.716  29.142  23.819  1.00  0.00    -0.387 OA
ATOM     38  H   UNL     1      11.482  29.695  24.603  1.00  0.00     0.211 HD
ENDBRANCH  13  37
BRANCH  14  39
ATOM     39  O   UNL     1      12.929  31.409  24.512  1.00  0.00    -0.387 OA
ATOM     40  H   UNL     1      12.403  31.404  25.349  1.00  0.00     0.211 HD
ENDBRANCH  14  39
ENDBRANCH   8   9
ENDBRANCH   7   8
ENDBRANCH   1   7
BRANCH   1  41
ATOM     41  C   UNL     1      13.945  36.022  22.781  1.00  0.00     0.364 C 
ATOM     42  O   UNL     1      13.837  36.216  23.996  1.00  0.00    -0.246 OA
BRANCH  41  43
ATOM     43  O   UNL     1      13.114  36.657  21.892  1.00  0.00    -0.477 OA
ATOM     44  H   UNL     1      13.179  36.485  20.882  1.00  0.00     0.296 HD
ENDBRANCH  41  43
ENDBRANCH   1  41
BRANCH   3  45
ATOM     45  O   UNL     1      17.131  34.259  19.793  1.00  0.00    -0.391 OA
ATOM     46  H   UNL     1      18.018  34.146  19.421  1.00  0.00     0.211 HD
ENDBRANCH   3  45
BRANCH   5  47
ATOM     47  C   UNL     1      17.464  33.596  24.514  1.00  0.00     0.176 C 
BRANCH  47  48
ATOM     48  O   UNL     1      18.744  33.886  24.909  1.00  0.00    -0.388 OA
ATOM     49  H   UNL     1      19.202  33.076  25.289  1.00  0.00     0.211 HD
ENDBRANCH  47  48
BRANCH  47  50
ATOM     50  C   UNL     1      17.333  32.195  23.997  1.00  0.00     0.165 C 
BRANCH  50  51
ATOM     51  O   UNL     1      16.042  31.711  24.273  1.00  0.00    -0.388 OA
ATOM     52  H   UNL     1      15.877  31.695  25.242  1.00  0.00     0.211 HD
ENDBRANCH  50  51
BRANCH  50  53
ATOM     53  C   UNL     1      18.272  31.323  24.840  1.00  0.00     0.154 C 
BRANCH  53  54
ATOM     54  N   UNL     1      19.528  31.243  24.160  1.00  0.00    -0.319 N 
ATOM     55  C   UNL     1      20.195  30.008  24.019  1.00  0.00     0.407 C 
ATOM     56  H   UNL     1      19.959  32.111  23.760  1.00  0.00     0.167 HD
ATOM     57  O   UNL     1      19.713  28.948  24.494  1.00  0.00    -0.225 OA
BRANCH  55  58
ATOM     58  O   UNL     1      21.401  29.901  23.356  1.00  0.00    -0.443 OA
BRANCH  58  59
ATOM     59  C   UNL     1      21.502  29.514  21.994  1.00  0.00     0.294 C 
BRANCH  59  60
ATOM     60  C   UNL     1      21.411  28.033  21.946  1.00  0.00     0.120 A 
ATOM     61  C   UNL     1      22.316  27.102  22.439  1.00  0.00     0.139 A 
ATOM     62  N   UNL     1      20.416  27.310  21.410  1.00  0.00    -0.132 NA
ATOM     63  N   UNL     1      21.852  25.866  22.193  1.00  0.00    -0.240 N 
ATOM     64  N   UNL     1      20.696  26.028  21.567  1.00  0.00    -0.066 NA
BRANCH  63  65
ATOM     65  C   UNL     1      22.496  24.601  22.548  1.00  0.00     0.170 C 
ATOM     66  C   UNL     1      22.771  24.616  23.987  1.00  0.00    -0.011 A 
ATOM     67  C   UNL     1      23.830  24.510  21.929  1.00  0.00    -0.011 A 
ATOM     68  C   UNL     1      21.933  24.686  25.093  1.00  0.00     0.007 A 
ATOM     69  C   UNL     1      24.117  24.547  24.227  1.00  0.00    -0.012 A 
ATOM     70  C   UNL     1      24.777  24.480  22.925  1.00  0.00    -0.012 A 
ATOM     71  C   UNL     1      24.253  24.451  20.615  1.00  0.00     0.007 A 
ATOM     72  C   UNL     1      22.448  24.684  26.370  1.00  0.00     0.000 A 
ATOM     73  C   UNL     1      24.635  24.545  25.514  1.00  0.00     0.009 A 
ATOM     74  C   UNL     1      26.119  24.394  22.628  1.00  0.00     0.009 A 
ATOM     75  C   UNL     1      25.589  24.365  20.296  1.00  0.00     0.000 A 
ATOM     76  C   UNL     1      23.812  24.614  26.613  1.00  0.00     0.001 A 
ATOM     77  C   UNL     1      26.526  24.336  21.307  1.00  0.00     0.001 A 
ENDBRANCH  63  65
ENDBRANCH  59  60
ENDBRANCH  58  59
ENDBRANCH  55  58
ENDBRANCH  53  54
ENDBRANCH  50  53
ENDBRANCH  47  50
ENDBRANCH   5  47
BRANCH   4  78
ATOM     78  N   UNL     1      19.013  34.100  22.167  1.00  0.00    -0.348 N 
ATOM     79  C   UNL     1      19.836  33.109  21.572  1.00  0.00     0.217 C 
ATOM     80  H   UNL     1      19.429  34.900  22.663  1.00  0.00     0.163 HD
ATOM     81  C   UNL     1      21.328  33.201  21.644  1.00  0.00     0.114 C 
ATOM     82  O   UNL     1      19.271  32.149  20.978  1.00  0.00    -0.275 OA
ENDBRANCH   4  78
TORSDOF 30
