REMARK VINA RESULT:    -6.048      9.106     12.266
REMARK INTER + INTRA:         -21.104
REMARK INTER:                 -13.596
REMARK INTRA:                  -7.507
REMARK UNBOUND:                -5.863
REMARK SMILES CC(=O)N[C@@H]1[C@@H](O)C[C@](OC[C@H]2O[C@@H](O[C@H]3[C@H](O)[C@@H](O)[C@H](OCCN=[N+]=[N-])O[C@@H]3CO)[C@H](O)[C@@H](O)[C@H]2O)(C(=O)O)O[C@H]1C(O)[C@H](O)CNC(=O)OCc1cn(-c2ncccc2C#N)nn1
REMARK SMILES IDX 9 1 8 2 6 3 5 4 42 5 41 6 10 7 11 8 12 9 14 10 13 11 32 12
REMARK SMILES IDX 34 13 36 14 15 15 16 16 29 17 28 18 21 19 17 20 19 21 30 22
REMARK SMILES IDX 31 23 22 25 23 26 24 27 25 28 26 29 27 30 18 31 20 33 33 35
REMARK SMILES IDX 35 37 37 39 38 41 39 42 40 43 7 45 43 47 44 48 45 50 46 51
REMARK SMILES IDX 47 53 48 54 49 55 50 57 51 58 52 59 53 60 54 61 65 62 55 63
REMARK SMILES IDX 64 64 56 65 57 66 61 67 58 68 60 69 59 70 62 71 63 72 4 73
REMARK SMILES IDX 2 74 1 76 3 77
REMARK H PARENT 31 24 18 32 20 34 33 36 35 38 37 40 40 44 7 46 44 49 46 52
REMARK H PARENT 48 56 4 75
REMARK Flexibility Score: inf
ROOT
ATOM      1  C   UNL     1      28.807  20.600  20.018  1.00  0.00     0.272 C 
ATOM      2  C   UNL     1      28.417  20.791  21.422  1.00  0.00     0.113 C 
ATOM      3  C   UNL     1      29.560  20.802  22.360  1.00  0.00     0.145 C 
ATOM      4  C   UNL     1      30.865  21.287  21.819  1.00  0.00     0.142 C 
ATOM      5  C   UNL     1      30.854  21.795  20.406  1.00  0.00     0.178 C 
ATOM      6  O   UNL     1      29.942  21.268  19.621  1.00  0.00    -0.332 OA
ENDROOT
BRANCH   1   7
ATOM      7  O   UNL     1      27.941  20.815  19.023  1.00  0.00    -0.338 OA
BRANCH   7   8
ATOM      8  C   UNL     1      27.939  21.511  17.929  1.00  0.00     0.199 C 
BRANCH   8   9
ATOM      9  C   UNL     1      27.983  20.521  16.760  1.00  0.00     0.179 C 
ATOM     10  C   UNL     1      27.099  20.011  14.736  1.00  0.00     0.282 C 
ATOM     11  O   UNL     1      26.829  20.590  16.029  1.00  0.00    -0.341 OA
ATOM     12  C   UNL     1      27.949  20.939  13.945  1.00  0.00     0.202 C 
ATOM     13  C   UNL     1      29.197  21.346  14.735  1.00  0.00     0.179 C 
ATOM     14  C   UNL     1      29.244  20.541  15.978  1.00  0.00     0.177 C 
BRANCH  10  15
ATOM     15  O   UNL     1      25.945  19.699  14.106  1.00  0.00    -0.341 OA
BRANCH  15  16
ATOM     16  C   UNL     1      25.239  20.754  13.600  1.00  0.00     0.184 C 
ATOM     17  C   UNL     1      23.942  20.967  14.435  1.00  0.00     0.178 C 
ATOM     18  O   UNL     1      22.855  20.610  13.639  1.00  0.00    -0.341 OA
ATOM     19  C   UNL     1      23.014  19.308  13.141  1.00  0.00     0.281 C 
ATOM     20  C   UNL     1      24.837  20.611  12.155  1.00  0.00     0.180 C 
ATOM     21  C   UNL     1      23.976  19.353  11.988  1.00  0.00     0.202 C 
BRANCH  17  22
ATOM     22  C   UNL     1      23.888  22.395  14.874  1.00  0.00     0.191 C 
BRANCH  22  23
ATOM     23  O   UNL     1      24.982  23.136  14.389  1.00  0.00    -0.394 OA
ATOM     24  H   UNL     1      24.698  23.846  13.765  1.00  0.00     0.210 HD
ENDBRANCH  22  23
ENDBRANCH  17  22
BRANCH  19  25
ATOM     25  O   UNL     1      21.760  18.869  12.780  1.00  0.00    -0.350 OA
BRANCH  25  26
ATOM     26  C   UNL     1      21.209  19.665  11.759  1.00  0.00     0.169 C 
BRANCH  26  27
ATOM     27  C   UNL     1      19.804  20.095  12.127  1.00  0.00     0.119 C 
BRANCH  27  28
ATOM     28  N   UNL     1      18.969  18.889  12.038  1.00  0.00    -0.092 NA
ATOM     29  N   UNL     1      18.798  18.439  10.875  1.00  0.00     0.001 N 
ATOM     30  N   UNL     1      18.296  18.153   9.778  1.00  0.00    -0.003 NA
ENDBRANCH  27  28
ENDBRANCH  26  27
ENDBRANCH  25  26
ENDBRANCH  19  25
BRANCH  20  31
ATOM     31  O   UNL     1      24.157  21.705  11.673  1.00  0.00    -0.387 OA
ATOM     32  H   UNL     1      23.233  21.817  11.948  1.00  0.00     0.211 HD
ENDBRANCH  20  31
BRANCH  21  33
ATOM     33  O   UNL     1      24.792  18.228  11.938  1.00  0.00    -0.385 OA
ATOM     34  H   UNL     1      24.965  17.955  12.880  1.00  0.00     0.211 HD
ENDBRANCH  21  33
ENDBRANCH  15  16
ENDBRANCH  10  15
BRANCH  12  35
ATOM     35  O   UNL     1      28.344  20.355  12.755  1.00  0.00    -0.385 OA
ATOM     36  H   UNL     1      28.592  21.105  12.120  1.00  0.00     0.211 HD
ENDBRANCH  12  35
BRANCH  13  37
ATOM     37  O   UNL     1      29.133  22.732  15.012  1.00  0.00    -0.387 OA
ATOM     38  H   UNL     1      28.180  23.027  15.050  1.00  0.00     0.211 HD
ENDBRANCH  13  37
BRANCH  14  39
ATOM     39  O   UNL     1      30.316  20.863  16.816  1.00  0.00    -0.387 OA
ATOM     40  H   UNL     1      30.291  20.287  17.645  1.00  0.00     0.211 HD
ENDBRANCH  14  39
ENDBRANCH   8   9
ENDBRANCH   7   8
ENDBRANCH   1   7
BRANCH   1  41
ATOM     41  C   UNL     1      29.172  19.121  19.903  1.00  0.00     0.364 C 
ATOM     42  O   UNL     1      28.696  18.231  20.588  1.00  0.00    -0.246 OA
BRANCH  41  43
ATOM     43  O   UNL     1      30.126  18.732  18.942  1.00  0.00    -0.477 OA
ATOM     44  H   UNL     1      31.030  19.173  18.865  1.00  0.00     0.296 HD
ENDBRANCH  41  43
ENDBRANCH   1  41
BRANCH   3  45
ATOM     45  O   UNL     1      29.217  21.470  23.551  1.00  0.00    -0.391 OA
ATOM     46  H   UNL     1      30.066  21.448  24.102  1.00  0.00     0.211 HD
ENDBRANCH   3  45
BRANCH   5  47
ATOM     47  C   UNL     1      30.871  23.349  20.370  1.00  0.00     0.176 C 
BRANCH  47  48
ATOM     48  O   UNL     1      29.626  23.734  19.789  1.00  0.00    -0.388 OA
ATOM     49  H   UNL     1      29.754  24.431  19.123  1.00  0.00     0.211 HD
ENDBRANCH  47  48
BRANCH  47  50
ATOM     50  C   UNL     1      31.905  23.962  19.577  1.00  0.00     0.165 C 
BRANCH  50  51
ATOM     51  O   UNL     1      31.954  25.378  19.557  1.00  0.00    -0.388 OA
ATOM     52  H   UNL     1      32.846  25.673  19.923  1.00  0.00     0.211 HD
ENDBRANCH  50  51
BRANCH  50  53
ATOM     53  C   UNL     1      31.890  23.598  18.126  1.00  0.00     0.154 C 
BRANCH  53  54
ATOM     54  N   UNL     1      30.845  24.038  17.290  1.00  0.00    -0.319 N 
ATOM     55  C   UNL     1      30.725  25.216  16.553  1.00  0.00     0.407 C 
ATOM     56  H   UNL     1      29.983  23.374  17.194  1.00  0.00     0.167 HD
ATOM     57  O   UNL     1      31.674  26.037  16.601  1.00  0.00    -0.225 OA
BRANCH  55  58
ATOM     58  O   UNL     1      29.567  25.443  15.782  1.00  0.00    -0.443 OA
BRANCH  58  59
ATOM     59  C   UNL     1      28.566  26.268  16.301  1.00  0.00     0.294 C 
BRANCH  59  60
ATOM     60  C   UNL     1      27.467  25.522  16.882  1.00  0.00     0.121 A 
ATOM     61  C   UNL     1      26.921  25.722  18.094  1.00  0.00     0.146 A 
ATOM     62  N   UNL     1      26.816  24.415  16.316  1.00  0.00    -0.131 NA
ATOM     63  N   UNL     1      25.979  24.818  18.324  1.00  0.00    -0.201 N 
ATOM     64  N   UNL     1      25.969  24.091  17.248  1.00  0.00    -0.060 NA
BRANCH  63  65
ATOM     65  C   UNL     1      25.097  24.656  19.415  1.00  0.00     0.173 A 
ATOM     66  N   UNL     1      25.679  24.320  20.596  1.00  0.00    -0.236 NA
ATOM     67  C   UNL     1      23.705  24.690  19.260  1.00  0.00     0.097 A 
ATOM     68  C   UNL     1      24.809  23.984  21.700  1.00  0.00     0.113 A 
ATOM     69  C   UNL     1      22.940  24.350  20.355  1.00  0.00     0.025 A 
ATOM     70  C   UNL     1      23.513  24.015  21.510  1.00  0.00     0.022 A 
BRANCH  67  71
ATOM     71  C   UNL     1      23.024  25.135  18.086  1.00  0.00     0.103 C 
ATOM     72  N   UNL     1      22.438  25.494  17.091  1.00  0.00    -0.192 NA
ENDBRANCH  67  71
ENDBRANCH  63  65
ENDBRANCH  59  60
ENDBRANCH  58  59
ENDBRANCH  55  58
ENDBRANCH  53  54
ENDBRANCH  50  53
ENDBRANCH  47  50
ENDBRANCH   5  47
BRANCH   4  73
ATOM     73  N   UNL     1      31.832  20.260  22.142  1.00  0.00    -0.348 N 
ATOM     74  C   UNL     1      32.357  19.935  23.396  1.00  0.00     0.217 C 
ATOM     75  H   UNL     1      32.222  19.665  21.324  1.00  0.00     0.163 HD
ATOM     76  C   UNL     1      33.332  18.783  23.549  1.00  0.00     0.114 C 
ATOM     77  O   UNL     1      32.087  20.527  24.464  1.00  0.00    -0.275 OA
ENDBRANCH   4  73
TORSDOF 31
