REMARK VINA RESULT:    -5.836     13.321     18.726
REMARK INTER + INTRA:         -21.441
REMARK INTER:                 -13.383
REMARK INTRA:                  -8.058
REMARK UNBOUND:                -6.052
REMARK SMILES CC(=O)N[C@@H]1[C@@H](O)C[C@](OC[C@H]2O[C@@H](O[C@H]3[C@H](O)[C@@H](O)[C@H](OCCN=[N+]=[N-])O[C@@H]3CO)[C@H](O)[C@@H](O)[C@H]2O)(C(=O)O)O[C@H]1C(O)[C@H](O)CNC(=O)OCc1cn(CC(O)CO)nn1
REMARK SMILES IDX 43 1 42 2 9 3 8 4 41 5 6 6 5 7 10 8 11 9 12 10 14 11 13 12
REMARK SMILES IDX 32 13 34 14 36 15 15 16 16 17 29 18 28 19 21 20 17 21 19 22
REMARK SMILES IDX 30 23 31 24 22 26 23 27 24 28 25 29 26 30 27 31 18 32 20 34
REMARK SMILES IDX 33 36 35 38 37 40 38 42 39 43 40 44 7 46 4 48 2 49 1 51 3 52
REMARK SMILES IDX 44 53 45 55 46 56 47 58 48 59 49 60 50 62 51 63 52 64 53 65
REMARK SMILES IDX 54 66 62 67 55 68 61 69 56 70 57 71 58 72 59 74 60 75
REMARK H PARENT 31 25 18 33 20 35 33 37 35 39 37 41 40 45 7 47 4 50 44 54
REMARK H PARENT 46 57 48 61 58 73 60 76
REMARK Flexibility Score: inf
ROOT
ATOM      1  C   UNL     1      16.120  28.406  20.709  1.00  0.00     0.176 C 
ENDROOT
BRANCH   1   2
ATOM      2  C   UNL     1      17.379  29.041  20.089  1.00  0.00     0.178 C 
ATOM      3  C   UNL     1      19.614  28.571  19.485  1.00  0.00     0.272 C 
ATOM      4  C   UNL     1      20.089  29.796  20.215  1.00  0.00     0.113 C 
ATOM      5  O   UNL     1      18.381  28.170  20.022  1.00  0.00    -0.332 OA
ATOM      6  C   UNL     1      19.132  30.448  21.142  1.00  0.00     0.145 C 
ATOM      7  C   UNL     1      17.691  30.288  20.829  1.00  0.00     0.142 C 
BRANCH   3   8
ATOM      8  O   UNL     1      20.460  27.574  19.637  1.00  0.00    -0.338 OA
BRANCH   8   9
ATOM      9  C   UNL     1      21.646  27.255  19.943  1.00  0.00     0.199 C 
BRANCH   9  10
ATOM     10  C   UNL     1      22.113  26.884  21.312  1.00  0.00     0.179 C 
ATOM     11  C   UNL     1      21.999  27.594  23.484  1.00  0.00     0.282 C 
ATOM     12  O   UNL     1      21.297  27.582  22.283  1.00  0.00    -0.341 OA
ATOM     13  C   UNL     1      22.977  26.484  23.661  1.00  0.00     0.202 C 
ATOM     14  C   UNL     1      22.627  25.199  22.974  1.00  0.00     0.179 C 
ATOM     15  C   UNL     1      21.826  25.434  21.703  1.00  0.00     0.177 C 
BRANCH  11  16
ATOM     16  O   UNL     1      21.206  27.688  24.609  1.00  0.00    -0.341 OA
BRANCH  16  17
ATOM     17  C   UNL     1      21.349  28.887  25.305  1.00  0.00     0.184 C 
ATOM     18  C   UNL     1      22.627  29.553  24.893  1.00  0.00     0.178 C 
ATOM     19  O   UNL     1      23.545  29.670  25.925  1.00  0.00    -0.341 OA
ATOM     20  C   UNL     1      23.608  28.486  26.679  1.00  0.00     0.281 C 
ATOM     21  C   UNL     1      21.175  28.662  26.749  1.00  0.00     0.180 C 
ATOM     22  C   UNL     1      22.401  28.527  27.584  1.00  0.00     0.202 C 
BRANCH  18  23
ATOM     23  C   UNL     1      22.391  30.941  24.332  1.00  0.00     0.191 C 
BRANCH  23  24
ATOM     24  O   UNL     1      21.038  31.224  24.208  1.00  0.00    -0.394 OA
ATOM     25  H   UNL     1      20.677  31.320  25.147  1.00  0.00     0.210 HD
ENDBRANCH  23  24
ENDBRANCH  18  23
BRANCH  20  26
ATOM     26  O   UNL     1      24.784  28.554  27.408  1.00  0.00    -0.350 OA
BRANCH  26  27
ATOM     27  C   UNL     1      25.783  27.704  26.960  1.00  0.00     0.169 C 
BRANCH  27  28
ATOM     28  C   UNL     1      25.995  26.513  27.868  1.00  0.00     0.119 C 
BRANCH  28  29
ATOM     29  N   UNL     1      24.848  25.647  27.917  1.00  0.00    -0.092 NA
ATOM     30  N   UNL     1      24.492  24.887  27.024  1.00  0.00     0.001 N 
ATOM     31  N   UNL     1      24.194  24.245  26.017  1.00  0.00    -0.003 NA
ENDBRANCH  28  29
ENDBRANCH  27  28
ENDBRANCH  26  27
ENDBRANCH  20  26
BRANCH  21  32
ATOM     32  O   UNL     1      20.360  29.659  27.342  1.00  0.00    -0.387 OA
ATOM     33  H   UNL     1      19.955  29.192  28.142  1.00  0.00     0.211 HD
ENDBRANCH  21  32
BRANCH  22  34
ATOM     34  O   UNL     1      22.368  27.442  28.457  1.00  0.00    -0.385 OA
ATOM     35  H   UNL     1      23.181  26.911  28.442  1.00  0.00     0.211 HD
ENDBRANCH  22  34
ENDBRANCH  16  17
ENDBRANCH  11  16
BRANCH  13  36
ATOM     36  O   UNL     1      24.304  26.899  23.403  1.00  0.00    -0.385 OA
ATOM     37  H   UNL     1      24.967  26.226  23.642  1.00  0.00     0.211 HD
ENDBRANCH  13  36
BRANCH  14  38
ATOM     38  O   UNL     1      21.986  24.281  23.803  1.00  0.00    -0.387 OA
ATOM     39  H   UNL     1      21.128  24.019  23.392  1.00  0.00     0.211 HD
ENDBRANCH  14  38
BRANCH  15  40
ATOM     40  O   UNL     1      20.457  25.398  22.083  1.00  0.00    -0.387 OA
ATOM     41  H   UNL     1      20.234  26.177  22.648  1.00  0.00     0.211 HD
ENDBRANCH  15  40
ENDBRANCH   9  10
ENDBRANCH   8   9
ENDBRANCH   3   8
BRANCH   3  42
ATOM     42  C   UNL     1      19.384  28.865  18.032  1.00  0.00     0.364 C 
ATOM     43  O   UNL     1      19.521  27.888  17.233  1.00  0.00    -0.246 OA
BRANCH  42  44
ATOM     44  O   UNL     1      19.047  30.103  17.549  1.00  0.00    -0.477 OA
ATOM     45  H   UNL     1      19.688  30.652  16.967  1.00  0.00     0.296 HD
ENDBRANCH  42  44
ENDBRANCH   3  42
BRANCH   6  46
ATOM     46  O   UNL     1      19.367  29.905  22.428  1.00  0.00    -0.391 OA
ATOM     47  H   UNL     1      19.191  28.944  22.412  1.00  0.00     0.211 HD
ENDBRANCH   6  46
BRANCH   7  48
ATOM     48  N   UNL     1      17.207  31.496  20.167  1.00  0.00    -0.348 N 
ATOM     49  C   UNL     1      16.228  32.336  20.755  1.00  0.00     0.217 C 
ATOM     50  H   UNL     1      17.564  31.784  19.234  1.00  0.00     0.163 HD
ATOM     51  C   UNL     1      15.732  33.565  20.086  1.00  0.00     0.114 C 
ATOM     52  O   UNL     1      15.782  32.007  21.883  1.00  0.00    -0.275 OA
ENDBRANCH   7  48
ENDBRANCH   1   2
BRANCH   1  53
ATOM     53  O   UNL     1      15.847  29.021  21.915  1.00  0.00    -0.388 OA
ATOM     54  H   UNL     1      16.599  29.604  22.188  1.00  0.00     0.211 HD
ENDBRANCH   1  53
BRANCH   1  55
ATOM     55  C   UNL     1      14.938  28.576  19.767  1.00  0.00     0.165 C 
BRANCH  55  56
ATOM     56  O   UNL     1      15.505  29.067  18.566  1.00  0.00    -0.388 OA
ATOM     57  H   UNL     1      15.020  29.879  18.281  1.00  0.00     0.211 HD
ENDBRANCH  55  56
BRANCH  55  58
ATOM     58  C   UNL     1      13.922  29.557  20.242  1.00  0.00     0.154 C 
BRANCH  58  59
ATOM     59  N   UNL     1      13.316  29.157  21.494  1.00  0.00    -0.319 N 
ATOM     60  C   UNL     1      12.536  30.066  22.244  1.00  0.00     0.407 C 
ATOM     61  H   UNL     1      13.432  28.181  21.887  1.00  0.00     0.167 HD
ATOM     62  O   UNL     1      12.349  31.247  21.871  1.00  0.00    -0.225 OA
BRANCH  60  63
ATOM     63  O   UNL     1      11.938  29.686  23.429  1.00  0.00    -0.443 OA
BRANCH  63  64
ATOM     64  C   UNL     1      12.440  29.818  24.713  1.00  0.00     0.294 C 
BRANCH  64  65
ATOM     65  C   UNL     1      13.874  30.170  24.809  1.00  0.00     0.120 A 
ATOM     66  C   UNL     1      14.357  31.397  25.168  1.00  0.00     0.138 A 
ATOM     67  N   UNL     1      14.930  29.342  24.547  1.00  0.00    -0.132 NA
ATOM     68  N   UNL     1      15.697  31.294  25.118  1.00  0.00    -0.249 N 
ATOM     69  N   UNL     1      16.015  30.077  24.750  1.00  0.00    -0.067 NA
BRANCH  68  70
ATOM     70  C   UNL     1      16.656  32.340  25.406  1.00  0.00     0.180 C 
BRANCH  70  71
ATOM     71  C   UNL     1      17.788  31.694  26.216  1.00  0.00     0.161 C 
BRANCH  71  72
ATOM     72  O   UNL     1      18.582  31.007  25.330  1.00  0.00    -0.389 OA
ATOM     73  H   UNL     1      19.132  31.609  24.771  1.00  0.00     0.211 HD
ENDBRANCH  71  72
BRANCH  71  74
ATOM     74  C   UNL     1      18.561  32.765  26.949  1.00  0.00     0.189 C 
BRANCH  74  75
ATOM     75  O   UNL     1      18.734  33.864  26.138  1.00  0.00    -0.394 OA
ATOM     76  H   UNL     1      19.560  33.752  25.601  1.00  0.00     0.210 HD
ENDBRANCH  74  75
ENDBRANCH  71  74
ENDBRANCH  70  71
ENDBRANCH  68  70
ENDBRANCH  64  65
ENDBRANCH  63  64
ENDBRANCH  60  63
ENDBRANCH  58  59
ENDBRANCH  55  58
ENDBRANCH   1  55
TORSDOF 34
