REMARK VINA RESULT:    -5.280      4.162     11.967
REMARK INTER + INTRA:         -20.597
REMARK INTER:                 -14.106
REMARK INTRA:                  -6.491
REMARK UNBOUND:                -7.600
REMARK SMILES CC(=O)N[C@@H]1[C@@H](O)C[C@](OC[C@H]2O[C@@H](O[C@H]3[C@H](O)[C@@H](O)[C@H](OCCN=[N+]=[N-])O[C@@H]3CO)[C@H](O)[C@@H](O)[C@H]2O)(C(=O)O)O[C@H]1C(O)[C@H](O)CNC(=O)OCc1cn(-c2ccc(Cl)cc2)nn1
REMARK SMILES IDX 9 1 8 2 6 3 5 4 42 5 41 6 10 7 11 8 12 9 14 10 13 11 32 12
REMARK SMILES IDX 34 13 36 14 15 15 16 16 29 17 28 18 21 19 17 20 19 21 30 22
REMARK SMILES IDX 31 23 22 25 23 26 24 27 25 28 26 29 27 30 18 31 20 33 33 35
REMARK SMILES IDX 35 37 37 39 38 41 39 42 40 43 7 45 43 47 44 48 45 50 46 51
REMARK SMILES IDX 47 53 48 54 49 55 50 57 51 58 52 59 53 60 54 61 64 62 55 63
REMARK SMILES IDX 63 64 56 65 57 66 62 67 58 68 61 69 59 70 60 71 4 72 2 73
REMARK SMILES IDX 1 75 3 76
REMARK H PARENT 31 24 18 32 20 34 33 36 35 38 37 40 40 44 7 46 44 49 46 52
REMARK H PARENT 48 56 4 74
REMARK Flexibility Score: inf
ROOT
ATOM      1  C   UNL     1      16.138  29.300  19.279  1.00  0.00     0.272 C 
ATOM      2  C   UNL     1      14.721  29.016  19.563  1.00  0.00     0.113 C 
ATOM      3  C   UNL     1      14.100  29.542  20.791  1.00  0.00     0.145 C 
ATOM      4  C   UNL     1      15.044  30.494  21.493  1.00  0.00     0.142 C 
ATOM      5  C   UNL     1      16.404  29.763  21.492  1.00  0.00     0.178 C 
ATOM      6  O   UNL     1      16.851  30.061  20.169  1.00  0.00    -0.332 OA
ENDROOT
BRANCH   1   7
ATOM      7  O   UNL     1      16.189  29.934  18.006  1.00  0.00    -0.338 OA
BRANCH   7   8
ATOM      8  C   UNL     1      14.955  30.157  17.460  1.00  0.00     0.199 C 
BRANCH   8   9
ATOM      9  C   UNL     1      15.031  31.062  16.233  1.00  0.00     0.179 C 
ATOM     10  C   UNL     1      16.278  30.845  14.250  1.00  0.00     0.282 C 
ATOM     11  O   UNL     1      16.250  31.015  15.634  1.00  0.00    -0.341 OA
ATOM     12  C   UNL     1      15.606  29.576  13.929  1.00  0.00     0.202 C 
ATOM     13  C   UNL     1      14.155  29.641  14.386  1.00  0.00     0.179 C 
ATOM     14  C   UNL     1      13.883  30.806  15.284  1.00  0.00     0.177 C 
BRANCH  10  15
ATOM     15  O   UNL     1      17.634  30.943  13.943  1.00  0.00    -0.341 OA
BRANCH  15  16
ATOM     16  C   UNL     1      18.507  30.654  14.903  1.00  0.00     0.184 C 
ATOM     17  C   UNL     1      19.792  31.395  14.806  1.00  0.00     0.178 C 
ATOM     18  O   UNL     1      20.523  31.293  15.986  1.00  0.00    -0.341 OA
ATOM     19  C   UNL     1      20.856  30.032  16.364  1.00  0.00     0.281 C 
ATOM     20  C   UNL     1      18.896  29.164  14.990  1.00  0.00     0.180 C 
ATOM     21  C   UNL     1      20.299  28.999  15.454  1.00  0.00     0.202 C 
BRANCH  17  22
ATOM     22  C   UNL     1      19.717  32.838  14.415  1.00  0.00     0.191 C 
BRANCH  22  23
ATOM     23  O   UNL     1      20.792  33.577  14.908  1.00  0.00    -0.394 OA
ATOM     24  H   UNL     1      20.495  34.096  15.692  1.00  0.00     0.210 HD
ENDBRANCH  22  23
ENDBRANCH  17  22
BRANCH  19  25
ATOM     25  O   UNL     1      20.377  29.770  17.653  1.00  0.00    -0.350 OA
BRANCH  25  26
ATOM     26  C   UNL     1      21.301  30.126  18.623  1.00  0.00     0.169 C 
BRANCH  26  27
ATOM     27  C   UNL     1      22.073  28.969  19.180  1.00  0.00     0.119 C 
BRANCH  27  28
ATOM     28  N   UNL     1      21.151  27.838  19.254  1.00  0.00    -0.092 NA
ATOM     29  N   UNL     1      21.136  27.235  20.343  1.00  0.00     0.001 N 
ATOM     30  N   UNL     1      20.835  26.841  21.490  1.00  0.00    -0.003 NA
ENDBRANCH  27  28
ENDBRANCH  26  27
ENDBRANCH  25  26
ENDBRANCH  19  25
BRANCH  20  31
ATOM     31  O   UNL     1      18.032  28.586  15.903  1.00  0.00    -0.387 OA
ATOM     32  H   UNL     1      18.465  27.721  16.192  1.00  0.00     0.211 HD
ENDBRANCH  20  31
BRANCH  21  33
ATOM     33  O   UNL     1      21.196  28.777  14.389  1.00  0.00    -0.385 OA
ATOM     34  H   UNL     1      21.126  29.578  13.823  1.00  0.00     0.211 HD
ENDBRANCH  21  33
ENDBRANCH  15  16
ENDBRANCH  10  15
BRANCH  12  35
ATOM     35  O   UNL     1      15.612  29.216  12.580  1.00  0.00    -0.385 OA
ATOM     36  H   UNL     1      16.258  29.787  12.052  1.00  0.00     0.211 HD
ENDBRANCH  12  35
BRANCH  13  37
ATOM     37  O   UNL     1      13.825  28.412  14.952  1.00  0.00    -0.387 OA
ATOM     38  H   UNL     1      13.238  27.859  14.414  1.00  0.00     0.211 HD
ENDBRANCH  13  37
BRANCH  14  39
ATOM     39  O   UNL     1      12.775  30.512  16.117  1.00  0.00    -0.387 OA
ATOM     40  H   UNL     1      12.049  30.242  15.527  1.00  0.00     0.211 HD
ENDBRANCH  14  39
ENDBRANCH   8   9
ENDBRANCH   7   8
ENDBRANCH   1   7
BRANCH   1  41
ATOM     41  C   UNL     1      16.862  27.992  19.090  1.00  0.00     0.364 C 
ATOM     42  O   UNL     1      16.296  26.892  19.275  1.00  0.00    -0.246 OA
BRANCH  41  43
ATOM     43  O   UNL     1      18.179  28.005  18.705  1.00  0.00    -0.477 OA
ATOM     44  H   UNL     1      18.485  28.073  17.736  1.00  0.00     0.296 HD
ENDBRANCH  41  43
ENDBRANCH   1  41
BRANCH   3  45
ATOM     45  O   UNL     1      12.942  30.265  20.505  1.00  0.00    -0.391 OA
ATOM     46  H   UNL     1      13.191  31.200  20.379  1.00  0.00     0.211 HD
ENDBRANCH   3  45
BRANCH   5  47
ATOM     47  C   UNL     1      17.377  30.338  22.457  1.00  0.00     0.176 C 
BRANCH  47  48
ATOM     48  O   UNL     1      17.281  29.619  23.640  1.00  0.00    -0.388 OA
ATOM     49  H   UNL     1      17.418  28.645  23.539  1.00  0.00     0.211 HD
ENDBRANCH  47  48
BRANCH  47  50
ATOM     50  C   UNL     1      18.777  30.534  22.055  1.00  0.00     0.165 C 
BRANCH  50  51
ATOM     51  O   UNL     1      19.153  29.293  21.421  1.00  0.00    -0.388 OA
ATOM     52  H   UNL     1      20.070  29.048  21.689  1.00  0.00     0.211 HD
ENDBRANCH  50  51
BRANCH  50  53
ATOM     53  C   UNL     1      19.743  30.591  23.229  1.00  0.00     0.154 C 
BRANCH  53  54
ATOM     54  N   UNL     1      20.218  29.307  23.665  1.00  0.00    -0.319 N 
ATOM     55  C   UNL     1      20.360  29.067  25.056  1.00  0.00     0.407 C 
ATOM     56  H   UNL     1      20.471  28.532  23.007  1.00  0.00     0.167 HD
ATOM     57  O   UNL     1      20.094  29.957  25.920  1.00  0.00    -0.225 OA
BRANCH  55  58
ATOM     58  O   UNL     1      20.797  27.842  25.522  1.00  0.00    -0.443 OA
BRANCH  58  59
ATOM     59  C   UNL     1      21.802  27.085  24.843  1.00  0.00     0.294 C 
BRANCH  59  60
ATOM     60  C   UNL     1      22.494  26.173  25.799  1.00  0.00     0.121 A 
ATOM     61  C   UNL     1      23.294  26.582  26.857  1.00  0.00     0.144 A 
ATOM     62  N   UNL     1      22.478  24.834  25.822  1.00  0.00    -0.131 NA
ATOM     63  N   UNL     1      23.737  25.484  27.484  1.00  0.00    -0.220 N 
ATOM     64  N   UNL     1      23.237  24.463  26.850  1.00  0.00    -0.062 NA
BRANCH  63  65
ATOM     65  C   UNL     1      24.592  25.542  28.627  1.00  0.00     0.066 A 
ATOM     66  C   UNL     1      25.930  25.823  28.503  1.00  0.00     0.030 A 
ATOM     67  C   UNL     1      24.091  25.318  29.879  1.00  0.00     0.030 A 
ATOM     68  C   UNL     1      26.791  25.887  29.601  1.00  0.00     0.023 A 
ATOM     69  C   UNL     1      24.924  25.374  30.988  1.00  0.00     0.023 A 
ATOM     70  C   UNL     1      26.283  25.660  30.852  1.00  0.00     0.041 A 
ATOM     71  Cl  UNL     1      27.332  25.728  32.270  1.00  0.00    -0.084 Cl
ENDBRANCH  63  65
ENDBRANCH  59  60
ENDBRANCH  58  59
ENDBRANCH  55  58
ENDBRANCH  53  54
ENDBRANCH  50  53
ENDBRANCH  47  50
ENDBRANCH   5  47
BRANCH   4  72
ATOM     72  N   UNL     1      14.566  30.856  22.773  1.00  0.00    -0.348 N 
ATOM     73  C   UNL     1      13.941  32.139  22.964  1.00  0.00     0.217 C 
ATOM     74  H   UNL     1      14.610  30.259  23.615  1.00  0.00     0.163 HD
ATOM     75  C   UNL     1      13.425  32.552  24.300  1.00  0.00     0.114 C 
ATOM     76  O   UNL     1      13.841  32.906  21.972  1.00  0.00    -0.275 OA
ENDBRANCH   4  72
TORSDOF 30
