REMARK VINA RESULT:    -5.545     26.428     30.310
REMARK INTER + INTRA:         -21.301
REMARK INTER:                 -14.336
REMARK INTRA:                  -6.965
REMARK UNBOUND:                -7.652
REMARK SMILES CC(=O)N[C@@H]1[C@@H](O)C[C@](OC[C@H]2O[C@@H](O[C@H]3[C@H](O)[C@@H](O)[C@H](OCCN=[N+]=[N-])O[C@@H]3CO)[C@H](O)[C@@H](O)[C@H]2O)(C(=O)O)O[C@H]1C(O)[C@H](O)CNC(=O)OCc1cn(-c2ccc(Br)cc2)nn1
REMARK SMILES IDX 9 1 8 2 6 3 5 4 42 5 41 6 10 7 11 8 12 9 14 10 13 11 32 12
REMARK SMILES IDX 34 13 36 14 15 15 16 16 29 17 28 18 21 19 17 20 19 21 30 22
REMARK SMILES IDX 31 23 22 25 23 26 24 27 25 28 26 29 27 30 18 31 20 33 33 35
REMARK SMILES IDX 35 37 37 39 38 41 39 42 40 43 7 45 43 47 44 48 45 50 46 51
REMARK SMILES IDX 47 53 48 54 49 55 50 57 51 58 52 59 53 60 54 61 64 62 55 63
REMARK SMILES IDX 63 64 56 65 57 66 62 67 58 68 61 69 59 70 60 71 4 72 2 73
REMARK SMILES IDX 1 75 3 76
REMARK H PARENT 31 24 18 32 20 34 33 36 35 38 37 40 40 44 7 46 44 49 46 52
REMARK H PARENT 48 56 4 74
REMARK Flexibility Score: inf
ROOT
ATOM      1  C   UNL     1       5.699  27.094  35.061  1.00  0.00     0.272 C 
ATOM      2  C   UNL     1       4.500  27.186  36.044  1.00  0.00     0.113 C 
ATOM      3  C   UNL     1       3.498  26.170  35.638  1.00  0.00     0.145 C 
ATOM      4  C   UNL     1       4.210  24.803  35.670  1.00  0.00     0.142 C 
ATOM      5  C   UNL     1       5.213  24.868  34.542  1.00  0.00     0.178 C 
ATOM      6  O   UNL     1       6.142  25.810  34.923  1.00  0.00    -0.332 OA
ENDROOT
BRANCH   1   7
ATOM      7  O   UNL     1       6.683  27.835  35.723  1.00  0.00    -0.338 OA
BRANCH   7   8
ATOM      8  C   UNL     1       7.484  28.600  34.931  1.00  0.00     0.199 C 
BRANCH   8   9
ATOM      9  C   UNL     1       8.932  28.135  35.187  1.00  0.00     0.179 C 
ATOM     10  C   UNL     1       9.991  26.375  36.277  1.00  0.00     0.282 C 
ATOM     11  O   UNL     1       9.008  27.334  36.290  1.00  0.00    -0.341 OA
ATOM     12  C   UNL     1      11.130  26.675  35.390  1.00  0.00     0.202 C 
ATOM     13  C   UNL     1      10.788  27.096  33.996  1.00  0.00     0.179 C 
ATOM     14  C   UNL     1       9.330  27.410  33.911  1.00  0.00     0.177 C 
BRANCH  10  15
ATOM     15  O   UNL     1       9.349  25.153  36.079  1.00  0.00    -0.341 OA
BRANCH  15  16
ATOM     16  C   UNL     1       9.208  24.442  37.257  1.00  0.00     0.184 C 
ATOM     17  C   UNL     1       9.591  23.006  37.094  1.00  0.00     0.178 C 
ATOM     18  O   UNL     1       9.590  22.382  38.309  1.00  0.00    -0.341 OA
ATOM     19  C   UNL     1       8.921  22.961  39.344  1.00  0.00     0.281 C 
ATOM     20  C   UNL     1       7.732  24.409  37.688  1.00  0.00     0.180 C 
ATOM     21  C   UNL     1       7.618  23.640  38.987  1.00  0.00     0.202 C 
BRANCH  17  22
ATOM     22  C   UNL     1      10.995  22.920  36.524  1.00  0.00     0.191 C 
BRANCH  22  23
ATOM     23  O   UNL     1      11.411  21.613  36.447  1.00  0.00    -0.394 OA
ATOM     24  H   UNL     1      10.878  21.107  35.809  1.00  0.00     0.210 HD
ENDBRANCH  22  23
ENDBRANCH  17  22
BRANCH  19  25
ATOM     25  O   UNL     1       9.729  23.770  40.135  1.00  0.00    -0.350 OA
BRANCH  25  26
ATOM     26  C   UNL     1      11.017  23.300  40.298  1.00  0.00     0.169 C 
BRANCH  26  27
ATOM     27  C   UNL     1      11.247  22.550  41.568  1.00  0.00     0.119 C 
BRANCH  27  28
ATOM     28  N   UNL     1      11.081  21.125  41.336  1.00  0.00    -0.092 NA
ATOM     29  N   UNL     1      11.548  20.359  42.182  1.00  0.00     0.001 N 
ATOM     30  N   UNL     1      11.878  19.515  43.043  1.00  0.00    -0.003 NA
ENDBRANCH  27  28
ENDBRANCH  26  27
ENDBRANCH  25  26
ENDBRANCH  19  25
BRANCH  20  31
ATOM     31  O   UNL     1       7.222  25.693  37.755  1.00  0.00    -0.387 OA
ATOM     32  H   UNL     1       7.946  26.374  37.768  1.00  0.00     0.211 HD
ENDBRANCH  20  31
BRANCH  21  33
ATOM     33  O   UNL     1       6.581  22.734  39.008  1.00  0.00    -0.385 OA
ATOM     34  H   UNL     1       6.309  22.595  39.946  1.00  0.00     0.211 HD
ENDBRANCH  21  33
ENDBRANCH  15  16
ENDBRANCH  10  15
BRANCH  12  35
ATOM     35  O   UNL     1      11.903  27.675  36.042  1.00  0.00    -0.385 OA
ATOM     36  H   UNL     1      11.590  28.577  35.744  1.00  0.00     0.211 HD
ENDBRANCH  12  35
BRANCH  13  37
ATOM     37  O   UNL     1      11.080  26.058  33.078  1.00  0.00    -0.387 OA
ATOM     38  H   UNL     1      12.060  25.929  33.134  1.00  0.00     0.211 HD
ENDBRANCH  13  37
BRANCH  14  39
ATOM     39  O   UNL     1       8.552  26.275  33.697  1.00  0.00    -0.387 OA
ATOM     40  H   UNL     1       7.986  26.082  34.486  1.00  0.00     0.211 HD
ENDBRANCH  14  39
ENDBRANCH   8   9
ENDBRANCH   7   8
ENDBRANCH   1   7
BRANCH   1  41
ATOM     41  C   UNL     1       5.297  27.807  33.851  1.00  0.00     0.364 C 
ATOM     42  O   UNL     1       4.497  28.773  33.846  1.00  0.00    -0.246 OA
BRANCH  41  43
ATOM     43  O   UNL     1       5.801  27.433  32.620  1.00  0.00    -0.477 OA
ATOM     44  H   UNL     1       5.233  27.322  31.781  1.00  0.00     0.296 HD
ENDBRANCH  41  43
ENDBRANCH   1  41
BRANCH   3  45
ATOM     45  O   UNL     1       2.462  26.062  36.555  1.00  0.00    -0.391 OA
ATOM     46  H   UNL     1       2.298  26.936  36.966  1.00  0.00     0.211 HD
ENDBRANCH   3  45
BRANCH   5  47
ATOM     47  C   UNL     1       5.946  23.599  34.273  1.00  0.00     0.176 C 
BRANCH  47  48
ATOM     48  O   UNL     1       7.322  23.921  34.445  1.00  0.00    -0.388 OA
ATOM     49  H   UNL     1       7.410  24.908  34.449  1.00  0.00     0.211 HD
ENDBRANCH  47  48
BRANCH  47  50
ATOM     50  C   UNL     1       5.874  23.119  32.831  1.00  0.00     0.165 C 
BRANCH  50  51
ATOM     51  O   UNL     1       5.884  24.331  32.086  1.00  0.00    -0.388 OA
ATOM     52  H   UNL     1       6.833  24.668  32.025  1.00  0.00     0.211 HD
ENDBRANCH  50  51
BRANCH  50  53
ATOM     53  C   UNL     1       4.578  22.451  32.530  1.00  0.00     0.154 C 
BRANCH  53  54
ATOM     54  N   UNL     1       3.691  23.303  31.806  1.00  0.00    -0.319 N 
ATOM     55  C   UNL     1       2.864  22.890  30.715  1.00  0.00     0.407 C 
ATOM     56  H   UNL     1       3.605  24.338  32.065  1.00  0.00     0.167 HD
ATOM     57  O   UNL     1       2.910  21.693  30.345  1.00  0.00    -0.225 OA
BRANCH  55  58
ATOM     58  O   UNL     1       2.021  23.762  30.066  1.00  0.00    -0.443 OA
BRANCH  58  59
ATOM     59  C   UNL     1       2.319  24.196  28.764  1.00  0.00     0.294 C 
BRANCH  59  60
ATOM     60  C   UNL     1       3.337  25.268  28.840  1.00  0.00     0.121 A 
ATOM     61  C   UNL     1       3.879  25.921  27.726  1.00  0.00     0.144 A 
ATOM     62  N   UNL     1       3.944  25.827  29.897  1.00  0.00    -0.131 NA
ATOM     63  N   UNL     1       4.774  26.828  28.155  1.00  0.00    -0.220 N 
ATOM     64  N   UNL     1       4.790  26.747  29.470  1.00  0.00    -0.062 NA
BRANCH  63  65
ATOM     65  C   UNL     1       5.519  27.669  27.283  1.00  0.00     0.066 A 
ATOM     66  C   UNL     1       6.242  27.241  26.216  1.00  0.00     0.029 A 
ATOM     67  C   UNL     1       5.477  29.031  27.563  1.00  0.00     0.029 A 
ATOM     68  C   UNL     1       6.913  28.164  25.442  1.00  0.00     0.018 A 
ATOM     69  C   UNL     1       6.152  29.940  26.781  1.00  0.00     0.018 A 
ATOM     70  C   UNL     1       6.889  29.513  25.696  1.00  0.00     0.018 A 
ATOM     71  Br  UNL     1       7.829  30.758  24.597  1.00  0.00    -0.051 Br
ENDBRANCH  63  65
ENDBRANCH  59  60
ENDBRANCH  58  59
ENDBRANCH  55  58
ENDBRANCH  53  54
ENDBRANCH  50  53
ENDBRANCH  47  50
ENDBRANCH   5  47
BRANCH   4  72
ATOM     72  N   UNL     1       3.187  23.812  35.520  1.00  0.00    -0.348 N 
ATOM     73  C   UNL     1       3.137  22.644  36.327  1.00  0.00     0.217 C 
ATOM     74  H   UNL     1       2.455  23.943  34.800  1.00  0.00     0.163 HD
ATOM     75  C   UNL     1       2.092  21.601  36.193  1.00  0.00     0.114 C 
ATOM     76  O   UNL     1       4.026  22.460  37.220  1.00  0.00    -0.275 OA
ENDBRANCH   4  72
TORSDOF 30
