REMARK VINA RESULT:    -5.739     21.036     25.627
REMARK INTER + INTRA:         -21.546
REMARK INTER:                 -15.896
REMARK INTRA:                  -5.649
REMARK UNBOUND:                -7.419
REMARK SMILES CC(=O)N[C@@H]1[C@@H](O)C[C@](OC[C@H]2O[C@@H](O[C@H]3[C@H](O)[C@@H](O)[C@H](OCCN=[N+]=[N-])O[C@@H]3CO)[C@H](O)[C@@H](O)[C@H]2O)(C(=O)O)O[C@H]1C(O)[C@H](O)CNC(=O)OCc1cn(-c2ccc(C)cc2)nn1
REMARK SMILES IDX 9 1 8 2 6 3 5 4 42 5 41 6 10 7 11 8 12 9 14 10 13 11 32 12
REMARK SMILES IDX 34 13 36 14 15 15 16 16 29 17 28 18 21 19 17 20 19 21 30 22
REMARK SMILES IDX 31 23 22 25 23 26 24 27 25 28 26 29 27 30 18 31 20 33 33 35
REMARK SMILES IDX 35 37 37 39 38 41 39 42 40 43 7 45 43 47 44 48 45 50 46 51
REMARK SMILES IDX 47 53 48 54 49 55 50 57 51 58 52 59 53 60 54 61 64 62 55 63
REMARK SMILES IDX 63 64 56 65 57 66 62 67 58 68 61 69 59 70 60 71 4 72 2 73
REMARK SMILES IDX 1 75 3 76
REMARK H PARENT 31 24 18 32 20 34 33 36 35 38 37 40 40 44 7 46 44 49 46 52
REMARK H PARENT 48 56 4 74
REMARK Flexibility Score: inf
ROOT
ATOM      1  C   UNL     1       2.708  21.796  31.095  1.00  0.00     0.272 C 
ATOM      2  C   UNL     1       1.385  21.960  31.835  1.00  0.00     0.113 C 
ATOM      3  C   UNL     1       1.485  21.533  33.250  1.00  0.00     0.145 C 
ATOM      4  C   UNL     1       2.808  21.749  33.894  1.00  0.00     0.142 C 
ATOM      5  C   UNL     1       3.834  22.523  33.073  1.00  0.00     0.178 C 
ATOM      6  O   UNL     1       3.762  22.208  31.758  1.00  0.00    -0.332 OA
ENDROOT
BRANCH   1   7
ATOM      7  O   UNL     1       2.560  22.644  29.954  1.00  0.00    -0.338 OA
BRANCH   7   8
ATOM      8  C   UNL     1       1.202  22.928  29.796  1.00  0.00     0.199 C 
BRANCH   8   9
ATOM      9  C   UNL     1       0.871  23.377  28.423  1.00  0.00     0.179 C 
ATOM     10  C   UNL     1       1.297  24.962  26.824  1.00  0.00     0.282 C 
ATOM     11  O   UNL     1       1.745  24.382  28.007  1.00  0.00    -0.341 OA
ATOM     12  C   UNL     1       1.439  24.011  25.698  1.00  0.00     0.202 C 
ATOM     13  C   UNL     1       1.677  22.617  26.210  1.00  0.00     0.179 C 
ATOM     14  C   UNL     1       0.825  22.265  27.411  1.00  0.00     0.177 C 
BRANCH  10  15
ATOM     15  O   UNL     1       2.046  26.107  26.563  1.00  0.00    -0.341 OA
BRANCH  15  16
ATOM     16  C   UNL     1       3.391  25.924  26.889  1.00  0.00     0.184 C 
ATOM     17  C   UNL     1       3.996  27.048  27.681  1.00  0.00     0.178 C 
ATOM     18  O   UNL     1       5.025  27.657  26.954  1.00  0.00    -0.341 OA
ATOM     19  C   UNL     1       4.492  28.251  25.825  1.00  0.00     0.281 C 
ATOM     20  C   UNL     1       4.124  25.842  25.567  1.00  0.00     0.180 C 
ATOM     21  C   UNL     1       3.910  27.206  24.893  1.00  0.00     0.202 C 
BRANCH  17  22
ATOM     22  C   UNL     1       4.693  26.496  28.936  1.00  0.00     0.191 C 
BRANCH  22  23
ATOM     23  O   UNL     1       4.035  25.360  29.400  1.00  0.00    -0.394 OA
ATOM     24  H   UNL     1       4.343  25.216  30.344  1.00  0.00     0.210 HD
ENDBRANCH  22  23
ENDBRANCH  17  22
BRANCH  19  25
ATOM     25  O   UNL     1       5.415  29.031  25.145  1.00  0.00    -0.350 OA
BRANCH  25  26
ATOM     26  C   UNL     1       6.719  28.747  25.462  1.00  0.00     0.169 C 
BRANCH  26  27
ATOM     27  C   UNL     1       7.587  28.341  24.305  1.00  0.00     0.119 C 
BRANCH  27  28
ATOM     28  N   UNL     1       7.950  26.946  24.367  1.00  0.00    -0.092 NA
ATOM     29  N   UNL     1       8.596  26.523  25.310  1.00  0.00     0.001 N 
ATOM     30  N   UNL     1       9.168  26.062  26.299  1.00  0.00    -0.003 NA
ENDBRANCH  27  28
ENDBRANCH  26  27
ENDBRANCH  25  26
ENDBRANCH  19  25
BRANCH  20  31
ATOM     31  O   UNL     1       5.481  25.598  25.716  1.00  0.00    -0.387 OA
ATOM     32  H   UNL     1       5.580  24.644  25.954  1.00  0.00     0.211 HD
ENDBRANCH  20  31
BRANCH  21  33
ATOM     33  O   UNL     1       2.512  27.390  24.896  1.00  0.00    -0.385 OA
ATOM     34  H   UNL     1       2.137  27.442  23.987  1.00  0.00     0.211 HD
ENDBRANCH  21  33
ENDBRANCH  15  16
ENDBRANCH  10  15
BRANCH  12  35
ATOM     35  O   UNL     1       0.326  24.038  24.837  1.00  0.00    -0.385 OA
ATOM     36  H   UNL     1       0.099  23.062  24.693  1.00  0.00     0.211 HD
ENDBRANCH  12  35
BRANCH  13  37
ATOM     37  O   UNL     1       3.023  22.425  26.398  1.00  0.00    -0.387 OA
ATOM     38  H   UNL     1       3.314  21.460  26.336  1.00  0.00     0.211 HD
ENDBRANCH  13  37
BRANCH  14  39
ATOM     39  O   UNL     1       1.332  21.124  28.002  1.00  0.00    -0.387 OA
ATOM     40  H   UNL     1       0.917  20.287  27.708  1.00  0.00     0.211 HD
ENDBRANCH  14  39
ENDBRANCH   8   9
ENDBRANCH   7   8
ENDBRANCH   1   7
BRANCH   1  41
ATOM     41  C   UNL     1       2.739  20.383  30.670  1.00  0.00     0.364 C 
ATOM     42  O   UNL     1       1.714  19.721  30.387  1.00  0.00    -0.246 OA
BRANCH  41  43
ATOM     43  O   UNL     1       3.998  19.759  30.578  1.00  0.00    -0.477 OA
ATOM     44  H   UNL     1       4.038  18.789  30.264  1.00  0.00     0.296 HD
ENDBRANCH  41  43
ENDBRANCH   1  41
BRANCH   3  45
ATOM     45  O   UNL     1       0.417  22.063  34.008  1.00  0.00    -0.391 OA
ATOM     46  H   UNL     1       0.356  23.031  33.723  1.00  0.00     0.211 HD
ENDBRANCH   3  45
BRANCH   5  47
ATOM     47  C   UNL     1       3.667  24.002  33.354  1.00  0.00     0.176 C 
BRANCH  47  48
ATOM     48  O   UNL     1       3.222  24.288  34.636  1.00  0.00    -0.388 OA
ATOM     49  H   UNL     1       2.577  25.037  34.536  1.00  0.00     0.211 HD
ENDBRANCH  47  48
BRANCH  47  50
ATOM     50  C   UNL     1       4.648  24.956  32.862  1.00  0.00     0.165 C 
BRANCH  50  51
ATOM     51  O   UNL     1       5.353  24.580  31.699  1.00  0.00    -0.388 OA
ATOM     52  H   UNL     1       4.990  23.727  31.343  1.00  0.00     0.211 HD
ENDBRANCH  50  51
BRANCH  50  53
ATOM     53  C   UNL     1       5.622  25.622  33.769  1.00  0.00     0.154 C 
BRANCH  53  54
ATOM     54  N   UNL     1       6.897  24.962  33.872  1.00  0.00    -0.319 N 
ATOM     55  C   UNL     1       7.123  23.941  34.841  1.00  0.00     0.407 C 
ATOM     56  H   UNL     1       7.680  25.227  33.232  1.00  0.00     0.167 HD
ATOM     57  O   UNL     1       6.181  23.607  35.601  1.00  0.00    -0.225 OA
BRANCH  55  58
ATOM     58  O   UNL     1       8.361  23.343  34.931  1.00  0.00    -0.443 OA
BRANCH  58  59
ATOM     59  C   UNL     1       9.309  23.672  35.887  1.00  0.00     0.294 C 
BRANCH  59  60
ATOM     60  C   UNL     1      10.223  24.710  35.408  1.00  0.00     0.121 A 
ATOM     61  C   UNL     1      11.547  24.916  35.838  1.00  0.00     0.144 A 
ATOM     62  N   UNL     1      10.015  25.654  34.500  1.00  0.00    -0.131 NA
ATOM     63  N   UNL     1      12.046  25.956  35.171  1.00  0.00    -0.220 N 
ATOM     64  N   UNL     1      11.101  26.390  34.364  1.00  0.00    -0.062 NA
BRANCH  63  65
ATOM     65  C   UNL     1      13.381  26.463  35.353  1.00  0.00     0.066 A 
ATOM     66  C   UNL     1      13.809  27.551  34.625  1.00  0.00     0.029 A 
ATOM     67  C   UNL     1      14.260  25.903  36.255  1.00  0.00     0.029 A 
ATOM     68  C   UNL     1      15.098  28.062  34.806  1.00  0.00     0.005 A 
ATOM     69  C   UNL     1      15.550  26.413  36.438  1.00  0.00     0.005 A 
ATOM     70  C   UNL     1      15.973  27.500  35.708  1.00  0.00    -0.051 A 
ATOM     71  C   UNL     1      17.350  28.054  35.911  1.00  0.00     0.044 C 
ENDBRANCH  63  65
ENDBRANCH  59  60
ENDBRANCH  58  59
ENDBRANCH  55  58
ENDBRANCH  53  54
ENDBRANCH  50  53
ENDBRANCH  47  50
ENDBRANCH   5  47
BRANCH   4  72
ATOM     72  N   UNL     1       3.360  20.537  34.468  1.00  0.00    -0.348 N 
ATOM     73  C   UNL     1       2.846  19.912  35.645  1.00  0.00     0.217 C 
ATOM     74  H   UNL     1       4.179  20.068  34.035  1.00  0.00     0.163 HD
ATOM     75  C   UNL     1       3.460  18.667  36.201  1.00  0.00     0.114 C 
ATOM     76  O   UNL     1       1.855  20.481  36.167  1.00  0.00    -0.275 OA
ENDBRANCH   4  72
TORSDOF 30
