REMARK VINA RESULT:    -6.334     16.461     22.356
REMARK INTER + INTRA:         -24.562
REMARK INTER:                 -14.894
REMARK INTRA:                  -9.669
REMARK UNBOUND:                -6.934
REMARK SMILES CCOCCc1c(-c2ccccc2)nc(N)nc1-n1cc(COC(=O)NC[C@@H](O)C(O)[C@@H]2O[C@@](OC[C@H]3O[C@@H](O[C@H]4[C@H](O)[C@@H](O)[C@H](OCCN=[N+]=[N-])O[C@@H]4CO)[C@H](O)[C@@H](O)[C@H]3O)(C(=O)O)C[C@H](O)[C@H]2NC(C)=O)nn1
REMARK SMILES IDX 30 1 32 2 34 3 66 4 33 5 67 6 69 7 35 8 36 9 37 10 39 11
REMARK SMILES IDX 38 12 57 13 59 14 61 15 40 16 41 17 54 18 53 19 46 20 42 21
REMARK SMILES IDX 44 22 55 23 56 24 47 26 48 27 49 28 50 29 51 30 52 31 43 32
REMARK SMILES IDX 45 34 58 36 60 38 62 40 63 42 64 43 65 44 68 46 70 48 71 49
REMARK SMILES IDX 72 51 73 52 31 53 28 55 29 56 27 58 26 59 24 60 25 62 23 63
REMARK SMILES IDX 22 64 21 65 20 66 74 67 19 68 75 69 18 70 17 71 6 72 15 73
REMARK SMILES IDX 7 74 14 75 5 76 4 77 3 78 2 79 1 80 16 81 8 84 9 85 13 86
REMARK SMILES IDX 10 87 12 88 11 89
REMARK H PARENT 56 25 43 33 45 35 58 37 60 39 62 41 65 45 68 47 70 50 31 54
REMARK H PARENT 29 57 26 61 16 82 16 83
REMARK Flexibility Score: inf
ROOT
ATOM      1  C   UNL     1      24.240  27.713  18.299  1.00  0.00     0.176 C 
ENDROOT
BRANCH   1   2
ATOM      2  C   UNL     1      25.298  27.411  19.316  1.00  0.00     0.178 C 
ATOM      3  C   UNL     1      25.833  25.603  20.704  1.00  0.00     0.272 C 
ATOM      4  C   UNL     1      26.987  26.535  21.082  1.00  0.00     0.113 C 
ATOM      5  O   UNL     1      25.149  26.024  19.621  1.00  0.00    -0.332 OA
ATOM      6  C   UNL     1      26.527  27.936  21.349  1.00  0.00     0.145 C 
ATOM      7  C   UNL     1      25.213  28.135  20.615  1.00  0.00     0.142 C 
BRANCH   3   8
ATOM      8  O   UNL     1      25.078  25.416  21.840  1.00  0.00    -0.338 OA
BRANCH   8   9
ATOM      9  C   UNL     1      24.311  24.282  21.872  1.00  0.00     0.199 C 
BRANCH   9  10
ATOM     10  C   UNL     1      22.948  24.523  22.503  1.00  0.00     0.179 C 
ATOM     11  C   UNL     1      22.123  26.093  24.019  1.00  0.00     0.282 C 
ATOM     12  O   UNL     1      23.131  25.252  23.642  1.00  0.00    -0.341 OA
ATOM     13  C   UNL     1      21.914  27.065  22.850  1.00  0.00     0.202 C 
ATOM     14  C   UNL     1      21.204  26.222  21.792  1.00  0.00     0.179 C 
ATOM     15  C   UNL     1      21.878  24.914  21.566  1.00  0.00     0.177 C 
BRANCH  11  16
ATOM     16  O   UNL     1      22.456  26.740  25.186  1.00  0.00    -0.341 OA
BRANCH  16  17
ATOM     17  C   UNL     1      23.397  26.043  25.927  1.00  0.00     0.184 C 
ATOM     18  C   UNL     1      22.897  25.741  27.298  1.00  0.00     0.178 C 
ATOM     19  O   UNL     1      23.493  26.399  28.327  1.00  0.00    -0.341 OA
ATOM     20  C   UNL     1      24.847  26.519  28.336  1.00  0.00     0.281 C 
ATOM     21  C   UNL     1      24.732  26.725  25.904  1.00  0.00     0.180 C 
ATOM     22  C   UNL     1      25.564  26.234  27.059  1.00  0.00     0.202 C 
BRANCH  18  23
ATOM     23  C   UNL     1      22.801  24.236  27.547  1.00  0.00     0.191 C 
BRANCH  23  24
ATOM     24  O   UNL     1      23.078  23.923  28.866  1.00  0.00    -0.394 OA
ATOM     25  H   UNL     1      24.045  23.714  28.923  1.00  0.00     0.210 HD
ENDBRANCH  23  24
ENDBRANCH  18  23
BRANCH  20  26
ATOM     26  O   UNL     1      25.340  25.682  29.331  1.00  0.00    -0.350 OA
BRANCH  26  27
ATOM     27  C   UNL     1      25.904  26.341  30.396  1.00  0.00     0.169 C 
BRANCH  27  28
ATOM     28  C   UNL     1      26.959  25.546  31.126  1.00  0.00     0.119 C 
BRANCH  28  29
ATOM     29  N   UNL     1      27.934  25.055  30.154  1.00  0.00    -0.092 NA
ATOM     30  N   UNL     1      28.665  25.829  29.525  1.00  0.00     0.001 N 
ATOM     31  N   UNL     1      29.225  26.723  28.892  1.00  0.00    -0.003 NA
ENDBRANCH  28  29
ENDBRANCH  27  28
ENDBRANCH  26  27
ENDBRANCH  20  26
BRANCH  21  32
ATOM     32  O   UNL     1      25.439  26.473  24.725  1.00  0.00    -0.387 OA
ATOM     33  H   UNL     1      24.829  26.250  23.971  1.00  0.00     0.211 HD
ENDBRANCH  21  32
BRANCH  22  34
ATOM     34  O   UNL     1      26.759  26.952  27.053  1.00  0.00    -0.385 OA
ATOM     35  H   UNL     1      26.635  27.890  27.344  1.00  0.00     0.211 HD
ENDBRANCH  22  34
ENDBRANCH  16  17
ENDBRANCH  11  16
BRANCH  13  36
ATOM     36  O   UNL     1      21.135  28.144  23.189  1.00  0.00    -0.385 OA
ATOM     37  H   UNL     1      21.327  28.463  24.113  1.00  0.00     0.211 HD
ENDBRANCH  13  36
BRANCH  14  38
ATOM     38  O   UNL     1      20.899  26.929  20.651  1.00  0.00    -0.387 OA
ATOM     39  H   UNL     1      20.639  27.877  20.859  1.00  0.00     0.211 HD
ENDBRANCH  14  38
BRANCH  15  40
ATOM     40  O   UNL     1      22.405  24.932  20.257  1.00  0.00    -0.387 OA
ATOM     41  H   UNL     1      23.392  25.014  20.307  1.00  0.00     0.211 HD
ENDBRANCH  15  40
ENDBRANCH   9  10
ENDBRANCH   8   9
ENDBRANCH   3   8
BRANCH   3  42
ATOM     42  C   UNL     1      26.528  24.321  20.361  1.00  0.00     0.364 C 
ATOM     43  O   UNL     1      26.279  23.875  19.186  1.00  0.00    -0.246 OA
BRANCH  42  44
ATOM     44  O   UNL     1      27.373  23.630  21.181  1.00  0.00    -0.477 OA
ATOM     45  H   UNL     1      27.247  22.629  21.299  1.00  0.00     0.296 HD
ENDBRANCH  42  44
ENDBRANCH   3  42
BRANCH   6  46
ATOM     46  O   UNL     1      26.367  28.057  22.738  1.00  0.00    -0.391 OA
ATOM     47  H   UNL     1      25.887  28.873  22.980  1.00  0.00     0.211 HD
ENDBRANCH   6  46
BRANCH   7  48
ATOM     48  N   UNL     1      24.842  29.516  20.565  1.00  0.00    -0.348 N 
ATOM     49  C   UNL     1      24.146  30.186  21.605  1.00  0.00     0.217 C 
ATOM     50  H   UNL     1      25.125  30.047  19.713  1.00  0.00     0.163 HD
ATOM     51  C   UNL     1      23.817  31.616  21.447  1.00  0.00     0.114 C 
ATOM     52  O   UNL     1      23.822  29.565  22.640  1.00  0.00    -0.275 OA
ENDBRANCH   7  48
ENDBRANCH   1   2
BRANCH   1  53
ATOM     53  O   UNL     1      22.993  27.484  18.977  1.00  0.00    -0.388 OA
ATOM     54  H   UNL     1      22.739  26.565  18.752  1.00  0.00     0.211 HD
ENDBRANCH   1  53
BRANCH   1  55
ATOM     55  C   UNL     1      24.197  26.918  17.057  1.00  0.00     0.165 C 
BRANCH  55  56
ATOM     56  O   UNL     1      25.542  26.502  16.838  1.00  0.00    -0.388 OA
ATOM     57  H   UNL     1      26.069  26.755  17.623  1.00  0.00     0.211 HD
ENDBRANCH  55  56
BRANCH  55  58
ATOM     58  C   UNL     1      23.709  27.571  15.833  1.00  0.00     0.154 C 
BRANCH  58  59
ATOM     59  N   UNL     1      22.628  28.466  15.987  1.00  0.00    -0.319 N 
ATOM     60  C   UNL     1      21.265  28.118  16.040  1.00  0.00     0.407 C 
ATOM     61  H   UNL     1      22.793  29.537  16.078  1.00  0.00     0.167 HD
ATOM     62  O   UNL     1      20.871  26.935  15.948  1.00  0.00    -0.225 OA
BRANCH  60  63
ATOM     63  O   UNL     1      20.256  29.073  16.202  1.00  0.00    -0.443 OA
BRANCH  63  64
ATOM     64  C   UNL     1      20.231  29.958  17.302  1.00  0.00     0.294 C 
BRANCH  64  65
ATOM     65  C   UNL     1      19.426  29.415  18.422  1.00  0.00     0.121 A 
ATOM     66  C   UNL     1      19.135  30.036  19.609  1.00  0.00     0.146 A 
ATOM     67  N   UNL     1      18.843  28.198  18.508  1.00  0.00    -0.131 NA
ATOM     68  N   UNL     1      18.380  29.182  20.398  1.00  0.00    -0.202 N 
ATOM     69  N   UNL     1      18.243  28.108  19.681  1.00  0.00    -0.060 NA
BRANCH  68  70
ATOM     70  C   UNL     1      17.985  29.610  21.677  1.00  0.00     0.164 A 
ATOM     71  N   UNL     1      18.946  29.902  22.589  1.00  0.00    -0.193 NA
ATOM     72  C   UNL     1      16.655  29.837  22.061  1.00  0.00     0.026 A 
ATOM     73  C   UNL     1      18.688  30.386  23.805  1.00  0.00     0.222 A 
ATOM     74  C   UNL     1      16.367  30.335  23.296  1.00  0.00     0.081 A 
ATOM     75  N   UNL     1      17.415  30.597  24.147  1.00  0.00    -0.213 NA
BRANCH  72  76
ATOM     76  C   UNL     1      15.633  29.398  21.104  1.00  0.00     0.070 C 
BRANCH  76  77
ATOM     77  C   UNL     1      15.164  30.479  20.153  1.00  0.00     0.165 C 
BRANCH  77  78
ATOM     78  O   UNL     1      14.901  30.105  18.871  1.00  0.00    -0.381 OA
BRANCH  78  79
ATOM     79  C   UNL     1      15.772  30.492  17.897  1.00  0.00     0.156 C 
ATOM     80  C   UNL     1      15.999  29.367  16.872  1.00  0.00     0.035 C 
ENDBRANCH  78  79
ENDBRANCH  77  78
ENDBRANCH  76  77
ENDBRANCH  72  76
BRANCH  73  81
ATOM     81  N   UNL     1      19.738  30.674  24.732  1.00  0.00    -0.368 N 
ATOM     82  H   UNL     1      20.384  31.472  24.561  1.00  0.00     0.159 HD
ATOM     83  H   UNL     1      19.897  30.120  25.590  1.00  0.00     0.159 HD
ENDBRANCH  73  81
BRANCH  74  84
ATOM     84  C   UNL     1      15.027  30.620  23.758  1.00  0.00     0.001 A 
ATOM     85  C   UNL     1      14.549  31.920  23.612  1.00  0.00     0.010 A 
ATOM     86  C   UNL     1      14.208  29.651  24.308  1.00  0.00     0.010 A 
ATOM     87  C   UNL     1      13.263  32.265  24.006  1.00  0.00     0.001 A 
ATOM     88  C   UNL     1      12.939  30.013  24.692  1.00  0.00     0.001 A 
ATOM     89  C   UNL     1      12.459  31.291  24.551  1.00  0.00     0.000 A 
ENDBRANCH  74  84
ENDBRANCH  68  70
ENDBRANCH  64  65
ENDBRANCH  63  64
ENDBRANCH  60  63
ENDBRANCH  58  59
ENDBRANCH  55  58
ENDBRANCH   1  55
TORSDOF 36
