REMARK VINA RESULT:    -5.843      7.489     14.109
REMARK INTER + INTRA:         -21.849
REMARK INTER:                 -14.732
REMARK INTRA:                  -7.117
REMARK UNBOUND:                -6.784
REMARK SMILES COc1ccc(Cn2cc(COC(=O)NC[C@@H](O)C(O)[C@@H]3O[C@@](OC[C@H]4O[C@@H](O[C@H]5[C@H](O)[C@@H](O)[C@H](OCCN=[N+]=[N-])O[C@@H]5CO)[C@H](O)[C@@H](O)[C@H]4O)(C(=O)O)C[C@H](O)[C@H]3NC(C)=O)nn2)cc1
REMARK SMILES IDX 23 1 55 2 56 3 58 4 21 5 22 6 24 7 25 8 26 9 28 10 27 11
REMARK SMILES IDX 46 12 48 13 50 14 29 15 30 16 43 17 42 18 35 19 31 20 33 21
REMARK SMILES IDX 44 22 45 23 36 25 37 26 38 27 39 28 40 29 41 30 32 31 34 33
REMARK SMILES IDX 47 35 49 37 51 39 52 41 53 42 54 43 57 45 19 47 20 48 17 50
REMARK SMILES IDX 18 51 16 53 15 54 13 55 14 57 12 58 11 59 10 60 9 61 63 62
REMARK SMILES IDX 8 63 64 64 7 65 6 66 5 67 65 68 4 69 66 70 3 71 2 72 1 73
REMARK SMILES IDX 59 74 60 75 61 77 62 78
REMARK H PARENT 45 24 32 32 34 34 47 36 49 38 51 40 54 44 57 46 20 49 18 52
REMARK H PARENT 15 56 59 76
REMARK Flexibility Score: inf
ROOT
ATOM      1  C   UNL     1      15.986  31.047  19.460  1.00  0.00     0.272 C 
ATOM      2  C   UNL     1      16.178  29.602  19.872  1.00  0.00     0.113 C 
ATOM      3  C   UNL     1      15.815  28.687  18.720  1.00  0.00     0.145 C 
ATOM      4  C   UNL     1      16.398  29.114  17.405  1.00  0.00     0.142 C 
ATOM      5  C   UNL     1      17.152  30.431  17.479  1.00  0.00     0.178 C 
ATOM      6  O   UNL     1      16.498  31.358  18.267  1.00  0.00    -0.332 OA
ENDROOT
BRANCH   1   7
ATOM      7  O   UNL     1      16.188  31.901  20.490  1.00  0.00    -0.338 OA
BRANCH   7   8
ATOM      8  C   UNL     1      17.378  32.433  20.793  1.00  0.00     0.199 C 
BRANCH   8   9
ATOM      9  C   UNL     1      17.968  31.882  22.074  1.00  0.00     0.179 C 
ATOM     10  C   UNL     1      17.263  31.287  24.155  1.00  0.00     0.282 C 
ATOM     11  O   UNL     1      16.970  31.154  22.780  1.00  0.00    -0.341 OA
ATOM     12  C   UNL     1      18.718  31.165  24.426  1.00  0.00     0.202 C 
ATOM     13  C   UNL     1      19.563  30.602  23.334  1.00  0.00     0.179 C 
ATOM     14  C   UNL     1      19.121  30.962  21.930  1.00  0.00     0.177 C 
BRANCH  10  15
ATOM     15  O   UNL     1      16.410  30.558  24.934  1.00  0.00    -0.341 OA
BRANCH  15  16
ATOM     16  C   UNL     1      15.073  30.885  24.869  1.00  0.00     0.184 C 
ATOM     17  C   UNL     1      14.383  31.019  26.205  1.00  0.00     0.178 C 
ATOM     18  O   UNL     1      13.028  30.704  26.098  1.00  0.00    -0.341 OA
ATOM     19  C   UNL     1      12.488  31.040  24.844  1.00  0.00     0.281 C 
ATOM     20  C   UNL     1      14.389  29.652  24.249  1.00  0.00     0.180 C 
ATOM     21  C   UNL     1      13.052  30.121  23.744  1.00  0.00     0.202 C 
BRANCH  17  22
ATOM     22  C   UNL     1      14.469  32.376  26.828  1.00  0.00     0.191 C 
BRANCH  22  23
ATOM     23  O   UNL     1      13.315  32.619  27.570  1.00  0.00    -0.394 OA
ATOM     24  H   UNL     1      13.277  31.926  28.289  1.00  0.00     0.210 HD
ENDBRANCH  22  23
ENDBRANCH  17  22
BRANCH  19  25
ATOM     25  O   UNL     1      12.622  32.346  24.503  1.00  0.00    -0.350 OA
BRANCH  25  26
ATOM     26  C   UNL     1      12.311  32.744  23.239  1.00  0.00     0.169 C 
BRANCH  26  27
ATOM     27  C   UNL     1      13.217  33.708  22.570  1.00  0.00     0.119 C 
BRANCH  27  28
ATOM     28  N   UNL     1      13.021  33.834  21.167  1.00  0.00    -0.092 NA
ATOM     29  N   UNL     1      13.739  34.508  20.414  1.00  0.00     0.001 N 
ATOM     30  N   UNL     1      14.588  34.770  19.533  1.00  0.00    -0.003 NA
ENDBRANCH  27  28
ENDBRANCH  26  27
ENDBRANCH  25  26
ENDBRANCH  19  25
BRANCH  20  31
ATOM     31  O   UNL     1      15.173  29.037  23.312  1.00  0.00    -0.387 OA
ATOM     32  H   UNL     1      15.259  28.045  23.480  1.00  0.00     0.211 HD
ENDBRANCH  20  31
BRANCH  21  33
ATOM     33  O   UNL     1      12.198  29.049  23.487  1.00  0.00    -0.385 OA
ATOM     34  H   UNL     1      11.645  28.877  24.294  1.00  0.00     0.211 HD
ENDBRANCH  21  33
ENDBRANCH  15  16
ENDBRANCH  10  15
BRANCH  12  35
ATOM     35  O   UNL     1      19.274  32.384  24.890  1.00  0.00    -0.385 OA
ATOM     36  H   UNL     1      19.983  32.181  25.575  1.00  0.00     0.211 HD
ENDBRANCH  12  35
BRANCH  13  37
ATOM     37  O   UNL     1      19.726  29.201  23.468  1.00  0.00    -0.387 OA
ATOM     38  H   UNL     1      18.824  28.790  23.458  1.00  0.00     0.211 HD
ENDBRANCH  13  37
BRANCH  14  39
ATOM     39  O   UNL     1      18.832  29.830  21.175  1.00  0.00    -0.387 OA
ATOM     40  H   UNL     1      19.568  29.169  21.193  1.00  0.00     0.211 HD
ENDBRANCH  14  39
ENDBRANCH   8   9
ENDBRANCH   7   8
ENDBRANCH   1   7
BRANCH   1  41
ATOM     41  C   UNL     1      14.427  31.138  19.369  1.00  0.00     0.364 C 
ATOM     42  O   UNL     1      13.892  31.501  18.299  1.00  0.00    -0.246 OA
BRANCH  41  43
ATOM     43  O   UNL     1      13.611  30.839  20.404  1.00  0.00    -0.477 OA
ATOM     44  H   UNL     1      13.698  30.129  21.088  1.00  0.00     0.296 HD
ENDBRANCH  41  43
ENDBRANCH   1  41
BRANCH   3  45
ATOM     45  O   UNL     1      16.368  27.429  19.104  1.00  0.00    -0.391 OA
ATOM     46  H   UNL     1      16.834  27.514  19.975  1.00  0.00     0.211 HD
ENDBRANCH   3  45
BRANCH   5  47
ATOM     47  C   UNL     1      18.564  30.121  17.792  1.00  0.00     0.176 C 
BRANCH  47  48
ATOM     48  O   UNL     1      19.490  30.651  16.846  1.00  0.00    -0.388 OA
ATOM     49  H   UNL     1      20.385  30.583  17.242  1.00  0.00     0.211 HD
ENDBRANCH  47  48
BRANCH  47  50
ATOM     50  C   UNL     1      18.929  28.618  17.612  1.00  0.00     0.165 C 
BRANCH  50  51
ATOM     51  O   UNL     1      19.050  27.871  18.714  1.00  0.00    -0.388 OA
ATOM     52  H   UNL     1      19.770  28.210  19.302  1.00  0.00     0.211 HD
ENDBRANCH  50  51
BRANCH  50  53
ATOM     53  C   UNL     1      20.222  28.588  16.768  1.00  0.00     0.154 C 
BRANCH  53  54
ATOM     54  N   UNL     1      21.403  28.537  17.565  1.00  0.00    -0.319 N 
ATOM     55  C   UNL     1      22.235  27.371  17.523  1.00  0.00     0.407 C 
ATOM     56  H   UNL     1      21.674  29.316  18.174  1.00  0.00     0.167 HD
ATOM     57  O   UNL     1      21.907  26.410  16.774  1.00  0.00    -0.225 OA
BRANCH  55  58
ATOM     58  O   UNL     1      23.373  27.350  18.309  1.00  0.00    -0.443 OA
BRANCH  58  59
ATOM     59  C   UNL     1      23.382  28.063  19.560  1.00  0.00     0.294 C 
BRANCH  59  60
ATOM     60  C   UNL     1      22.369  27.450  20.444  1.00  0.00     0.120 A 
ATOM     61  C   UNL     1      22.505  26.277  21.192  1.00  0.00     0.138 A 
ATOM     62  N   UNL     1      21.129  27.888  20.689  1.00  0.00    -0.132 NA
ATOM     63  N   UNL     1      21.348  26.080  21.835  1.00  0.00    -0.248 N 
ATOM     64  N   UNL     1      20.522  27.066  21.521  1.00  0.00    -0.067 NA
BRANCH  63  65
ATOM     65  C   UNL     1      21.047  24.982  22.719  1.00  0.00     0.181 C 
BRANCH  65  66
ATOM     66  C   UNL     1      21.487  25.329  24.088  1.00  0.00    -0.026 A 
ATOM     67  C   UNL     1      22.458  24.554  24.717  1.00  0.00     0.009 A 
ATOM     68  C   UNL     1      20.993  26.404  24.779  1.00  0.00     0.009 A 
ATOM     69  C   UNL     1      22.916  24.841  25.984  1.00  0.00     0.047 A 
ATOM     70  C   UNL     1      21.459  26.695  26.066  1.00  0.00     0.047 A 
ATOM     71  C   UNL     1      22.413  25.931  26.680  1.00  0.00     0.118 A 
BRANCH  71  72
ATOM     72  O   UNL     1      22.906  26.177  27.948  1.00  0.00    -0.497 OA
ATOM     73  C   UNL     1      23.953  25.476  28.551  1.00  0.00     0.278 C 
ENDBRANCH  71  72
ENDBRANCH  65  66
ENDBRANCH  63  65
ENDBRANCH  59  60
ENDBRANCH  58  59
ENDBRANCH  55  58
ENDBRANCH  53  54
ENDBRANCH  50  53
ENDBRANCH  47  50
ENDBRANCH   5  47
BRANCH   4  74
ATOM     74  N   UNL     1      15.483  29.075  16.285  1.00  0.00    -0.348 N 
ATOM     75  C   UNL     1      15.869  28.873  14.932  1.00  0.00     0.217 C 
ATOM     76  H   UNL     1      14.477  29.217  16.460  1.00  0.00     0.163 HD
ATOM     77  C   UNL     1      14.823  28.856  13.840  1.00  0.00     0.114 C 
ATOM     78  O   UNL     1      17.079  28.708  14.646  1.00  0.00    -0.275 OA
ENDBRANCH   4  74
TORSDOF 32
