REMARK VINA RESULT:    -4.754      3.243      9.906
REMARK INTER + INTRA:         -21.425
REMARK INTER:                 -14.259
REMARK INTRA:                  -7.166
REMARK UNBOUND:                -8.334
REMARK SMILES CC[N+](C)(CC)CCCn1cc(COC(=O)NC[C@@H](O)C(O)[C@@H]2O[C@@](OC[C@H]3O[C@@H](O[C@H]4[C@H](O)[C@@H](O)[C@H](OCCN=[N+]=[N-])O[C@@H]4CO)[C@H](O)[C@@H](O)[C@H]3O)(C(=O)O)C[C@H](O)[C@H]2NC(C)=O)nn1
REMARK SMILES IDX 21 1 23 2 25 3 57 4 24 5 58 6 60 7 26 8 27 9 28 10 30 11
REMARK SMILES IDX 29 12 48 13 50 14 52 15 31 16 32 17 45 18 44 19 37 20 33 21
REMARK SMILES IDX 35 22 46 23 47 24 38 26 39 27 40 28 41 29 42 30 43 31 34 32
REMARK SMILES IDX 36 34 49 36 51 38 53 40 54 42 55 43 56 44 59 46 61 48 62 49
REMARK SMILES IDX 63 51 64 52 22 53 19 55 20 56 18 58 17 59 15 60 16 62 14 63
REMARK SMILES IDX 13 64 12 65 11 66 65 67 10 68 66 69 9 70 8 71 7 72 3 73 4 74
REMARK SMILES IDX 2 75 1 76 5 77 6 78
REMARK H PARENT 47 25 34 33 36 35 49 37 51 39 53 41 56 45 59 47 61 50 22 54
REMARK H PARENT 20 57 17 61
REMARK Flexibility Score: inf
ROOT
ATOM      1  C   UNL     1      22.702  27.843  23.578  1.00  0.00     0.176 C 
ENDROOT
BRANCH   1   2
ATOM      2  C   UNL     1      22.895  26.372  23.223  1.00  0.00     0.178 C 
ATOM      3  C   UNL     1      23.258  25.012  21.330  1.00  0.00     0.272 C 
ATOM      4  C   UNL     1      22.476  24.006  22.106  1.00  0.00     0.113 C 
ATOM      5  O   UNL     1      22.872  26.279  21.850  1.00  0.00    -0.332 OA
ATOM      6  C   UNL     1      21.291  24.612  22.813  1.00  0.00     0.145 C 
ATOM      7  C   UNL     1      21.822  25.565  23.881  1.00  0.00     0.142 C 
BRANCH   3   8
ATOM      8  O   UNL     1      22.898  25.103  20.002  1.00  0.00    -0.338 OA
BRANCH   8   9
ATOM      9  C   UNL     1      23.809  24.909  19.035  1.00  0.00     0.199 C 
BRANCH   9  10
ATOM     10  C   UNL     1      23.125  24.599  17.678  1.00  0.00     0.179 C 
ATOM     11  C   UNL     1      22.745  26.763  16.819  1.00  0.00     0.282 C 
ATOM     12  O   UNL     1      22.262  25.548  17.289  1.00  0.00    -0.341 OA
ATOM     13  C   UNL     1      24.041  26.664  16.108  1.00  0.00     0.202 C 
ATOM     14  C   UNL     1      24.039  25.257  15.471  1.00  0.00     0.179 C 
ATOM     15  C   UNL     1      24.214  24.317  16.643  1.00  0.00     0.177 C 
BRANCH  11  16
ATOM     16  O   UNL     1      22.661  27.741  17.820  1.00  0.00    -0.341 OA
BRANCH  16  17
ATOM     17  C   UNL     1      21.457  28.382  17.834  1.00  0.00     0.184 C 
ATOM     18  C   UNL     1      21.363  29.788  17.430  1.00  0.00     0.178 C 
ATOM     19  O   UNL     1      20.035  30.131  17.253  1.00  0.00    -0.341 OA
ATOM     20  C   UNL     1      19.072  29.386  17.832  1.00  0.00     0.281 C 
ATOM     21  C   UNL     1      20.832  28.318  19.247  1.00  0.00     0.180 C 
ATOM     22  C   UNL     1      19.391  28.747  19.160  1.00  0.00     0.202 C 
BRANCH  18  23
ATOM     23  C   UNL     1      22.108  30.180  16.169  1.00  0.00     0.191 C 
BRANCH  23  24
ATOM     24  O   UNL     1      23.486  30.215  16.330  1.00  0.00    -0.394 OA
ATOM     25  H   UNL     1      23.652  30.674  17.215  1.00  0.00     0.210 HD
ENDBRANCH  23  24
ENDBRANCH  18  23
BRANCH  20  26
ATOM     26  O   UNL     1      18.517  28.493  16.933  1.00  0.00    -0.350 OA
BRANCH  26  27
ATOM     27  C   UNL     1      17.166  28.517  16.824  1.00  0.00     0.169 C 
BRANCH  27  28
ATOM     28  C   UNL     1      16.517  29.696  17.519  1.00  0.00     0.119 C 
BRANCH  28  29
ATOM     29  N   UNL     1      15.598  29.210  18.535  1.00  0.00    -0.092 NA
ATOM     30  N   UNL     1      15.938  28.450  19.438  1.00  0.00     0.001 N 
ATOM     31  N   UNL     1      16.264  27.706  20.366  1.00  0.00    -0.003 NA
ENDBRANCH  28  29
ENDBRANCH  27  28
ENDBRANCH  26  27
ENDBRANCH  20  26
BRANCH  21  32
ATOM     32  O   UNL     1      21.041  27.042  19.716  1.00  0.00    -0.387 OA
ATOM     33  H   UNL     1      20.244  26.550  19.970  1.00  0.00     0.211 HD
ENDBRANCH  21  32
BRANCH  22  34
ATOM     34  O   UNL     1      19.103  29.567  20.239  1.00  0.00    -0.385 OA
ATOM     35  H   UNL     1      19.263  30.531  20.066  1.00  0.00     0.211 HD
ENDBRANCH  22  34
ENDBRANCH  16  17
ENDBRANCH  11  16
BRANCH  13  36
ATOM     36  O   UNL     1      24.170  27.563  15.038  1.00  0.00    -0.385 OA
ATOM     37  H   UNL     1      23.323  27.543  14.543  1.00  0.00     0.211 HD
ENDBRANCH  13  36
BRANCH  14  38
ATOM     38  O   UNL     1      25.114  25.146  14.590  1.00  0.00    -0.387 OA
ATOM     39  H   UNL     1      25.929  25.236  15.124  1.00  0.00     0.211 HD
ENDBRANCH  14  38
BRANCH  15  40
ATOM     40  O   UNL     1      25.429  24.662  17.232  1.00  0.00    -0.387 OA
ATOM     41  H   UNL     1      25.567  24.326  18.130  1.00  0.00     0.211 HD
ENDBRANCH  15  40
ENDBRANCH   9  10
ENDBRANCH   8   9
ENDBRANCH   3   8
BRANCH   3  42
ATOM     42  C   UNL     1      24.720  24.873  21.438  1.00  0.00     0.364 C 
ATOM     43  O   UNL     1      25.266  23.761  21.614  1.00  0.00    -0.246 OA
BRANCH  42  44
ATOM     44  O   UNL     1      25.543  25.970  21.350  1.00  0.00    -0.477 OA
ATOM     45  H   UNL     1      26.299  26.157  22.006  1.00  0.00     0.296 HD
ENDBRANCH  42  44
ENDBRANCH   3  42
BRANCH   6  46
ATOM     46  O   UNL     1      20.441  25.293  21.975  1.00  0.00    -0.391 OA
ATOM     47  H   UNL     1      20.247  24.775  21.134  1.00  0.00     0.211 HD
ENDBRANCH   6  46
BRANCH   7  48
ATOM     48  N   UNL     1      22.442  24.685  24.886  1.00  0.00    -0.348 N 
ATOM     49  C   UNL     1      22.505  25.056  26.258  1.00  0.00     0.217 C 
ATOM     50  H   UNL     1      22.866  23.764  24.655  1.00  0.00     0.163 HD
ATOM     51  C   UNL     1      23.117  24.201  27.305  1.00  0.00     0.114 C 
ATOM     52  O   UNL     1      22.019  26.151  26.594  1.00  0.00    -0.275 OA
ENDBRANCH   7  48
ENDBRANCH   1   2
BRANCH   1  53
ATOM     53  O   UNL     1      23.465  28.122  24.763  1.00  0.00    -0.388 OA
ATOM     54  H   UNL     1      23.303  29.079  24.976  1.00  0.00     0.211 HD
ENDBRANCH   1  53
BRANCH   1  55
ATOM     55  C   UNL     1      21.276  28.129  23.923  1.00  0.00     0.165 C 
BRANCH  55  56
ATOM     56  O   UNL     1      20.700  28.491  22.635  1.00  0.00    -0.388 OA
ATOM     57  H   UNL     1      20.522  29.481  22.668  1.00  0.00     0.211 HD
ENDBRANCH  55  56
BRANCH  55  58
ATOM     58  C   UNL     1      21.001  29.248  24.858  1.00  0.00     0.154 C 
BRANCH  58  59
ATOM     59  N   UNL     1      21.202  29.152  26.232  1.00  0.00    -0.319 N 
ATOM     60  C   UNL     1      20.515  29.820  27.273  1.00  0.00     0.407 C 
ATOM     61  H   UNL     1      22.000  28.472  26.573  1.00  0.00     0.167 HD
ATOM     62  O   UNL     1      19.589  30.623  27.082  1.00  0.00    -0.225 OA
BRANCH  60  63
ATOM     63  O   UNL     1      20.885  29.591  28.621  1.00  0.00    -0.443 OA
BRANCH  63  64
ATOM     64  C   UNL     1      22.296  29.565  28.908  1.00  0.00     0.294 C 
BRANCH  64  65
ATOM     65  C   UNL     1      22.511  28.158  29.412  1.00  0.00     0.120 A 
ATOM     66  C   UNL     1      23.717  27.546  29.658  1.00  0.00     0.138 A 
ATOM     67  N   UNL     1      21.592  27.252  29.765  1.00  0.00    -0.132 NA
ATOM     68  N   UNL     1      23.483  26.289  30.156  1.00  0.00    -0.252 N 
ATOM     69  N   UNL     1      22.171  26.152  30.202  1.00  0.00    -0.067 NA
BRANCH  68  70
ATOM     70  C   UNL     1      24.500  25.345  30.583  1.00  0.00     0.152 C 
BRANCH  70  71
ATOM     71  C   UNL     1      25.517  25.953  31.448  1.00  0.00     0.085 C 
BRANCH  71  72
ATOM     72  C   UNL     1      26.900  25.450  31.449  1.00  0.00     0.265 C 
BRANCH  72  73
ATOM     73  N   UNL     1      27.935  26.271  30.914  1.00  0.00    -0.326 N 
ATOM     74  C   UNL     1      28.982  26.449  31.884  1.00  0.00     0.334 C 
BRANCH  73  75
ATOM     75  C   UNL     1      27.513  27.531  30.372  1.00  0.00     0.260 C 
ATOM     76  C   UNL     1      27.918  28.709  31.227  1.00  0.00     0.071 C 
ENDBRANCH  73  75
BRANCH  73  77
ATOM     77  C   UNL     1      28.546  25.492  29.825  1.00  0.00     0.260 C 
ATOM     78  C   UNL     1      29.612  26.219  29.084  1.00  0.00     0.071 C 
ENDBRANCH  73  77
ENDBRANCH  72  73
ENDBRANCH  71  72
ENDBRANCH  70  71
ENDBRANCH  68  70
ENDBRANCH  64  65
ENDBRANCH  63  64
ENDBRANCH  60  63
ENDBRANCH  58  59
ENDBRANCH  55  58
ENDBRANCH   1  55
TORSDOF 35
