REMARK VINA RESULT:    -5.949     12.797     17.675
REMARK INTER + INTRA:         -22.840
REMARK INTER:                 -16.438
REMARK INTRA:                  -6.402
REMARK UNBOUND:                -6.283
REMARK SMILES CC(=O)N[C@@H]1[C@@H](O)C[C@](OC[C@H]2O[C@@H](O[C@H]3[C@H](O)[C@@H](O)[C@H](OCCN=[N+]=[N-])O[C@@H]3CO)[C@H](O)[C@@H](O)[C@H]2O)(C(=O)O)O[C@H]1C(O)[C@H](O)CNC(=O)OCc1cn(C[C@H](CC(=O)O)CC(C)C)nn1
REMARK SMILES IDX 43 1 42 2 9 3 8 4 41 5 6 6 5 7 10 8 11 9 12 10 14 11 13 12
REMARK SMILES IDX 32 13 34 14 36 15 15 16 16 17 29 18 28 19 21 20 17 21 19 22
REMARK SMILES IDX 30 23 31 24 22 26 23 27 24 28 25 29 26 30 27 31 18 32 20 34
REMARK SMILES IDX 33 36 35 38 37 40 38 42 39 43 40 44 7 46 4 48 2 49 1 51 3 52
REMARK SMILES IDX 44 53 45 55 46 56 47 58 48 59 49 60 50 62 51 63 52 64 53 65
REMARK SMILES IDX 54 66 67 67 55 68 66 69 56 70 57 71 58 72 59 73 60 74 61 75
REMARK SMILES IDX 62 77 63 78 64 79 65 80
REMARK H PARENT 31 25 18 33 20 35 33 37 35 39 37 41 40 45 7 47 4 50 44 54
REMARK H PARENT 46 57 48 61 61 76
REMARK Flexibility Score: inf
ROOT
ATOM      1  C   UNL     1      13.304  29.776  21.420  1.00  0.00     0.176 C 
ENDROOT
BRANCH   1   2
ATOM      2  C   UNL     1      13.104  30.981  22.296  1.00  0.00     0.178 C 
ATOM      3  C   UNL     1      14.165  31.060  24.459  1.00  0.00     0.272 C 
ATOM      4  C   UNL     1      12.902  30.636  25.118  1.00  0.00     0.113 C 
ATOM      5  O   UNL     1      14.166  31.003  23.143  1.00  0.00    -0.332 OA
ATOM      6  C   UNL     1      11.808  30.149  24.256  1.00  0.00     0.145 C 
ATOM      7  C   UNL     1      11.752  30.877  22.911  1.00  0.00     0.142 C 
BRANCH   3   8
ATOM      8  O   UNL     1      15.238  30.266  24.948  1.00  0.00    -0.338 OA
BRANCH   8   9
ATOM      9  C   UNL     1      16.108  29.834  23.997  1.00  0.00     0.199 C 
BRANCH   9  10
ATOM     10  C   UNL     1      17.338  30.767  23.937  1.00  0.00     0.179 C 
ATOM     11  C   UNL     1      19.376  31.164  24.975  1.00  0.00     0.282 C 
ATOM     12  O   UNL     1      18.388  30.242  24.664  1.00  0.00    -0.341 OA
ATOM     13  C   UNL     1      19.464  32.129  23.782  1.00  0.00     0.202 C 
ATOM     14  C   UNL     1      19.202  31.386  22.489  1.00  0.00     0.179 C 
ATOM     15  C   UNL     1      17.806  30.859  22.478  1.00  0.00     0.177 C 
BRANCH  11  16
ATOM     16  O   UNL     1      20.587  30.519  25.002  1.00  0.00    -0.341 OA
BRANCH  16  17
ATOM     17  C   UNL     1      20.713  29.489  25.896  1.00  0.00     0.184 C 
ATOM     18  C   UNL     1      21.656  29.756  27.032  1.00  0.00     0.178 C 
ATOM     19  O   UNL     1      22.764  28.963  27.071  1.00  0.00    -0.341 OA
ATOM     20  C   UNL     1      22.523  27.603  27.089  1.00  0.00     0.281 C 
ATOM     21  C   UNL     1      21.244  28.293  25.133  1.00  0.00     0.180 C 
ATOM     22  C   UNL     1      21.464  27.157  26.142  1.00  0.00     0.202 C 
BRANCH  18  23
ATOM     23  C   UNL     1      20.851  29.723  28.318  1.00  0.00     0.191 C 
BRANCH  23  24
ATOM     24  O   UNL     1      21.646  30.019  29.422  1.00  0.00    -0.394 OA
ATOM     25  H   UNL     1      22.253  29.267  29.662  1.00  0.00     0.210 HD
ENDBRANCH  23  24
ENDBRANCH  18  23
BRANCH  20  26
ATOM     26  O   UNL     1      22.310  27.229  28.408  1.00  0.00    -0.350 OA
BRANCH  26  27
ATOM     27  C   UNL     1      22.197  25.859  28.575  1.00  0.00     0.169 C 
BRANCH  27  28
ATOM     28  C   UNL     1      23.613  25.309  28.679  1.00  0.00     0.119 C 
BRANCH  28  29
ATOM     29  N   UNL     1      23.914  25.254  30.103  1.00  0.00    -0.092 NA
ATOM     30  N   UNL     1      25.065  25.361  30.456  1.00  0.00     0.001 N 
ATOM     31  N   UNL     1      26.135  25.290  31.075  1.00  0.00    -0.003 NA
ENDBRANCH  28  29
ENDBRANCH  27  28
ENDBRANCH  26  27
ENDBRANCH  20  26
BRANCH  21  32
ATOM     32  O   UNL     1      20.356  27.927  24.138  1.00  0.00    -0.387 OA
ATOM     33  H   UNL     1      20.274  28.718  23.516  1.00  0.00     0.211 HD
ENDBRANCH  21  32
BRANCH  22  34
ATOM     34  O   UNL     1      21.862  26.054  25.358  1.00  0.00    -0.385 OA
ATOM     35  H   UNL     1      22.334  25.433  25.952  1.00  0.00     0.211 HD
ENDBRANCH  22  34
ENDBRANCH  16  17
ENDBRANCH  11  16
BRANCH  13  36
ATOM     36  O   UNL     1      18.697  33.254  23.947  1.00  0.00    -0.385 OA
ATOM     37  H   UNL     1      18.081  33.224  24.700  1.00  0.00     0.211 HD
ENDBRANCH  13  36
BRANCH  14  38
ATOM     38  O   UNL     1      20.099  30.298  22.491  1.00  0.00    -0.387 OA
ATOM     39  H   UNL     1      20.463  30.118  21.611  1.00  0.00     0.211 HD
ENDBRANCH  14  38
BRANCH  15  40
ATOM     40  O   UNL     1      17.848  29.567  21.915  1.00  0.00    -0.387 OA
ATOM     41  H   UNL     1      17.039  29.071  22.120  1.00  0.00     0.211 HD
ENDBRANCH  15  40
ENDBRANCH   9  10
ENDBRANCH   8   9
ENDBRANCH   3   8
BRANCH   3  42
ATOM     42  C   UNL     1      14.545  32.446  24.943  1.00  0.00     0.364 C 
ATOM     43  O   UNL     1      14.983  32.612  26.088  1.00  0.00    -0.246 OA
BRANCH  42  44
ATOM     44  O   UNL     1      14.410  33.527  24.120  1.00  0.00    -0.477 OA
ATOM     45  H   UNL     1      14.838  34.432  24.312  1.00  0.00     0.296 HD
ENDBRANCH  42  44
ENDBRANCH   3  42
BRANCH   6  46
ATOM     46  O   UNL     1      11.737  28.790  24.044  1.00  0.00    -0.391 OA
ATOM     47  H   UNL     1      10.812  28.515  24.261  1.00  0.00     0.211 HD
ENDBRANCH   6  46
BRANCH   7  48
ATOM     48  N   UNL     1      11.079  32.120  23.177  1.00  0.00    -0.348 N 
ATOM     49  C   UNL     1      10.775  32.982  22.057  1.00  0.00     0.217 C 
ATOM     50  H   UNL     1      10.786  32.472  24.114  1.00  0.00     0.163 HD
ATOM     51  C   UNL     1      10.066  34.279  22.336  1.00  0.00     0.114 C 
ATOM     52  O   UNL     1      11.083  32.683  20.877  1.00  0.00    -0.275 OA
ENDBRANCH   7  48
ENDBRANCH   1   2
BRANCH   1  53
ATOM     53  O   UNL     1      14.015  28.791  22.170  1.00  0.00    -0.388 OA
ATOM     54  H   UNL     1      13.390  28.062  22.421  1.00  0.00     0.211 HD
ENDBRANCH   1  53
BRANCH   1  55
ATOM     55  C   UNL     1      14.154  29.957  20.182  1.00  0.00     0.165 C 
BRANCH  55  56
ATOM     56  O   UNL     1      13.311  30.863  19.405  1.00  0.00    -0.388 OA
ATOM     57  H   UNL     1      13.949  31.146  18.674  1.00  0.00     0.211 HD
ENDBRANCH  55  56
BRANCH  55  58
ATOM     58  C   UNL     1      14.195  28.741  19.323  1.00  0.00     0.154 C 
BRANCH  58  59
ATOM     59  N   UNL     1      15.391  28.646  18.565  1.00  0.00    -0.319 N 
ATOM     60  C   UNL     1      16.506  27.992  19.211  1.00  0.00     0.407 C 
ATOM     61  H   UNL     1      15.576  28.991  17.606  1.00  0.00     0.167 HD
ATOM     62  O   UNL     1      16.372  27.542  20.383  1.00  0.00    -0.225 OA
BRANCH  60  63
ATOM     63  O   UNL     1      17.738  27.830  18.617  1.00  0.00    -0.443 OA
BRANCH  63  64
ATOM     64  C   UNL     1      18.807  28.752  18.672  1.00  0.00     0.294 C 
BRANCH  64  65
ATOM     65  C   UNL     1      19.960  28.263  19.480  1.00  0.00     0.120 A 
ATOM     66  C   UNL     1      21.249  28.007  19.073  1.00  0.00     0.138 A 
ATOM     67  N   UNL     1      19.906  27.990  20.787  1.00  0.00    -0.132 NA
ATOM     68  N   UNL     1      21.961  27.577  20.158  1.00  0.00    -0.252 N 
ATOM     69  N   UNL     1      21.109  27.586  21.156  1.00  0.00    -0.067 NA
BRANCH  68  70
ATOM     70  C   UNL     1      23.321  27.180  20.190  1.00  0.00     0.150 C 
BRANCH  70  71
ATOM     71  C   UNL     1      23.600  25.811  19.733  1.00  0.00     0.022 C 
BRANCH  71  72
ATOM     72  C   UNL     1      24.096  25.646  18.345  1.00  0.00     0.128 C 
BRANCH  72  73
ATOM     73  C   UNL     1      23.176  25.039  17.374  1.00  0.00     0.303 C 
ATOM     74  O   UNL     1      22.322  25.764  16.799  1.00  0.00    -0.252 OA
BRANCH  73  75
ATOM     75  O   UNL     1      23.187  23.691  17.042  1.00  0.00    -0.481 OA
ATOM     76  H   UNL     1      22.360  23.252  16.664  1.00  0.00     0.296 HD
ENDBRANCH  73  75
ENDBRANCH  72  73
ENDBRANCH  71  72
BRANCH  71  77
ATOM     77  C   UNL     1      22.558  24.796  20.109  1.00  0.00     0.009 C 
BRANCH  77  78
ATOM     78  C   UNL     1      22.699  24.045  21.355  1.00  0.00    -0.017 C 
ATOM     79  C   UNL     1      24.015  24.029  22.045  1.00  0.00     0.007 C 
ATOM     80  C   UNL     1      21.631  24.342  22.391  1.00  0.00     0.007 C 
ENDBRANCH  77  78
ENDBRANCH  71  77
ENDBRANCH  70  71
ENDBRANCH  68  70
ENDBRANCH  64  65
ENDBRANCH  63  64
ENDBRANCH  60  63
ENDBRANCH  58  59
ENDBRANCH  55  58
ENDBRANCH   1  55
TORSDOF 36
