REMARK VINA RESULT:    -5.391     16.322     20.575
REMARK INTER + INTRA:         -20.605
REMARK INTER:                 -12.636
REMARK INTRA:                  -7.970
REMARK UNBOUND:                -6.390
REMARK SMILES CCOC(=O)Cn1cc(COC(=O)NC[C@@H](O)C(O)[C@@H]2O[C@@](OC[C@H]3O[C@@H](O[C@H]4[C@H](O)[C@@H](O)[C@H](OCCN=[N+]=[N-])O[C@@H]4CO)[C@H](O)[C@@H](O)[C@H]3O)(C(=O)O)C[C@H](O)[C@H]2NC(C)=O)nn1
REMARK SMILES IDX 18 1 20 2 22 3 54 4 21 5 55 6 57 7 23 8 24 9 25 10 27 11
REMARK SMILES IDX 26 12 45 13 47 14 49 15 28 16 29 17 42 18 41 19 34 20 30 21
REMARK SMILES IDX 32 22 43 23 44 24 35 26 36 27 37 28 38 29 39 30 40 31 31 32
REMARK SMILES IDX 33 34 46 36 48 38 50 40 51 42 52 43 53 44 56 46 58 48 59 49
REMARK SMILES IDX 60 51 61 52 19 53 16 55 17 56 15 58 14 59 12 60 13 62 11 63
REMARK SMILES IDX 10 64 9 65 8 66 62 67 7 68 63 69 6 70 4 71 5 72 3 73 2 74
REMARK SMILES IDX 1 75
REMARK H PARENT 44 25 31 33 33 35 46 37 48 39 50 41 53 45 56 47 58 50 19 54
REMARK H PARENT 17 57 14 61
REMARK Flexibility Score: inf
ROOT
ATOM      1  C   UNL     1       2.928  20.321  31.045  1.00  0.00     0.176 C 
ENDROOT
BRANCH   1   2
ATOM      2  C   UNL     1       1.843  20.814  30.128  1.00  0.00     0.178 C 
ATOM      3  C   UNL     1       1.528  22.115  28.210  1.00  0.00     0.272 C 
ATOM      4  C   UNL     1       0.102  22.035  28.635  1.00  0.00     0.113 C 
ATOM      5  O   UNL     1       2.340  21.196  28.910  1.00  0.00    -0.332 OA
ATOM      6  C   UNL     1      -0.114  22.259  30.097  1.00  0.00     0.145 C 
ATOM      7  C   UNL     1       1.202  22.008  30.814  1.00  0.00     0.142 C 
BRANCH   3   8
ATOM      8  O   UNL     1       2.105  23.364  28.292  1.00  0.00    -0.338 OA
BRANCH   8   9
ATOM      9  C   UNL     1       1.415  24.425  27.815  1.00  0.00     0.199 C 
BRANCH   9  10
ATOM     10  C   UNL     1       2.391  25.611  27.680  1.00  0.00     0.179 C 
ATOM     11  C   UNL     1       4.298  26.552  28.605  1.00  0.00     0.282 C 
ATOM     12  O   UNL     1       3.231  25.693  28.744  1.00  0.00    -0.341 OA
ATOM     13  C   UNL     1       5.088  26.342  27.349  1.00  0.00     0.202 C 
ATOM     14  C   UNL     1       4.151  26.591  26.194  1.00  0.00     0.179 C 
ATOM     15  C   UNL     1       3.027  25.619  26.322  1.00  0.00     0.177 C 
BRANCH  11  16
ATOM     16  O   UNL     1       5.171  26.512  29.679  1.00  0.00    -0.341 OA
BRANCH  16  17
ATOM     17  C   UNL     1       4.620  26.819  30.897  1.00  0.00     0.184 C 
ATOM     18  C   UNL     1       5.336  27.944  31.614  1.00  0.00     0.178 C 
ATOM     19  O   UNL     1       6.022  27.485  32.729  1.00  0.00    -0.341 OA
ATOM     20  C   UNL     1       5.146  26.997  33.726  1.00  0.00     0.281 C 
ATOM     21  C   UNL     1       4.650  25.582  31.794  1.00  0.00     0.180 C 
ATOM     22  C   UNL     1       4.153  26.034  33.159  1.00  0.00     0.202 C 
BRANCH  18  23
ATOM     23  C   UNL     1       4.372  29.063  31.912  1.00  0.00     0.191 C 
BRANCH  23  24
ATOM     24  O   UNL     1       3.069  28.726  31.502  1.00  0.00    -0.394 OA
ATOM     25  H   UNL     1       2.534  28.395  32.250  1.00  0.00     0.210 HD
ENDBRANCH  23  24
ENDBRANCH  18  23
BRANCH  20  26
ATOM     26  O   UNL     1       4.554  28.034  34.399  1.00  0.00    -0.350 OA
BRANCH  26  27
ATOM     27  C   UNL     1       4.507  28.028  35.752  1.00  0.00     0.169 C 
BRANCH  27  28
ATOM     28  C   UNL     1       5.348  27.071  36.510  1.00  0.00     0.119 C 
BRANCH  28  29
ATOM     29  N   UNL     1       4.742  25.856  36.935  1.00  0.00    -0.092 NA
ATOM     30  N   UNL     1       5.426  24.835  37.159  1.00  0.00     0.001 N 
ATOM     31  N   UNL     1       6.293  24.018  37.515  1.00  0.00    -0.003 NA
ENDBRANCH  28  29
ENDBRANCH  27  28
ENDBRANCH  26  27
ENDBRANCH  20  26
BRANCH  21  32
ATOM     32  O   UNL     1       3.786  24.616  31.272  1.00  0.00    -0.387 OA
ATOM     33  H   UNL     1       3.109  25.109  30.714  1.00  0.00     0.211 HD
ENDBRANCH  21  32
BRANCH  22  34
ATOM     34  O   UNL     1       3.952  24.914  33.970  1.00  0.00    -0.385 OA
ATOM     35  H   UNL     1       4.688  24.754  34.610  1.00  0.00     0.211 HD
ENDBRANCH  22  34
ENDBRANCH  16  17
ENDBRANCH  11  16
BRANCH  13  36
ATOM     36  O   UNL     1       6.137  27.252  27.324  1.00  0.00    -0.385 OA
ATOM     37  H   UNL     1       6.673  27.295  28.131  1.00  0.00     0.211 HD
ENDBRANCH  13  36
BRANCH  14  38
ATOM     38  O   UNL     1       4.861  26.324  25.002  1.00  0.00    -0.387 OA
ATOM     39  H   UNL     1       4.394  25.630  24.474  1.00  0.00     0.211 HD
ENDBRANCH  14  38
BRANCH  15  40
ATOM     40  O   UNL     1       3.533  24.343  25.983  1.00  0.00    -0.387 OA
ATOM     41  H   UNL     1       3.581  23.859  26.854  1.00  0.00     0.211 HD
ENDBRANCH  15  40
ENDBRANCH   9  10
ENDBRANCH   8   9
ENDBRANCH   3   8
BRANCH   3  42
ATOM     42  C   UNL     1       1.603  21.640  26.807  1.00  0.00     0.364 C 
ATOM     43  O   UNL     1       0.563  21.242  26.235  1.00  0.00    -0.246 OA
BRANCH  42  44
ATOM     44  O   UNL     1       2.791  21.630  26.133  1.00  0.00    -0.477 OA
ATOM     45  H   UNL     1       2.882  21.247  25.195  1.00  0.00     0.296 HD
ENDBRANCH  42  44
ENDBRANCH   3  42
BRANCH   6  46
ATOM     46  O   UNL     1      -0.662  23.475  30.426  1.00  0.00    -0.391 OA
ATOM     47  H   UNL     1       0.009  24.189  30.235  1.00  0.00     0.211 HD
ENDBRANCH   6  46
BRANCH   7  48
ATOM     48  N   UNL     1       0.976  21.746  32.229  1.00  0.00    -0.348 N 
ATOM     49  C   UNL     1       1.097  22.757  33.211  1.00  0.00     0.217 C 
ATOM     50  H   UNL     1       0.713  20.789  32.522  1.00  0.00     0.163 HD
ATOM     51  C   UNL     1       0.868  22.502  34.664  1.00  0.00     0.114 C 
ATOM     52  O   UNL     1       1.412  23.918  32.831  1.00  0.00    -0.275 OA
ENDBRANCH   7  48
ENDBRANCH   1   2
BRANCH   1  53
ATOM     53  O   UNL     1       3.195  18.986  30.812  1.00  0.00    -0.388 OA
ATOM     54  H   UNL     1       4.168  18.794  30.682  1.00  0.00     0.211 HD
ENDBRANCH   1  53
BRANCH   1  55
ATOM     55  C   UNL     1       4.221  21.107  30.914  1.00  0.00     0.165 C 
BRANCH  55  56
ATOM     56  O   UNL     1       5.186  20.440  30.197  1.00  0.00    -0.388 OA
ATOM     57  H   UNL     1       6.057  20.380  30.654  1.00  0.00     0.211 HD
ENDBRANCH  55  56
BRANCH  55  58
ATOM     58  C   UNL     1       4.698  21.463  32.282  1.00  0.00     0.154 C 
BRANCH  58  59
ATOM     59  N   UNL     1       6.044  21.911  32.347  1.00  0.00    -0.319 N 
ATOM     60  C   UNL     1       6.597  22.714  33.380  1.00  0.00     0.407 C 
ATOM     61  H   UNL     1       6.739  21.643  31.566  1.00  0.00     0.167 HD
ATOM     62  O   UNL     1       5.921  23.097  34.350  1.00  0.00    -0.225 OA
BRANCH  60  63
ATOM     63  O   UNL     1       7.951  23.085  33.309  1.00  0.00    -0.443 OA
BRANCH  63  64
ATOM     64  C   UNL     1       8.621  23.559  34.429  1.00  0.00     0.294 C 
BRANCH  64  65
ATOM     65  C   UNL     1       9.364  24.814  34.203  1.00  0.00     0.120 A 
ATOM     66  C   UNL     1       8.849  26.094  34.267  1.00  0.00     0.139 A 
ATOM     67  N   UNL     1      10.656  24.964  33.885  1.00  0.00    -0.132 NA
ATOM     68  N   UNL     1       9.831  26.985  33.988  1.00  0.00    -0.241 N 
ATOM     69  N   UNL     1      10.909  26.265  33.764  1.00  0.00    -0.066 NA
BRANCH  68  70
ATOM     70  C   UNL     1       9.653  28.431  33.957  1.00  0.00     0.268 C 
BRANCH  70  71
ATOM     71  C   UNL     1       9.203  28.855  35.331  1.00  0.00     0.327 C 
ATOM     72  O   UNL     1       9.865  28.598  36.354  1.00  0.00    -0.250 OA
BRANCH  71  73
ATOM     73  O   UNL     1       8.023  29.555  35.511  1.00  0.00    -0.465 OA
BRANCH  73  74
ATOM     74  C   UNL     1       7.316  30.203  34.493  1.00  0.00     0.229 C 
ATOM     75  C   UNL     1       7.729  31.643  34.315  1.00  0.00     0.049 C 
ENDBRANCH  73  74
ENDBRANCH  71  73
ENDBRANCH  70  71
ENDBRANCH  68  70
ENDBRANCH  64  65
ENDBRANCH  63  64
ENDBRANCH  60  63
ENDBRANCH  58  59
ENDBRANCH  55  58
ENDBRANCH   1  55
TORSDOF 33
