REMARK VINA RESULT:    -5.370     15.074     20.420
REMARK INTER + INTRA:         -21.572
REMARK INTER:                 -16.679
REMARK INTRA:                  -4.894
REMARK UNBOUND:                -8.354
REMARK SMILES CC(=O)N[C@@H]1[C@@H](O)C[C@](OC[C@H]2O[C@@H](O[C@H]3[C@H](O)[C@@H](O)[C@H](OCCN=[N+]=[N-])O[C@@H]3CO)[C@H](O)[C@@H](O)[C@H]2O)(C(=O)O)O[C@H]1C(O)[C@H](O)CNC(=O)OCc1cn(-c2cccc(Cl)c2)nn1
REMARK SMILES IDX 9 1 8 2 6 3 5 4 42 5 41 6 10 7 11 8 12 9 14 10 13 11 32 12
REMARK SMILES IDX 34 13 36 14 15 15 16 16 29 17 28 18 21 19 17 20 19 21 30 22
REMARK SMILES IDX 31 23 22 25 23 26 24 27 25 28 26 29 27 30 18 31 20 33 33 35
REMARK SMILES IDX 35 37 37 39 38 41 39 42 40 43 7 45 43 47 44 48 45 50 46 51
REMARK SMILES IDX 47 53 48 54 49 55 50 57 51 58 52 59 53 60 54 61 64 62 55 63
REMARK SMILES IDX 63 64 56 65 57 66 62 67 58 68 60 69 59 70 61 71 4 72 2 73
REMARK SMILES IDX 1 75 3 76
REMARK H PARENT 31 24 18 32 20 34 33 36 35 38 37 40 40 44 7 46 44 49 46 52
REMARK H PARENT 48 56 4 74
REMARK Flexibility Score: inf
ROOT
ATOM      1  C   UNL     1       2.734  21.522  31.005  1.00  0.00     0.272 C 
ATOM      2  C   UNL     1       1.672  21.019  31.877  1.00  0.00     0.113 C 
ATOM      3  C   UNL     1       1.578  21.539  33.272  1.00  0.00     0.145 C 
ATOM      4  C   UNL     1       2.675  22.512  33.625  1.00  0.00     0.142 C 
ATOM      5  C   UNL     1       3.916  21.994  32.879  1.00  0.00     0.178 C 
ATOM      6  O   UNL     1       3.705  22.346  31.579  1.00  0.00    -0.332 OA
ENDROOT
BRANCH   1   7
ATOM      7  O   UNL     1       2.426  22.095  29.809  1.00  0.00    -0.338 OA
BRANCH   7   8
ATOM      8  C   UNL     1       1.406  22.927  29.613  1.00  0.00     0.199 C 
BRANCH   8   9
ATOM      9  C   UNL     1       0.813  23.088  28.252  1.00  0.00     0.179 C 
ATOM     10  C   UNL     1       0.957  24.368  26.335  1.00  0.00     0.282 C 
ATOM     11  O   UNL     1       1.568  24.061  27.564  1.00  0.00    -0.341 OA
ATOM     12  C   UNL     1       0.915  23.134  25.487  1.00  0.00     0.202 C 
ATOM     13  C   UNL     1       0.392  21.888  26.129  1.00  0.00     0.179 C 
ATOM     14  C   UNL     1       1.024  21.755  27.497  1.00  0.00     0.177 C 
BRANCH  10  15
ATOM     15  O   UNL     1       1.817  25.247  25.731  1.00  0.00    -0.341 OA
BRANCH  15  16
ATOM     16  C   UNL     1       2.893  25.721  26.479  1.00  0.00     0.184 C 
ATOM     17  C   UNL     1       2.864  27.150  26.765  1.00  0.00     0.178 C 
ATOM     18  O   UNL     1       4.055  27.799  26.542  1.00  0.00    -0.341 OA
ATOM     19  C   UNL     1       4.797  27.318  25.468  1.00  0.00     0.281 C 
ATOM     20  C   UNL     1       4.103  25.076  25.900  1.00  0.00     0.180 C 
ATOM     21  C   UNL     1       5.305  25.966  25.959  1.00  0.00     0.202 C 
BRANCH  17  22
ATOM     22  C   UNL     1       2.556  27.403  28.251  1.00  0.00     0.191 C 
BRANCH  22  23
ATOM     23  O   UNL     1       3.008  26.263  28.961  1.00  0.00    -0.394 OA
ATOM     24  H   UNL     1       2.823  25.466  28.432  1.00  0.00     0.210 HD
ENDBRANCH  22  23
ENDBRANCH  17  22
BRANCH  19  25
ATOM     25  O   UNL     1       5.846  28.164  25.251  1.00  0.00    -0.350 OA
BRANCH  25  26
ATOM     26  C   UNL     1       5.588  29.281  24.499  1.00  0.00     0.169 C 
BRANCH  26  27
ATOM     27  C   UNL     1       6.390  29.398  23.229  1.00  0.00     0.119 C 
BRANCH  27  28
ATOM     28  N   UNL     1       5.504  29.993  22.217  1.00  0.00    -0.092 NA
ATOM     29  N   UNL     1       5.549  29.481  21.078  1.00  0.00     0.001 N 
ATOM     30  N   UNL     1       5.230  28.800  20.087  1.00  0.00    -0.003 NA
ENDBRANCH  27  28
ENDBRANCH  26  27
ENDBRANCH  25  26
ENDBRANCH  19  25
BRANCH  20  31
ATOM     31  O   UNL     1       4.351  23.843  26.533  1.00  0.00    -0.387 OA
ATOM     32  H   UNL     1       4.323  23.163  25.813  1.00  0.00     0.211 HD
ENDBRANCH  20  31
BRANCH  21  33
ATOM     33  O   UNL     1       6.255  25.471  25.059  1.00  0.00    -0.385 OA
ATOM     34  H   UNL     1       6.978  26.101  24.905  1.00  0.00     0.211 HD
ENDBRANCH  21  33
ENDBRANCH  15  16
ENDBRANCH  10  15
BRANCH  12  35
ATOM     35  O   UNL     1       0.123  23.326  24.344  1.00  0.00    -0.385 OA
ATOM     36  H   UNL     1      -0.378  24.172  24.383  1.00  0.00     0.211 HD
ENDBRANCH  12  35
BRANCH  13  37
ATOM     37  O   UNL     1       0.812  20.793  25.371  1.00  0.00    -0.387 OA
ATOM     38  H   UNL     1       1.738  20.839  25.079  1.00  0.00     0.211 HD
ENDBRANCH  13  37
BRANCH  14  39
ATOM     39  O   UNL     1       2.420  21.730  27.269  1.00  0.00    -0.387 OA
ATOM     40  H   UNL     1       2.861  22.554  27.528  1.00  0.00     0.211 HD
ENDBRANCH  14  39
ENDBRANCH   8   9
ENDBRANCH   7   8
ENDBRANCH   1   7
BRANCH   1  41
ATOM     41  C   UNL     1       3.559  20.291  30.597  1.00  0.00     0.364 C 
ATOM     42  O   UNL     1       3.095  19.138  30.598  1.00  0.00    -0.246 OA
BRANCH  41  43
ATOM     43  O   UNL     1       4.891  20.471  30.204  1.00  0.00    -0.477 OA
ATOM     44  H   UNL     1       5.175  21.406  29.887  1.00  0.00     0.296 HD
ENDBRANCH  41  43
ENDBRANCH   1  41
BRANCH   3  45
ATOM     45  O   UNL     1       0.359  22.120  33.572  1.00  0.00    -0.391 OA
ATOM     46  H   UNL     1      -0.370  21.459  33.621  1.00  0.00     0.211 HD
ENDBRANCH   3  45
BRANCH   5  47
ATOM     47  C   UNL     1       5.196  22.530  33.496  1.00  0.00     0.176 C 
BRANCH  47  48
ATOM     48  O   UNL     1       6.214  22.001  32.660  1.00  0.00    -0.388 OA
ATOM     49  H   UNL     1       7.066  22.470  32.908  1.00  0.00     0.211 HD
ENDBRANCH  47  48
BRANCH  47  50
ATOM     50  C   UNL     1       5.242  24.030  33.297  1.00  0.00     0.165 C 
BRANCH  50  51
ATOM     51  O   UNL     1       5.790  24.320  32.059  1.00  0.00    -0.388 OA
ATOM     52  H   UNL     1       5.228  24.910  31.509  1.00  0.00     0.211 HD
ENDBRANCH  50  51
BRANCH  50  53
ATOM     53  C   UNL     1       6.166  24.641  34.355  1.00  0.00     0.154 C 
BRANCH  53  54
ATOM     54  N   UNL     1       7.509  24.802  33.869  1.00  0.00    -0.319 N 
ATOM     55  C   UNL     1       8.645  24.132  34.347  1.00  0.00     0.407 C 
ATOM     56  H   UNL     1       7.661  25.496  33.070  1.00  0.00     0.167 HD
ATOM     57  O   UNL     1       8.535  23.288  35.267  1.00  0.00    -0.225 OA
BRANCH  55  58
ATOM     58  O   UNL     1       9.941  24.383  33.813  1.00  0.00    -0.443 OA
BRANCH  58  59
ATOM     59  C   UNL     1      10.749  25.376  34.386  1.00  0.00     0.294 C 
BRANCH  59  60
ATOM     60  C   UNL     1      10.465  26.748  33.890  1.00  0.00     0.121 A 
ATOM     61  C   UNL     1      11.387  27.681  33.404  1.00  0.00     0.144 A 
ATOM     62  N   UNL     1       9.291  27.394  33.812  1.00  0.00    -0.131 NA
ATOM     63  N   UNL     1      10.748  28.815  33.065  1.00  0.00    -0.220 N 
ATOM     64  N   UNL     1       9.479  28.629  33.315  1.00  0.00    -0.062 NA
BRANCH  63  65
ATOM     65  C   UNL     1      11.418  29.957  32.547  1.00  0.00     0.068 A 
ATOM     66  C   UNL     1      12.311  29.910  31.501  1.00  0.00     0.028 A 
ATOM     67  C   UNL     1      11.185  31.226  33.103  1.00  0.00     0.049 A 
ATOM     68  C   UNL     1      12.941  31.058  31.030  1.00  0.00     0.004 A 
ATOM     69  C   UNL     1      11.809  32.357  32.637  1.00  0.00     0.043 A 
ATOM     70  C   UNL     1      12.700  32.294  31.590  1.00  0.00     0.020 A 
ATOM     71  Cl  UNL     1      11.506  33.938  33.344  1.00  0.00    -0.084 Cl
ENDBRANCH  63  65
ENDBRANCH  59  60
ENDBRANCH  58  59
ENDBRANCH  55  58
ENDBRANCH  53  54
ENDBRANCH  50  53
ENDBRANCH  47  50
ENDBRANCH   5  47
BRANCH   4  72
ATOM     72  N   UNL     1       2.874  22.652  35.029  1.00  0.00    -0.348 N 
ATOM     73  C   UNL     1       2.303  23.752  35.762  1.00  0.00     0.217 C 
ATOM     74  H   UNL     1       3.426  21.991  35.626  1.00  0.00     0.163 HD
ATOM     75  C   UNL     1       2.493  23.919  37.210  1.00  0.00     0.114 C 
ATOM     76  O   UNL     1       1.624  24.590  35.131  1.00  0.00    -0.275 OA
ENDBRANCH   4  72
TORSDOF 30
