REMARK VINA RESULT:    -5.831      2.922     10.236
REMARK INTER + INTRA:         -21.389
REMARK INTER:                 -13.243
REMARK INTRA:                  -8.146
REMARK UNBOUND:                -7.035
REMARK SMILES CC(=O)N[C@@H]1[C@@H](O)C[C@](OC[C@H]2O[C@@H](O[C@H]3[C@H](O)[C@@H](O)[C@H](OCCN=[N+]=[N-])O[C@@H]3CO)[C@H](O)[C@@H](O)[C@H]2O)(C(=O)O)O[C@H]1C(O)[C@H](O)CNC(=O)OCc1cn([C@@H]2C[C@H]3CC[C@@H](C2)N3C)nn1
REMARK SMILES IDX 9 1 8 2 6 3 5 4 42 5 41 6 10 7 11 8 12 9 14 10 13 11 32 12
REMARK SMILES IDX 34 13 36 14 15 15 16 16 29 17 28 18 21 19 17 20 19 21 30 22
REMARK SMILES IDX 31 23 22 25 23 26 24 27 25 28 26 29 27 30 18 31 20 33 33 35
REMARK SMILES IDX 35 37 37 39 38 41 39 42 40 43 7 45 43 47 44 48 45 50 46 51
REMARK SMILES IDX 47 53 48 54 49 55 50 57 51 58 52 59 53 60 54 61 66 62 55 63
REMARK SMILES IDX 65 64 56 65 62 66 57 67 61 68 58 69 63 70 60 71 59 72 64 73
REMARK SMILES IDX 4 74 2 75 1 77 3 78
REMARK H PARENT 31 24 18 32 20 34 33 36 35 38 37 40 40 44 7 46 44 49 46 52
REMARK H PARENT 48 56 4 76
REMARK Flexibility Score: inf
ROOT
ATOM      1  C   UNL     1      15.414  29.787  20.947  1.00  0.00     0.272 C 
ATOM      2  C   UNL     1      14.838  28.747  20.072  1.00  0.00     0.113 C 
ATOM      3  C   UNL     1      15.913  27.996  19.300  1.00  0.00     0.145 C 
ATOM      4  C   UNL     1      16.805  29.014  18.551  1.00  0.00     0.142 C 
ATOM      5  C   UNL     1      17.114  30.186  19.395  1.00  0.00     0.178 C 
ATOM      6  O   UNL     1      16.813  29.875  20.705  1.00  0.00    -0.332 OA
ENDROOT
BRANCH   1   7
ATOM      7  O   UNL     1      15.211  29.796  22.280  1.00  0.00    -0.338 OA
BRANCH   7   8
ATOM      8  C   UNL     1      14.202  29.417  22.996  1.00  0.00     0.199 C 
BRANCH   8   9
ATOM      9  C   UNL     1      14.172  29.852  24.453  1.00  0.00     0.179 C 
ATOM     10  C   UNL     1      15.877  31.224  25.312  1.00  0.00     0.282 C 
ATOM     11  O   UNL     1      15.504  29.989  24.870  1.00  0.00    -0.341 OA
ATOM     12  C   UNL     1      15.027  31.761  26.414  1.00  0.00     0.202 C 
ATOM     13  C   UNL     1      13.604  31.709  25.979  1.00  0.00     0.179 C 
ATOM     14  C   UNL     1      13.399  31.122  24.626  1.00  0.00     0.177 C 
BRANCH  10  15
ATOM     15  O   UNL     1      16.124  32.129  24.294  1.00  0.00    -0.341 OA
BRANCH  15  16
ATOM     16  C   UNL     1      17.424  32.587  24.240  1.00  0.00     0.184 C 
ATOM     17  C   UNL     1      17.497  34.039  23.985  1.00  0.00     0.178 C 
ATOM     18  O   UNL     1      18.802  34.531  24.094  1.00  0.00    -0.341 OA
ATOM     19  C   UNL     1      19.772  33.528  24.082  1.00  0.00     0.281 C 
ATOM     20  C   UNL     1      18.119  31.943  22.993  1.00  0.00     0.180 C 
ATOM     21  C   UNL     1      19.524  32.451  23.046  1.00  0.00     0.202 C 
BRANCH  17  22
ATOM     22  C   UNL     1      16.561  34.918  24.738  1.00  0.00     0.191 C 
BRANCH  22  23
ATOM     23  O   UNL     1      15.246  34.679  24.349  1.00  0.00    -0.394 OA
ATOM     24  H   UNL     1      14.922  33.860  24.799  1.00  0.00     0.210 HD
ENDBRANCH  22  23
ENDBRANCH  17  22
BRANCH  19  25
ATOM     25  O   UNL     1      20.056  33.060  25.334  1.00  0.00    -0.350 OA
BRANCH  25  26
ATOM     26  C   UNL     1      20.798  31.943  25.486  1.00  0.00     0.169 C 
BRANCH  26  27
ATOM     27  C   UNL     1      20.144  30.833  26.224  1.00  0.00     0.119 C 
BRANCH  27  28
ATOM     28  N   UNL     1      20.408  29.525  25.733  1.00  0.00    -0.092 NA
ATOM     29  N   UNL     1      20.624  29.266  24.545  1.00  0.00     0.001 N 
ATOM     30  N   UNL     1      20.432  28.694  23.467  1.00  0.00    -0.003 NA
ENDBRANCH  27  28
ENDBRANCH  26  27
ENDBRANCH  25  26
ENDBRANCH  19  25
BRANCH  20  31
ATOM     31  O   UNL     1      18.111  30.574  23.075  1.00  0.00    -0.387 OA
ATOM     32  H   UNL     1      17.604  30.275  23.876  1.00  0.00     0.211 HD
ENDBRANCH  20  31
BRANCH  21  33
ATOM     33  O   UNL     1      19.920  32.938  21.797  1.00  0.00    -0.385 OA
ATOM     34  H   UNL     1      20.885  32.896  21.743  1.00  0.00     0.211 HD
ENDBRANCH  21  33
ENDBRANCH  15  16
ENDBRANCH  10  15
BRANCH  12  35
ATOM     35  O   UNL     1      15.203  30.967  27.566  1.00  0.00    -0.385 OA
ATOM     36  H   UNL     1      15.710  30.158  27.291  1.00  0.00     0.211 HD
ENDBRANCH  12  35
BRANCH  13  37
ATOM     37  O   UNL     1      13.026  33.001  25.991  1.00  0.00    -0.387 OA
ATOM     38  H   UNL     1      13.488  33.586  25.344  1.00  0.00     0.211 HD
ENDBRANCH  13  37
BRANCH  14  39
ATOM     39  O   UNL     1      13.658  32.083  23.641  1.00  0.00    -0.387 OA
ATOM     40  H   UNL     1      13.348  32.953  24.026  1.00  0.00     0.211 HD
ENDBRANCH  14  39
ENDBRANCH   8   9
ENDBRANCH   7   8
ENDBRANCH   1   7
BRANCH   1  41
ATOM     41  C   UNL     1      14.844  31.116  20.493  1.00  0.00     0.364 C 
ATOM     42  O   UNL     1      14.087  31.268  19.520  1.00  0.00    -0.246 OA
BRANCH  41  43
ATOM     43  O   UNL     1      15.170  32.281  21.195  1.00  0.00    -0.477 OA
ATOM     44  H   UNL     1      15.391  33.144  20.685  1.00  0.00     0.296 HD
ENDBRANCH  41  43
ENDBRANCH   1  41
BRANCH   3  45
ATOM     45  O   UNL     1      16.656  27.124  20.063  1.00  0.00    -0.391 OA
ATOM     46  H   UNL     1      17.057  27.640  20.826  1.00  0.00     0.211 HD
ENDBRANCH   3  45
BRANCH   5  47
ATOM     47  C   UNL     1      18.670  30.409  19.490  1.00  0.00     0.176 C 
BRANCH  47  48
ATOM     48  O   UNL     1      18.996  30.916  18.158  1.00  0.00    -0.388 OA
ATOM     49  H   UNL     1      19.919  30.563  17.974  1.00  0.00     0.211 HD
ENDBRANCH  47  48
BRANCH  47  50
ATOM     50  C   UNL     1      19.427  29.124  19.527  1.00  0.00     0.165 C 
BRANCH  50  51
ATOM     51  O   UNL     1      19.330  28.538  20.768  1.00  0.00    -0.388 OA
ATOM     52  H   UNL     1      18.707  27.797  20.844  1.00  0.00     0.211 HD
ENDBRANCH  50  51
BRANCH  50  53
ATOM     53  C   UNL     1      20.799  29.162  18.969  1.00  0.00     0.154 C 
BRANCH  53  54
ATOM     54  N   UNL     1      21.407  27.832  18.999  1.00  0.00    -0.319 N 
ATOM     55  C   UNL     1      22.363  27.494  19.962  1.00  0.00     0.407 C 
ATOM     56  H   UNL     1      21.105  27.149  18.288  1.00  0.00     0.167 HD
ATOM     57  O   UNL     1      22.699  28.367  20.815  1.00  0.00    -0.225 OA
BRANCH  55  58
ATOM     58  O   UNL     1      22.964  26.241  20.026  1.00  0.00    -0.443 OA
BRANCH  58  59
ATOM     59  C   UNL     1      22.198  25.084  20.336  1.00  0.00     0.294 C 
BRANCH  59  60
ATOM     60  C   UNL     1      21.926  25.042  21.807  1.00  0.00     0.120 A 
ATOM     61  C   UNL     1      22.801  24.679  22.808  1.00  0.00     0.138 A 
ATOM     62  N   UNL     1      20.787  25.345  22.420  1.00  0.00    -0.132 NA
ATOM     63  N   UNL     1      22.181  24.767  23.993  1.00  0.00    -0.249 N 
ATOM     64  N   UNL     1      20.933  25.183  23.711  1.00  0.00    -0.067 NA
BRANCH  63  65
ATOM     65  C   UNL     1      22.662  24.498  25.327  1.00  0.00     0.112 C 
ATOM     66  C   UNL     1      24.157  24.449  25.433  1.00  0.00     0.046 C 
ATOM     67  C   UNL     1      22.204  25.653  26.231  1.00  0.00     0.046 C 
ATOM     68  C   UNL     1      24.750  25.822  25.257  1.00  0.00     0.058 C 
ATOM     69  C   UNL     1      22.846  26.947  25.769  1.00  0.00     0.058 C 
ATOM     70  N   UNL     1      23.723  26.657  24.649  1.00  0.00    -0.300 NA
ATOM     71  C   UNL     1      25.015  26.501  26.575  1.00  0.00     0.021 C 
ATOM     72  C   UNL     1      23.847  27.419  26.805  1.00  0.00     0.021 C 
ATOM     73  C   UNL     1      24.358  27.831  24.133  1.00  0.00     0.105 C 
ENDBRANCH  63  65
ENDBRANCH  59  60
ENDBRANCH  58  59
ENDBRANCH  55  58
ENDBRANCH  53  54
ENDBRANCH  50  53
ENDBRANCH  47  50
ENDBRANCH   5  47
BRANCH   4  74
ATOM     74  N   UNL     1      16.134  29.308  17.278  1.00  0.00    -0.348 N 
ATOM     75  C   UNL     1      16.832  29.140  16.022  1.00  0.00     0.217 C 
ATOM     76  H   UNL     1      15.156  29.642  17.193  1.00  0.00     0.163 HD
ATOM     77  C   UNL     1      16.235  29.410  14.711  1.00  0.00     0.114 C 
ATOM     78  O   UNL     1      18.012  28.738  16.094  1.00  0.00    -0.275 OA
ENDBRANCH   4  74
TORSDOF 30
