REMARK VINA RESULT:    -6.554     19.060     24.335
REMARK INTER + INTRA:         -22.242
REMARK INTER:                 -15.439
REMARK INTRA:                  -6.803
REMARK UNBOUND:                -5.152
REMARK SMILES CC(=O)N[C@@H]1[C@@H](O)C[C@](OC[C@H]2O[C@@H](O[C@H]3[C@H](O)[C@@H](O)[C@H](OCCN=[N+]=[N-])O[C@@H]3CO)[C@H](O)[C@@H](O)[C@H]2O)(C(=O)O)O[C@H]1C(O)[C@H](O)CNC(=O)OCc1cn(CC(O)c2ccccc2)nn1
REMARK SMILES IDX 9 1 8 2 6 3 5 4 42 5 41 6 10 7 11 8 12 9 14 10 13 11 32 12
REMARK SMILES IDX 34 13 36 14 15 15 16 16 29 17 28 18 21 19 17 20 19 21 30 22
REMARK SMILES IDX 31 23 22 25 23 26 24 27 25 28 26 29 27 30 18 31 20 33 33 35
REMARK SMILES IDX 35 37 37 39 38 41 39 42 40 43 7 45 43 47 44 48 45 50 46 51
REMARK SMILES IDX 47 53 48 54 49 55 50 57 51 58 52 59 53 60 54 61 66 62 55 63
REMARK SMILES IDX 65 64 56 65 57 66 58 67 59 69 60 70 64 71 61 72 63 73 62 74
REMARK SMILES IDX 4 75 2 76 1 78 3 79
REMARK H PARENT 31 24 18 32 20 34 33 36 35 38 37 40 40 44 7 46 44 49 46 52
REMARK H PARENT 48 56 58 68 4 77
REMARK Flexibility Score: inf
ROOT
ATOM      1  C   UNL     1       2.925  23.259  35.194  1.00  0.00     0.272 C 
ATOM      2  C   UNL     1       1.452  23.109  35.275  1.00  0.00     0.113 C 
ATOM      3  C   UNL     1       0.900  21.748  35.038  1.00  0.00     0.145 C 
ATOM      4  C   UNL     1       1.957  20.891  34.416  1.00  0.00     0.142 C 
ATOM      5  C   UNL     1       2.718  21.750  33.423  1.00  0.00     0.178 C 
ATOM      6  O   UNL     1       3.408  22.788  33.968  1.00  0.00    -0.332 OA
ENDROOT
BRANCH   1   7
ATOM      7  O   UNL     1       3.676  22.670  36.166  1.00  0.00    -0.338 OA
BRANCH   7   8
ATOM      8  C   UNL     1       3.608  23.176  37.427  1.00  0.00     0.199 C 
BRANCH   8   9
ATOM      9  C   UNL     1       4.960  23.159  38.102  1.00  0.00     0.179 C 
ATOM     10  C   UNL     1       7.038  24.096  37.790  1.00  0.00     0.282 C 
ATOM     11  O   UNL     1       5.957  23.492  37.206  1.00  0.00    -0.341 OA
ATOM     12  C   UNL     1       6.752  25.438  38.426  1.00  0.00     0.202 C 
ATOM     13  C   UNL     1       5.346  25.399  38.983  1.00  0.00     0.179 C 
ATOM     14  C   UNL     1       5.056  23.960  39.357  1.00  0.00     0.177 C 
BRANCH  10  15
ATOM     15  O   UNL     1       8.060  24.333  36.876  1.00  0.00    -0.341 OA
BRANCH  15  16
ATOM     16  C   UNL     1       7.664  24.492  35.576  1.00  0.00     0.184 C 
ATOM     17  C   UNL     1       8.543  23.574  34.735  1.00  0.00     0.178 C 
ATOM     18  O   UNL     1       9.569  24.275  34.137  1.00  0.00    -0.341 OA
ATOM     19  C   UNL     1      10.205  25.039  35.133  1.00  0.00     0.281 C 
ATOM     20  C   UNL     1       7.892  25.956  35.223  1.00  0.00     0.180 C 
ATOM     21  C   UNL     1       9.369  26.302  35.311  1.00  0.00     0.202 C 
BRANCH  17  22
ATOM     22  C   UNL     1       7.711  22.812  33.719  1.00  0.00     0.191 C 
BRANCH  22  23
ATOM     23  O   UNL     1       6.349  23.017  33.922  1.00  0.00    -0.394 OA
ATOM     24  H   UNL     1       5.816  22.806  33.111  1.00  0.00     0.210 HD
ENDBRANCH  22  23
ENDBRANCH  17  22
BRANCH  19  25
ATOM     25  O   UNL     1      11.477  25.298  34.684  1.00  0.00    -0.350 OA
BRANCH  25  26
ATOM     26  C   UNL     1      12.490  24.982  35.558  1.00  0.00     0.169 C 
BRANCH  26  27
ATOM     27  C   UNL     1      12.244  23.741  36.370  1.00  0.00     0.119 C 
BRANCH  27  28
ATOM     28  N   UNL     1      12.401  24.041  37.797  1.00  0.00    -0.092 NA
ATOM     29  N   UNL     1      11.491  24.734  38.282  1.00  0.00     0.001 N 
ATOM     30  N   UNL     1      10.646  25.258  39.006  1.00  0.00    -0.003 NA
ENDBRANCH  27  28
ENDBRANCH  26  27
ENDBRANCH  25  26
ENDBRANCH  19  25
BRANCH  20  31
ATOM     31  O   UNL     1       7.408  26.224  33.950  1.00  0.00    -0.387 OA
ATOM     32  H   UNL     1       6.442  25.974  33.899  1.00  0.00     0.211 HD
ENDBRANCH  20  31
BRANCH  21  33
ATOM     33  O   UNL     1       9.655  26.966  36.491  1.00  0.00    -0.385 OA
ATOM     34  H   UNL     1       9.799  26.285  37.193  1.00  0.00     0.211 HD
ENDBRANCH  21  33
ENDBRANCH  15  16
ENDBRANCH  10  15
BRANCH  12  35
ATOM     35  O   UNL     1       7.657  25.635  39.475  1.00  0.00    -0.385 OA
ATOM     36  H   UNL     1       8.019  26.558  39.380  1.00  0.00     0.211 HD
ENDBRANCH  12  35
BRANCH  13  37
ATOM     37  O   UNL     1       4.509  25.829  37.957  1.00  0.00    -0.387 OA
ATOM     38  H   UNL     1       3.723  26.315  38.260  1.00  0.00     0.211 HD
ENDBRANCH  13  37
BRANCH  14  39
ATOM     39  O   UNL     1       3.986  23.805  40.205  1.00  0.00    -0.387 OA
ATOM     40  H   UNL     1       3.657  24.655  40.597  1.00  0.00     0.211 HD
ENDBRANCH  14  39
ENDBRANCH   8   9
ENDBRANCH   7   8
ENDBRANCH   1   7
BRANCH   1  41
ATOM     41  C   UNL     1       3.177  24.757  35.128  1.00  0.00     0.364 C 
ATOM     42  O   UNL     1       2.243  25.537  35.216  1.00  0.00    -0.246 OA
BRANCH  41  43
ATOM     43  O   UNL     1       4.496  25.143  34.966  1.00  0.00    -0.477 OA
ATOM     44  H   UNL     1       4.655  26.071  34.635  1.00  0.00     0.296 HD
ENDBRANCH  41  43
ENDBRANCH   1  41
BRANCH   3  45
ATOM     45  O   UNL     1       0.347  21.199  36.196  1.00  0.00    -0.391 OA
ATOM     46  H   UNL     1      -0.260  20.469  35.888  1.00  0.00     0.211 HD
ENDBRANCH   3  45
BRANCH   5  47
ATOM     47  C   UNL     1       3.548  20.797  32.602  1.00  0.00     0.176 C 
BRANCH  47  48
ATOM     48  O   UNL     1       4.777  20.603  33.252  1.00  0.00    -0.388 OA
ATOM     49  H   UNL     1       5.481  20.933  32.628  1.00  0.00     0.211 HD
ENDBRANCH  47  48
BRANCH  47  50
ATOM     50  C   UNL     1       3.720  21.255  31.192  1.00  0.00     0.165 C 
BRANCH  50  51
ATOM     51  O   UNL     1       3.676  22.618  31.067  1.00  0.00    -0.388 OA
ATOM     52  H   UNL     1       3.040  22.954  30.417  1.00  0.00     0.211 HD
ENDBRANCH  50  51
BRANCH  50  53
ATOM     53  C   UNL     1       2.919  20.481  30.178  1.00  0.00     0.154 C 
BRANCH  53  54
ATOM     54  N   UNL     1       2.707  21.137  28.921  1.00  0.00    -0.319 N 
ATOM     55  C   UNL     1       1.531  21.006  28.126  1.00  0.00     0.407 C 
ATOM     56  H   UNL     1       3.468  21.781  28.535  1.00  0.00     0.167 HD
ATOM     57  O   UNL     1       0.585  20.294  28.503  1.00  0.00    -0.225 OA
BRANCH  55  58
ATOM     58  O   UNL     1       1.408  21.664  26.922  1.00  0.00    -0.443 OA
BRANCH  58  59
ATOM     59  C   UNL     1       1.072  23.047  26.814  1.00  0.00     0.294 C 
BRANCH  59  60
ATOM     60  C   UNL     1       2.306  23.836  26.506  1.00  0.00     0.120 A 
ATOM     61  C   UNL     1       2.436  25.109  26.013  1.00  0.00     0.138 A 
ATOM     62  N   UNL     1       3.559  23.371  26.701  1.00  0.00    -0.132 NA
ATOM     63  N   UNL     1       3.766  25.405  25.914  1.00  0.00    -0.249 N 
ATOM     64  N   UNL     1       4.381  24.326  26.341  1.00  0.00    -0.067 NA
BRANCH  63  65
ATOM     65  C   UNL     1       4.325  26.660  25.437  1.00  0.00     0.182 C 
BRANCH  65  66
ATOM     66  C   UNL     1       5.788  26.760  25.831  1.00  0.00     0.166 C 
BRANCH  66  67
ATOM     67  O   UNL     1       6.443  25.805  25.018  1.00  0.00    -0.386 OA
ATOM     68  H   UNL     1       7.088  25.282  25.570  1.00  0.00     0.211 HD
ENDBRANCH  66  67
BRANCH  66  69
ATOM     69  C   UNL     1       6.376  28.087  25.630  1.00  0.00    -0.018 A 
ATOM     70  C   UNL     1       6.001  29.183  26.345  1.00  0.00     0.006 A 
ATOM     71  C   UNL     1       7.354  28.168  24.629  1.00  0.00     0.006 A 
ATOM     72  C   UNL     1       6.611  30.395  26.062  1.00  0.00     0.000 A 
ATOM     73  C   UNL     1       7.940  29.377  24.368  1.00  0.00     0.000 A 
ATOM     74  C   UNL     1       7.571  30.498  25.084  1.00  0.00     0.000 A 
ENDBRANCH  66  69
ENDBRANCH  65  66
ENDBRANCH  63  65
ENDBRANCH  59  60
ENDBRANCH  58  59
ENDBRANCH  55  58
ENDBRANCH  53  54
ENDBRANCH  50  53
ENDBRANCH  47  50
ENDBRANCH   5  47
BRANCH   4  75
ATOM     75  N   UNL     1       1.337  19.834  33.601  1.00  0.00    -0.348 N 
ATOM     76  C   UNL     1       1.035  18.551  34.123  1.00  0.00     0.217 C 
ATOM     77  H   UNL     1       1.106  20.013  32.601  1.00  0.00     0.163 HD
ATOM     78  C   UNL     1       0.411  17.460  33.332  1.00  0.00     0.114 C 
ATOM     79  O   UNL     1       1.313  18.328  35.334  1.00  0.00    -0.275 OA
ENDBRANCH   4  75
TORSDOF 33
