REMARK VINA RESULT:    -6.351      3.994      8.741
REMARK INTER + INTRA:         -23.964
REMARK INTER:                 -15.884
REMARK INTRA:                  -8.080
REMARK UNBOUND:                -7.402
REMARK SMILES CC(=O)N[C@@H]1[C@@H](O)C[C@](OC[C@H]2O[C@@H](O[C@H]3[C@H](O)[C@@H](O)[C@H](OCCN=[N+]=[N-])O[C@@H]3CO)[C@H](O)[C@@H](O)[C@H]2O)(C(=O)O)O[C@H]1C(O)[C@H](O)CNC(=O)OCc1cn(-c2ccc(S(=O)(=O)c3ccc(N)cc3)cc2)nn1
REMARK SMILES IDX 43 1 42 2 9 3 8 4 41 5 6 6 5 7 10 8 11 9 12 10 14 11 13 12
REMARK SMILES IDX 32 13 34 14 36 15 15 16 16 17 29 18 28 19 21 20 17 21 19 22
REMARK SMILES IDX 30 23 31 24 22 26 23 27 24 28 25 29 26 30 27 31 18 32 20 34
REMARK SMILES IDX 33 36 35 38 37 40 38 42 39 43 40 44 7 46 4 48 2 49 1 51 3 52
REMARK SMILES IDX 44 53 45 55 46 56 47 58 48 59 49 60 50 62 51 63 52 64 53 65
REMARK SMILES IDX 54 66 73 67 55 68 72 69 56 70 57 71 71 72 58 73 70 74 59 75
REMARK SMILES IDX 60 76 61 77 62 78 63 79 64 80 69 81 65 82 68 83 66 84 67 85
REMARK H PARENT 31 25 18 33 20 35 33 37 35 39 37 41 40 45 7 47 4 50 44 54
REMARK H PARENT 46 57 48 61 67 86 67 87
REMARK Flexibility Score: inf
ROOT
ATOM      1  C   UNL     1      21.120  26.250  21.902  1.00  0.00     0.176 C 
ENDROOT
BRANCH   1   2
ATOM      2  C   UNL     1      21.714  27.321  22.817  1.00  0.00     0.178 C 
ATOM      3  C   UNL     1      21.190  28.928  24.396  1.00  0.00     0.272 C 
ATOM      4  C   UNL     1      22.110  29.902  23.734  1.00  0.00     0.113 C 
ATOM      5  O   UNL     1      20.717  27.981  23.469  1.00  0.00    -0.332 OA
ATOM      6  C   UNL     1      22.079  29.653  22.235  1.00  0.00     0.145 C 
ATOM      7  C   UNL     1      22.577  28.272  21.973  1.00  0.00     0.142 C 
BRANCH   3   8
ATOM      8  O   UNL     1      20.026  29.487  24.931  1.00  0.00    -0.338 OA
BRANCH   8   9
ATOM      9  C   UNL     1      19.886  30.836  24.800  1.00  0.00     0.199 C 
BRANCH   9  10
ATOM     10  C   UNL     1      18.546  31.144  24.171  1.00  0.00     0.179 C 
ATOM     11  C   UNL     1      16.881  30.285  22.865  1.00  0.00     0.282 C 
ATOM     12  O   UNL     1      18.061  29.967  23.589  1.00  0.00    -0.341 OA
ATOM     13  C   UNL     1      15.833  30.544  23.910  1.00  0.00     0.202 C 
ATOM     14  C   UNL     1      16.192  31.806  24.660  1.00  0.00     0.179 C 
ATOM     15  C   UNL     1      17.609  31.683  25.196  1.00  0.00     0.177 C 
BRANCH  11  16
ATOM     16  O   UNL     1      16.622  29.244  22.013  1.00  0.00    -0.341 OA
BRANCH  16  17
ATOM     17  C   UNL     1      16.095  29.716  20.788  1.00  0.00     0.184 C 
ATOM     18  C   UNL     1      15.567  28.538  20.032  1.00  0.00     0.178 C 
ATOM     19  O   UNL     1      16.036  28.400  18.753  1.00  0.00    -0.341 OA
ATOM     20  C   UNL     1      17.386  28.458  18.565  1.00  0.00     0.281 C 
ATOM     21  C   UNL     1      17.286  30.351  20.082  1.00  0.00     0.180 C 
ATOM     22  C   UNL     1      18.154  29.190  19.642  1.00  0.00     0.202 C 
BRANCH  18  23
ATOM     23  C   UNL     1      14.051  28.776  19.895  1.00  0.00     0.191 C 
BRANCH  23  24
ATOM     24  O   UNL     1      13.495  29.324  21.024  1.00  0.00    -0.394 OA
ATOM     25  H   UNL     1      12.520  29.187  21.115  1.00  0.00     0.210 HD
ENDBRANCH  23  24
ENDBRANCH  18  23
BRANCH  20  26
ATOM     26  O   UNL     1      17.617  29.144  17.377  1.00  0.00    -0.350 OA
BRANCH  26  27
ATOM     27  C   UNL     1      16.809  28.794  16.331  1.00  0.00     0.169 C 
BRANCH  27  28
ATOM     28  C   UNL     1      16.203  29.998  15.691  1.00  0.00     0.119 C 
BRANCH  28  29
ATOM     29  N   UNL     1      15.163  30.553  16.574  1.00  0.00    -0.092 NA
ATOM     30  N   UNL     1      13.970  30.434  16.301  1.00  0.00     0.001 N 
ATOM     31  N   UNL     1      12.820  29.960  16.290  1.00  0.00    -0.003 NA
ENDBRANCH  28  29
ENDBRANCH  27  28
ENDBRANCH  26  27
ENDBRANCH  20  26
BRANCH  21  32
ATOM     32  O   UNL     1      16.868  31.046  18.972  1.00  0.00    -0.387 OA
ATOM     33  H   UNL     1      17.469  31.819  18.794  1.00  0.00     0.211 HD
ENDBRANCH  21  32
BRANCH  22  34
ATOM     34  O   UNL     1      18.535  28.384  20.690  1.00  0.00    -0.385 OA
ATOM     35  H   UNL     1      18.387  27.418  20.510  1.00  0.00     0.211 HD
ENDBRANCH  22  34
ENDBRANCH  16  17
ENDBRANCH  11  16
BRANCH  13  36
ATOM     36  O   UNL     1      14.549  30.612  23.374  1.00  0.00    -0.385 OA
ATOM     37  H   UNL     1      14.003  31.166  24.018  1.00  0.00     0.211 HD
ENDBRANCH  13  36
BRANCH  14  38
ATOM     38  O   UNL     1      15.369  31.895  25.791  1.00  0.00    -0.387 OA
ATOM     39  H   UNL     1      14.982  31.025  25.998  1.00  0.00     0.211 HD
ENDBRANCH  14  38
BRANCH  15  40
ATOM     40  O   UNL     1      17.632  30.938  26.367  1.00  0.00    -0.387 OA
ATOM     41  H   UNL     1      17.472  29.986  26.169  1.00  0.00     0.211 HD
ENDBRANCH  15  40
ENDBRANCH   9  10
ENDBRANCH   8   9
ENDBRANCH   3   8
BRANCH   3  42
ATOM     42  C   UNL     1      21.828  28.166  25.502  1.00  0.00     0.364 C 
ATOM     43  O   UNL     1      21.246  27.343  26.248  1.00  0.00    -0.246 OA
BRANCH  42  44
ATOM     44  O   UNL     1      23.175  28.360  25.757  1.00  0.00    -0.477 OA
ATOM     45  H   UNL     1      23.620  28.000  26.616  1.00  0.00     0.296 HD
ENDBRANCH  42  44
ENDBRANCH   3  42
BRANCH   6  46
ATOM     46  O   UNL     1      20.730  29.694  21.868  1.00  0.00    -0.391 OA
ATOM     47  H   UNL     1      20.226  28.913  22.224  1.00  0.00     0.211 HD
ENDBRANCH   6  46
BRANCH   7  48
ATOM     48  N   UNL     1      23.961  28.052  22.250  1.00  0.00    -0.348 N 
ATOM     49  C   UNL     1      24.846  27.329  21.401  1.00  0.00     0.217 C 
ATOM     50  H   UNL     1      24.371  28.445  23.132  1.00  0.00     0.163 HD
ATOM     51  C   UNL     1      26.266  27.169  21.798  1.00  0.00     0.114 C 
ATOM     52  O   UNL     1      24.388  26.859  20.351  1.00  0.00    -0.275 OA
ENDBRANCH   7  48
ENDBRANCH   1   2
BRANCH   1  53
ATOM     53  O   UNL     1      21.561  26.409  20.598  1.00  0.00    -0.388 OA
ATOM     54  H   UNL     1      21.369  25.581  20.065  1.00  0.00     0.211 HD
ENDBRANCH   1  53
BRANCH   1  55
ATOM     55  C   UNL     1      21.284  24.882  22.441  1.00  0.00     0.165 C 
BRANCH  55  56
ATOM     56  O   UNL     1      20.460  24.674  23.549  1.00  0.00    -0.388 OA
ATOM     57  H   UNL     1      20.859  24.129  24.246  1.00  0.00     0.211 HD
ENDBRANCH  55  56
BRANCH  55  58
ATOM     58  C   UNL     1      22.697  24.650  22.932  1.00  0.00     0.154 C 
BRANCH  58  59
ATOM     59  N   UNL     1      22.777  24.336  24.330  1.00  0.00    -0.319 N 
ATOM     60  C   UNL     1      23.755  24.990  25.121  1.00  0.00     0.407 C 
ATOM     61  H   UNL     1      22.144  23.650  24.770  1.00  0.00     0.167 HD
ATOM     62  O   UNL     1      24.515  25.835  24.566  1.00  0.00    -0.225 OA
BRANCH  60  63
ATOM     63  O   UNL     1      23.946  24.771  26.466  1.00  0.00    -0.443 OA
BRANCH  63  64
ATOM     64  C   UNL     1      24.919  25.426  27.251  1.00  0.00     0.294 C 
BRANCH  64  65
ATOM     65  C   UNL     1      24.231  26.151  28.348  1.00  0.00     0.121 A 
ATOM     66  C   UNL     1      22.886  26.290  28.621  1.00  0.00     0.144 A 
ATOM     67  N   UNL     1      24.858  26.836  29.356  1.00  0.00    -0.131 NA
ATOM     68  N   UNL     1      22.737  27.035  29.759  1.00  0.00    -0.220 N 
ATOM     69  N   UNL     1      23.947  27.337  30.160  1.00  0.00    -0.062 NA
BRANCH  68  70
ATOM     70  C   UNL     1      21.539  27.405  30.406  1.00  0.00     0.066 A 
ATOM     71  C   UNL     1      21.542  28.393  31.396  1.00  0.00     0.030 A 
ATOM     72  C   UNL     1      20.323  26.838  30.119  1.00  0.00     0.030 A 
ATOM     73  C   UNL     1      20.405  28.789  32.054  1.00  0.00     0.023 A 
ATOM     74  C   UNL     1      19.162  27.235  30.785  1.00  0.00     0.023 A 
ATOM     75  C   UNL     1      19.190  28.211  31.757  1.00  0.00     0.072 A 
BRANCH  75  76
ATOM     76  S   UNL     1      17.732  28.711  32.587  1.00  0.00     0.206 S 
ATOM     77  O   UNL     1      18.094  29.824  33.558  1.00  0.00    -0.219 OA
ATOM     78  O   UNL     1      17.037  27.586  33.277  1.00  0.00    -0.219 OA
BRANCH  76  79
ATOM     79  C   UNL     1      16.640  29.450  31.415  1.00  0.00     0.072 A 
ATOM     80  C   UNL     1      15.288  29.269  31.520  1.00  0.00     0.023 A 
ATOM     81  C   UNL     1      17.132  30.214  30.383  1.00  0.00     0.023 A 
ATOM     82  C   UNL     1      14.453  29.844  30.606  1.00  0.00     0.027 A 
ATOM     83  C   UNL     1      16.281  30.785  29.472  1.00  0.00     0.027 A 
ATOM     84  C   UNL     1      14.927  30.622  29.550  1.00  0.00     0.031 A 
BRANCH  84  85
ATOM     85  N   UNL     1      14.027  31.196  28.627  1.00  0.00    -0.399 N 
ATOM     86  H   UNL     1      14.013  32.211  28.454  1.00  0.00     0.156 HD
ATOM     87  H   UNL     1      13.368  30.588  28.109  1.00  0.00     0.156 HD
ENDBRANCH  84  85
ENDBRANCH  76  79
ENDBRANCH  75  76
ENDBRANCH  68  70
ENDBRANCH  64  65
ENDBRANCH  63  64
ENDBRANCH  60  63
ENDBRANCH  58  59
ENDBRANCH  55  58
ENDBRANCH   1  55
TORSDOF 33
