REMARK VINA RESULT:    -6.480      0.000      0.000
REMARK INTER + INTRA:         -22.787
REMARK INTER:                 -15.813
REMARK INTRA:                  -6.974
REMARK UNBOUND:                -6.268
REMARK SMILES CC(=O)N[C@@H]1[C@@H](O)C[C@](OC[C@H]2O[C@@H](O[C@H]3[C@H](O)[C@@H](O)[C@H](OCCN=[N+]=[N-])O[C@@H]3CO)[C@H](O)[C@@H](O)[C@H]2O)(C(=O)O)O[C@H]1C(O)[C@H](O)CNC(=O)OCc1cn(C(C)(C)CO)nn1
REMARK SMILES IDX 9 1 8 2 6 3 5 4 42 5 41 6 10 7 11 8 12 9 14 10 13 11 32 12
REMARK SMILES IDX 34 13 36 14 15 15 16 16 29 17 28 18 21 19 17 20 19 21 30 22
REMARK SMILES IDX 31 23 22 25 23 26 24 27 25 28 26 29 27 30 18 31 20 33 33 35
REMARK SMILES IDX 35 37 37 39 38 41 39 42 40 43 7 45 43 47 44 48 45 50 46 51
REMARK SMILES IDX 47 53 48 54 49 55 50 57 51 58 52 59 53 60 54 61 62 62 55 63
REMARK SMILES IDX 61 64 56 65 57 66 58 67 59 68 60 69 4 71 2 72 1 74 3 75
REMARK H PARENT 31 24 18 32 20 34 33 36 35 38 37 40 40 44 7 46 44 49 46 52
REMARK H PARENT 48 56 60 70 4 73
REMARK Flexibility Score: inf
ROOT
ATOM      1  C   UNL     1      16.608  29.552  18.888  1.00  0.00     0.272 C 
ATOM      2  C   UNL     1      16.289  29.927  17.465  1.00  0.00     0.113 C 
ATOM      3  C   UNL     1      15.266  31.037  17.500  1.00  0.00     0.145 C 
ATOM      4  C   UNL     1      13.959  30.363  17.977  1.00  0.00     0.142 C 
ATOM      5  C   UNL     1      14.281  29.667  19.266  1.00  0.00     0.178 C 
ATOM      6  O   UNL     1      15.533  29.990  19.751  1.00  0.00    -0.332 OA
ENDROOT
BRANCH   1   7
ATOM      7  O   UNL     1      17.678  30.204  19.409  1.00  0.00    -0.338 OA
BRANCH   7   8
ATOM      8  C   UNL     1      18.721  30.606  18.702  1.00  0.00     0.199 C 
BRANCH   8   9
ATOM      9  C   UNL     1      20.019  29.912  18.620  1.00  0.00     0.179 C 
ATOM     10  C   UNL     1      21.275  28.360  19.774  1.00  0.00     0.282 C 
ATOM     11  O   UNL     1      20.008  28.838  19.573  1.00  0.00    -0.341 OA
ATOM     12  C   UNL     1      22.272  28.652  18.710  1.00  0.00     0.202 C 
ATOM     13  C   UNL     1      21.687  28.728  17.317  1.00  0.00     0.179 C 
ATOM     14  C   UNL     1      20.257  29.163  17.315  1.00  0.00     0.177 C 
BRANCH  10  15
ATOM     15  O   UNL     1      21.173  27.001  20.085  1.00  0.00    -0.341 OA
BRANCH  15  16
ATOM     16  C   UNL     1      22.362  26.425  20.463  1.00  0.00     0.184 C 
ATOM     17  C   UNL     1      22.334  24.913  20.455  1.00  0.00     0.178 C 
ATOM     18  O   UNL     1      22.886  24.345  21.584  1.00  0.00    -0.341 OA
ATOM     19  C   UNL     1      22.272  24.646  22.769  1.00  0.00     0.281 C 
ATOM     20  C   UNL     1      22.608  26.881  21.913  1.00  0.00     0.180 C 
ATOM     21  C   UNL     1      21.658  26.028  22.733  1.00  0.00     0.202 C 
BRANCH  17  22
ATOM     22  C   UNL     1      23.209  24.487  19.283  1.00  0.00     0.191 C 
BRANCH  22  23
ATOM     23  O   UNL     1      22.700  25.026  18.100  1.00  0.00    -0.394 OA
ATOM     24  H   UNL     1      22.632  24.380  17.372  1.00  0.00     0.210 HD
ENDBRANCH  22  23
ENDBRANCH  17  22
BRANCH  19  25
ATOM     25  O   UNL     1      23.213  24.510  23.774  1.00  0.00    -0.350 OA
BRANCH  25  26
ATOM     26  C   UNL     1      22.738  24.578  25.045  1.00  0.00     0.169 C 
BRANCH  26  27
ATOM     27  C   UNL     1      23.408  25.638  25.905  1.00  0.00     0.119 C 
BRANCH  27  28
ATOM     28  N   UNL     1      22.547  26.044  26.999  1.00  0.00    -0.092 NA
ATOM     29  N   UNL     1      21.853  27.057  26.832  1.00  0.00     0.001 N 
ATOM     30  N   UNL     1      20.875  27.814  26.645  1.00  0.00    -0.003 NA
ENDBRANCH  27  28
ENDBRANCH  26  27
ENDBRANCH  25  26
ENDBRANCH  19  25
BRANCH  20  31
ATOM     31  O   UNL     1      23.947  26.574  22.172  1.00  0.00    -0.387 OA
ATOM     32  H   UNL     1      24.001  25.582  22.148  1.00  0.00     0.211 HD
ENDBRANCH  20  31
BRANCH  21  33
ATOM     33  O   UNL     1      20.461  25.927  22.003  1.00  0.00    -0.385 OA
ATOM     34  H   UNL     1      20.339  26.743  21.432  1.00  0.00     0.211 HD
ENDBRANCH  21  33
ENDBRANCH  15  16
ENDBRANCH  10  15
BRANCH  12  35
ATOM     35  O   UNL     1      23.096  29.748  18.973  1.00  0.00    -0.385 OA
ATOM     36  H   UNL     1      23.337  29.698  19.920  1.00  0.00     0.211 HD
ENDBRANCH  12  35
BRANCH  13  37
ATOM     37  O   UNL     1      21.846  27.507  16.638  1.00  0.00    -0.387 OA
ATOM     38  H   UNL     1      20.973  27.041  16.539  1.00  0.00     0.211 HD
ENDBRANCH  13  37
BRANCH  14  39
ATOM     39  O   UNL     1      19.477  27.986  17.380  1.00  0.00    -0.387 OA
ATOM     40  H   UNL     1      19.981  27.232  17.008  1.00  0.00     0.211 HD
ENDBRANCH  14  39
ENDBRANCH   8   9
ENDBRANCH   7   8
ENDBRANCH   1   7
BRANCH   1  41
ATOM     41  C   UNL     1      16.621  28.107  19.107  1.00  0.00     0.364 C 
ATOM     42  O   UNL     1      16.910  27.303  18.217  1.00  0.00    -0.246 OA
BRANCH  41  43
ATOM     43  O   UNL     1      16.301  27.532  20.350  1.00  0.00    -0.477 OA
ATOM     44  H   UNL     1      16.835  26.716  20.629  1.00  0.00     0.296 HD
ENDBRANCH  41  43
ENDBRANCH   1  41
BRANCH   3  45
ATOM     45  O   UNL     1      15.619  31.898  18.542  1.00  0.00    -0.391 OA
ATOM     46  H   UNL     1      15.829  31.403  19.359  1.00  0.00     0.211 HD
ENDBRANCH   3  45
BRANCH   5  47
ATOM     47  C   UNL     1      13.320  30.260  20.312  1.00  0.00     0.176 C 
BRANCH  47  48
ATOM     48  O   UNL     1      13.667  31.619  20.509  1.00  0.00    -0.388 OA
ATOM     49  H   UNL     1      12.892  32.204  20.465  1.00  0.00     0.211 HD
ENDBRANCH  47  48
BRANCH  47  50
ATOM     50  C   UNL     1      13.514  29.629  21.681  1.00  0.00     0.165 C 
BRANCH  50  51
ATOM     51  O   UNL     1      13.569  28.274  21.648  1.00  0.00    -0.388 OA
ATOM     52  H   UNL     1      13.274  27.805  22.463  1.00  0.00     0.211 HD
ENDBRANCH  50  51
BRANCH  50  53
ATOM     53  C   UNL     1      12.434  30.109  22.629  1.00  0.00     0.154 C 
BRANCH  53  54
ATOM     54  N   UNL     1      12.872  30.536  23.907  1.00  0.00    -0.319 N 
ATOM     55  C   UNL     1      13.407  31.798  24.182  1.00  0.00     0.407 C 
ATOM     56  H   UNL     1      12.798  29.856  24.740  1.00  0.00     0.167 HD
ATOM     57  O   UNL     1      13.535  32.671  23.309  1.00  0.00    -0.225 OA
BRANCH  55  58
ATOM     58  O   UNL     1      13.837  32.148  25.485  1.00  0.00    -0.443 OA
BRANCH  58  59
ATOM     59  C   UNL     1      14.844  31.416  26.146  1.00  0.00     0.294 C 
BRANCH  59  60
ATOM     60  C   UNL     1      15.907  30.926  25.245  1.00  0.00     0.120 A 
ATOM     61  C   UNL     1      17.112  31.535  24.959  1.00  0.00     0.139 A 
ATOM     62  N   UNL     1      15.904  29.788  24.533  1.00  0.00    -0.132 NA
ATOM     63  N   UNL     1      17.804  30.759  24.089  1.00  0.00    -0.244 N 
ATOM     64  N   UNL     1      17.046  29.703  23.846  1.00  0.00    -0.066 NA
BRANCH  63  65
ATOM     65  C   UNL     1      19.109  31.056  23.555  1.00  0.00     0.082 C 
ATOM     66  C   UNL     1      19.865  31.923  24.518  1.00  0.00     0.039 C 
ATOM     67  C   UNL     1      18.976  31.853  22.249  1.00  0.00     0.039 C 
BRANCH  65  68
ATOM     68  C   UNL     1      19.929  29.837  23.242  1.00  0.00     0.186 C 
BRANCH  68  69
ATOM     69  O   UNL     1      19.788  28.826  24.165  1.00  0.00    -0.394 OA
ATOM     70  H   UNL     1      19.618  29.115  25.075  1.00  0.00     0.210 HD
ENDBRANCH  68  69
ENDBRANCH  65  68
ENDBRANCH  63  65
ENDBRANCH  59  60
ENDBRANCH  58  59
ENDBRANCH  55  58
ENDBRANCH  53  54
ENDBRANCH  50  53
ENDBRANCH  47  50
ENDBRANCH   5  47
BRANCH   4  71
ATOM     71  N   UNL     1      13.552  29.514  16.903  1.00  0.00    -0.348 N 
ATOM     72  C   UNL     1      12.518  29.776  15.974  1.00  0.00     0.217 C 
ATOM     73  H   UNL     1      14.045  28.583  16.755  1.00  0.00     0.163 HD
ATOM     74  C   UNL     1      12.164  28.825  14.887  1.00  0.00     0.114 C 
ATOM     75  O   UNL     1      11.877  30.836  16.062  1.00  0.00    -0.275 OA
ENDBRANCH   4  71
TORSDOF 32
