REMARK VINA RESULT:    -5.732      2.137      6.297
REMARK INTER + INTRA:         -23.257
REMARK INTER:                 -13.960
REMARK INTRA:                  -9.297
REMARK UNBOUND:                -7.304
REMARK SMILES CC(=O)N[C@@H]1[C@@H](O)C[C@](OC[C@H]2O[C@@H](O[C@H]3[C@H](O)[C@@H](O)[C@H](OCCN=[N+]=[N-])O[C@@H]3CO)[C@H](O)[C@@H](O)[C@H]2O)(C(=O)O)O[C@H]1C(O)[C@H](O)CNC(=O)OCc1cn(CCCCCC(=O)O)nn1
REMARK SMILES IDX 47 1 45 2 43 3 42 4 9 5 8 6 41 7 6 8 5 9 10 10 11 11 12 12
REMARK SMILES IDX 14 13 13 14 32 15 34 16 36 17 15 18 16 19 29 20 28 21 21 22
REMARK SMILES IDX 17 23 19 24 30 25 31 26 22 28 23 29 24 30 25 31 26 32 27 33
REMARK SMILES IDX 18 34 20 36 33 38 35 40 37 42 38 44 39 45 40 46 7 48 4 50
REMARK SMILES IDX 2 51 1 53 3 54 44 55 46 57 48 59 49 60 50 62 51 63 52 64
REMARK SMILES IDX 53 65 54 66 65 67 55 68 64 69 56 70 57 71 58 72 59 73 60 74
REMARK SMILES IDX 61 75 62 76 63 77
REMARK H PARENT 31 27 18 35 20 37 33 39 35 41 37 43 40 47 7 49 4 52 44 56
REMARK H PARENT 46 58 48 61 63 78
REMARK Flexibility Score: inf
ROOT
ATOM      1  C   UNL     1      22.966  28.220  20.593  1.00  0.00     0.154 C 
ENDROOT
BRANCH   1   2
ATOM      2  C   UNL     1      23.995  28.796  21.535  1.00  0.00     0.165 C 
BRANCH   2   3
ATOM      3  C   UNL     1      25.027  27.737  21.749  1.00  0.00     0.176 C 
BRANCH   3   4
ATOM      4  C   UNL     1      24.517  26.397  22.154  1.00  0.00     0.178 C 
ATOM      5  C   UNL     1      23.130  25.274  23.528  1.00  0.00     0.272 C 
ATOM      6  C   UNL     1      23.298  24.194  22.510  1.00  0.00     0.113 C 
ATOM      7  O   UNL     1      24.043  26.316  23.453  1.00  0.00    -0.332 OA
ATOM      8  C   UNL     1      24.640  24.013  21.911  1.00  0.00     0.145 C 
ATOM      9  C   UNL     1      25.515  25.268  22.021  1.00  0.00     0.142 C 
BRANCH   5  10
ATOM     10  O   UNL     1      23.020  24.778  24.826  1.00  0.00    -0.338 OA
BRANCH  10  11
ATOM     11  C   UNL     1      24.166  24.406  25.451  1.00  0.00     0.199 C 
BRANCH  11  12
ATOM     12  C   UNL     1      24.189  25.127  26.786  1.00  0.00     0.179 C 
ATOM     13  C   UNL     1      24.716  26.964  27.947  1.00  0.00     0.282 C 
ATOM     14  O   UNL     1      24.249  26.508  26.679  1.00  0.00    -0.341 OA
ATOM     15  C   UNL     1      24.231  26.199  29.094  1.00  0.00     0.202 C 
ATOM     16  C   UNL     1      23.015  25.340  28.886  1.00  0.00     0.179 C 
ATOM     17  C   UNL     1      22.868  24.837  27.474  1.00  0.00     0.177 C 
BRANCH  13  18
ATOM     18  O   UNL     1      24.648  28.354  27.994  1.00  0.00    -0.341 OA
BRANCH  18  19
ATOM     19  C   UNL     1      23.872  28.935  27.061  1.00  0.00     0.184 C 
ATOM     20  C   UNL     1      24.385  30.269  26.612  1.00  0.00     0.178 C 
ATOM     21  O   UNL     1      23.718  30.534  25.398  1.00  0.00    -0.341 OA
ATOM     22  C   UNL     1      22.401  30.772  25.606  1.00  0.00     0.281 C 
ATOM     23  C   UNL     1      22.475  29.302  27.671  1.00  0.00     0.180 C 
ATOM     24  C   UNL     1      21.959  30.551  27.003  1.00  0.00     0.202 C 
BRANCH  20  25
ATOM     25  C   UNL     1      25.861  30.288  26.313  1.00  0.00     0.191 C 
BRANCH  25  26
ATOM     26  O   UNL     1      26.104  29.942  25.002  1.00  0.00    -0.394 OA
ATOM     27  H   UNL     1      25.487  29.199  24.768  1.00  0.00     0.210 HD
ENDBRANCH  25  26
ENDBRANCH  20  25
BRANCH  22  28
ATOM     28  O   UNL     1      21.562  30.099  24.709  1.00  0.00    -0.350 OA
BRANCH  28  29
ATOM     29  C   UNL     1      20.272  30.564  24.736  1.00  0.00     0.169 C 
BRANCH  29  30
ATOM     30  C   UNL     1      20.020  31.444  23.521  1.00  0.00     0.119 C 
BRANCH  30  31
ATOM     31  N   UNL     1      20.686  30.905  22.346  1.00  0.00    -0.092 NA
ATOM     32  N   UNL     1      20.910  31.649  21.372  1.00  0.00     0.001 N 
ATOM     33  N   UNL     1      20.757  32.152  20.258  1.00  0.00    -0.003 NA
ENDBRANCH  30  31
ENDBRANCH  29  30
ENDBRANCH  28  29
ENDBRANCH  22  28
BRANCH  23  34
ATOM     34  O   UNL     1      21.585  28.269  27.378  1.00  0.00    -0.387 OA
ATOM     35  H   UNL     1      22.069  27.567  26.853  1.00  0.00     0.211 HD
ENDBRANCH  23  34
BRANCH  24  36
ATOM     36  O   UNL     1      22.058  31.684  27.821  1.00  0.00    -0.385 OA
ATOM     37  H   UNL     1      22.651  31.535  28.599  1.00  0.00     0.211 HD
ENDBRANCH  24  36
ENDBRANCH  18  19
ENDBRANCH  13  18
BRANCH  15  38
ATOM     38  O   UNL     1      25.227  25.312  29.597  1.00  0.00    -0.385 OA
ATOM     39  H   UNL     1      25.975  25.256  28.976  1.00  0.00     0.211 HD
ENDBRANCH  15  38
BRANCH  16  40
ATOM     40  O   UNL     1      21.820  26.009  29.206  1.00  0.00    -0.387 OA
ATOM     41  H   UNL     1      21.531  26.626  28.510  1.00  0.00     0.211 HD
ENDBRANCH  16  40
BRANCH  17  42
ATOM     42  O   UNL     1      21.900  25.627  26.802  1.00  0.00    -0.387 OA
ATOM     43  H   UNL     1      21.854  25.238  25.872  1.00  0.00     0.211 HD
ENDBRANCH  17  42
ENDBRANCH  11  12
ENDBRANCH  10  11
ENDBRANCH   5  10
BRANCH   5  44
ATOM     44  C   UNL     1      21.809  25.907  23.256  1.00  0.00     0.364 C 
ATOM     45  O   UNL     1      21.433  26.908  23.905  1.00  0.00    -0.246 OA
BRANCH  44  46
ATOM     46  O   UNL     1      20.985  25.395  22.284  1.00  0.00    -0.477 OA
ATOM     47  H   UNL     1      20.061  25.797  22.056  1.00  0.00     0.296 HD
ENDBRANCH  44  46
ENDBRANCH   5  44
BRANCH   8  48
ATOM     48  O   UNL     1      25.321  22.865  22.306  1.00  0.00    -0.391 OA
ATOM     49  H   UNL     1      25.125  22.712  23.257  1.00  0.00     0.211 HD
ENDBRANCH   8  48
BRANCH   9  50
ATOM     50  N   UNL     1      26.412  25.383  20.925  1.00  0.00    -0.348 N 
ATOM     51  C   UNL     1      27.654  24.704  20.960  1.00  0.00     0.217 C 
ATOM     52  H   UNL     1      26.175  25.951  20.100  1.00  0.00     0.163 HD
ATOM     53  C   UNL     1      28.608  24.805  19.825  1.00  0.00     0.114 C 
ATOM     54  O   UNL     1      28.003  23.990  21.945  1.00  0.00    -0.275 OA
ENDBRANCH   9  50
ENDBRANCH   3   4
BRANCH   3  55
ATOM     55  O   UNL     1      25.998  28.154  22.687  1.00  0.00    -0.388 OA
ATOM     56  H   UNL     1      25.637  28.076  23.599  1.00  0.00     0.211 HD
ENDBRANCH   3  55
ENDBRANCH   2   3
BRANCH   2  57
ATOM     57  O   UNL     1      23.357  29.110  22.729  1.00  0.00    -0.388 OA
ATOM     58  H   UNL     1      22.668  29.790  22.518  1.00  0.00     0.211 HD
ENDBRANCH   2  57
ENDBRANCH   1   2
BRANCH   1  59
ATOM     59  N   UNL     1      21.614  28.410  21.012  1.00  0.00    -0.319 N 
ATOM     60  C   UNL     1      20.566  28.046  20.106  1.00  0.00     0.407 C 
ATOM     61  H   UNL     1      21.358  28.798  21.933  1.00  0.00     0.167 HD
ATOM     62  O   UNL     1      20.838  27.570  18.976  1.00  0.00    -0.225 OA
BRANCH  60  63
ATOM     63  O   UNL     1      19.238  28.200  20.429  1.00  0.00    -0.443 OA
BRANCH  63  64
ATOM     64  C   UNL     1      18.379  29.106  19.832  1.00  0.00     0.294 C 
BRANCH  64  65
ATOM     65  C   UNL     1      16.970  29.056  20.245  1.00  0.00     0.120 A 
ATOM     66  C   UNL     1      16.093  30.103  20.351  1.00  0.00     0.138 A 
ATOM     67  N   UNL     1      16.300  27.940  20.611  1.00  0.00    -0.132 NA
ATOM     68  N   UNL     1      14.926  29.611  20.773  1.00  0.00    -0.252 N 
ATOM     69  N   UNL     1      15.086  28.311  20.918  1.00  0.00    -0.067 NA
BRANCH  68  70
ATOM     70  C   UNL     1      13.713  30.380  21.012  1.00  0.00     0.146 C 
BRANCH  70  71
ATOM     71  C   UNL     1      12.813  29.566  21.942  1.00  0.00     0.024 C 
BRANCH  71  72
ATOM     72  C   UNL     1      12.533  30.306  23.216  1.00  0.00     0.002 C 
BRANCH  72  73
ATOM     73  C   UNL     1      13.458  29.829  24.298  1.00  0.00     0.012 C 
BRANCH  73  74
ATOM     74  C   UNL     1      14.486  30.839  24.688  1.00  0.00     0.122 C 
BRANCH  74  75
ATOM     75  C   UNL     1      15.846  30.266  24.491  1.00  0.00     0.303 C 
ATOM     76  O   UNL     1      16.838  30.817  25.016  1.00  0.00    -0.252 OA
BRANCH  75  77
ATOM     77  O   UNL     1      16.038  29.119  23.728  1.00  0.00    -0.481 OA
ATOM     78  H   UNL     1      15.314  28.398  23.711  1.00  0.00     0.296 HD
ENDBRANCH  75  77
ENDBRANCH  74  75
ENDBRANCH  73  74
ENDBRANCH  72  73
ENDBRANCH  71  72
ENDBRANCH  70  71
ENDBRANCH  68  70
ENDBRANCH  64  65
ENDBRANCH  63  64
ENDBRANCH  60  63
ENDBRANCH   1  59
TORSDOF 36
