REMARK VINA RESULT:    -6.405      4.697      8.001
REMARK INTER + INTRA:         -21.976
REMARK INTER:                 -14.751
REMARK INTRA:                  -7.225
REMARK UNBOUND:                -5.460
REMARK SMILES CC(=O)N[C@@H]1[C@@H](O)C[C@](OC[C@H]2O[C@@H](O[C@H]3[C@H](O)[C@@H](O)[C@H](OCCN=[N+]=[N-])O[C@@H]3CO)[C@H](O)[C@@H](O)[C@H]2O)(C(=O)O)O[C@H]1C(O)[C@H](O)CNC(=O)OCc1cn(C(c2ccccc2)c2ccccc2)nn1
REMARK SMILES IDX 9 1 8 2 6 3 5 4 42 5 41 6 10 7 11 8 12 9 14 10 13 11 32 12
REMARK SMILES IDX 34 13 36 14 15 15 16 16 29 17 28 18 21 19 17 20 19 21 30 22
REMARK SMILES IDX 31 23 22 25 23 26 24 27 25 28 26 29 27 30 18 31 20 33 33 35
REMARK SMILES IDX 35 37 37 39 38 41 39 42 40 43 7 45 43 47 44 48 45 50 46 51
REMARK SMILES IDX 47 53 48 54 49 55 50 57 51 58 52 59 53 60 54 61 70 62 55 63
REMARK SMILES IDX 69 64 56 65 57 66 58 67 62 68 59 69 61 70 60 71 63 72 64 73
REMARK SMILES IDX 68 74 65 75 67 76 66 77 4 78 2 79 1 81 3 82
REMARK H PARENT 31 24 18 32 20 34 33 36 35 38 37 40 40 44 7 46 44 49 46 52
REMARK H PARENT 48 56 4 80
REMARK Flexibility Score: inf
ROOT
ATOM      1  C   UNL     1      18.084  29.452  19.896  1.00  0.00     0.272 C 
ATOM      2  C   UNL     1      17.161  30.589  19.407  1.00  0.00     0.113 C 
ATOM      3  C   UNL     1      16.042  30.766  20.350  1.00  0.00     0.145 C 
ATOM      4  C   UNL     1      16.574  31.077  21.726  1.00  0.00     0.142 C 
ATOM      5  C   UNL     1      17.976  30.634  21.931  1.00  0.00     0.178 C 
ATOM      6  O   UNL     1      18.382  29.565  21.199  1.00  0.00    -0.332 OA
ENDROOT
BRANCH   1   7
ATOM      7  O   UNL     1      19.265  29.519  19.138  1.00  0.00    -0.338 OA
BRANCH   7   8
ATOM      8  C   UNL     1      20.379  29.399  19.927  1.00  0.00     0.199 C 
BRANCH   8   9
ATOM      9  C   UNL     1      20.825  27.947  20.089  1.00  0.00     0.179 C 
ATOM     10  C   UNL     1      22.837  27.400  18.930  1.00  0.00     0.282 C 
ATOM     11  O   UNL     1      21.501  27.522  19.055  1.00  0.00    -0.341 OA
ATOM     12  C   UNL     1      23.620  27.875  20.059  1.00  0.00     0.202 C 
ATOM     13  C   UNL     1      22.966  27.729  21.389  1.00  0.00     0.179 C 
ATOM     14  C   UNL     1      21.487  27.720  21.428  1.00  0.00     0.177 C 
BRANCH  10  15
ATOM     15  O   UNL     1      23.109  28.055  17.689  1.00  0.00    -0.341 OA
BRANCH  15  16
ATOM     16  C   UNL     1      23.290  27.164  16.675  1.00  0.00     0.184 C 
ATOM     17  C   UNL     1      22.007  26.788  16.022  1.00  0.00     0.178 C 
ATOM     18  O   UNL     1      22.254  26.049  14.857  1.00  0.00    -0.341 OA
ATOM     19  C   UNL     1      22.703  24.799  15.186  1.00  0.00     0.281 C 
ATOM     20  C   UNL     1      23.908  25.864  17.177  1.00  0.00     0.180 C 
ATOM     21  C   UNL     1      23.277  24.689  16.540  1.00  0.00     0.202 C 
BRANCH  17  22
ATOM     22  C   UNL     1      21.072  27.946  15.737  1.00  0.00     0.191 C 
BRANCH  22  23
ATOM     23  O   UNL     1      20.060  27.958  16.691  1.00  0.00    -0.394 OA
ATOM     24  H   UNL     1      19.697  28.849  16.877  1.00  0.00     0.210 HD
ENDBRANCH  22  23
ENDBRANCH  17  22
BRANCH  19  25
ATOM     25  O   UNL     1      23.556  24.276  14.199  1.00  0.00    -0.350 OA
BRANCH  25  26
ATOM     26  C   UNL     1      23.026  24.228  12.943  1.00  0.00     0.169 C 
BRANCH  26  27
ATOM     27  C   UNL     1      22.341  22.897  12.735  1.00  0.00     0.119 C 
BRANCH  27  28
ATOM     28  N   UNL     1      22.945  21.845  13.548  1.00  0.00    -0.092 NA
ATOM     29  N   UNL     1      23.730  21.028  13.083  1.00  0.00     0.001 N 
ATOM     30  N   UNL     1      24.225  20.078  12.466  1.00  0.00    -0.003 NA
ENDBRANCH  27  28
ENDBRANCH  26  27
ENDBRANCH  25  26
ENDBRANCH  19  25
BRANCH  20  31
ATOM     31  O   UNL     1      25.286  25.966  16.980  1.00  0.00    -0.387 OA
ATOM     32  H   UNL     1      25.654  25.153  16.540  1.00  0.00     0.211 HD
ENDBRANCH  20  31
BRANCH  21  33
ATOM     33  O   UNL     1      22.287  24.193  17.438  1.00  0.00    -0.385 OA
ATOM     34  H   UNL     1      21.643  24.946  17.556  1.00  0.00     0.211 HD
ENDBRANCH  21  33
ENDBRANCH  15  16
ENDBRANCH  10  15
BRANCH  12  35
ATOM     35  O   UNL     1      24.874  27.224  20.186  1.00  0.00    -0.385 OA
ATOM     36  H   UNL     1      25.167  27.399  21.113  1.00  0.00     0.211 HD
ENDBRANCH  12  35
BRANCH  13  37
ATOM     37  O   UNL     1      23.429  28.717  22.296  1.00  0.00    -0.387 OA
ATOM     38  H   UNL     1      24.095  29.293  21.838  1.00  0.00     0.211 HD
ENDBRANCH  13  37
BRANCH  14  39
ATOM     39  O   UNL     1      21.040  28.765  22.253  1.00  0.00    -0.387 OA
ATOM     40  H   UNL     1      21.468  29.624  22.024  1.00  0.00     0.211 HD
ENDBRANCH  14  39
ENDBRANCH   8   9
ENDBRANCH   7   8
ENDBRANCH   1   7
BRANCH   1  41
ATOM     41  C   UNL     1      17.376  28.213  19.573  1.00  0.00     0.364 C 
ATOM     42  O   UNL     1      17.571  27.623  18.492  1.00  0.00    -0.246 OA
BRANCH  41  43
ATOM     43  O   UNL     1      16.453  27.630  20.444  1.00  0.00    -0.477 OA
ATOM     44  H   UNL     1      15.626  27.171  20.094  1.00  0.00     0.296 HD
ENDBRANCH  41  43
ENDBRANCH   1  41
BRANCH   3  45
ATOM     45  O   UNL     1      15.274  31.855  19.884  1.00  0.00    -0.391 OA
ATOM     46  H   UNL     1      15.372  32.636  20.483  1.00  0.00     0.211 HD
ENDBRANCH   3  45
BRANCH   5  47
ATOM     47  C   UNL     1      19.032  31.702  21.906  1.00  0.00     0.176 C 
BRANCH  47  48
ATOM     48  O   UNL     1      20.074  31.239  22.736  1.00  0.00    -0.388 OA
ATOM     49  H   UNL     1      20.871  31.797  22.699  1.00  0.00     0.211 HD
ENDBRANCH  47  48
BRANCH  47  50
ATOM     50  C   UNL     1      18.622  33.045  22.390  1.00  0.00     0.165 C 
BRANCH  50  51
ATOM     51  O   UNL     1      19.760  33.844  22.394  1.00  0.00    -0.388 OA
ATOM     52  H   UNL     1      19.568  34.794  22.183  1.00  0.00     0.211 HD
ENDBRANCH  50  51
BRANCH  50  53
ATOM     53  C   UNL     1      17.974  33.092  23.730  1.00  0.00     0.154 C 
BRANCH  53  54
ATOM     54  N   UNL     1      18.694  32.487  24.805  1.00  0.00    -0.319 N 
ATOM     55  C   UNL     1      18.304  31.402  25.596  1.00  0.00     0.407 C 
ATOM     56  H   UNL     1      19.649  32.909  25.042  1.00  0.00     0.167 HD
ATOM     57  O   UNL     1      17.211  30.855  25.411  1.00  0.00    -0.225 OA
BRANCH  55  58
ATOM     58  O   UNL     1      19.129  30.911  26.606  1.00  0.00    -0.443 OA
BRANCH  58  59
ATOM     59  C   UNL     1      20.552  31.079  26.509  1.00  0.00     0.294 C 
BRANCH  59  60
ATOM     60  C   UNL     1      21.142  29.807  26.022  1.00  0.00     0.120 A 
ATOM     61  C   UNL     1      21.015  28.617  26.680  1.00  0.00     0.139 A 
ATOM     62  N   UNL     1      21.852  29.645  24.910  1.00  0.00    -0.132 NA
ATOM     63  N   UNL     1      21.674  27.718  25.929  1.00  0.00    -0.240 N 
ATOM     64  N   UNL     1      22.175  28.353  24.863  1.00  0.00    -0.066 NA
BRANCH  63  65
ATOM     65  C   UNL     1      21.854  26.297  26.142  1.00  0.00     0.169 C 
BRANCH  65  66
ATOM     66  C   UNL     1      22.939  26.118  27.115  1.00  0.00    -0.019 A 
ATOM     67  C   UNL     1      24.228  26.506  26.808  1.00  0.00     0.006 A 
ATOM     68  C   UNL     1      22.746  25.550  28.356  1.00  0.00     0.006 A 
ATOM     69  C   UNL     1      25.271  26.331  27.707  1.00  0.00     0.000 A 
ATOM     70  C   UNL     1      23.785  25.370  29.265  1.00  0.00     0.000 A 
ATOM     71  C   UNL     1      25.068  25.764  28.941  1.00  0.00     0.000 A 
ENDBRANCH  65  66
BRANCH  65  72
ATOM     72  C   UNL     1      22.049  25.602  24.854  1.00  0.00    -0.019 A 
ATOM     73  C   UNL     1      20.905  25.240  24.152  1.00  0.00     0.006 A 
ATOM     74  C   UNL     1      23.259  25.267  24.322  1.00  0.00     0.006 A 
ATOM     75  C   UNL     1      21.000  24.569  22.962  1.00  0.00     0.000 A 
ATOM     76  C   UNL     1      23.364  24.589  23.121  1.00  0.00     0.000 A 
ATOM     77  C   UNL     1      22.231  24.236  22.434  1.00  0.00     0.000 A 
ENDBRANCH  65  72
ENDBRANCH  63  65
ENDBRANCH  59  60
ENDBRANCH  58  59
ENDBRANCH  55  58
ENDBRANCH  53  54
ENDBRANCH  50  53
ENDBRANCH  47  50
ENDBRANCH   5  47
BRANCH   4  78
ATOM     78  N   UNL     1      15.678  30.349  22.647  1.00  0.00    -0.348 N 
ATOM     79  C   UNL     1      14.496  30.935  23.178  1.00  0.00     0.217 C 
ATOM     80  H   UNL     1      15.885  29.363  22.944  1.00  0.00     0.163 HD
ATOM     81  C   UNL     1      13.603  30.167  24.111  1.00  0.00     0.114 C 
ATOM     82  O   UNL     1      14.164  32.103  22.884  1.00  0.00    -0.275 OA
ENDBRANCH   4  78
TORSDOF 32
