REMARK VINA RESULT:    -5.782      4.353     10.860
REMARK INTER + INTRA:         -21.299
REMARK INTER:                 -15.516
REMARK INTRA:                  -5.783
REMARK UNBOUND:                -6.052
REMARK SMILES CC(=O)N[C@@H]1[C@@H](O)C[C@](OC[C@H]2O[C@@H](O[C@H]3[C@H](O)[C@@H](O)[C@H](OCCN=[N+]=[N-])O[C@@H]3CO)[C@H](O)[C@@H](O)[C@H]2O)(C(=O)O)O[C@H]1C(O)[C@H](O)CNC(=O)OCc1cn(CC(O)CO)nn1
REMARK SMILES IDX 43 1 42 2 9 3 8 4 41 5 6 6 5 7 10 8 11 9 12 10 14 11 13 12
REMARK SMILES IDX 32 13 34 14 36 15 15 16 16 17 29 18 28 19 21 20 17 21 19 22
REMARK SMILES IDX 30 23 31 24 22 26 23 27 24 28 25 29 26 30 27 31 18 32 20 34
REMARK SMILES IDX 33 36 35 38 37 40 38 42 39 43 40 44 7 46 4 48 2 49 1 51 3 52
REMARK SMILES IDX 44 53 45 55 46 56 47 58 48 59 49 60 50 62 51 63 52 64 53 65
REMARK SMILES IDX 54 66 62 67 55 68 61 69 56 70 57 71 58 72 59 74 60 75
REMARK H PARENT 31 25 18 33 20 35 33 37 35 39 37 41 40 45 7 47 4 50 44 54
REMARK H PARENT 46 57 48 61 58 73 60 76
REMARK Flexibility Score: inf
ROOT
ATOM      1  C   UNL     1       8.822  25.206  38.539  1.00  0.00     0.176 C 
ENDROOT
BRANCH   1   2
ATOM      2  C   UNL     1       9.816  25.027  37.377  1.00  0.00     0.178 C 
ATOM      3  C   UNL     1       9.963  24.335  35.123  1.00  0.00     0.272 C 
ATOM      4  C   UNL     1      11.119  23.433  35.456  1.00  0.00     0.113 C 
ATOM      5  O   UNL     1       9.213  24.562  36.287  1.00  0.00    -0.332 OA
ATOM      6  C   UNL     1      11.374  23.157  36.889  1.00  0.00     0.145 C 
ATOM      7  C   UNL     1      10.955  24.205  37.852  1.00  0.00     0.142 C 
BRANCH   3   8
ATOM      8  O   UNL     1       9.167  23.773  34.237  1.00  0.00    -0.338 OA
BRANCH   8   9
ATOM      9  C   UNL     1       8.101  23.112  34.069  1.00  0.00     0.199 C 
BRANCH   9  10
ATOM     10  C   UNL     1       6.808  23.673  33.574  1.00  0.00     0.179 C 
ATOM     11  C   UNL     1       4.807  23.012  32.682  1.00  0.00     0.282 C 
ATOM     12  O   UNL     1       5.827  22.609  33.538  1.00  0.00    -0.341 OA
ATOM     13  C   UNL     1       4.642  24.486  32.540  1.00  0.00     0.202 C 
ATOM     14  C   UNL     1       5.020  25.298  33.742  1.00  0.00     0.179 C 
ATOM     15  C   UNL     1       6.129  24.640  34.546  1.00  0.00     0.177 C 
BRANCH  11  16
ATOM     16  O   UNL     1       3.580  22.438  32.943  1.00  0.00    -0.341 OA
BRANCH  16  17
ATOM     17  C   UNL     1       3.552  21.056  32.765  1.00  0.00     0.184 C 
ATOM     18  C   UNL     1       2.596  20.715  31.663  1.00  0.00     0.178 C 
ATOM     19  O   UNL     1       1.510  19.966  32.088  1.00  0.00    -0.341 OA
ATOM     20  C   UNL     1       1.001  20.461  33.300  1.00  0.00     0.281 C 
ATOM     21  C   UNL     1       3.321  20.381  34.052  1.00  0.00     0.180 C 
ATOM     22  C   UNL     1       1.934  19.939  34.366  1.00  0.00     0.202 C 
BRANCH  18  23
ATOM     23  C   UNL     1       3.269  19.948  30.542  1.00  0.00     0.191 C 
BRANCH  23  24
ATOM     24  O   UNL     1       4.484  20.516  30.185  1.00  0.00    -0.394 OA
ATOM     25  H   UNL     1       4.269  21.368  29.687  1.00  0.00     0.210 HD
ENDBRANCH  23  24
ENDBRANCH  18  23
BRANCH  20  26
ATOM     26  O   UNL     1      -0.268  19.921  33.436  1.00  0.00    -0.350 OA
BRANCH  26  27
ATOM     27  C   UNL     1      -0.283  18.590  33.820  1.00  0.00     0.169 C 
BRANCH  27  28
ATOM     28  C   UNL     1      -0.708  17.659  32.706  1.00  0.00     0.119 C 
BRANCH  28  29
ATOM     29  N   UNL     1       0.199  16.557  32.533  1.00  0.00    -0.092 NA
ATOM     30  N   UNL     1       1.405  16.587  32.746  1.00  0.00     0.001 N 
ATOM     31  N   UNL     1       2.609  16.784  32.905  1.00  0.00    -0.003 NA
ENDBRANCH  28  29
ENDBRANCH  27  28
ENDBRANCH  26  27
ENDBRANCH  20  26
BRANCH  21  32
ATOM     32  O   UNL     1       4.176  19.263  34.221  1.00  0.00    -0.387 OA
ATOM     33  H   UNL     1       3.703  18.704  34.918  1.00  0.00     0.211 HD
ENDBRANCH  21  32
BRANCH  22  34
ATOM     34  O   UNL     1       1.510  20.288  35.646  1.00  0.00    -0.385 OA
ATOM     35  H   UNL     1       1.152  19.539  36.150  1.00  0.00     0.211 HD
ENDBRANCH  22  34
ENDBRANCH  16  17
ENDBRANCH  11  16
BRANCH  13  36
ATOM     36  O   UNL     1       5.223  24.973  31.346  1.00  0.00    -0.385 OA
ATOM     37  H   UNL     1       4.955  25.887  31.137  1.00  0.00     0.211 HD
ENDBRANCH  13  36
BRANCH  14  38
ATOM     38  O   UNL     1       3.938  25.621  34.558  1.00  0.00    -0.387 OA
ATOM     39  H   UNL     1       3.933  25.019  35.340  1.00  0.00     0.211 HD
ENDBRANCH  14  38
BRANCH  15  40
ATOM     40  O   UNL     1       5.487  23.825  35.518  1.00  0.00    -0.387 OA
ATOM     41  H   UNL     1       6.138  23.219  35.946  1.00  0.00     0.211 HD
ENDBRANCH  15  40
ENDBRANCH   9  10
ENDBRANCH   8   9
ENDBRANCH   3   8
BRANCH   3  42
ATOM     42  C   UNL     1      10.444  25.672  34.643  1.00  0.00     0.364 C 
ATOM     43  O   UNL     1       9.551  26.476  34.232  1.00  0.00    -0.246 OA
BRANCH  42  44
ATOM     44  O   UNL     1      11.762  26.048  34.629  1.00  0.00    -0.477 OA
ATOM     45  H   UNL     1      12.082  26.889  34.135  1.00  0.00     0.296 HD
ENDBRANCH  42  44
ENDBRANCH   3  42
BRANCH   6  46
ATOM     46  O   UNL     1      10.684  21.963  37.210  1.00  0.00    -0.391 OA
ATOM     47  H   UNL     1       9.792  22.183  37.544  1.00  0.00     0.211 HD
ENDBRANCH   6  46
BRANCH   7  48
ATOM     48  N   UNL     1      12.121  24.993  38.240  1.00  0.00    -0.348 N 
ATOM     49  C   UNL     1      12.942  24.632  39.338  1.00  0.00     0.217 C 
ATOM     50  H   UNL     1      12.393  25.853  37.724  1.00  0.00     0.163 HD
ATOM     51  C   UNL     1      14.129  25.430  39.738  1.00  0.00     0.114 C 
ATOM     52  O   UNL     1      12.633  23.596  39.979  1.00  0.00    -0.275 OA
ENDBRANCH   7  48
ENDBRANCH   1   2
BRANCH   1  53
ATOM     53  O   UNL     1       8.609  26.554  38.751  1.00  0.00    -0.388 OA
ATOM     54  H   UNL     1       8.583  27.043  37.892  1.00  0.00     0.211 HD
ENDBRANCH   1  53
BRANCH   1  55
ATOM     55  C   UNL     1       7.505  24.525  38.203  1.00  0.00     0.165 C 
BRANCH  55  56
ATOM     56  O   UNL     1       6.699  25.554  37.658  1.00  0.00    -0.388 OA
ATOM     57  H   UNL     1       7.190  26.005  36.929  1.00  0.00     0.211 HD
ENDBRANCH  55  56
BRANCH  55  58
ATOM     58  C   UNL     1       6.800  23.951  39.384  1.00  0.00     0.154 C 
BRANCH  58  59
ATOM     59  N   UNL     1       6.063  22.750  39.054  1.00  0.00    -0.319 N 
ATOM     60  C   UNL     1       4.765  22.828  38.499  1.00  0.00     0.407 C 
ATOM     61  H   UNL     1       6.465  21.784  39.211  1.00  0.00     0.167 HD
ATOM     62  O   UNL     1       4.198  23.923  38.285  1.00  0.00    -0.225 OA
BRANCH  60  63
ATOM     63  O   UNL     1       4.064  21.687  38.162  1.00  0.00    -0.443 OA
BRANCH  63  64
ATOM     64  C   UNL     1       3.695  20.642  38.992  1.00  0.00     0.294 C 
BRANCH  64  65
ATOM     65  C   UNL     1       3.820  19.286  38.411  1.00  0.00     0.120 A 
ATOM     66  C   UNL     1       3.785  18.122  39.125  1.00  0.00     0.138 A 
ATOM     67  N   UNL     1       4.001  18.986  37.090  1.00  0.00    -0.132 NA
ATOM     68  N   UNL     1       3.944  17.134  38.227  1.00  0.00    -0.249 N 
ATOM     69  N   UNL     1       4.070  17.662  37.034  1.00  0.00    -0.067 NA
BRANCH  68  70
ATOM     70  C   UNL     1       3.986  15.714  38.502  1.00  0.00     0.180 C 
BRANCH  70  71
ATOM     71  C   UNL     1       5.457  15.351  38.746  1.00  0.00     0.161 C 
BRANCH  71  72
ATOM     72  O   UNL     1       6.219  16.352  38.196  1.00  0.00    -0.389 OA
ATOM     73  H   UNL     1       7.121  16.405  38.598  1.00  0.00     0.211 HD
ENDBRANCH  71  72
BRANCH  71  74
ATOM     74  C   UNL     1       5.704  15.208  40.229  1.00  0.00     0.189 C 
BRANCH  74  75
ATOM     75  O   UNL     1       5.829  13.878  40.563  1.00  0.00    -0.394 OA
ATOM     76  H   UNL     1       6.313  13.797  41.425  1.00  0.00     0.210 HD
ENDBRANCH  74  75
ENDBRANCH  71  74
ENDBRANCH  70  71
ENDBRANCH  68  70
ENDBRANCH  64  65
ENDBRANCH  63  64
ENDBRANCH  60  63
ENDBRANCH  58  59
ENDBRANCH  55  58
ENDBRANCH   1  55
TORSDOF 34
