REMARK VINA RESULT:    -5.450      9.046     14.148
REMARK INTER + INTRA:         -23.364
REMARK INTER:                 -15.407
REMARK INTRA:                  -7.957
REMARK UNBOUND:                -8.356
REMARK SMILES CC(=O)N[C@@H]1[C@@H](O)C[C@](OC[C@H]2O[C@@H](O[C@H]3[C@H](O)[C@@H](O)[C@H](OCCN=[N+]=[N-])O[C@@H]3CO)[C@H](O)[C@@H](O)[C@H]2O)(C(=O)O)O[C@H]1C(O)[C@H](O)CNC(=O)OCc1cn([C@@H](CCC(=O)O)C(=O)O)nn1
REMARK SMILES IDX 43 1 42 2 9 3 8 4 41 5 6 6 5 7 10 8 11 9 12 10 14 11 13 12
REMARK SMILES IDX 32 13 34 14 36 15 15 16 16 17 29 18 28 19 21 20 17 21 19 22
REMARK SMILES IDX 30 23 31 24 22 26 23 27 24 28 25 29 26 30 27 31 18 32 20 34
REMARK SMILES IDX 33 36 35 38 37 40 38 42 39 43 40 44 7 46 4 48 2 49 1 51 3 52
REMARK SMILES IDX 44 53 45 55 46 56 47 58 48 59 49 60 50 62 51 63 52 64 53 65
REMARK SMILES IDX 54 66 66 67 55 68 65 69 56 70 57 71 58 72 59 73 60 74 61 75
REMARK SMILES IDX 62 77 63 78 64 79
REMARK H PARENT 31 25 18 33 20 35 33 37 35 39 37 41 40 45 7 47 4 50 44 54
REMARK H PARENT 46 57 48 61 61 76 64 80
REMARK Flexibility Score: inf
ROOT
ATOM      1  C   UNL     1      22.424  18.689  12.856  1.00  0.00     0.176 C 
ENDROOT
BRANCH   1   2
ATOM      2  C   UNL     1      22.272  19.722  11.738  1.00  0.00     0.178 C 
ATOM      3  C   UNL     1      22.698  22.030  11.555  1.00  0.00     0.272 C 
ATOM      4  C   UNL     1      21.302  22.390  11.237  1.00  0.00     0.113 C 
ATOM      5  O   UNL     1      22.600  20.904  12.401  1.00  0.00    -0.332 OA
ATOM      6  C   UNL     1      20.345  21.260  11.506  1.00  0.00     0.145 C 
ATOM      7  C   UNL     1      20.850  19.880  11.280  1.00  0.00     0.142 C 
BRANCH   3   8
ATOM      8  O   UNL     1      23.321  23.009  12.303  1.00  0.00    -0.338 OA
BRANCH   8   9
ATOM      9  C   UNL     1      23.012  24.279  12.303  1.00  0.00     0.199 C 
BRANCH   9  10
ATOM     10  C   UNL     1      23.939  25.370  12.763  1.00  0.00     0.179 C 
ATOM     11  C   UNL     1      25.136  25.669  14.743  1.00  0.00     0.282 C 
ATOM     12  O   UNL     1      23.923  25.542  14.117  1.00  0.00    -0.341 OA
ATOM     13  C   UNL     1      25.949  24.421  14.473  1.00  0.00     0.202 C 
ATOM     14  C   UNL     1      26.243  24.349  13.009  1.00  0.00     0.179 C 
ATOM     15  C   UNL     1      25.332  25.177  12.175  1.00  0.00     0.177 C 
BRANCH  11  16
ATOM     16  O   UNL     1      24.916  25.764  16.119  1.00  0.00    -0.341 OA
BRANCH  16  17
ATOM     17  C   UNL     1      23.618  25.572  16.517  1.00  0.00     0.184 C 
ATOM     18  C   UNL     1      23.111  26.735  17.366  1.00  0.00     0.178 C 
ATOM     19  O   UNL     1      22.769  26.259  18.630  1.00  0.00    -0.341 OA
ATOM     20  C   UNL     1      23.946  25.881  19.335  1.00  0.00     0.281 C 
ATOM     21  C   UNL     1      23.596  24.338  17.397  1.00  0.00     0.180 C 
ATOM     22  C   UNL     1      24.464  24.664  18.631  1.00  0.00     0.202 C 
BRANCH  18  23
ATOM     23  C   UNL     1      21.849  27.302  16.740  1.00  0.00     0.191 C 
BRANCH  23  24
ATOM     24  O   UNL     1      20.908  27.646  17.692  1.00  0.00    -0.394 OA
ATOM     25  H   UNL     1      20.383  26.861  17.998  1.00  0.00     0.210 HD
ENDBRANCH  23  24
ENDBRANCH  18  23
BRANCH  20  26
ATOM     26  O   UNL     1      23.592  25.718  20.643  1.00  0.00    -0.350 OA
BRANCH  26  27
ATOM     27  C   UNL     1      22.368  25.150  20.862  1.00  0.00     0.169 C 
BRANCH  27  28
ATOM     28  C   UNL     1      21.499  25.908  21.845  1.00  0.00     0.119 C 
BRANCH  28  29
ATOM     29  N   UNL     1      20.884  25.031  22.822  1.00  0.00    -0.092 NA
ATOM     30  N   UNL     1      21.439  24.655  23.849  1.00  0.00     0.001 N 
ATOM     31  N   UNL     1      21.996  24.490  24.913  1.00  0.00    -0.003 NA
ENDBRANCH  28  29
ENDBRANCH  27  28
ENDBRANCH  26  27
ENDBRANCH  20  26
BRANCH  21  32
ATOM     32  O   UNL     1      22.312  23.979  17.788  1.00  0.00    -0.387 OA
ATOM     33  H   UNL     1      21.610  24.609  17.431  1.00  0.00     0.211 HD
ENDBRANCH  21  32
BRANCH  22  34
ATOM     34  O   UNL     1      25.718  25.017  18.075  1.00  0.00    -0.385 OA
ATOM     35  H   UNL     1      26.052  25.804  18.578  1.00  0.00     0.211 HD
ENDBRANCH  22  34
ENDBRANCH  16  17
ENDBRANCH  11  16
BRANCH  13  36
ATOM     36  O   UNL     1      27.132  24.437  15.214  1.00  0.00    -0.385 OA
ATOM     37  H   UNL     1      27.877  24.354  14.539  1.00  0.00     0.211 HD
ENDBRANCH  13  36
BRANCH  14  38
ATOM     38  O   UNL     1      26.272  23.033  12.539  1.00  0.00    -0.387 OA
ATOM     39  H   UNL     1      25.499  22.894  11.917  1.00  0.00     0.211 HD
ENDBRANCH  14  38
BRANCH  15  40
ATOM     40  O   UNL     1      25.202  24.521  10.949  1.00  0.00    -0.387 OA
ATOM     41  H   UNL     1      24.752  25.094  10.288  1.00  0.00     0.211 HD
ENDBRANCH  15  40
ENDBRANCH   9  10
ENDBRANCH   8   9
ENDBRANCH   3   8
BRANCH   3  42
ATOM     42  C   UNL     1      23.593  21.690  10.457  1.00  0.00     0.364 C 
ATOM     43  O   UNL     1      24.854  21.651  10.701  1.00  0.00    -0.246 OA
BRANCH  42  44
ATOM     44  O   UNL     1      23.276  21.396   9.144  1.00  0.00    -0.477 OA
ATOM     45  H   UNL     1      22.580  21.895   8.642  1.00  0.00     0.296 HD
ENDBRANCH  42  44
ENDBRANCH   3  42
BRANCH   6  46
ATOM     46  O   UNL     1      20.014  21.332  12.887  1.00  0.00    -0.391 OA
ATOM     47  H   UNL     1      20.541  20.677  13.412  1.00  0.00     0.211 HD
ENDBRANCH   6  46
BRANCH   7  48
ATOM     48  N   UNL     1      20.538  19.521   9.941  1.00  0.00    -0.348 N 
ATOM     49  C   UNL     1      19.385  18.791   9.561  1.00  0.00     0.217 C 
ATOM     50  H   UNL     1      21.147  19.803   9.149  1.00  0.00     0.163 HD
ATOM     51  C   UNL     1      19.118  18.440   8.121  1.00  0.00     0.114 C 
ATOM     52  O   UNL     1      18.570  18.426  10.405  1.00  0.00    -0.275 OA
ENDBRANCH   7  48
ENDBRANCH   1   2
BRANCH   1  53
ATOM     53  O   UNL     1      21.281  18.696  13.646  1.00  0.00    -0.388 OA
ATOM     54  H   UNL     1      20.613  18.056  13.282  1.00  0.00     0.211 HD
ENDBRANCH   1  53
BRANCH   1  55
ATOM     55  C   UNL     1      23.632  18.761  13.667  1.00  0.00     0.165 C 
BRANCH  55  56
ATOM     56  O   UNL     1      23.423  19.735  14.690  1.00  0.00    -0.388 OA
ATOM     57  H   UNL     1      24.224  19.737  15.265  1.00  0.00     0.211 HD
ENDBRANCH  55  56
BRANCH  55  58
ATOM     58  C   UNL     1      24.911  19.173  13.003  1.00  0.00     0.154 C 
BRANCH  58  59
ATOM     59  N   UNL     1      25.549  20.301  13.639  1.00  0.00    -0.319 N 
ATOM     60  C   UNL     1      26.684  20.189  14.495  1.00  0.00     0.407 C 
ATOM     61  H   UNL     1      25.166  21.247  13.485  1.00  0.00     0.167 HD
ATOM     62  O   UNL     1      27.186  19.092  14.736  1.00  0.00    -0.225 OA
BRANCH  60  63
ATOM     63  O   UNL     1      27.197  21.338  15.042  1.00  0.00    -0.443 OA
BRANCH  63  64
ATOM     64  C   UNL     1      28.434  21.407  15.690  1.00  0.00     0.294 C 
BRANCH  64  65
ATOM     65  C   UNL     1      28.225  21.671  17.136  1.00  0.00     0.120 A 
ATOM     66  C   UNL     1      28.855  21.108  18.225  1.00  0.00     0.139 A 
ATOM     67  N   UNL     1      27.317  22.540  17.655  1.00  0.00    -0.132 NA
ATOM     68  N   UNL     1      28.324  21.640  19.364  1.00  0.00    -0.238 N 
ATOM     69  N   UNL     1      27.391  22.508  18.969  1.00  0.00    -0.066 NA
BRANCH  68  70
ATOM     70  C   UNL     1      28.711  21.345  20.695  1.00  0.00     0.219 C 
BRANCH  70  71
ATOM     71  C   UNL     1      30.147  21.151  21.014  1.00  0.00     0.051 C 
BRANCH  71  72
ATOM     72  C   UNL     1      30.720  19.795  21.032  1.00  0.00     0.125 C 
BRANCH  72  73
ATOM     73  C   UNL     1      29.861  18.648  20.824  1.00  0.00     0.303 C 
ATOM     74  O   UNL     1      28.987  18.183  21.576  1.00  0.00    -0.252 OA
BRANCH  73  75
ATOM     75  O   UNL     1      29.991  17.909  19.605  1.00  0.00    -0.481 OA
ATOM     76  H   UNL     1      30.772  17.281  19.498  1.00  0.00     0.296 HD
ENDBRANCH  73  75
ENDBRANCH  72  73
ENDBRANCH  71  72
ENDBRANCH  70  71
BRANCH  70  77
ATOM     77  C   UNL     1      28.175  22.415  21.593  1.00  0.00     0.328 C 
ATOM     78  O   UNL     1      28.913  23.338  21.987  1.00  0.00    -0.250 OA
BRANCH  77  79
ATOM     79  O   UNL     1      26.858  22.422  22.016  1.00  0.00    -0.480 OA
ATOM     80  H   UNL     1      26.295  23.274  22.008  1.00  0.00     0.296 HD
ENDBRANCH  77  79
ENDBRANCH  70  77
ENDBRANCH  68  70
ENDBRANCH  64  65
ENDBRANCH  63  64
ENDBRANCH  60  63
ENDBRANCH  58  59
ENDBRANCH  55  58
ENDBRANCH   1  55
TORSDOF 36
