REMARK VINA RESULT:    -5.475     10.611     18.133
REMARK INTER + INTRA:         -22.415
REMARK INTER:                 -15.134
REMARK INTRA:                  -7.281
REMARK UNBOUND:                -8.458
REMARK SMILES CC(=O)N[C@@H]1[C@@H](O)C[C@](OC[C@H]2O[C@@H](O[C@H]3[C@H](O)[C@@H](O)[C@H](OCCN=[N+]=[N-])O[C@@H]3CO)[C@H](O)[C@@H](O)[C@H]2O)(C(=O)O)O[C@H]1C(O)[C@H](O)CNC(=O)OCc1cn(-c2ccc(O)c([N+](=O)[O-])c2)nn1
REMARK SMILES IDX 9 1 8 2 6 3 5 4 42 5 41 6 10 7 11 8 12 9 14 10 13 11 32 12
REMARK SMILES IDX 34 13 36 14 15 15 16 16 29 17 28 18 21 19 17 20 19 21 30 22
REMARK SMILES IDX 31 23 22 25 23 26 24 27 25 28 26 29 27 30 18 31 20 33 33 35
REMARK SMILES IDX 35 37 37 39 38 41 39 42 40 43 7 45 43 47 44 48 45 50 46 51
REMARK SMILES IDX 47 53 48 54 49 55 50 57 51 58 52 59 53 60 54 61 67 62 55 63
REMARK SMILES IDX 66 64 56 65 57 66 65 67 58 68 61 69 59 70 62 71 63 72 64 73
REMARK SMILES IDX 60 74 4 76 2 77 1 79 3 80
REMARK H PARENT 31 24 18 32 20 34 33 36 35 38 37 40 40 44 7 46 44 49 46 52
REMARK H PARENT 48 56 60 75 4 78
REMARK Flexibility Score: inf
ROOT
ATOM      1  C   UNL     1      29.148  20.082  20.635  1.00  0.00     0.272 C 
ATOM      2  C   UNL     1      28.388  20.532  21.897  1.00  0.00     0.113 C 
ATOM      3  C   UNL     1      28.821  21.950  22.254  1.00  0.00     0.145 C 
ATOM      4  C   UNL     1      30.296  21.791  22.705  1.00  0.00     0.142 C 
ATOM      5  C   UNL     1      31.000  20.830  21.788  1.00  0.00     0.178 C 
ATOM      6  O   UNL     1      30.346  20.755  20.545  1.00  0.00    -0.332 OA
ENDROOT
BRANCH   1   7
ATOM      7  O   UNL     1      28.331  20.460  19.585  1.00  0.00    -0.338 OA
BRANCH   7   8
ATOM      8  C   UNL     1      28.947  20.835  18.429  1.00  0.00     0.199 C 
BRANCH   8   9
ATOM      9  C   UNL     1      27.942  20.505  17.298  1.00  0.00     0.179 C 
ATOM     10  C   UNL     1      27.468  21.311  15.232  1.00  0.00     0.282 C 
ATOM     11  O   UNL     1      27.908  21.622  16.520  1.00  0.00    -0.341 OA
ATOM     12  C   UNL     1      28.578  20.583  14.557  1.00  0.00     0.202 C 
ATOM     13  C   UNL     1      28.814  19.276  15.269  1.00  0.00     0.179 C 
ATOM     14  C   UNL     1      28.337  19.227  16.672  1.00  0.00     0.177 C 
BRANCH  10  15
ATOM     15  O   UNL     1      27.073  22.484  14.574  1.00  0.00    -0.341 OA
BRANCH  15  16
ATOM     16  C   UNL     1      25.703  22.446  14.397  1.00  0.00     0.184 C 
ATOM     17  C   UNL     1      25.223  22.778  13.027  1.00  0.00     0.178 C 
ATOM     18  O   UNL     1      23.888  22.403  12.952  1.00  0.00    -0.341 OA
ATOM     19  C   UNL     1      23.085  23.288  13.732  1.00  0.00     0.281 C 
ATOM     20  C   UNL     1      25.040  23.505  15.318  1.00  0.00     0.180 C 
ATOM     21  C   UNL     1      23.536  23.311  15.145  1.00  0.00     0.202 C 
BRANCH  17  22
ATOM     22  C   UNL     1      25.983  22.159  11.901  1.00  0.00     0.191 C 
BRANCH  22  23
ATOM     23  O   UNL     1      27.243  22.718  11.779  1.00  0.00    -0.394 OA
ATOM     24  H   UNL     1      27.324  23.074  10.837  1.00  0.00     0.210 HD
ENDBRANCH  22  23
ENDBRANCH  17  22
BRANCH  19  25
ATOM     25  O   UNL     1      21.815  22.732  13.635  1.00  0.00    -0.350 OA
BRANCH  25  26
ATOM     26  C   UNL     1      21.457  22.378  12.348  1.00  0.00     0.169 C 
BRANCH  26  27
ATOM     27  C   UNL     1      20.089  21.774  12.294  1.00  0.00     0.119 C 
BRANCH  27  28
ATOM     28  N   UNL     1      20.234  20.325  12.177  1.00  0.00    -0.092 NA
ATOM     29  N   UNL     1      19.209  19.607  12.177  1.00  0.00     0.001 N 
ATOM     30  N   UNL     1      18.356  18.816  11.736  1.00  0.00    -0.003 NA
ENDBRANCH  27  28
ENDBRANCH  26  27
ENDBRANCH  25  26
ENDBRANCH  19  25
BRANCH  20  31
ATOM     31  O   UNL     1      25.339  23.257  16.648  1.00  0.00    -0.387 OA
ATOM     32  H   UNL     1      26.321  23.236  16.817  1.00  0.00     0.211 HD
ENDBRANCH  20  31
BRANCH  21  33
ATOM     33  O   UNL     1      22.956  24.382  15.819  1.00  0.00    -0.385 OA
ATOM     34  H   UNL     1      23.301  24.468  16.728  1.00  0.00     0.211 HD
ENDBRANCH  21  33
ENDBRANCH  15  16
ENDBRANCH  10  15
BRANCH  12  35
ATOM     35  O   UNL     1      28.346  20.351  13.206  1.00  0.00    -0.385 OA
ATOM     36  H   UNL     1      29.139  20.614  12.655  1.00  0.00     0.211 HD
ENDBRANCH  12  35
BRANCH  13  37
ATOM     37  O   UNL     1      30.170  18.966  15.109  1.00  0.00    -0.387 OA
ATOM     38  H   UNL     1      30.576  18.979  16.017  1.00  0.00     0.211 HD
ENDBRANCH  13  37
BRANCH  14  39
ATOM     39  O   UNL     1      29.297  18.530  17.437  1.00  0.00    -0.387 OA
ATOM     40  H   UNL     1      29.834  17.914  16.896  1.00  0.00     0.211 HD
ENDBRANCH  14  39
ENDBRANCH   8   9
ENDBRANCH   7   8
ENDBRANCH   1   7
BRANCH   1  41
ATOM     41  C   UNL     1      29.216  18.628  20.711  1.00  0.00     0.364 C 
ATOM     42  O   UNL     1      30.033  17.890  20.098  1.00  0.00    -0.246 OA
BRANCH  41  43
ATOM     43  O   UNL     1      28.314  17.947  21.531  1.00  0.00    -0.477 OA
ATOM     44  H   UNL     1      27.421  17.601  21.195  1.00  0.00     0.296 HD
ENDBRANCH  41  43
ENDBRANCH   1  41
BRANCH   3  45
ATOM     45  O   UNL     1      28.737  22.791  21.176  1.00  0.00    -0.391 OA
ATOM     46  H   UNL     1      28.518  22.267  20.369  1.00  0.00     0.211 HD
ENDBRANCH   3  45
BRANCH   5  47
ATOM     47  C   UNL     1      32.392  21.338  21.503  1.00  0.00     0.176 C 
BRANCH  47  48
ATOM     48  O   UNL     1      33.284  20.604  22.268  1.00  0.00    -0.388 OA
ATOM     49  H   UNL     1      33.252  19.636  22.069  1.00  0.00     0.211 HD
ENDBRANCH  47  48
BRANCH  47  50
ATOM     50  C   UNL     1      32.798  21.250  20.053  1.00  0.00     0.165 C 
BRANCH  50  51
ATOM     51  O   UNL     1      34.149  20.813  20.093  1.00  0.00    -0.388 OA
ATOM     52  H   UNL     1      34.279  20.005  19.522  1.00  0.00     0.211 HD
ENDBRANCH  50  51
BRANCH  50  53
ATOM     53  C   UNL     1      32.821  22.600  19.395  1.00  0.00     0.154 C 
BRANCH  53  54
ATOM     54  N   UNL     1      31.851  23.469  20.005  1.00  0.00    -0.319 N 
ATOM     55  C   UNL     1      31.073  24.436  19.335  1.00  0.00     0.407 C 
ATOM     56  H   UNL     1      31.685  23.397  21.056  1.00  0.00     0.167 HD
ATOM     57  O   UNL     1      31.237  24.560  18.114  1.00  0.00    -0.225 OA
BRANCH  55  58
ATOM     58  O   UNL     1      30.144  25.250  19.940  1.00  0.00    -0.443 OA
BRANCH  58  59
ATOM     59  C   UNL     1      29.191  25.950  19.182  1.00  0.00     0.294 C 
BRANCH  59  60
ATOM     60  C   UNL     1      27.878  25.255  19.335  1.00  0.00     0.121 A 
ATOM     61  C   UNL     1      26.763  25.752  20.015  1.00  0.00     0.144 A 
ATOM     62  N   UNL     1      27.468  24.059  18.895  1.00  0.00    -0.131 NA
ATOM     63  N   UNL     1      25.783  24.858  19.948  1.00  0.00    -0.220 N 
ATOM     64  N   UNL     1      26.254  23.833  19.252  1.00  0.00    -0.062 NA
BRANCH  63  65
ATOM     65  C   UNL     1      24.471  24.974  20.523  1.00  0.00     0.073 A 
ATOM     66  C   UNL     1      24.086  24.179  21.559  1.00  0.00     0.033 A 
ATOM     67  C   UNL     1      23.561  25.884  20.056  1.00  0.00     0.118 A 
ATOM     68  C   UNL     1      22.844  24.254  22.144  1.00  0.00     0.056 A 
ATOM     69  C   UNL     1      22.280  25.983  20.635  1.00  0.00     0.312 A 
ATOM     70  C   UNL     1      21.891  25.187  21.678  1.00  0.00     0.194 A 
BRANCH  69  71
ATOM     71  N   UNL     1      21.411  26.948  20.096  1.00  0.00     0.066 N 
ATOM     72  O   UNL     1      21.567  27.253  18.873  1.00  0.00    -0.258 OA
ATOM     73  O   UNL     1      20.443  27.541  20.840  1.00  0.00    -0.258 OA
ENDBRANCH  69  71
BRANCH  70  74
ATOM     74  O   UNL     1      20.657  25.222  22.305  1.00  0.00    -0.502 OA
ATOM     75  H   UNL     1      20.527  25.021  23.244  1.00  0.00     0.293 HD
ENDBRANCH  70  74
ENDBRANCH  63  65
ENDBRANCH  59  60
ENDBRANCH  58  59
ENDBRANCH  55  58
ENDBRANCH  53  54
ENDBRANCH  50  53
ENDBRANCH  47  50
ENDBRANCH   5  47
BRANCH   4  76
ATOM     76  N   UNL     1      30.197  21.296  24.063  1.00  0.00    -0.348 N 
ATOM     77  C   UNL     1      31.201  21.598  25.041  1.00  0.00     0.217 C 
ATOM     78  H   UNL     1      29.398  20.709  24.364  1.00  0.00     0.163 HD
ATOM     79  C   UNL     1      31.080  21.080  26.424  1.00  0.00     0.114 C 
ATOM     80  O   UNL     1      32.187  22.315  24.691  1.00  0.00    -0.275 OA
ENDBRANCH   4  76
TORSDOF 32
