REMARK VINA RESULT:    -6.694     13.097     19.899
REMARK INTER + INTRA:         -23.098
REMARK INTER:                 -15.736
REMARK INTRA:                  -7.362
REMARK UNBOUND:                -6.033
REMARK SMILES CC(=O)N[C@@H]1[C@@H](O)C[C@](OC[C@H]2O[C@@H](O[C@H]3[C@H](O)[C@@H](O)[C@H](OCCN=[N+]=[N-])O[C@@H]3CO)[C@H](O)[C@@H](O)[C@H]2O)(C(=O)O)O[C@H]1C(O)[C@H](O)CNC(=O)OCc1cn(-c2cccc(S(N)(=O)=O)c2)nn1
REMARK SMILES IDX 9 1 8 2 6 3 5 4 42 5 41 6 10 7 11 8 12 9 14 10 13 11 32 12
REMARK SMILES IDX 34 13 36 14 15 15 16 16 29 17 28 18 21 19 17 20 19 21 30 22
REMARK SMILES IDX 31 23 22 25 23 26 24 27 25 28 26 29 27 30 18 31 20 33 33 35
REMARK SMILES IDX 35 37 37 39 38 41 39 42 40 43 7 45 43 47 44 48 45 50 46 51
REMARK SMILES IDX 47 53 48 54 49 55 50 57 51 58 52 59 53 60 54 61 67 62 55 63
REMARK SMILES IDX 66 64 56 65 65 66 57 67 60 68 58 69 59 70 61 71 63 72 64 73
REMARK SMILES IDX 62 74 4 77 2 78 1 80 3 81
REMARK H PARENT 31 24 18 32 20 34 33 36 35 38 37 40 40 44 7 46 44 49 46 52
REMARK H PARENT 48 56 62 75 62 76 4 79
REMARK Flexibility Score: inf
ROOT
ATOM      1  C   UNL     1      15.155  30.295  20.521  1.00  0.00     0.272 C 
ATOM      2  C   UNL     1      14.214  31.515  20.520  1.00  0.00     0.113 C 
ATOM      3  C   UNL     1      12.961  31.129  21.224  1.00  0.00     0.145 C 
ATOM      4  C   UNL     1      13.245  30.693  22.618  1.00  0.00     0.142 C 
ATOM      5  C   UNL     1      14.563  30.020  22.764  1.00  0.00     0.178 C 
ATOM      6  O   UNL     1      15.467  29.998  21.779  1.00  0.00    -0.332 OA
ENDROOT
BRANCH   1   7
ATOM      7  O   UNL     1      16.283  30.772  19.800  1.00  0.00    -0.338 OA
BRANCH   7   8
ATOM      8  C   UNL     1      17.413  30.318  20.408  1.00  0.00     0.199 C 
BRANCH   8   9
ATOM      9  C   UNL     1      18.474  29.873  19.424  1.00  0.00     0.179 C 
ATOM     10  C   UNL     1      20.203  28.462  19.284  1.00  0.00     0.282 C 
ATOM     11  O   UNL     1      18.827  28.539  19.615  1.00  0.00    -0.341 OA
ATOM     12  C   UNL     1      20.502  29.140  17.997  1.00  0.00     0.202 C 
ATOM     13  C   UNL     1      19.294  29.507  17.173  1.00  0.00     0.179 C 
ATOM     14  C   UNL     1      18.154  30.079  17.995  1.00  0.00     0.177 C 
BRANCH  10  15
ATOM     15  O   UNL     1      20.681  27.184  19.430  1.00  0.00    -0.341 OA
BRANCH  15  16
ATOM     16  C   UNL     1      22.026  27.084  19.695  1.00  0.00     0.184 C 
ATOM     17  C   UNL     1      22.492  25.684  19.376  1.00  0.00     0.178 C 
ATOM     18  O   UNL     1      23.366  25.212  20.362  1.00  0.00    -0.341 OA
ATOM     19  C   UNL     1      22.622  24.915  21.480  1.00  0.00     0.281 C 
ATOM     20  C   UNL     1      22.208  27.397  21.164  1.00  0.00     0.180 C 
ATOM     21  C   UNL     1      22.092  26.194  22.044  1.00  0.00     0.202 C 
BRANCH  17  22
ATOM     22  C   UNL     1      23.213  25.569  18.071  1.00  0.00     0.191 C 
BRANCH  22  23
ATOM     23  O   UNL     1      22.556  24.674  17.203  1.00  0.00    -0.394 OA
ATOM     24  H   UNL     1      23.137  24.418  16.448  1.00  0.00     0.210 HD
ENDBRANCH  22  23
ENDBRANCH  17  22
BRANCH  19  25
ATOM     25  O   UNL     1      23.369  24.269  22.465  1.00  0.00    -0.350 OA
BRANCH  25  26
ATOM     26  C   UNL     1      24.595  23.818  22.059  1.00  0.00     0.169 C 
BRANCH  26  27
ATOM     27  C   UNL     1      25.770  24.484  22.744  1.00  0.00     0.119 C 
BRANCH  27  28
ATOM     28  N   UNL     1      25.532  25.900  22.947  1.00  0.00    -0.092 NA
ATOM     29  N   UNL     1      25.491  26.409  24.064  1.00  0.00     0.001 N 
ATOM     30  N   UNL     1      25.421  27.009  25.122  1.00  0.00    -0.003 NA
ENDBRANCH  27  28
ENDBRANCH  26  27
ENDBRANCH  25  26
ENDBRANCH  19  25
BRANCH  20  31
ATOM     31  O   UNL     1      23.495  27.933  21.348  1.00  0.00    -0.387 OA
ATOM     32  H   UNL     1      24.070  27.807  20.553  1.00  0.00     0.211 HD
ENDBRANCH  20  31
BRANCH  21  33
ATOM     33  O   UNL     1      20.737  25.974  22.388  1.00  0.00    -0.385 OA
ATOM     34  H   UNL     1      20.218  26.718  22.003  1.00  0.00     0.211 HD
ENDBRANCH  21  33
ENDBRANCH  15  16
ENDBRANCH  10  15
BRANCH  12  35
ATOM     35  O   UNL     1      21.361  30.256  18.142  1.00  0.00    -0.385 OA
ATOM     36  H   UNL     1      21.892  30.035  18.972  1.00  0.00     0.211 HD
ENDBRANCH  12  35
BRANCH  13  37
ATOM     37  O   UNL     1      18.908  28.481  16.332  1.00  0.00    -0.387 OA
ATOM     38  H   UNL     1      18.530  27.758  16.928  1.00  0.00     0.211 HD
ENDBRANCH  13  37
BRANCH  14  39
ATOM     39  O   UNL     1      17.009  29.341  17.675  1.00  0.00    -0.387 OA
ATOM     40  H   UNL     1      16.924  28.529  18.234  1.00  0.00     0.211 HD
ENDBRANCH  14  39
ENDBRANCH   8   9
ENDBRANCH   7   8
ENDBRANCH   1   7
BRANCH   1  41
ATOM     41  C   UNL     1      14.462  29.255  19.721  1.00  0.00     0.364 C 
ATOM     42  O   UNL     1      14.202  29.515  18.490  1.00  0.00    -0.246 OA
BRANCH  41  43
ATOM     43  O   UNL     1      14.060  28.025  20.151  1.00  0.00    -0.477 OA
ATOM     44  H   UNL     1      14.067  27.192  19.549  1.00  0.00     0.296 HD
ENDBRANCH  41  43
ENDBRANCH   1  41
BRANCH   3  45
ATOM     45  O   UNL     1      12.143  32.294  21.214  1.00  0.00    -0.391 OA
ATOM     46  H   UNL     1      11.751  32.317  22.142  1.00  0.00     0.211 HD
ENDBRANCH   3  45
BRANCH   5  47
ATOM     47  C   UNL     1      15.218  30.568  24.056  1.00  0.00     0.176 C 
BRANCH  47  48
ATOM     48  O   UNL     1      14.491  31.662  24.486  1.00  0.00    -0.388 OA
ATOM     49  H   UNL     1      13.540  31.646  24.286  1.00  0.00     0.211 HD
ENDBRANCH  47  48
BRANCH  47  50
ATOM     50  C   UNL     1      16.668  30.782  23.854  1.00  0.00     0.165 C 
BRANCH  50  51
ATOM     51  O   UNL     1      17.318  29.550  23.874  1.00  0.00    -0.388 OA
ATOM     52  H   UNL     1      17.220  29.226  24.815  1.00  0.00     0.211 HD
ENDBRANCH  50  51
BRANCH  50  53
ATOM     53  C   UNL     1      17.288  31.639  24.944  1.00  0.00     0.154 C 
BRANCH  53  54
ATOM     54  N   UNL     1      18.692  31.313  25.024  1.00  0.00    -0.319 N 
ATOM     55  C   UNL     1      19.640  32.054  24.224  1.00  0.00     0.407 C 
ATOM     56  H   UNL     1      19.060  30.552  25.639  1.00  0.00     0.167 HD
ATOM     57  O   UNL     1      19.261  32.977  23.458  1.00  0.00    -0.225 OA
BRANCH  55  58
ATOM     58  O   UNL     1      20.966  31.692  24.352  1.00  0.00    -0.443 OA
BRANCH  58  59
ATOM     59  C   UNL     1      21.504  30.632  23.620  1.00  0.00     0.294 C 
BRANCH  59  60
ATOM     60  C   UNL     1      21.192  29.330  24.226  1.00  0.00     0.121 A 
ATOM     61  C   UNL     1      22.111  28.576  24.971  1.00  0.00     0.144 A 
ATOM     62  N   UNL     1      20.063  28.632  24.208  1.00  0.00    -0.131 NA
ATOM     63  N   UNL     1      21.486  27.469  25.359  1.00  0.00    -0.220 N 
ATOM     64  N   UNL     1      20.270  27.524  24.894  1.00  0.00    -0.062 NA
BRANCH  63  65
ATOM     65  C   UNL     1      22.099  26.446  26.155  1.00  0.00     0.068 A 
ATOM     66  C   UNL     1      22.515  26.761  27.452  1.00  0.00     0.050 A 
ATOM     67  C   UNL     1      22.274  25.187  25.667  1.00  0.00     0.028 A 
ATOM     68  C   UNL     1      23.105  25.818  28.255  1.00  0.00     0.084 A 
ATOM     69  C   UNL     1      22.857  24.245  26.452  1.00  0.00     0.004 A 
ATOM     70  C   UNL     1      23.281  24.537  27.751  1.00  0.00     0.022 A 
BRANCH  68  71
ATOM     71  S   UNL     1      23.645  26.140  29.878  1.00  0.00     0.238 S 
ATOM     72  O   UNL     1      22.522  26.788  30.639  1.00  0.00    -0.207 OA
ATOM     73  O   UNL     1      24.815  27.070  29.863  1.00  0.00    -0.207 OA
BRANCH  71  74
ATOM     74  N   UNL     1      24.082  24.632  30.626  1.00  0.00    -0.225 NA
ATOM     75  H   UNL     1      23.205  24.138  30.906  1.00  0.00     0.137 HD
ATOM     76  H   UNL     1      24.762  24.768  31.402  1.00  0.00     0.137 HD
ENDBRANCH  71  74
ENDBRANCH  68  71
ENDBRANCH  63  65
ENDBRANCH  59  60
ENDBRANCH  58  59
ENDBRANCH  55  58
ENDBRANCH  53  54
ENDBRANCH  50  53
ENDBRANCH  47  50
ENDBRANCH   5  47
BRANCH   4  77
ATOM     77  N   UNL     1      12.189  29.738  22.990  1.00  0.00    -0.348 N 
ATOM     78  C   UNL     1      11.498  29.801  24.229  1.00  0.00     0.217 C 
ATOM     79  H   UNL     1      11.933  28.981  22.322  1.00  0.00     0.163 HD
ATOM     80  C   UNL     1      10.440  28.809  24.547  1.00  0.00     0.114 C 
ATOM     81  O   UNL     1      11.815  30.721  25.039  1.00  0.00    -0.275 OA
ENDBRANCH   4  77
TORSDOF 32
