REMARK VINA RESULT:    -6.023     11.945     16.381
REMARK INTER + INTRA:         -22.768
REMARK INTER:                 -13.663
REMARK INTRA:                  -9.105
REMARK UNBOUND:                -6.885
REMARK SMILES CCOC(=O)c1cccc(-n2cc(COC(=O)NC[C@@H](O)C(O)[C@@H]3O[C@@](OC[C@H]4O[C@@H](O[C@H]5[C@H](O)[C@@H](O)[C@H](OCCN=[N+]=[N-])O[C@@H]5CO)[C@H](O)[C@@H](O)[C@H]4O)(C(=O)O)C[C@H](O)[C@H]3NC(C)=O)nn2)c1
REMARK SMILES IDX 22 1 24 2 26 3 58 4 25 5 59 6 61 7 27 8 28 9 29 10 31 11
REMARK SMILES IDX 30 12 49 13 51 14 53 15 32 16 33 17 46 18 45 19 38 20 34 21
REMARK SMILES IDX 36 22 47 23 48 24 39 26 40 27 41 28 42 29 43 30 44 31 35 32
REMARK SMILES IDX 37 34 50 36 52 38 54 40 55 42 56 43 57 44 60 46 62 48 63 49
REMARK SMILES IDX 64 51 65 52 23 53 20 55 21 56 19 58 18 59 16 60 17 62 15 63
REMARK SMILES IDX 14 64 13 65 12 66 66 67 11 68 67 69 10 70 68 71 9 72 6 73
REMARK SMILES IDX 8 74 7 75 4 76 5 77 3 78 2 79 1 80
REMARK H PARENT 48 25 35 33 37 35 50 37 52 39 54 41 57 45 60 47 62 50 23 54
REMARK H PARENT 21 57 18 61
REMARK Flexibility Score: inf
ROOT
ATOM      1  C   UNL     1      19.346  32.996  25.146  1.00  0.00     0.176 C 
ENDROOT
BRANCH   1   2
ATOM      2  C   UNL     1      20.064  32.568  23.936  1.00  0.00     0.178 C 
ATOM      3  C   UNL     1      21.032  30.546  23.185  1.00  0.00     0.272 C 
ATOM      4  C   UNL     1      21.286  31.451  22.023  1.00  0.00     0.113 C 
ATOM      5  O   UNL     1      20.858  31.470  24.278  1.00  0.00    -0.332 OA
ATOM      6  C   UNL     1      21.960  32.758  22.408  1.00  0.00     0.145 C 
ATOM      7  C   UNL     1      20.928  33.571  23.259  1.00  0.00     0.142 C 
BRANCH   3   8
ATOM      8  O   UNL     1      22.153  29.840  23.494  1.00  0.00    -0.338 OA
BRANCH   8   9
ATOM      9  C   UNL     1      22.713  28.898  22.777  1.00  0.00     0.199 C 
BRANCH   9  10
ATOM     10  C   UNL     1      23.137  27.562  23.218  1.00  0.00     0.179 C 
ATOM     11  C   UNL     1      23.434  26.194  25.093  1.00  0.00     0.282 C 
ATOM     12  O   UNL     1      23.425  27.493  24.534  1.00  0.00    -0.341 OA
ATOM     13  C   UNL     1      23.515  25.144  24.028  1.00  0.00     0.202 C 
ATOM     14  C   UNL     1      22.431  25.248  23.004  1.00  0.00     0.179 C 
ATOM     15  C   UNL     1      21.900  26.640  22.975  1.00  0.00     0.177 C 
BRANCH  11  16
ATOM     16  O   UNL     1      22.345  26.149  25.911  1.00  0.00    -0.341 OA
BRANCH  16  17
ATOM     17  C   UNL     1      22.324  26.898  27.037  1.00  0.00     0.184 C 
ATOM     18  C   UNL     1      22.156  25.981  28.219  1.00  0.00     0.178 C 
ATOM     19  O   UNL     1      22.179  26.690  29.422  1.00  0.00    -0.341 OA
ATOM     20  C   UNL     1      20.992  27.472  29.479  1.00  0.00     0.281 C 
ATOM     21  C   UNL     1      21.141  27.880  27.072  1.00  0.00     0.180 C 
ATOM     22  C   UNL     1      21.179  28.548  28.445  1.00  0.00     0.202 C 
BRANCH  18  23
ATOM     23  C   UNL     1      23.243  24.946  28.262  1.00  0.00     0.191 C 
BRANCH  23  24
ATOM     24  O   UNL     1      22.679  23.647  28.362  1.00  0.00    -0.394 OA
ATOM     25  H   UNL     1      21.813  23.612  27.883  1.00  0.00     0.210 HD
ENDBRANCH  23  24
ENDBRANCH  18  23
BRANCH  20  26
ATOM     26  O   UNL     1      20.856  27.930  30.757  1.00  0.00    -0.350 OA
BRANCH  26  27
ATOM     27  C   UNL     1      19.613  27.633  31.298  1.00  0.00     0.169 C 
BRANCH  27  28
ATOM     28  C   UNL     1      18.899  28.828  31.857  1.00  0.00     0.119 C 
BRANCH  28  29
ATOM     29  N   UNL     1      17.531  28.441  32.220  1.00  0.00    -0.092 NA
ATOM     30  N   UNL     1      16.604  28.926  31.557  1.00  0.00     0.001 N 
ATOM     31  N   UNL     1      15.602  29.130  30.843  1.00  0.00    -0.003 NA
ENDBRANCH  28  29
ENDBRANCH  27  28
ENDBRANCH  26  27
ENDBRANCH  20  26
BRANCH  21  32
ATOM     32  O   UNL     1      21.318  28.910  26.161  1.00  0.00    -0.387 OA
ATOM     33  H   UNL     1      20.485  29.441  26.152  1.00  0.00     0.211 HD
ENDBRANCH  21  32
BRANCH  22  34
ATOM     34  O   UNL     1      20.211  29.542  28.540  1.00  0.00    -0.385 OA
ATOM     35  H   UNL     1      19.316  29.255  28.185  1.00  0.00     0.211 HD
ENDBRANCH  22  34
ENDBRANCH  16  17
ENDBRANCH  11  16
BRANCH  13  36
ATOM     36  O   UNL     1      24.801  25.171  23.454  1.00  0.00    -0.385 OA
ATOM     37  H   UNL     1      25.136  26.088  23.333  1.00  0.00     0.211 HD
ENDBRANCH  13  36
BRANCH  14  38
ATOM     38  O   UNL     1      21.486  24.251  23.092  1.00  0.00    -0.387 OA
ATOM     39  H   UNL     1      21.969  23.385  23.015  1.00  0.00     0.211 HD
ENDBRANCH  14  38
BRANCH  15  40
ATOM     40  O   UNL     1      20.914  26.858  23.886  1.00  0.00    -0.387 OA
ATOM     41  H   UNL     1      21.171  26.461  24.755  1.00  0.00     0.211 HD
ENDBRANCH  15  40
ENDBRANCH   9  10
ENDBRANCH   8   9
ENDBRANCH   3   8
BRANCH   3  42
ATOM     42  C   UNL     1      19.823  29.739  23.119  1.00  0.00     0.364 C 
ATOM     43  O   UNL     1      19.319  29.206  24.119  1.00  0.00    -0.246 OA
BRANCH  42  44
ATOM     44  O   UNL     1      19.176  29.532  21.900  1.00  0.00    -0.477 OA
ATOM     45  H   UNL     1      19.600  29.694  21.011  1.00  0.00     0.296 HD
ENDBRANCH  42  44
ENDBRANCH   3  42
BRANCH   6  46
ATOM     46  O   UNL     1      23.006  32.477  23.251  1.00  0.00    -0.391 OA
ATOM     47  H   UNL     1      22.686  31.917  23.999  1.00  0.00     0.211 HD
ENDBRANCH   6  46
BRANCH   7  48
ATOM     48  N   UNL     1      20.214  34.404  22.320  1.00  0.00    -0.348 N 
ATOM     49  C   UNL     1      19.736  35.721  22.624  1.00  0.00     0.217 C 
ATOM     50  H   UNL     1      20.000  34.079  21.329  1.00  0.00     0.163 HD
ATOM     51  C   UNL     1      19.003  36.551  21.632  1.00  0.00     0.114 C 
ATOM     52  O   UNL     1      19.935  36.203  23.757  1.00  0.00    -0.275 OA
ENDBRANCH   7  48
ENDBRANCH   1   2
BRANCH   1  53
ATOM     53  O   UNL     1      17.992  33.161  25.030  1.00  0.00    -0.388 OA
ATOM     54  H   UNL     1      17.566  32.455  24.490  1.00  0.00     0.211 HD
ENDBRANCH   1  53
BRANCH   1  55
ATOM     55  C   UNL     1      19.707  32.304  26.436  1.00  0.00     0.165 C 
BRANCH  55  56
ATOM     56  O   UNL     1      19.297  30.967  26.408  1.00  0.00    -0.388 OA
ATOM     57  H   UNL     1      20.048  30.373  26.667  1.00  0.00     0.211 HD
ENDBRANCH  55  56
BRANCH  55  58
ATOM     58  C   UNL     1      19.333  33.053  27.678  1.00  0.00     0.154 C 
BRANCH  58  59
ATOM     59  N   UNL     1      17.902  33.146  27.853  1.00  0.00    -0.319 N 
ATOM     60  C   UNL     1      17.189  32.196  28.617  1.00  0.00     0.407 C 
ATOM     61  H   UNL     1      17.353  33.943  27.403  1.00  0.00     0.167 HD
ATOM     62  O   UNL     1      17.697  31.217  29.209  1.00  0.00    -0.225 OA
BRANCH  60  63
ATOM     63  O   UNL     1      15.791  32.303  28.753  1.00  0.00    -0.443 OA
BRANCH  63  64
ATOM     64  C   UNL     1      14.860  31.544  28.045  1.00  0.00     0.294 C 
BRANCH  64  65
ATOM     65  C   UNL     1      15.279  31.092  26.712  1.00  0.00     0.121 A 
ATOM     66  C   UNL     1      14.436  30.711  25.673  1.00  0.00     0.144 A 
ATOM     67  N   UNL     1      16.516  30.962  26.250  1.00  0.00    -0.131 NA
ATOM     68  N   UNL     1      15.202  30.368  24.638  1.00  0.00    -0.220 N 
ATOM     69  N   UNL     1      16.457  30.523  24.994  1.00  0.00    -0.062 NA
BRANCH  68  70
ATOM     70  C   UNL     1      14.738  29.923  23.382  1.00  0.00     0.067 A 
ATOM     71  C   UNL     1      15.618  29.547  22.370  1.00  0.00     0.044 A 
ATOM     72  C   UNL     1      13.402  29.826  23.097  1.00  0.00     0.028 A 
ATOM     73  C   UNL     1      15.215  29.099  21.141  1.00  0.00     0.062 A 
ATOM     74  C   UNL     1      12.954  29.376  21.865  1.00  0.00     0.003 A 
ATOM     75  C   UNL     1      13.851  29.013  20.887  1.00  0.00     0.016 A 
BRANCH  73  76
ATOM     76  C   UNL     1      16.185  28.727  20.132  1.00  0.00     0.338 C 
ATOM     77  O   UNL     1      17.074  27.898  20.409  1.00  0.00    -0.246 OA
BRANCH  76  78
ATOM     78  O   UNL     1      16.122  29.281  18.879  1.00  0.00    -0.462 OA
BRANCH  78  79
ATOM     79  C   UNL     1      16.459  28.598  17.694  1.00  0.00     0.230 C 
ATOM     80  C   UNL     1      17.676  29.235  17.059  1.00  0.00     0.049 C 
ENDBRANCH  78  79
ENDBRANCH  76  78
ENDBRANCH  73  76
ENDBRANCH  68  70
ENDBRANCH  64  65
ENDBRANCH  63  64
ENDBRANCH  60  63
ENDBRANCH  58  59
ENDBRANCH  55  58
ENDBRANCH   1  55
TORSDOF 33
