REMARK VINA RESULT:    -6.190      5.972     12.906
REMARK INTER + INTRA:         -21.965
REMARK INTER:                 -15.167
REMARK INTRA:                  -6.798
REMARK UNBOUND:                -6.367
REMARK SMILES CC(=O)N[C@@H]1[C@@H](O)C[C@](OC[C@H]2O[C@@H](O[C@H]3[C@H](O)[C@@H](O)[C@H](OCCN=[N+]=[N-])O[C@@H]3CO)[C@H](O)[C@@H](O)[C@H]2O)(C(=O)O)O[C@H]1C(O)[C@H](O)CNC(=O)OCc1cn(-c2ncn3c2c(=O)n(C(C)C)c2ccccc23)nn1
REMARK SMILES IDX 9 1 8 2 6 3 5 4 42 5 41 6 10 7 11 8 12 9 14 10 13 11 32 12
REMARK SMILES IDX 34 13 36 14 15 15 16 16 29 17 28 18 21 19 17 20 19 21 30 22
REMARK SMILES IDX 31 23 22 25 23 26 24 27 25 28 26 29 27 30 18 31 20 33 33 35
REMARK SMILES IDX 35 37 37 39 38 41 39 42 40 43 7 45 43 47 44 48 45 50 46 51
REMARK SMILES IDX 47 53 48 54 49 55 50 57 51 58 52 59 53 60 54 61 74 62 55 63
REMARK SMILES IDX 73 64 56 65 57 66 60 67 58 68 59 69 61 70 72 71 63 72 62 73
REMARK SMILES IDX 71 74 67 75 70 76 68 77 69 78 64 79 65 80 66 81 4 82 2 83
REMARK SMILES IDX 1 85 3 86
REMARK H PARENT 31 24 18 32 20 34 33 36 35 38 37 40 40 44 7 46 44 49 46 52
REMARK H PARENT 48 56 4 84
REMARK Flexibility Score: inf
ROOT
ATOM      1  C   UNL     1      26.389  24.828  20.949  1.00  0.00     0.272 C 
ATOM      2  C   UNL     1      26.631  26.311  20.877  1.00  0.00     0.113 C 
ATOM      3  C   UNL     1      27.101  26.754  19.555  1.00  0.00     0.145 C 
ATOM      4  C   UNL     1      26.363  26.158  18.391  1.00  0.00     0.142 C 
ATOM      5  C   UNL     1      25.790  24.815  18.667  1.00  0.00     0.178 C 
ATOM      6  O   UNL     1      25.446  24.516  19.918  1.00  0.00    -0.332 OA
ENDROOT
BRANCH   1   7
ATOM      7  O   UNL     1      25.638  24.619  22.072  1.00  0.00    -0.338 OA
BRANCH   7   8
ATOM      8  C   UNL     1      24.577  23.872  22.188  1.00  0.00     0.199 C 
BRANCH   8   9
ATOM      9  C   UNL     1      23.293  24.254  22.840  1.00  0.00     0.179 C 
ATOM     10  C   UNL     1      22.621  25.667  24.565  1.00  0.00     0.282 C 
ATOM     11  O   UNL     1      23.688  25.192  23.849  1.00  0.00    -0.341 OA
ATOM     12  C   UNL     1      21.656  26.463  23.705  1.00  0.00     0.202 C 
ATOM     13  C   UNL     1      21.248  25.667  22.479  1.00  0.00     0.179 C 
ATOM     14  C   UNL     1      22.488  25.096  21.849  1.00  0.00     0.177 C 
BRANCH  10  15
ATOM     15  O   UNL     1      23.130  26.523  25.535  1.00  0.00    -0.341 OA
BRANCH  15  16
ATOM     16  C   UNL     1      23.655  25.821  26.589  1.00  0.00     0.184 C 
ATOM     17  C   UNL     1      22.608  25.542  27.605  1.00  0.00     0.178 C 
ATOM     18  O   UNL     1      22.567  26.388  28.684  1.00  0.00    -0.341 OA
ATOM     19  C   UNL     1      23.061  27.650  28.482  1.00  0.00     0.281 C 
ATOM     20  C   UNL     1      24.881  26.483  27.183  1.00  0.00     0.180 C 
ATOM     21  C   UNL     1      24.490  27.659  27.999  1.00  0.00     0.202 C 
BRANCH  17  22
ATOM     22  C   UNL     1      22.703  24.110  28.087  1.00  0.00     0.191 C 
BRANCH  22  23
ATOM     23  O   UNL     1      23.432  24.168  29.299  1.00  0.00    -0.394 OA
ATOM     24  H   UNL     1      23.358  23.274  29.704  1.00  0.00     0.210 HD
ENDBRANCH  22  23
ENDBRANCH  17  22
BRANCH  19  25
ATOM     25  O   UNL     1      23.079  28.294  29.733  1.00  0.00    -0.350 OA
BRANCH  25  26
ATOM     26  C   UNL     1      22.698  27.496  30.778  1.00  0.00     0.169 C 
BRANCH  26  27
ATOM     27  C   UNL     1      23.510  27.625  32.028  1.00  0.00     0.119 C 
BRANCH  27  28
ATOM     28  N   UNL     1      24.905  27.375  31.631  1.00  0.00    -0.092 NA
ATOM     29  N   UNL     1      25.294  26.327  31.161  1.00  0.00     0.001 N 
ATOM     30  N   UNL     1      25.838  25.239  30.948  1.00  0.00    -0.003 NA
ENDBRANCH  27  28
ENDBRANCH  26  27
ENDBRANCH  25  26
ENDBRANCH  19  25
BRANCH  20  31
ATOM     31  O   UNL     1      25.609  25.522  27.896  1.00  0.00    -0.387 OA
ATOM     32  H   UNL     1      24.972  25.180  28.589  1.00  0.00     0.211 HD
ENDBRANCH  20  31
BRANCH  21  33
ATOM     33  O   UNL     1      24.666  28.802  27.198  1.00  0.00    -0.385 OA
ATOM     34  H   UNL     1      25.181  29.506  27.671  1.00  0.00     0.211 HD
ENDBRANCH  21  33
ENDBRANCH  15  16
ENDBRANCH  10  15
BRANCH  12  35
ATOM     35  O   UNL     1      20.494  26.651  24.449  1.00  0.00    -0.385 OA
ATOM     36  H   UNL     1      20.488  26.116  25.278  1.00  0.00     0.211 HD
ENDBRANCH  12  35
BRANCH  13  37
ATOM     37  O   UNL     1      20.728  26.597  21.558  1.00  0.00    -0.387 OA
ATOM     38  H   UNL     1      20.795  27.519  21.930  1.00  0.00     0.211 HD
ENDBRANCH  13  37
BRANCH  14  39
ATOM     39  O   UNL     1      23.290  26.212  21.493  1.00  0.00    -0.387 OA
ATOM     40  H   UNL     1      22.826  26.761  20.816  1.00  0.00     0.211 HD
ENDBRANCH  14  39
ENDBRANCH   8   9
ENDBRANCH   7   8
ENDBRANCH   1   7
BRANCH   1  41
ATOM     41  C   UNL     1      27.567  24.002  20.720  1.00  0.00     0.364 C 
ATOM     42  O   UNL     1      28.728  24.403  20.789  1.00  0.00    -0.246 OA
BRANCH  41  43
ATOM     43  O   UNL     1      27.426  22.641  20.392  1.00  0.00    -0.477 OA
ATOM     44  H   UNL     1      27.139  21.984  21.106  1.00  0.00     0.296 HD
ENDBRANCH  41  43
ENDBRANCH   1  41
BRANCH   3  45
ATOM     45  O   UNL     1      26.955  28.165  19.522  1.00  0.00    -0.391 OA
ATOM     46  H   UNL     1      26.628  28.461  18.643  1.00  0.00     0.211 HD
ENDBRANCH   3  45
BRANCH   5  47
ATOM     47  C   UNL     1      24.632  24.482  17.744  1.00  0.00     0.176 C 
BRANCH  47  48
ATOM     48  O   UNL     1      24.853  25.036  16.502  1.00  0.00    -0.388 OA
ATOM     49  H   UNL     1      25.735  24.806  16.116  1.00  0.00     0.211 HD
ENDBRANCH  47  48
BRANCH  47  50
ATOM     50  C   UNL     1      23.293  24.867  18.266  1.00  0.00     0.165 C 
BRANCH  50  51
ATOM     51  O   UNL     1      22.320  23.905  18.224  1.00  0.00    -0.388 OA
ATOM     52  H   UNL     1      22.259  23.351  19.036  1.00  0.00     0.211 HD
ENDBRANCH  50  51
BRANCH  50  53
ATOM     53  C   UNL     1      22.773  26.157  17.706  1.00  0.00     0.154 C 
BRANCH  53  54
ATOM     54  N   UNL     1      22.284  27.027  18.782  1.00  0.00    -0.319 N 
ATOM     55  C   UNL     1      22.947  28.204  19.167  1.00  0.00     0.407 C 
ATOM     56  H   UNL     1      21.390  26.766  19.298  1.00  0.00     0.167 HD
ATOM     57  O   UNL     1      24.014  28.562  18.605  1.00  0.00    -0.225 OA
BRANCH  55  58
ATOM     58  O   UNL     1      22.386  28.972  20.197  1.00  0.00    -0.443 OA
BRANCH  58  59
ATOM     59  C   UNL     1      21.417  29.943  19.915  1.00  0.00     0.294 C 
BRANCH  59  60
ATOM     60  C   UNL     1      20.022  29.484  20.272  1.00  0.00     0.121 A 
ATOM     61  C   UNL     1      19.162  30.101  21.151  1.00  0.00     0.146 A 
ATOM     62  N   UNL     1      19.357  28.414  19.807  1.00  0.00    -0.131 NA
ATOM     63  N   UNL     1      17.992  29.398  21.207  1.00  0.00    -0.200 N 
ATOM     64  N   UNL     1      18.156  28.385  20.378  1.00  0.00    -0.060 NA
BRANCH  63  65
ATOM     65  C   UNL     1      16.858  29.732  22.006  1.00  0.00     0.186 A 
ATOM     66  N   UNL     1      16.750  29.494  23.324  1.00  0.00    -0.216 NA
ATOM     67  C   UNL     1      15.670  30.323  21.657  1.00  0.00     0.158 A 
ATOM     68  C   UNL     1      15.552  29.919  23.769  1.00  0.00     0.207 A 
ATOM     69  N   UNL     1      14.856  30.443  22.736  1.00  0.00    -0.291 N 
ATOM     70  C   UNL     1      15.240  30.772  20.434  1.00  0.00     0.279 A 
ATOM     71  C   UNL     1      13.633  30.993  22.638  1.00  0.00     0.071 A 
ATOM     72  N   UNL     1      14.010  31.332  20.304  1.00  0.00    -0.302 N 
ATOM     73  O   UNL     1      15.981  30.673  19.407  1.00  0.00    -0.267 OA
ATOM     74  C   UNL     1      12.809  31.109  23.724  1.00  0.00     0.029 A 
ATOM     75  C   UNL     1      13.225  31.435  21.398  1.00  0.00     0.068 A 
ATOM     76  C   UNL     1      11.530  31.678  23.620  1.00  0.00     0.002 A 
ATOM     77  C   UNL     1      11.965  31.994  21.300  1.00  0.00     0.028 A 
ATOM     78  C   UNL     1      11.110  32.123  22.388  1.00  0.00     0.002 A 
BRANCH  72  79
ATOM     79  C   UNL     1      13.555  31.818  19.001  1.00  0.00     0.085 C 
ATOM     80  C   UNL     1      14.305  33.015  18.514  1.00  0.00     0.031 C 
ATOM     81  C   UNL     1      13.424  30.708  17.989  1.00  0.00     0.031 C 
ENDBRANCH  72  79
ENDBRANCH  63  65
ENDBRANCH  59  60
ENDBRANCH  58  59
ENDBRANCH  55  58
ENDBRANCH  53  54
ENDBRANCH  50  53
ENDBRANCH  47  50
ENDBRANCH   5  47
BRANCH   4  82
ATOM     82  N   UNL     1      27.241  26.169  17.240  1.00  0.00    -0.348 N 
ATOM     83  C   UNL     1      27.294  27.233  16.312  1.00  0.00     0.217 C 
ATOM     84  H   UNL     1      27.879  25.355  17.066  1.00  0.00     0.163 HD
ATOM     85  C   UNL     1      28.203  27.231  15.128  1.00  0.00     0.114 C 
ATOM     86  O   UNL     1      26.529  28.223  16.507  1.00  0.00    -0.275 OA
ENDBRANCH   4  82
TORSDOF 31
