REMARK VINA RESULT:    -5.854      5.319     11.389
REMARK INTER + INTRA:         -21.102
REMARK INTER:                 -12.113
REMARK INTRA:                  -8.989
REMARK UNBOUND:                -6.520
REMARK SMILES CC(=O)N[C@@H]1[C@@H](O)C[C@](OC[C@H]2O[C@@H](O[C@H]3[C@H](O)[C@@H](O)[C@H](OCCN=[N+]=[N-])O[C@@H]3CO)[C@H](O)[C@@H](O)[C@H]2O)(C(=O)O)O[C@H]1C(O)[C@H](O)CNC(=O)OCc1cn(-c2nc(C)nc(N)n2)nn1
REMARK SMILES IDX 9 1 8 2 6 3 5 4 42 5 41 6 10 7 11 8 12 9 14 10 13 11 32 12
REMARK SMILES IDX 34 13 36 14 15 15 16 16 29 17 28 18 21 19 17 20 19 21 30 22
REMARK SMILES IDX 31 23 22 25 23 26 24 27 25 28 26 29 27 30 18 31 20 33 33 35
REMARK SMILES IDX 35 37 37 39 38 41 39 42 40 43 7 45 43 47 44 48 45 50 46 51
REMARK SMILES IDX 47 53 48 54 49 55 50 57 51 58 52 59 53 60 54 61 65 62 55 63
REMARK SMILES IDX 64 64 56 65 63 66 57 67 61 68 58 69 60 70 59 71 62 72 4 75
REMARK SMILES IDX 2 76 1 78 3 79
REMARK H PARENT 31 24 18 32 20 34 33 36 35 38 37 40 40 44 7 46 44 49 46 52
REMARK H PARENT 48 56 62 73 62 74 4 77
REMARK Flexibility Score: inf
ROOT
ATOM      1  C   UNL     1      23.584  27.316  25.481  1.00  0.00     0.272 C 
ATOM      2  C   UNL     1      24.762  26.484  25.106  1.00  0.00     0.113 C 
ATOM      3  C   UNL     1      24.920  25.309  26.022  1.00  0.00     0.145 C 
ATOM      4  C   UNL     1      25.017  25.813  27.438  1.00  0.00     0.142 C 
ATOM      5  C   UNL     1      23.983  26.866  27.764  1.00  0.00     0.178 C 
ATOM      6  O   UNL     1      23.795  27.787  26.805  1.00  0.00    -0.332 OA
ENDROOT
BRANCH   1   7
ATOM      7  O   UNL     1      22.396  26.876  25.254  1.00  0.00    -0.338 OA
BRANCH   7   8
ATOM      8  C   UNL     1      21.407  26.932  24.448  1.00  0.00     0.199 C 
BRANCH   8   9
ATOM      9  C   UNL     1      21.310  26.414  23.054  1.00  0.00     0.179 C 
ATOM     10  C   UNL     1      21.585  26.767  20.877  1.00  0.00     0.282 C 
ATOM     11  O   UNL     1      21.972  27.205  22.172  1.00  0.00    -0.341 OA
ATOM     12  C   UNL     1      22.429  25.539  20.645  1.00  0.00     0.202 C 
ATOM     13  C   UNL     1      22.010  24.462  21.615  1.00  0.00     0.179 C 
ATOM     14  C   UNL     1      21.415  24.934  22.883  1.00  0.00     0.177 C 
BRANCH  10  15
ATOM     15  O   UNL     1      21.825  27.727  19.932  1.00  0.00    -0.341 OA
BRANCH  15  16
ATOM     16  C   UNL     1      21.199  28.936  20.185  1.00  0.00     0.184 C 
ATOM     17  C   UNL     1      20.260  29.401  19.124  1.00  0.00     0.178 C 
ATOM     18  O   UNL     1      20.537  30.683  18.669  1.00  0.00    -0.341 OA
ATOM     19  C   UNL     1      20.660  31.633  19.675  1.00  0.00     0.281 C 
ATOM     20  C   UNL     1      22.345  29.957  20.314  1.00  0.00     0.180 C 
ATOM     21  C   UNL     1      21.712  31.277  20.684  1.00  0.00     0.202 C 
BRANCH  17  22
ATOM     22  C   UNL     1      18.801  29.241  19.457  1.00  0.00     0.191 C 
BRANCH  22  23
ATOM     23  O   UNL     1      18.723  28.274  20.483  1.00  0.00    -0.394 OA
ATOM     24  H   UNL     1      19.028  28.621  21.350  1.00  0.00     0.210 HD
ENDBRANCH  22  23
ENDBRANCH  17  22
BRANCH  19  25
ATOM     25  O   UNL     1      19.487  31.896  20.325  1.00  0.00    -0.350 OA
BRANCH  25  26
ATOM     26  C   UNL     1      19.175  33.201  20.561  1.00  0.00     0.169 C 
BRANCH  26  27
ATOM     27  C   UNL     1      18.224  33.398  21.710  1.00  0.00     0.119 C 
BRANCH  27  28
ATOM     28  N   UNL     1      16.912  32.870  21.309  1.00  0.00    -0.092 NA
ATOM     29  N   UNL     1      15.956  33.167  22.022  1.00  0.00     0.001 N 
ATOM     30  N   UNL     1      14.950  32.927  22.723  1.00  0.00    -0.003 NA
ENDBRANCH  27  28
ENDBRANCH  26  27
ENDBRANCH  25  26
ENDBRANCH  19  25
BRANCH  20  31
ATOM     31  O   UNL     1      23.260  29.519  21.247  1.00  0.00    -0.387 OA
ATOM     32  H   UNL     1      22.821  28.971  21.955  1.00  0.00     0.211 HD
ENDBRANCH  20  31
BRANCH  21  33
ATOM     33  O   UNL     1      22.735  32.224  20.728  1.00  0.00    -0.385 OA
ATOM     34  H   UNL     1      23.613  31.797  20.887  1.00  0.00     0.211 HD
ENDBRANCH  21  33
ENDBRANCH  15  16
ENDBRANCH  10  15
BRANCH  12  35
ATOM     35  O   UNL     1      22.367  25.080  19.332  1.00  0.00    -0.385 OA
ATOM     36  H   UNL     1      21.687  25.620  18.855  1.00  0.00     0.211 HD
ENDBRANCH  12  35
BRANCH  13  37
ATOM     37  O   UNL     1      23.113  23.621  21.787  1.00  0.00    -0.387 OA
ATOM     38  H   UNL     1      23.931  24.111  22.055  1.00  0.00     0.211 HD
ENDBRANCH  13  37
BRANCH  14  39
ATOM     39  O   UNL     1      21.979  24.253  23.956  1.00  0.00    -0.387 OA
ATOM     40  H   UNL     1      21.894  24.869  24.744  1.00  0.00     0.211 HD
ENDBRANCH  14  39
ENDBRANCH   8   9
ENDBRANCH   7   8
ENDBRANCH   1   7
BRANCH   1  41
ATOM     41  C   UNL     1      23.848  28.637  24.705  1.00  0.00     0.364 C 
ATOM     42  O   UNL     1      24.681  28.581  23.809  1.00  0.00    -0.246 OA
BRANCH  41  43
ATOM     43  O   UNL     1      23.175  29.772  25.031  1.00  0.00    -0.477 OA
ATOM     44  H   UNL     1      22.226  29.778  25.431  1.00  0.00     0.296 HD
ENDBRANCH  41  43
ENDBRANCH   1  41
BRANCH   3  45
ATOM     45  O   UNL     1      23.875  24.414  25.984  1.00  0.00    -0.391 OA
ATOM     46  H   UNL     1      23.278  24.558  25.229  1.00  0.00     0.211 HD
ENDBRANCH   3  45
BRANCH   5  47
ATOM     47  C   UNL     1      22.716  26.300  28.358  1.00  0.00     0.176 C 
BRANCH  47  48
ATOM     48  O   UNL     1      23.003  25.269  29.235  1.00  0.00    -0.388 OA
ATOM     49  H   UNL     1      23.253  25.544  30.135  1.00  0.00     0.211 HD
ENDBRANCH  47  48
BRANCH  47  50
ATOM     50  C   UNL     1      21.957  27.396  29.036  1.00  0.00     0.165 C 
BRANCH  50  51
ATOM     51  O   UNL     1      21.445  26.902  30.250  1.00  0.00    -0.388 OA
ATOM     52  H   UNL     1      20.873  27.584  30.643  1.00  0.00     0.211 HD
ENDBRANCH  50  51
BRANCH  50  53
ATOM     53  C   UNL     1      20.823  27.967  28.256  1.00  0.00     0.154 C 
BRANCH  53  54
ATOM     54  N   UNL     1      21.241  29.024  27.363  1.00  0.00    -0.319 N 
ATOM     55  C   UNL     1      20.808  30.361  27.455  1.00  0.00     0.407 C 
ATOM     56  H   UNL     1      21.920  28.813  26.573  1.00  0.00     0.167 HD
ATOM     57  O   UNL     1      20.021  30.705  28.341  1.00  0.00    -0.225 OA
BRANCH  55  58
ATOM     58  O   UNL     1      21.240  31.339  26.564  1.00  0.00    -0.443 OA
BRANCH  58  59
ATOM     59  C   UNL     1      20.381  32.073  25.730  1.00  0.00     0.294 C 
BRANCH  59  60
ATOM     60  C   UNL     1      19.686  31.197  24.739  1.00  0.00     0.121 A 
ATOM     61  C   UNL     1      18.323  31.068  24.577  1.00  0.00     0.148 A 
ATOM     62  N   UNL     1      20.255  30.379  23.833  1.00  0.00    -0.131 NA
ATOM     63  N   UNL     1      18.105  30.184  23.588  1.00  0.00    -0.185 N 
ATOM     64  N   UNL     1      19.285  29.787  23.159  1.00  0.00    -0.059 NA
BRANCH  63  65
ATOM     65  C   UNL     1      16.814  29.797  23.138  1.00  0.00     0.257 A 
ATOM     66  N   UNL     1      15.788  29.776  24.009  1.00  0.00    -0.175 NA
ATOM     67  N   UNL     1      16.537  29.444  21.870  1.00  0.00    -0.196 NA
ATOM     68  C   UNL     1      14.534  29.417  23.634  1.00  0.00     0.225 A 
ATOM     69  C   UNL     1      15.314  29.084  21.463  1.00  0.00     0.133 A 
ATOM     70  N   UNL     1      14.320  29.072  22.345  1.00  0.00    -0.198 NA
ATOM     71  C   UNL     1      15.050  28.696  20.033  1.00  0.00     0.090 C 
BRANCH  68  72
ATOM     72  N   UNL     1      13.492  29.412  24.588  1.00  0.00    -0.368 N 
ATOM     73  H   UNL     1      12.516  29.655  24.328  1.00  0.00     0.159 HD
ATOM     74  H   UNL     1      13.683  29.164  25.578  1.00  0.00     0.159 HD
ENDBRANCH  68  72
ENDBRANCH  63  65
ENDBRANCH  59  60
ENDBRANCH  58  59
ENDBRANCH  55  58
ENDBRANCH  53  54
ENDBRANCH  50  53
ENDBRANCH  47  50
ENDBRANCH   5  47
BRANCH   4  75
ATOM     75  N   UNL     1      26.348  26.339  27.653  1.00  0.00    -0.348 N 
ATOM     76  C   UNL     1      27.016  26.151  28.896  1.00  0.00     0.217 C 
ATOM     77  H   UNL     1      26.870  26.873  26.913  1.00  0.00     0.163 HD
ATOM     78  C   UNL     1      28.366  26.692  29.097  1.00  0.00     0.114 C 
ATOM     79  O   UNL     1      26.445  25.523  29.814  1.00  0.00    -0.275 OA
ENDBRANCH   4  75
TORSDOF 31
