REMARK VINA RESULT:    -5.711     16.172     21.548
REMARK INTER + INTRA:         -21.112
REMARK INTER:                 -11.206
REMARK INTRA:                  -9.905
REMARK UNBOUND:                -6.052
REMARK SMILES CC(=O)N[C@@H]1[C@@H](O)C[C@](OC[C@H]2O[C@@H](O[C@H]3[C@H](O)[C@@H](O)[C@H](OCCN=[N+]=[N-])O[C@@H]3CO)[C@H](O)[C@@H](O)[C@H]2O)(C(=O)O)O[C@H]1C(O)[C@H](O)CNC(=O)OCc1cn(CC(O)CO)nn1
REMARK SMILES IDX 43 1 42 2 9 3 8 4 41 5 6 6 5 7 10 8 11 9 12 10 14 11 13 12
REMARK SMILES IDX 32 13 34 14 36 15 15 16 16 17 29 18 28 19 21 20 17 21 19 22
REMARK SMILES IDX 30 23 31 24 22 26 23 27 24 28 25 29 26 30 27 31 18 32 20 34
REMARK SMILES IDX 33 36 35 38 37 40 38 42 39 43 40 44 7 46 4 48 2 49 1 51 3 52
REMARK SMILES IDX 44 53 45 55 46 56 47 58 48 59 49 60 50 62 51 63 52 64 53 65
REMARK SMILES IDX 54 66 62 67 55 68 61 69 56 70 57 71 58 72 59 74 60 75
REMARK H PARENT 31 25 18 33 20 35 33 37 35 39 37 41 40 45 7 47 4 50 44 54
REMARK H PARENT 46 57 48 61 58 73 60 76
REMARK Flexibility Score: inf
ROOT
ATOM      1  C   UNL     1      23.005  27.724  23.954  1.00  0.00     0.176 C 
ENDROOT
BRANCH   1   2
ATOM      2  C   UNL     1      23.237  26.302  23.410  1.00  0.00     0.178 C 
ATOM      3  C   UNL     1      23.583  25.090  21.412  1.00  0.00     0.272 C 
ATOM      4  C   UNL     1      22.499  24.119  21.791  1.00  0.00     0.113 C 
ATOM      5  O   UNL     1      23.366  26.301  22.087  1.00  0.00    -0.332 OA
ATOM      6  C   UNL     1      21.599  24.507  22.903  1.00  0.00     0.145 C 
ATOM      7  C   UNL     1      22.164  25.418  23.928  1.00  0.00     0.142 C 
BRANCH   3   8
ATOM      8  O   UNL     1      23.559  25.342  20.120  1.00  0.00    -0.338 OA
BRANCH   8   9
ATOM      9  C   UNL     1      22.819  25.558  19.117  1.00  0.00     0.199 C 
BRANCH   9  10
ATOM     10  C   UNL     1      22.251  26.886  18.735  1.00  0.00     0.179 C 
ATOM     11  C   UNL     1      20.403  28.193  19.070  1.00  0.00     0.282 C 
ATOM     12  O   UNL     1      21.200  27.225  19.672  1.00  0.00    -0.341 OA
ATOM     13  C   UNL     1      21.082  29.023  18.036  1.00  0.00     0.202 C 
ATOM     14  C   UNL     1      22.551  29.237  18.240  1.00  0.00     0.179 C 
ATOM     15  C   UNL     1      23.203  28.063  18.951  1.00  0.00     0.177 C 
BRANCH  11  16
ATOM     16  O   UNL     1      19.739  29.019  19.954  1.00  0.00    -0.341 OA
BRANCH  16  17
ATOM     17  C   UNL     1      18.677  29.719  19.388  1.00  0.00     0.184 C 
ATOM     18  C   UNL     1      18.035  30.582  20.431  1.00  0.00     0.178 C 
ATOM     19  O   UNL     1      16.723  30.229  20.707  1.00  0.00    -0.341 OA
ATOM     20  C   UNL     1      16.587  28.834  20.800  1.00  0.00     0.281 C 
ATOM     21  C   UNL     1      17.781  28.796  18.672  1.00  0.00     0.180 C 
ATOM     22  C   UNL     1      16.548  28.342  19.373  1.00  0.00     0.202 C 
BRANCH  18  23
ATOM     23  C   UNL     1      18.041  32.047  20.043  1.00  0.00     0.191 C 
BRANCH  23  24
ATOM     24  O   UNL     1      16.847  32.428  19.449  1.00  0.00    -0.394 OA
ATOM     25  H   UNL     1      16.871  32.079  18.501  1.00  0.00     0.210 HD
ENDBRANCH  23  24
ENDBRANCH  18  23
BRANCH  20  26
ATOM     26  O   UNL     1      15.380  28.605  21.442  1.00  0.00    -0.350 OA
BRANCH  26  27
ATOM     27  C   UNL     1      14.264  28.795  20.643  1.00  0.00     0.169 C 
BRANCH  27  28
ATOM     28  C   UNL     1      13.500  30.054  20.987  1.00  0.00     0.119 C 
BRANCH  28  29
ATOM     29  N   UNL     1      13.227  30.866  19.832  1.00  0.00    -0.092 NA
ATOM     30  N   UNL     1      13.918  30.921  18.821  1.00  0.00     0.001 N 
ATOM     31  N   UNL     1      14.748  30.952  17.913  1.00  0.00    -0.003 NA
ENDBRANCH  28  29
ENDBRANCH  27  28
ENDBRANCH  26  27
ENDBRANCH  20  26
BRANCH  21  32
ATOM     32  O   UNL     1      17.392  29.312  17.411  1.00  0.00    -0.387 OA
ATOM     33  H   UNL     1      17.457  30.314  17.532  1.00  0.00     0.211 HD
ENDBRANCH  21  32
BRANCH  22  34
ATOM     34  O   UNL     1      16.336  26.967  19.302  1.00  0.00    -0.385 OA
ATOM     35  H   UNL     1      16.285  26.539  20.172  1.00  0.00     0.211 HD
ENDBRANCH  22  34
ENDBRANCH  16  17
ENDBRANCH  11  16
BRANCH  13  36
ATOM     36  O   UNL     1      20.768  28.597  16.724  1.00  0.00    -0.385 OA
ATOM     37  H   UNL     1      21.553  28.324  16.214  1.00  0.00     0.211 HD
ENDBRANCH  13  36
BRANCH  14  38
ATOM     38  O   UNL     1      22.854  30.437  18.880  1.00  0.00    -0.387 OA
ATOM     39  H   UNL     1      22.015  30.905  19.103  1.00  0.00     0.211 HD
ENDBRANCH  14  38
BRANCH  15  40
ATOM     40  O   UNL     1      23.146  28.358  20.340  1.00  0.00    -0.387 OA
ATOM     41  H   UNL     1      23.098  27.525  20.869  1.00  0.00     0.211 HD
ENDBRANCH  15  40
ENDBRANCH   9  10
ENDBRANCH   8   9
ENDBRANCH   3   8
BRANCH   3  42
ATOM     42  C   UNL     1      24.930  24.586  21.838  1.00  0.00     0.364 C 
ATOM     43  O   UNL     1      25.935  25.209  21.374  1.00  0.00    -0.246 OA
BRANCH  42  44
ATOM     44  O   UNL     1      25.114  23.517  22.675  1.00  0.00    -0.477 OA
ATOM     45  H   UNL     1      24.346  22.886  22.927  1.00  0.00     0.296 HD
ENDBRANCH  42  44
ENDBRANCH   3  42
BRANCH   6  46
ATOM     46  O   UNL     1      20.473  25.139  22.323  1.00  0.00    -0.391 OA
ATOM     47  H   UNL     1      20.694  25.428  21.416  1.00  0.00     0.211 HD
ENDBRANCH   6  46
BRANCH   7  48
ATOM     48  N   UNL     1      22.564  24.638  25.096  1.00  0.00    -0.348 N 
ATOM     49  C   UNL     1      22.323  25.087  26.419  1.00  0.00     0.217 C 
ATOM     50  H   UNL     1      23.043  23.721  24.998  1.00  0.00     0.163 HD
ATOM     51  C   UNL     1      22.728  24.297  27.610  1.00  0.00     0.114 C 
ATOM     52  O   UNL     1      21.745  26.193  26.561  1.00  0.00    -0.275 OA
ENDBRANCH   7  48
ENDBRANCH   1   2
BRANCH   1  53
ATOM     53  O   UNL     1      23.821  28.608  23.274  1.00  0.00    -0.388 OA
ATOM     54  H   UNL     1      24.458  29.042  23.894  1.00  0.00     0.211 HD
ENDBRANCH   1  53
BRANCH   1  55
ATOM     55  C   UNL     1      21.549  28.120  23.765  1.00  0.00     0.165 C 
BRANCH  55  56
ATOM     56  O   UNL     1      21.492  28.658  22.456  1.00  0.00    -0.388 OA
ATOM     57  H   UNL     1      22.163  28.209  21.887  1.00  0.00     0.211 HD
ENDBRANCH  55  56
BRANCH  55  58
ATOM     58  C   UNL     1      21.075  29.159  24.722  1.00  0.00     0.154 C 
BRANCH  58  59
ATOM     59  N   UNL     1      21.499  30.490  24.341  1.00  0.00    -0.319 N 
ATOM     60  C   UNL     1      22.399  31.221  25.149  1.00  0.00     0.407 C 
ATOM     61  H   UNL     1      21.156  30.955  23.455  1.00  0.00     0.167 HD
ATOM     62  O   UNL     1      22.853  30.763  26.222  1.00  0.00    -0.225 OA
BRANCH  60  63
ATOM     63  O   UNL     1      22.823  32.483  24.782  1.00  0.00    -0.443 OA
BRANCH  63  64
ATOM     64  C   UNL     1      22.972  32.989  23.502  1.00  0.00     0.294 C 
BRANCH  64  65
ATOM     65  C   UNL     1      23.801  32.178  22.583  1.00  0.00     0.120 A 
ATOM     66  C   UNL     1      25.120  32.406  22.310  1.00  0.00     0.138 A 
ATOM     67  N   UNL     1      23.385  31.094  21.861  1.00  0.00    -0.132 NA
ATOM     68  N   UNL     1      25.484  31.458  21.427  1.00  0.00    -0.249 N 
ATOM     69  N   UNL     1      24.448  30.695  21.175  1.00  0.00    -0.067 NA
BRANCH  68  70
ATOM     70  C   UNL     1      26.790  31.289  20.829  1.00  0.00     0.180 C 
BRANCH  70  71
ATOM     71  C   UNL     1      26.622  31.523  19.321  1.00  0.00     0.161 C 
BRANCH  71  72
ATOM     72  O   UNL     1      25.912  30.458  18.821  1.00  0.00    -0.389 OA
ATOM     73  H   UNL     1      24.937  30.568  18.934  1.00  0.00     0.211 HD
ENDBRANCH  71  72
BRANCH  71  74
ATOM     74  C   UNL     1      25.907  32.833  19.088  1.00  0.00     0.189 C 
BRANCH  74  75
ATOM     75  O   UNL     1      24.664  32.604  18.542  1.00  0.00    -0.394 OA
ATOM     76  H   UNL     1      23.985  32.577  19.265  1.00  0.00     0.210 HD
ENDBRANCH  74  75
ENDBRANCH  71  74
ENDBRANCH  70  71
ENDBRANCH  68  70
ENDBRANCH  64  65
ENDBRANCH  63  64
ENDBRANCH  60  63
ENDBRANCH  58  59
ENDBRANCH  55  58
ENDBRANCH   1  55
TORSDOF 34
