REMARK VINA RESULT:    -6.176     16.145     20.068
REMARK INTER + INTRA:         -24.122
REMARK INTER:                 -12.544
REMARK INTRA:                 -11.577
REMARK UNBOUND:                -6.934
REMARK SMILES CCOCCc1c(-c2ccccc2)nc(N)nc1-n1cc(COC(=O)NC[C@@H](O)C(O)[C@@H]2O[C@@](OC[C@H]3O[C@@H](O[C@H]4[C@H](O)[C@@H](O)[C@H](OCCN=[N+]=[N-])O[C@@H]4CO)[C@H](O)[C@@H](O)[C@H]3O)(C(=O)O)C[C@H](O)[C@H]2NC(C)=O)nn1
REMARK SMILES IDX 30 1 32 2 34 3 66 4 33 5 67 6 69 7 35 8 36 9 37 10 39 11
REMARK SMILES IDX 38 12 57 13 59 14 61 15 40 16 41 17 54 18 53 19 46 20 42 21
REMARK SMILES IDX 44 22 55 23 56 24 47 26 48 27 49 28 50 29 51 30 52 31 43 32
REMARK SMILES IDX 45 34 58 36 60 38 62 40 63 42 64 43 65 44 68 46 70 48 71 49
REMARK SMILES IDX 72 51 73 52 31 53 28 55 29 56 27 58 26 59 24 60 25 62 23 63
REMARK SMILES IDX 22 64 21 65 20 66 74 67 19 68 75 69 18 70 17 71 6 72 15 73
REMARK SMILES IDX 7 74 14 75 5 76 4 77 3 78 2 79 1 80 16 81 8 84 9 85 13 86
REMARK SMILES IDX 10 87 12 88 11 89
REMARK H PARENT 56 25 43 33 45 35 58 37 60 39 62 41 65 45 68 47 70 50 31 54
REMARK H PARENT 29 57 26 61 16 82 16 83
REMARK Flexibility Score: inf
ROOT
ATOM      1  C   UNL     1      14.178  32.153  20.502  1.00  0.00     0.176 C 
ENDROOT
BRANCH   1   2
ATOM      2  C   UNL     1      14.831  30.819  20.303  1.00  0.00     0.178 C 
ATOM      3  C   UNL     1      17.027  30.012  20.227  1.00  0.00     0.272 C 
ATOM      4  C   UNL     1      16.286  28.686  20.042  1.00  0.00     0.113 C 
ATOM      5  O   UNL     1      16.214  31.023  20.593  1.00  0.00    -0.332 OA
ATOM      6  C   UNL     1      15.189  28.780  19.026  1.00  0.00     0.145 C 
ATOM      7  C   UNL     1      14.772  30.237  18.933  1.00  0.00     0.142 C 
BRANCH   3   8
ATOM      8  O   UNL     1      17.754  30.230  19.078  1.00  0.00    -0.338 OA
BRANCH   8   9
ATOM      9  C   UNL     1      18.134  31.525  18.843  1.00  0.00     0.199 C 
BRANCH   9  10
ATOM     10  C   UNL     1      19.171  31.632  17.735  1.00  0.00     0.179 C 
ATOM     11  C   UNL     1      20.857  30.219  16.957  1.00  0.00     0.282 C 
ATOM     12  O   UNL     1      20.181  30.759  18.015  1.00  0.00    -0.341 OA
ATOM     13  C   UNL     1      19.809  29.492  16.104  1.00  0.00     0.202 C 
ATOM     14  C   UNL     1      19.048  30.622  15.412  1.00  0.00     0.179 C 
ATOM     15  C   UNL     1      18.629  31.686  16.365  1.00  0.00     0.177 C 
BRANCH  11  16
ATOM     16  O   UNL     1      21.846  29.375  17.406  1.00  0.00    -0.341 OA
BRANCH  16  17
ATOM     17  C   UNL     1      21.831  29.229  18.784  1.00  0.00     0.184 C 
ATOM     18  C   UNL     1      23.159  29.551  19.380  1.00  0.00     0.178 C 
ATOM     19  O   UNL     1      23.863  28.513  19.905  1.00  0.00    -0.341 OA
ATOM     20  C   UNL     1      23.214  27.596  20.670  1.00  0.00     0.281 C 
ATOM     21  C   UNL     1      21.291  27.891  19.191  1.00  0.00     0.180 C 
ATOM     22  C   UNL     1      21.723  27.585  20.600  1.00  0.00     0.202 C 
BRANCH  18  23
ATOM     23  C   UNL     1      23.076  30.742  20.336  1.00  0.00     0.191 C 
BRANCH  23  24
ATOM     24  O   UNL     1      21.768  31.158  20.511  1.00  0.00    -0.394 OA
ATOM     25  H   UNL     1      21.501  31.645  19.691  1.00  0.00     0.210 HD
ENDBRANCH  23  24
ENDBRANCH  18  23
BRANCH  20  26
ATOM     26  O   UNL     1      23.606  27.791  21.990  1.00  0.00    -0.350 OA
BRANCH  26  27
ATOM     27  C   UNL     1      24.650  26.995  22.393  1.00  0.00     0.169 C 
BRANCH  27  28
ATOM     28  C   UNL     1      24.891  25.796  21.507  1.00  0.00     0.119 C 
BRANCH  28  29
ATOM     29  N   UNL     1      24.280  24.622  22.128  1.00  0.00    -0.092 NA
ATOM     30  N   UNL     1      23.332  24.031  21.598  1.00  0.00     0.001 N 
ATOM     31  N   UNL     1      22.323  23.633  21.018  1.00  0.00    -0.003 NA
ENDBRANCH  28  29
ENDBRANCH  27  28
ENDBRANCH  26  27
ENDBRANCH  20  26
BRANCH  21  32
ATOM     32  O   UNL     1      19.895  27.843  19.147  1.00  0.00    -0.387 OA
ATOM     33  H   UNL     1      19.556  27.862  18.211  1.00  0.00     0.211 HD
ENDBRANCH  21  32
BRANCH  22  34
ATOM     34  O   UNL     1      21.276  26.301  20.908  1.00  0.00    -0.385 OA
ATOM     35  H   UNL     1      21.941  25.787  21.432  1.00  0.00     0.211 HD
ENDBRANCH  22  34
ENDBRANCH  16  17
ENDBRANCH  11  16
BRANCH  13  36
ATOM     36  O   UNL     1      20.372  28.663  15.164  1.00  0.00    -0.385 OA
ATOM     37  H   UNL     1      20.446  29.107  14.275  1.00  0.00     0.211 HD
ENDBRANCH  13  36
BRANCH  14  38
ATOM     38  O   UNL     1      18.061  30.171  14.566  1.00  0.00    -0.387 OA
ATOM     39  H   UNL     1      17.196  30.663  14.706  1.00  0.00     0.211 HD
ENDBRANCH  14  38
BRANCH  15  40
ATOM     40  O   UNL     1      17.219  31.659  16.433  1.00  0.00    -0.387 OA
ATOM     41  H   UNL     1      16.860  32.494  16.036  1.00  0.00     0.211 HD
ENDBRANCH  15  40
ENDBRANCH   9  10
ENDBRANCH   8   9
ENDBRANCH   3   8
BRANCH   3  42
ATOM     42  C   UNL     1      17.968  29.724  21.355  1.00  0.00     0.364 C 
ATOM     43  O   UNL     1      17.400  29.502  22.483  1.00  0.00    -0.246 OA
BRANCH  42  44
ATOM     44  O   UNL     1      19.329  29.681  21.265  1.00  0.00    -0.477 OA
ATOM     45  H   UNL     1      19.806  30.290  20.605  1.00  0.00     0.296 HD
ENDBRANCH  42  44
ENDBRANCH   3  42
BRANCH   6  46
ATOM     46  O   UNL     1      15.714  28.313  17.811  1.00  0.00    -0.391 OA
ATOM     47  H   UNL     1      15.691  29.000  17.116  1.00  0.00     0.211 HD
ENDBRANCH   6  46
BRANCH   7  48
ATOM     48  N   UNL     1      13.545  30.389  18.215  1.00  0.00    -0.348 N 
ATOM     49  C   UNL     1      13.469  30.572  16.809  1.00  0.00     0.217 C 
ATOM     50  H   UNL     1      12.666  30.342  18.774  1.00  0.00     0.163 HD
ATOM     51  C   UNL     1      12.145  30.716  16.172  1.00  0.00     0.114 C 
ATOM     52  O   UNL     1      14.515  30.607  16.127  1.00  0.00    -0.275 OA
ENDBRANCH   7  48
ENDBRANCH   1   2
BRANCH   1  53
ATOM     53  O   UNL     1      14.704  32.986  19.456  1.00  0.00    -0.388 OA
ATOM     54  H   UNL     1      14.957  33.826  19.894  1.00  0.00     0.211 HD
ENDBRANCH   1  53
BRANCH   1  55
ATOM     55  C   UNL     1      14.403  32.875  21.769  1.00  0.00     0.165 C 
BRANCH  55  56
ATOM     56  O   UNL     1      15.565  33.669  21.542  1.00  0.00    -0.388 OA
ATOM     57  H   UNL     1      15.998  33.343  20.727  1.00  0.00     0.211 HD
ENDBRANCH  55  56
BRANCH  55  58
ATOM     58  C   UNL     1      14.616  32.082  22.990  1.00  0.00     0.154 C 
BRANCH  58  59
ATOM     59  N   UNL     1      15.887  32.187  23.593  1.00  0.00    -0.319 N 
ATOM     60  C   UNL     1      16.315  31.511  24.750  1.00  0.00     0.407 C 
ATOM     61  H   UNL     1      16.655  32.837  23.177  1.00  0.00     0.167 HD
ATOM     62  O   UNL     1      15.576  30.722  25.378  1.00  0.00    -0.225 OA
BRANCH  60  63
ATOM     63  O   UNL     1      17.601  31.671  25.278  1.00  0.00    -0.443 OA
BRANCH  63  64
ATOM     64  C   UNL     1      18.655  32.233  24.526  1.00  0.00     0.294 C 
BRANCH  64  65
ATOM     65  C   UNL     1      19.706  31.233  24.222  1.00  0.00     0.121 A 
ATOM     66  C   UNL     1      19.853  29.992  24.785  1.00  0.00     0.146 A 
ATOM     67  N   UNL     1      20.736  31.352  23.354  1.00  0.00    -0.131 NA
ATOM     68  N   UNL     1      20.975  29.377  24.249  1.00  0.00    -0.202 N 
ATOM     69  N   UNL     1      21.450  30.243  23.405  1.00  0.00    -0.060 NA
BRANCH  68  70
ATOM     70  C   UNL     1      21.330  28.095  24.702  1.00  0.00     0.164 A 
ATOM     71  N   UNL     1      20.868  27.016  24.023  1.00  0.00    -0.193 NA
ATOM     72  C   UNL     1      22.202  27.848  25.773  1.00  0.00     0.026 A 
ATOM     73  C   UNL     1      21.202  25.759  24.319  1.00  0.00     0.222 A 
ATOM     74  C   UNL     1      22.560  26.572  26.091  1.00  0.00     0.081 A 
ATOM     75  N   UNL     1      22.036  25.548  25.339  1.00  0.00    -0.213 NA
BRANCH  72  76
ATOM     76  C   UNL     1      22.587  29.022  26.565  1.00  0.00     0.070 C 
BRANCH  76  77
ATOM     77  C   UNL     1      21.732  29.251  27.793  1.00  0.00     0.165 C 
BRANCH  77  78
ATOM     78  O   UNL     1      22.336  29.824  28.870  1.00  0.00    -0.381 OA
BRANCH  78  79
ATOM     79  C   UNL     1      23.128  29.041  29.655  1.00  0.00     0.156 C 
ATOM     80  C   UNL     1      24.613  29.413  29.497  1.00  0.00     0.035 C 
ENDBRANCH  78  79
ENDBRANCH  77  78
ENDBRANCH  76  77
ENDBRANCH  72  76
BRANCH  73  81
ATOM     81  N   UNL     1      20.684  24.653  23.572  1.00  0.00    -0.368 N 
ATOM     82  H   UNL     1      20.901  23.678  23.863  1.00  0.00     0.159 HD
ATOM     83  H   UNL     1      20.088  24.772  22.737  1.00  0.00     0.159 HD
ENDBRANCH  73  81
BRANCH  74  84
ATOM     84  C   UNL     1      23.472  26.235  27.161  1.00  0.00     0.001 A 
ATOM     85  C   UNL     1      22.932  25.746  28.349  1.00  0.00     0.010 A 
ATOM     86  C   UNL     1      24.844  26.355  27.036  1.00  0.00     0.010 A 
ATOM     87  C   UNL     1      23.744  25.375  29.412  1.00  0.00     0.001 A 
ATOM     88  C   UNL     1      25.630  25.982  28.100  1.00  0.00     0.001 A 
ATOM     89  C   UNL     1      25.106  25.499  29.273  1.00  0.00     0.000 A 
ENDBRANCH  74  84
ENDBRANCH  68  70
ENDBRANCH  64  65
ENDBRANCH  63  64
ENDBRANCH  60  63
ENDBRANCH  58  59
ENDBRANCH  55  58
ENDBRANCH   1  55
TORSDOF 36
