REMARK VINA RESULT:    -6.287      4.515     10.399
REMARK INTER + INTRA:         -21.329
REMARK INTER:                 -14.067
REMARK INTRA:                  -7.262
REMARK UNBOUND:                -5.485
REMARK SMILES CC(=O)N[C@@H]1[C@@H](O)C[C@](OC[C@H]2O[C@@H](O[C@H]3[C@H](O)[C@@H](O)[C@H](OCCN=[N+]=[N-])O[C@@H]3CO)[C@H](O)[C@@H](O)[C@H]2O)(C(=O)O)O[C@H]1C(O)[C@H](O)CNC(=O)OCc1cn(Cc2ccc(Br)cc2)nn1
REMARK SMILES IDX 9 1 8 2 6 3 5 4 42 5 41 6 10 7 11 8 12 9 14 10 13 11 32 12
REMARK SMILES IDX 34 13 36 14 15 15 16 16 29 17 28 18 21 19 17 20 19 21 30 22
REMARK SMILES IDX 31 23 22 25 23 26 24 27 25 28 26 29 27 30 18 31 20 33 33 35
REMARK SMILES IDX 35 37 37 39 38 41 39 42 40 43 7 45 43 47 44 48 45 50 46 51
REMARK SMILES IDX 47 53 48 54 49 55 50 57 51 58 52 59 53 60 54 61 65 62 55 63
REMARK SMILES IDX 64 64 56 65 57 66 58 67 63 68 59 69 62 70 60 71 61 72 4 73
REMARK SMILES IDX 2 74 1 76 3 77
REMARK H PARENT 31 24 18 32 20 34 33 36 35 38 37 40 40 44 7 46 44 49 46 52
REMARK H PARENT 48 56 4 75
REMARK Flexibility Score: inf
ROOT
ATOM      1  C   UNL     1      16.355  32.986  24.426  1.00  0.00     0.272 C 
ATOM      2  C   UNL     1      17.076  34.285  24.450  1.00  0.00     0.113 C 
ATOM      3  C   UNL     1      17.346  34.971  23.169  1.00  0.00     0.145 C 
ATOM      4  C   UNL     1      17.281  34.038  21.931  1.00  0.00     0.142 C 
ATOM      5  C   UNL     1      17.692  32.711  22.509  1.00  0.00     0.178 C 
ATOM      6  O   UNL     1      16.521  32.303  23.209  1.00  0.00    -0.332 OA
ENDROOT
BRANCH   1   7
ATOM      7  O   UNL     1      15.129  32.879  24.926  1.00  0.00    -0.338 OA
BRANCH   7   8
ATOM      8  C   UNL     1      13.960  33.318  24.655  1.00  0.00     0.199 C 
BRANCH   8   9
ATOM      9  C   UNL     1      12.943  32.299  24.199  1.00  0.00     0.179 C 
ATOM     10  C   UNL     1      12.139  31.118  22.437  1.00  0.00     0.282 C 
ATOM     11  O   UNL     1      12.886  32.170  22.837  1.00  0.00    -0.341 OA
ATOM     12  C   UNL     1      11.265  30.464  23.491  1.00  0.00     0.202 C 
ATOM     13  C   UNL     1      12.045  30.155  24.749  1.00  0.00     0.179 C 
ATOM     14  C   UNL     1      13.358  30.924  24.748  1.00  0.00     0.177 C 
BRANCH  10  15
ATOM     15  O   UNL     1      12.755  30.121  21.757  1.00  0.00    -0.341 OA
BRANCH  15  16
ATOM     16  C   UNL     1      13.667  30.315  20.794  1.00  0.00     0.184 C 
ATOM     17  C   UNL     1      13.236  31.110  19.605  1.00  0.00     0.178 C 
ATOM     18  O   UNL     1      13.225  30.403  18.434  1.00  0.00    -0.341 OA
ATOM     19  C   UNL     1      14.462  29.904  18.051  1.00  0.00     0.281 C 
ATOM     20  C   UNL     1      14.191  28.975  20.322  1.00  0.00     0.180 C 
ATOM     21  C   UNL     1      15.174  29.229  19.207  1.00  0.00     0.202 C 
BRANCH  17  22
ATOM     22  C   UNL     1      14.084  32.358  19.505  1.00  0.00     0.191 C 
BRANCH  22  23
ATOM     23  O   UNL     1      14.736  32.633  20.724  1.00  0.00    -0.394 OA
ATOM     24  H   UNL     1      14.722  33.586  20.925  1.00  0.00     0.210 HD
ENDBRANCH  22  23
ENDBRANCH  17  22
BRANCH  19  25
ATOM     25  O   UNL     1      15.282  30.834  17.433  1.00  0.00    -0.350 OA
BRANCH  25  26
ATOM     26  C   UNL     1      16.601  30.482  17.325  1.00  0.00     0.169 C 
BRANCH  26  27
ATOM     27  C   UNL     1      17.085  30.350  15.911  1.00  0.00     0.119 C 
BRANCH  27  28
ATOM     28  N   UNL     1      17.680  29.035  15.707  1.00  0.00    -0.092 NA
ATOM     29  N   UNL     1      18.350  28.519  16.599  1.00  0.00     0.001 N 
ATOM     30  N   UNL     1      19.222  27.983  17.320  1.00  0.00    -0.003 NA
ENDBRANCH  27  28
ENDBRANCH  26  27
ENDBRANCH  25  26
ENDBRANCH  19  25
BRANCH  20  31
ATOM     31  O   UNL     1      14.920  28.430  21.397  1.00  0.00    -0.387 OA
ATOM     32  H   UNL     1      14.326  27.848  21.947  1.00  0.00     0.211 HD
ENDBRANCH  20  31
BRANCH  21  33
ATOM     33  O   UNL     1      15.827  28.069  18.807  1.00  0.00    -0.385 OA
ATOM     34  H   UNL     1      15.473  27.328  19.360  1.00  0.00     0.211 HD
ENDBRANCH  21  33
ENDBRANCH  15  16
ENDBRANCH  10  15
BRANCH  12  35
ATOM     35  O   UNL     1      10.143  31.205  23.821  1.00  0.00    -0.385 OA
ATOM     36  H   UNL     1       9.362  31.051  23.241  1.00  0.00     0.211 HD
ENDBRANCH  12  35
BRANCH  13  37
ATOM     37  O   UNL     1      12.269  28.796  24.933  1.00  0.00    -0.387 OA
ATOM     38  H   UNL     1      12.162  28.363  24.051  1.00  0.00     0.211 HD
ENDBRANCH  13  37
BRANCH  14  39
ATOM     39  O   UNL     1      14.261  30.394  23.819  1.00  0.00    -0.387 OA
ATOM     40  H   UNL     1      14.243  29.418  23.861  1.00  0.00     0.211 HD
ENDBRANCH  14  39
ENDBRANCH   8   9
ENDBRANCH   7   8
ENDBRANCH   1   7
BRANCH   1  41
ATOM     41  C   UNL     1      17.153  32.082  25.381  1.00  0.00     0.364 C 
ATOM     42  O   UNL     1      16.849  30.892  25.435  1.00  0.00    -0.246 OA
BRANCH  41  43
ATOM     43  O   UNL     1      18.177  32.551  26.160  1.00  0.00    -0.477 OA
ATOM     44  H   UNL     1      18.685  33.403  25.873  1.00  0.00     0.296 HD
ENDBRANCH  41  43
ENDBRANCH   1  41
BRANCH   3  45
ATOM     45  O   UNL     1      16.650  36.146  22.938  1.00  0.00    -0.391 OA
ATOM     46  H   UNL     1      15.721  36.019  23.226  1.00  0.00     0.211 HD
ENDBRANCH   3  45
BRANCH   5  47
ATOM     47  C   UNL     1      18.100  31.642  21.566  1.00  0.00     0.176 C 
BRANCH  47  48
ATOM     48  O   UNL     1      19.076  32.027  20.708  1.00  0.00    -0.388 OA
ATOM     49  H   UNL     1      19.888  31.515  20.800  1.00  0.00     0.211 HD
ENDBRANCH  47  48
BRANCH  47  50
ATOM     50  C   UNL     1      18.218  30.256  22.043  1.00  0.00     0.165 C 
BRANCH  50  51
ATOM     51  O   UNL     1      17.024  29.774  22.605  1.00  0.00    -0.388 OA
ATOM     52  H   UNL     1      16.219  30.207  22.284  1.00  0.00     0.211 HD
ENDBRANCH  50  51
BRANCH  50  53
ATOM     53  C   UNL     1      19.390  29.843  22.837  1.00  0.00     0.154 C 
BRANCH  53  54
ATOM     54  N   UNL     1      20.626  29.693  22.088  1.00  0.00    -0.319 N 
ATOM     55  C   UNL     1      20.763  28.727  21.058  1.00  0.00     0.407 C 
ATOM     56  H   UNL     1      21.473  30.288  22.267  1.00  0.00     0.167 HD
ATOM     57  O   UNL     1      19.781  27.973  20.762  1.00  0.00    -0.225 OA
BRANCH  55  58
ATOM     58  O   UNL     1      21.934  28.541  20.330  1.00  0.00    -0.443 OA
BRANCH  58  59
ATOM     59  C   UNL     1      22.058  27.418  19.437  1.00  0.00     0.294 C 
BRANCH  59  60
ATOM     60  C   UNL     1      22.410  26.176  20.145  1.00  0.00     0.120 A 
ATOM     61  C   UNL     1      23.390  26.062  21.112  1.00  0.00     0.138 A 
ATOM     62  N   UNL     1      21.876  24.964  19.992  1.00  0.00    -0.132 NA
ATOM     63  N   UNL     1      23.421  24.786  21.516  1.00  0.00    -0.248 N 
ATOM     64  N   UNL     1      22.498  24.149  20.823  1.00  0.00    -0.067 NA
BRANCH  63  65
ATOM     65  C   UNL     1      24.265  24.179  22.527  1.00  0.00     0.181 C 
BRANCH  65  66
ATOM     66  C   UNL     1      23.812  24.431  23.913  1.00  0.00    -0.026 A 
ATOM     67  C   UNL     1      24.786  24.566  24.906  1.00  0.00     0.007 A 
ATOM     68  C   UNL     1      22.503  24.557  24.285  1.00  0.00     0.007 A 
ATOM     69  C   UNL     1      24.416  24.817  26.216  1.00  0.00     0.016 A 
ATOM     70  C   UNL     1      22.116  24.810  25.602  1.00  0.00     0.016 A 
ATOM     71  C   UNL     1      23.082  24.940  26.563  1.00  0.00     0.017 A 
ATOM     72  Br  UNL     1      22.605  25.294  28.393  1.00  0.00    -0.051 Br
ENDBRANCH  65  66
ENDBRANCH  63  65
ENDBRANCH  59  60
ENDBRANCH  58  59
ENDBRANCH  55  58
ENDBRANCH  53  54
ENDBRANCH  50  53
ENDBRANCH  47  50
ENDBRANCH   5  47
BRANCH   4  73
ATOM     73  N   UNL     1      18.086  34.570  20.892  1.00  0.00    -0.348 N 
ATOM     74  C   UNL     1      17.492  35.209  19.777  1.00  0.00     0.217 C 
ATOM     75  H   UNL     1      19.117  34.512  20.946  1.00  0.00     0.163 HD
ATOM     76  C   UNL     1      18.224  35.799  18.652  1.00  0.00     0.114 C 
ATOM     77  O   UNL     1      16.212  35.285  19.739  1.00  0.00    -0.275 OA
ENDBRANCH   4  73
TORSDOF 31
