REMARK VINA RESULT:    -5.654      5.518     12.994
REMARK INTER + INTRA:         -21.463
REMARK INTER:                 -14.949
REMARK INTRA:                  -6.514
REMARK UNBOUND:                -7.546
REMARK SMILES CC(=O)N[C@@H]1[C@@H](O)C[C@](OC[C@H]2O[C@@H](O[C@H]3[C@H](O)[C@@H](O)[C@H](OCCN=[N+]=[N-])O[C@@H]3CO)[C@H](O)[C@@H](O)[C@H]2O)(C(=O)O)O[C@H]1C(O)[C@H](O)CNC(=O)OCc1cn(-c2ccc3[nH]ncc3c2)nn1
REMARK SMILES IDX 9 1 8 2 6 3 5 4 42 5 41 6 10 7 11 8 12 9 14 10 13 11 32 12
REMARK SMILES IDX 34 13 36 14 15 15 16 16 29 17 28 18 21 19 17 20 19 21 30 22
REMARK SMILES IDX 31 23 22 25 23 26 24 27 25 28 26 29 27 30 18 31 20 33 33 35
REMARK SMILES IDX 35 37 37 39 38 41 39 42 40 43 7 45 43 47 44 48 45 50 46 51
REMARK SMILES IDX 47 53 48 54 49 55 50 57 51 58 52 59 53 60 54 61 66 62 55 63
REMARK SMILES IDX 65 64 56 65 57 66 64 67 58 68 63 69 59 70 62 71 60 72 61 73
REMARK SMILES IDX 4 75 2 76 1 78 3 79
REMARK H PARENT 31 24 18 32 20 34 33 36 35 38 37 40 40 44 7 46 44 49 46 52
REMARK H PARENT 48 56 60 74 4 77
REMARK Flexibility Score: inf
ROOT
ATOM      1  C   UNL     1      23.152  28.556  22.076  1.00  0.00     0.272 C 
ATOM      2  C   UNL     1      21.941  28.689  22.925  1.00  0.00     0.113 C 
ATOM      3  C   UNL     1      20.799  29.457  22.312  1.00  0.00     0.145 C 
ATOM      4  C   UNL     1      20.464  28.683  21.009  1.00  0.00     0.142 C 
ATOM      5  C   UNL     1      21.735  28.637  20.253  1.00  0.00     0.178 C 
ATOM      6  O   UNL     1      22.813  28.054  20.822  1.00  0.00    -0.332 OA
ENDROOT
BRANCH   1   7
ATOM      7  O   UNL     1      24.027  27.637  22.695  1.00  0.00    -0.338 OA
BRANCH   7   8
ATOM      8  C   UNL     1      24.332  26.538  21.962  1.00  0.00     0.199 C 
BRANCH   8   9
ATOM      9  C   UNL     1      24.204  25.239  22.789  1.00  0.00     0.179 C 
ATOM     10  C   UNL     1      22.413  24.622  24.123  1.00  0.00     0.282 C 
ATOM     11  O   UNL     1      23.530  25.458  23.953  1.00  0.00    -0.341 OA
ATOM     12  C   UNL     1      21.470  24.950  23.011  1.00  0.00     0.202 C 
ATOM     13  C   UNL     1      22.104  24.394  21.727  1.00  0.00     0.179 C 
ATOM     14  C   UNL     1      23.577  24.161  21.926  1.00  0.00     0.177 C 
BRANCH  10  15
ATOM     15  O   UNL     1      21.908  24.783  25.400  1.00  0.00    -0.341 OA
BRANCH  15  16
ATOM     16  C   UNL     1      22.309  26.011  25.909  1.00  0.00     0.184 C 
ATOM     17  C   UNL     1      22.969  25.946  27.253  1.00  0.00     0.178 C 
ATOM     18  O   UNL     1      23.410  27.154  27.642  1.00  0.00    -0.341 OA
ATOM     19  C   UNL     1      22.936  28.299  27.083  1.00  0.00     0.281 C 
ATOM     20  C   UNL     1      21.067  26.884  26.170  1.00  0.00     0.180 C 
ATOM     21  C   UNL     1      21.558  28.247  26.517  1.00  0.00     0.202 C 
BRANCH  17  22
ATOM     22  C   UNL     1      24.102  24.944  27.344  1.00  0.00     0.191 C 
BRANCH  22  23
ATOM     23  O   UNL     1      25.272  25.522  27.800  1.00  0.00    -0.394 OA
ATOM     24  H   UNL     1      25.984  25.236  27.150  1.00  0.00     0.210 HD
ENDBRANCH  22  23
ENDBRANCH  17  22
BRANCH  19  25
ATOM     25  O   UNL     1      23.839  28.701  26.130  1.00  0.00    -0.350 OA
BRANCH  25  26
ATOM     26  C   UNL     1      25.111  28.919  26.533  1.00  0.00     0.169 C 
BRANCH  26  27
ATOM     27  C   UNL     1      25.289  30.122  27.402  1.00  0.00     0.119 C 
BRANCH  27  28
ATOM     28  N   UNL     1      25.818  29.868  28.709  1.00  0.00    -0.092 NA
ATOM     29  N   UNL     1      26.160  28.770  29.101  1.00  0.00     0.001 N 
ATOM     30  N   UNL     1      26.172  27.635  29.628  1.00  0.00    -0.003 NA
ENDBRANCH  27  28
ENDBRANCH  26  27
ENDBRANCH  25  26
ENDBRANCH  19  25
BRANCH  20  31
ATOM     31  O   UNL     1      20.210  26.885  25.102  1.00  0.00    -0.387 OA
ATOM     32  H   UNL     1      19.273  27.108  25.338  1.00  0.00     0.211 HD
ENDBRANCH  20  31
BRANCH  21  33
ATOM     33  O   UNL     1      20.621  28.815  27.400  1.00  0.00    -0.385 OA
ATOM     34  H   UNL     1      19.707  28.799  27.019  1.00  0.00     0.211 HD
ENDBRANCH  21  33
ENDBRANCH  15  16
ENDBRANCH  10  15
BRANCH  12  35
ATOM     35  O   UNL     1      20.183  24.499  23.160  1.00  0.00    -0.385 OA
ATOM     36  H   UNL     1      19.515  25.250  23.133  1.00  0.00     0.211 HD
ENDBRANCH  12  35
BRANCH  13  37
ATOM     37  O   UNL     1      21.788  25.159  20.624  1.00  0.00    -0.387 OA
ATOM     38  H   UNL     1      20.786  25.172  20.555  1.00  0.00     0.211 HD
ENDBRANCH  13  37
BRANCH  14  39
ATOM     39  O   UNL     1      24.173  24.263  20.643  1.00  0.00    -0.387 OA
ATOM     40  H   UNL     1      25.059  23.871  20.610  1.00  0.00     0.211 HD
ENDBRANCH  14  39
ENDBRANCH   8   9
ENDBRANCH   7   8
ENDBRANCH   1   7
BRANCH   1  41
ATOM     41  C   UNL     1      23.863  29.836  21.811  1.00  0.00     0.364 C 
ATOM     42  O   UNL     1      24.010  30.626  22.802  1.00  0.00    -0.246 OA
BRANCH  41  43
ATOM     43  O   UNL     1      24.376  30.267  20.627  1.00  0.00    -0.477 OA
ATOM     44  H   UNL     1      24.504  29.664  19.813  1.00  0.00     0.296 HD
ENDBRANCH  41  43
ENDBRANCH   1  41
BRANCH   3  45
ATOM     45  O   UNL     1      19.725  29.409  23.180  1.00  0.00    -0.391 OA
ATOM     46  H   UNL     1      19.932  28.866  24.000  1.00  0.00     0.211 HD
ENDBRANCH   3  45
BRANCH   5  47
ATOM     47  C   UNL     1      21.514  28.252  18.821  1.00  0.00     0.176 C 
BRANCH  47  48
ATOM     48  O   UNL     1      21.406  29.522  18.143  1.00  0.00    -0.388 OA
ATOM     49  H   UNL     1      22.217  29.701  17.626  1.00  0.00     0.211 HD
ENDBRANCH  47  48
BRANCH  47  50
ATOM     50  C   UNL     1      22.673  27.564  18.142  1.00  0.00     0.165 C 
BRANCH  50  51
ATOM     51  O   UNL     1      23.676  28.565  18.019  1.00  0.00    -0.388 OA
ATOM     52  H   UNL     1      24.088  28.567  17.137  1.00  0.00     0.211 HD
ENDBRANCH  50  51
BRANCH  50  53
ATOM     53  C   UNL     1      22.396  27.000  16.800  1.00  0.00     0.154 C 
BRANCH  53  54
ATOM     54  N   UNL     1      23.095  25.826  16.414  1.00  0.00    -0.319 N 
ATOM     55  C   UNL     1      23.113  24.578  17.080  1.00  0.00     0.407 C 
ATOM     56  H   UNL     1      23.683  25.851  15.520  1.00  0.00     0.167 HD
ATOM     57  O   UNL     1      22.468  24.391  18.116  1.00  0.00    -0.225 OA
BRANCH  55  58
ATOM     58  O   UNL     1      23.869  23.527  16.568  1.00  0.00    -0.443 OA
BRANCH  58  59
ATOM     59  C   UNL     1      24.350  23.427  15.262  1.00  0.00     0.294 C 
BRANCH  59  60
ATOM     60  C   UNL     1      24.073  22.147  14.595  1.00  0.00     0.121 A 
ATOM     61  C   UNL     1      23.046  21.886  13.717  1.00  0.00     0.144 A 
ATOM     62  N   UNL     1      24.775  21.003  14.740  1.00  0.00    -0.131 NA
ATOM     63  N   UNL     1      23.178  20.602  13.377  1.00  0.00    -0.220 N 
ATOM     64  N   UNL     1      24.223  20.090  14.001  1.00  0.00    -0.062 NA
BRANCH  63  65
ATOM     65  C   UNL     1      22.314  19.906  12.478  1.00  0.00     0.067 A 
ATOM     66  C   UNL     1      22.823  19.113  11.474  1.00  0.00     0.030 A 
ATOM     67  C   UNL     1      20.948  20.020  12.601  1.00  0.00     0.040 A 
ATOM     68  C   UNL     1      21.990  18.448  10.609  1.00  0.00     0.030 A 
ATOM     69  C   UNL     1      20.118  19.337  11.715  1.00  0.00     0.022 A 
ATOM     70  C   UNL     1      20.615  18.537  10.700  1.00  0.00     0.065 A 
ATOM     71  C   UNL     1      18.745  19.291  11.636  1.00  0.00     0.143 A 
ATOM     72  N   UNL     1      19.566  18.026  10.032  1.00  0.00    -0.278 N 
ATOM     73  N   UNL     1      18.473  18.482  10.599  1.00  0.00    -0.183 NA
ATOM     74  H   UNL     1      19.645  17.381   9.208  1.00  0.00     0.190 HD
ENDBRANCH  63  65
ENDBRANCH  59  60
ENDBRANCH  58  59
ENDBRANCH  55  58
ENDBRANCH  53  54
ENDBRANCH  50  53
ENDBRANCH  47  50
ENDBRANCH   5  47
BRANCH   4  75
ATOM     75  N   UNL     1      19.535  29.595  20.334  1.00  0.00    -0.348 N 
ATOM     76  C   UNL     1      18.237  29.158  20.057  1.00  0.00     0.217 C 
ATOM     77  H   UNL     1      19.812  30.550  20.055  1.00  0.00     0.163 HD
ATOM     78  C   UNL     1      17.228  30.026  19.365  1.00  0.00     0.114 C 
ATOM     79  O   UNL     1      17.884  27.984  20.404  1.00  0.00    -0.275 OA
ENDBRANCH   4  75
TORSDOF 30
