REMARK VINA RESULT:    -4.848      3.132     10.817
REMARK INTER + INTRA:         -22.264
REMARK INTER:                 -15.739
REMARK INTRA:                  -6.525
REMARK UNBOUND:                -9.623
REMARK SMILES CC(=O)N[C@@H]1[C@@H](O)C[C@](OC[C@H]2O[C@@H](O[C@H]3[C@H](O)[C@@H](O)[C@H](OCCN=[N+]=[N-])O[C@@H]3CO)[C@H](O)[C@@H](O)[C@H]2O)(C(=O)O)O[C@H]1C(O)[C@H](O)CNC(=O)OCc1cn(Cc2ccc(C(=O)O)cc2)nn1
REMARK SMILES IDX 43 1 42 2 9 3 8 4 41 5 6 6 5 7 10 8 11 9 12 10 14 11 13 12
REMARK SMILES IDX 32 13 34 14 36 15 15 16 16 17 29 18 28 19 21 20 17 21 19 22
REMARK SMILES IDX 30 23 31 24 22 26 23 27 24 28 25 29 26 30 27 31 18 32 20 34
REMARK SMILES IDX 33 36 35 38 37 40 38 42 39 43 40 44 7 46 4 48 2 49 1 51 3 52
REMARK SMILES IDX 44 53 45 55 46 56 47 58 48 59 49 60 50 62 51 63 52 64 53 65
REMARK SMILES IDX 54 66 67 67 55 68 66 69 56 70 57 71 58 72 65 73 59 74 64 75
REMARK SMILES IDX 60 76 61 77 62 78 63 79
REMARK H PARENT 31 25 18 33 20 35 33 37 35 39 37 41 40 45 7 47 4 50 44 54
REMARK H PARENT 46 57 48 61 63 80
REMARK Flexibility Score: inf
ROOT
ATOM      1  C   UNL     1      21.636  28.117  24.210  1.00  0.00     0.176 C 
ENDROOT
BRANCH   1   2
ATOM      2  C   UNL     1      22.501  26.846  24.361  1.00  0.00     0.178 C 
ATOM      3  C   UNL     1      23.397  25.372  22.741  1.00  0.00     0.272 C 
ATOM      4  C   UNL     1      22.675  24.268  23.404  1.00  0.00     0.113 C 
ATOM      5  O   UNL     1      23.032  26.630  23.148  1.00  0.00    -0.332 OA
ATOM      6  C   UNL     1      21.352  24.692  24.006  1.00  0.00     0.145 C 
ATOM      7  C   UNL     1      21.652  25.805  24.966  1.00  0.00     0.142 C 
BRANCH   3   8
ATOM      8  O   UNL     1      23.205  25.358  21.385  1.00  0.00    -0.338 OA
BRANCH   8   9
ATOM      9  C   UNL     1      23.020  24.188  20.738  1.00  0.00     0.199 C 
BRANCH   9  10
ATOM     10  C   UNL     1      23.328  24.358  19.231  1.00  0.00     0.179 C 
ATOM     11  C   UNL     1      22.693  25.640  17.392  1.00  0.00     0.282 C 
ATOM     12  O   UNL     1      22.426  25.231  18.697  1.00  0.00    -0.341 OA
ATOM     13  C   UNL     1      23.787  24.885  16.727  1.00  0.00     0.202 C 
ATOM     14  C   UNL     1      25.027  24.989  17.589  1.00  0.00     0.179 C 
ATOM     15  C   UNL     1      24.756  24.805  19.050  1.00  0.00     0.177 C 
BRANCH  11  16
ATOM     16  O   UNL     1      22.974  27.006  17.422  1.00  0.00    -0.341 OA
BRANCH  16  17
ATOM     17  C   UNL     1      21.922  27.755  16.984  1.00  0.00     0.184 C 
ATOM     18  C   UNL     1      22.311  28.752  15.954  1.00  0.00     0.178 C 
ATOM     19  O   UNL     1      21.179  29.308  15.339  1.00  0.00    -0.341 OA
ATOM     20  C   UNL     1      20.188  29.593  16.281  1.00  0.00     0.281 C 
ATOM     21  C   UNL     1      21.368  28.491  18.219  1.00  0.00     0.180 C 
ATOM     22  C   UNL     1      20.701  29.740  17.682  1.00  0.00     0.202 C 
BRANCH  18  23
ATOM     23  C   UNL     1      23.148  28.113  14.883  1.00  0.00     0.191 C 
BRANCH  23  24
ATOM     24  O   UNL     1      22.371  27.047  14.374  1.00  0.00    -0.394 OA
ATOM     25  H   UNL     1      22.221  27.164  13.416  1.00  0.00     0.210 HD
ENDBRANCH  23  24
ENDBRANCH  18  23
BRANCH  20  26
ATOM     26  O   UNL     1      19.193  28.649  16.184  1.00  0.00    -0.350 OA
BRANCH  26  27
ATOM     27  C   UNL     1      17.996  28.997  16.768  1.00  0.00     0.169 C 
BRANCH  27  28
ATOM     28  C   UNL     1      17.063  29.782  15.907  1.00  0.00     0.119 C 
BRANCH  28  29
ATOM     29  N   UNL     1      15.821  28.999  15.814  1.00  0.00    -0.092 NA
ATOM     30  N   UNL     1      15.099  29.023  14.823  1.00  0.00     0.001 N 
ATOM     31  N   UNL     1      14.490  29.308  13.798  1.00  0.00    -0.003 NA
ENDBRANCH  28  29
ENDBRANCH  27  28
ENDBRANCH  26  27
ENDBRANCH  20  26
BRANCH  21  32
ATOM     32  O   UNL     1      20.478  27.687  18.897  1.00  0.00    -0.387 OA
ATOM     33  H   UNL     1      20.679  26.706  18.750  1.00  0.00     0.211 HD
ENDBRANCH  21  32
BRANCH  22  34
ATOM     34  O   UNL     1      21.553  30.813  17.814  1.00  0.00    -0.385 OA
ATOM     35  H   UNL     1      22.233  30.674  18.496  1.00  0.00     0.211 HD
ENDBRANCH  22  34
ENDBRANCH  16  17
ENDBRANCH  11  16
BRANCH  13  36
ATOM     36  O   UNL     1      23.448  23.537  16.530  1.00  0.00    -0.385 OA
ATOM     37  H   UNL     1      23.341  23.147  17.440  1.00  0.00     0.211 HD
ENDBRANCH  13  36
BRANCH  14  38
ATOM     38  O   UNL     1      25.684  26.203  17.390  1.00  0.00    -0.387 OA
ATOM     39  H   UNL     1      25.304  26.866  18.032  1.00  0.00     0.211 HD
ENDBRANCH  14  38
BRANCH  15  40
ATOM     40  O   UNL     1      25.032  25.964  19.789  1.00  0.00    -0.387 OA
ATOM     41  H   UNL     1      24.892  26.735  19.180  1.00  0.00     0.211 HD
ENDBRANCH  15  40
ENDBRANCH   9  10
ENDBRANCH   8   9
ENDBRANCH   3   8
BRANCH   3  42
ATOM     42  C   UNL     1      24.863  25.248  23.077  1.00  0.00     0.364 C 
ATOM     43  O   UNL     1      25.711  26.004  22.539  1.00  0.00    -0.246 OA
BRANCH  42  44
ATOM     44  O   UNL     1      25.325  24.306  23.982  1.00  0.00    -0.477 OA
ATOM     45  H   UNL     1      26.189  24.537  24.498  1.00  0.00     0.296 HD
ENDBRANCH  42  44
ENDBRANCH   3  42
BRANCH   6  46
ATOM     46  O   UNL     1      20.517  25.048  22.969  1.00  0.00    -0.391 OA
ATOM     47  H   UNL     1      20.686  24.463  22.185  1.00  0.00     0.211 HD
ENDBRANCH   6  46
BRANCH   7  48
ATOM     48  N   UNL     1      22.330  25.238  26.125  1.00  0.00    -0.348 N 
ATOM     49  C   UNL     1      22.263  25.872  27.414  1.00  0.00     0.217 C 
ATOM     50  H   UNL     1      22.896  24.362  26.103  1.00  0.00     0.163 HD
ATOM     51  C   UNL     1      22.973  25.258  28.579  1.00  0.00     0.114 C 
ATOM     52  O   UNL     1      21.610  26.922  27.526  1.00  0.00    -0.275 OA
ENDBRANCH   7  48
ENDBRANCH   1   2
BRANCH   1  53
ATOM     53  O   UNL     1      20.381  27.993  24.711  1.00  0.00    -0.388 OA
ATOM     54  H   UNL     1      20.263  28.198  25.664  1.00  0.00     0.211 HD
ENDBRANCH   1  53
BRANCH   1  55
ATOM     55  C   UNL     1      22.369  29.340  24.706  1.00  0.00     0.165 C 
BRANCH  55  56
ATOM     56  O   UNL     1      21.965  29.627  25.971  1.00  0.00    -0.388 OA
ATOM     57  H   UNL     1      22.647  29.978  26.576  1.00  0.00     0.211 HD
ENDBRANCH  55  56
BRANCH  55  58
ATOM     58  C   UNL     1      22.324  30.411  23.686  1.00  0.00     0.154 C 
BRANCH  58  59
ATOM     59  N   UNL     1      21.232  30.248  22.768  1.00  0.00    -0.319 N 
ATOM     60  C   UNL     1      21.310  30.512  21.383  1.00  0.00     0.407 C 
ATOM     61  H   UNL     1      20.295  29.911  23.126  1.00  0.00     0.167 HD
ATOM     62  O   UNL     1      22.354  30.911  20.845  1.00  0.00    -0.225 OA
BRANCH  60  63
ATOM     63  O   UNL     1      20.216  30.339  20.512  1.00  0.00    -0.443 OA
BRANCH  63  64
ATOM     64  C   UNL     1      18.927  30.774  20.907  1.00  0.00     0.294 C 
BRANCH  64  65
ATOM     65  C   UNL     1      17.866  29.822  20.535  1.00  0.00     0.120 A 
ATOM     66  C   UNL     1      16.546  30.048  20.259  1.00  0.00     0.138 A 
ATOM     67  N   UNL     1      18.055  28.493  20.427  1.00  0.00    -0.132 NA
ATOM     68  N   UNL     1      15.972  28.854  19.992  1.00  0.00    -0.248 N 
ATOM     69  N   UNL     1      16.908  27.928  20.101  1.00  0.00    -0.067 NA
BRANCH  68  70
ATOM     70  C   UNL     1      14.584  28.663  19.658  1.00  0.00     0.181 C 
BRANCH  70  71
ATOM     71  C   UNL     1      13.718  29.458  20.552  1.00  0.00    -0.026 A 
ATOM     72  C   UNL     1      13.273  30.699  20.154  1.00  0.00     0.006 A 
ATOM     73  C   UNL     1      13.365  28.967  21.806  1.00  0.00     0.006 A 
ATOM     74  C   UNL     1      12.481  31.399  21.047  1.00  0.00     0.016 A 
ATOM     75  C   UNL     1      12.577  29.669  22.691  1.00  0.00     0.016 A 
ATOM     76  C   UNL     1      12.134  30.907  22.290  1.00  0.00     0.059 A 
BRANCH  76  77
ATOM     77  C   UNL     1      11.302  31.696  23.185  1.00  0.00     0.335 C 
ATOM     78  O   UNL     1      10.471  32.492  22.726  1.00  0.00    -0.246 OA
BRANCH  77  79
ATOM     79  O   UNL     1      11.441  31.557  24.547  1.00  0.00    -0.478 OA
ATOM     80  H   UNL     1      12.332  31.699  25.020  1.00  0.00     0.297 HD
ENDBRANCH  77  79
ENDBRANCH  76  77
ENDBRANCH  70  71
ENDBRANCH  68  70
ENDBRANCH  64  65
ENDBRANCH  63  64
ENDBRANCH  60  63
ENDBRANCH  58  59
ENDBRANCH  55  58
ENDBRANCH   1  55
TORSDOF 33
