REMARK VINA RESULT:    -5.053      3.275      7.021
REMARK INTER + INTRA:         -21.441
REMARK INTER:                 -13.382
REMARK INTRA:                  -8.060
REMARK UNBOUND:                -8.118
REMARK SMILES CC(=O)N[C@@H]1[C@@H](O)C[C@](OC[C@H]2O[C@@H](O[C@H]3[C@H](O)[C@@H](O)[C@H](OCCN=[N+]=[N-])O[C@@H]3CO)[C@H](O)[C@@H](O)[C@H]2O)(C(=O)O)O[C@H]1C(O)[C@H](O)CNC(=O)OCc1cn(CCOC(C)=O)nn1
REMARK SMILES IDX 43 1 42 2 9 3 8 4 41 5 6 6 5 7 10 8 11 9 12 10 14 11 13 12
REMARK SMILES IDX 32 13 34 14 36 15 15 16 16 17 29 18 28 19 21 20 17 21 19 22
REMARK SMILES IDX 30 23 31 24 22 26 23 27 24 28 25 29 26 30 27 31 18 32 20 34
REMARK SMILES IDX 33 36 35 38 37 40 38 42 39 43 40 44 7 46 4 48 2 49 1 51 3 52
REMARK SMILES IDX 44 53 45 55 46 56 47 58 48 59 49 60 50 62 51 63 52 64 53 65
REMARK SMILES IDX 54 66 63 67 55 68 62 69 56 70 57 71 58 72 59 73 61 74 60 75
REMARK H PARENT 31 25 18 33 20 35 33 37 35 39 37 41 40 45 7 47 4 50 44 54
REMARK H PARENT 46 57 48 61
REMARK Flexibility Score: inf
ROOT
ATOM      1  C   UNL     1       2.451  22.944  30.830  1.00  0.00     0.176 C 
ENDROOT
BRANCH   1   2
ATOM      2  C   UNL     1       1.372  22.783  29.790  1.00  0.00     0.178 C 
ATOM      3  C   UNL     1       1.061  23.231  27.497  1.00  0.00     0.272 C 
ATOM      4  C   UNL     1      -0.230  22.514  27.815  1.00  0.00     0.113 C 
ATOM      5  O   UNL     1       1.985  23.152  28.574  1.00  0.00    -0.332 OA
ATOM      6  C   UNL     1      -0.898  23.026  29.040  1.00  0.00     0.145 C 
ATOM      7  C   UNL     1       0.192  23.693  29.927  1.00  0.00     0.142 C 
BRANCH   3   8
ATOM      8  O   UNL     1       0.988  24.498  27.169  1.00  0.00    -0.338 OA
BRANCH   8   9
ATOM      9  C   UNL     1       1.391  25.165  26.125  1.00  0.00     0.199 C 
BRANCH   9  10
ATOM     10  C   UNL     1       2.458  26.174  26.081  1.00  0.00     0.179 C 
ATOM     11  C   UNL     1       3.156  28.041  27.239  1.00  0.00     0.282 C 
ATOM     12  O   UNL     1       2.516  26.802  27.385  1.00  0.00    -0.341 OA
ATOM     13  C   UNL     1       4.332  28.019  26.355  1.00  0.00     0.202 C 
ATOM     14  C   UNL     1       4.809  26.694  25.870  1.00  0.00     0.179 C 
ATOM     15  C   UNL     1       3.867  25.553  26.026  1.00  0.00     0.177 C 
BRANCH  11  16
ATOM     16  O   UNL     1       3.352  28.539  28.516  1.00  0.00    -0.341 OA
BRANCH  16  17
ATOM     17  C   UNL     1       3.475  27.563  29.471  1.00  0.00     0.184 C 
ATOM     18  C   UNL     1       2.671  27.939  30.695  1.00  0.00     0.178 C 
ATOM     19  O   UNL     1       2.831  26.872  31.589  1.00  0.00    -0.341 OA
ATOM     20  C   UNL     1       4.058  26.947  32.178  1.00  0.00     0.281 C 
ATOM     21  C   UNL     1       4.925  27.327  29.861  1.00  0.00     0.180 C 
ATOM     22  C   UNL     1       5.157  27.531  31.322  1.00  0.00     0.202 C 
BRANCH  18  23
ATOM     23  C   UNL     1       1.201  28.050  30.337  1.00  0.00     0.191 C 
BRANCH  23  24
ATOM     24  O   UNL     1       0.460  28.307  31.476  1.00  0.00    -0.394 OA
ATOM     25  H   UNL     1       1.009  27.967  32.243  1.00  0.00     0.210 HD
ENDBRANCH  23  24
ENDBRANCH  18  23
BRANCH  20  26
ATOM     26  O   UNL     1       4.395  25.659  32.615  1.00  0.00    -0.350 OA
BRANCH  26  27
ATOM     27  C   UNL     1       4.239  25.534  33.991  1.00  0.00     0.169 C 
BRANCH  27  28
ATOM     28  C   UNL     1       2.960  24.713  34.186  1.00  0.00     0.119 C 
BRANCH  28  29
ATOM     29  N   UNL     1       3.329  23.441  34.784  1.00  0.00    -0.092 NA
ATOM     30  N   UNL     1       3.871  23.362  35.893  1.00  0.00     0.001 N 
ATOM     31  N   UNL     1       4.739  23.296  36.784  1.00  0.00    -0.003 NA
ENDBRANCH  28  29
ENDBRANCH  27  28
ENDBRANCH  26  27
ENDBRANCH  20  26
BRANCH  21  32
ATOM     32  O   UNL     1       5.407  26.094  29.441  1.00  0.00    -0.387 OA
ATOM     33  H   UNL     1       4.812  25.336  29.662  1.00  0.00     0.211 HD
ENDBRANCH  21  32
BRANCH  22  34
ATOM     34  O   UNL     1       5.422  28.858  31.600  1.00  0.00    -0.385 OA
ATOM     35  H   UNL     1       4.825  29.423  31.030  1.00  0.00     0.211 HD
ENDBRANCH  22  34
ENDBRANCH  16  17
ENDBRANCH  11  16
BRANCH  13  36
ATOM     36  O   UNL     1       4.203  28.940  25.282  1.00  0.00    -0.385 OA
ATOM     37  H   UNL     1       4.507  29.836  25.534  1.00  0.00     0.211 HD
ENDBRANCH  13  36
BRANCH  14  38
ATOM     38  O   UNL     1       6.024  26.331  26.469  1.00  0.00    -0.387 OA
ATOM     39  H   UNL     1       6.333  27.102  27.030  1.00  0.00     0.211 HD
ENDBRANCH  14  38
BRANCH  15  40
ATOM     40  O   UNL     1       4.121  24.983  27.304  1.00  0.00    -0.387 OA
ATOM     41  H   UNL     1       3.847  24.044  27.324  1.00  0.00     0.211 HD
ENDBRANCH  15  40
ENDBRANCH   9  10
ENDBRANCH   8   9
ENDBRANCH   3   8
BRANCH   3  42
ATOM     42  C   UNL     1       1.740  22.372  26.487  1.00  0.00     0.364 C 
ATOM     43  O   UNL     1       1.182  21.619  25.667  1.00  0.00    -0.246 OA
BRANCH  42  44
ATOM     44  O   UNL     1       3.149  22.370  26.408  1.00  0.00    -0.477 OA
ATOM     45  H   UNL     1       3.668  21.787  27.048  1.00  0.00     0.296 HD
ENDBRANCH  42  44
ENDBRANCH   3  42
BRANCH   6  46
ATOM     46  O   UNL     1      -1.949  23.888  28.828  1.00  0.00    -0.391 OA
ATOM     47  H   UNL     1      -2.250  24.355  29.649  1.00  0.00     0.211 HD
ENDBRANCH   6  46
BRANCH   7  48
ATOM     48  N   UNL     1      -0.336  23.904  31.233  1.00  0.00    -0.348 N 
ATOM     49  C   UNL     1      -1.060  25.075  31.575  1.00  0.00     0.217 C 
ATOM     50  H   UNL     1      -0.212  23.175  31.954  1.00  0.00     0.163 HD
ATOM     51  C   UNL     1      -1.610  25.290  32.949  1.00  0.00     0.114 C 
ATOM     52  O   UNL     1      -1.276  25.996  30.730  1.00  0.00    -0.275 OA
ENDBRANCH   7  48
ENDBRANCH   1   2
BRANCH   1  53
ATOM     53  O   UNL     1       3.196  24.085  30.392  1.00  0.00    -0.388 OA
ATOM     54  H   UNL     1       3.457  23.976  29.454  1.00  0.00     0.211 HD
ENDBRANCH   1  53
BRANCH   1  55
ATOM     55  C   UNL     1       3.443  21.810  30.733  1.00  0.00     0.165 C 
BRANCH  55  56
ATOM     56  O   UNL     1       2.784  20.661  30.269  1.00  0.00    -0.388 OA
ATOM     57  H   UNL     1       3.378  19.894  30.398  1.00  0.00     0.211 HD
ENDBRANCH  55  56
BRANCH  55  58
ATOM     58  C   UNL     1       4.171  21.550  32.015  1.00  0.00     0.154 C 
BRANCH  58  59
ATOM     59  N   UNL     1       5.217  22.472  32.331  1.00  0.00    -0.319 N 
ATOM     60  C   UNL     1       6.488  22.080  32.793  1.00  0.00     0.407 C 
ATOM     61  H   UNL     1       5.083  23.526  32.228  1.00  0.00     0.167 HD
ATOM     62  O   UNL     1       6.810  20.884  32.955  1.00  0.00    -0.225 OA
BRANCH  60  63
ATOM     63  O   UNL     1       7.483  23.019  33.107  1.00  0.00    -0.443 OA
BRANCH  63  64
ATOM     64  C   UNL     1       7.436  23.810  34.260  1.00  0.00     0.294 C 
BRANCH  64  65
ATOM     65  C   UNL     1       8.758  23.879  34.941  1.00  0.00     0.120 A 
ATOM     66  C   UNL     1       8.940  23.643  36.293  1.00  0.00     0.138 A 
ATOM     67  N   UNL     1       9.966  24.149  34.456  1.00  0.00    -0.132 NA
ATOM     68  N   UNL     1      10.243  23.783  36.555  1.00  0.00    -0.249 N 
ATOM     69  N   UNL     1      10.849  24.091  35.423  1.00  0.00    -0.067 NA
BRANCH  68  70
ATOM     70  C   UNL     1      10.908  23.642  37.859  1.00  0.00     0.187 C 
BRANCH  70  71
ATOM     71  C   UNL     1       9.914  23.154  38.890  1.00  0.00     0.256 C 
BRANCH  71  72
ATOM     72  O   UNL     1      10.069  21.746  39.029  1.00  0.00    -0.464 OA
BRANCH  72  73
ATOM     73  C   UNL     1       9.594  21.092  40.162  1.00  0.00     0.302 C 
ATOM     74  O   UNL     1       8.382  20.772  40.192  1.00  0.00    -0.253 OA
ATOM     75  C   UNL     1      10.478  20.766  41.328  1.00  0.00     0.139 C 
ENDBRANCH  72  73
ENDBRANCH  71  72
ENDBRANCH  70  71
ENDBRANCH  68  70
ENDBRANCH  64  65
ENDBRANCH  63  64
ENDBRANCH  60  63
ENDBRANCH  58  59
ENDBRANCH  55  58
ENDBRANCH   1  55
TORSDOF 33
