REMARK VINA RESULT:    -6.439     15.428     21.886
REMARK INTER + INTRA:         -23.636
REMARK INTER:                 -16.134
REMARK INTRA:                  -7.502
REMARK UNBOUND:                -7.033
REMARK SMILES CC(=O)N[C@@H]1[C@@H](O)C[C@](OC[C@H]2O[C@@H](O[C@H]3[C@H](O)[C@@H](O)[C@H](OCCN=[N+]=[N-])O[C@@H]3CO)[C@H](O)[C@@H](O)[C@H]2O)(C(=O)O)O[C@H]1C(O)[C@H](O)CNC(=O)OCc1cn(C(C)(C)C(=O)c2c[nH]c3ccccc23)nn1
REMARK SMILES IDX 9 1 8 2 6 3 5 4 42 5 41 6 10 7 11 8 12 9 14 10 13 11 32 12
REMARK SMILES IDX 34 13 36 14 15 15 16 16 29 17 28 18 21 19 17 20 19 21 30 22
REMARK SMILES IDX 31 23 22 25 23 26 24 27 25 28 26 29 27 30 18 31 20 33 33 35
REMARK SMILES IDX 35 37 37 39 38 41 39 42 40 43 7 45 43 47 44 48 45 50 46 51
REMARK SMILES IDX 47 53 48 54 49 55 50 57 51 58 52 59 53 60 54 61 71 62 55 63
REMARK SMILES IDX 70 64 56 65 57 66 58 67 59 68 60 69 61 70 62 71 69 72 63 73
REMARK SMILES IDX 64 74 68 75 65 77 67 78 66 79 4 80 2 81 1 83 3 84
REMARK H PARENT 31 24 18 32 20 34 33 36 35 38 37 40 40 44 7 46 44 49 46 52
REMARK H PARENT 48 56 63 76 4 82
REMARK Flexibility Score: inf
ROOT
ATOM      1  C   UNL     1       4.398  24.990  32.980  1.00  0.00     0.272 C 
ATOM      2  C   UNL     1       3.420  24.725  34.112  1.00  0.00     0.113 C 
ATOM      3  C   UNL     1       3.961  23.720  35.097  1.00  0.00     0.145 C 
ATOM      4  C   UNL     1       4.035  22.324  34.384  1.00  0.00     0.142 C 
ATOM      5  C   UNL     1       4.427  22.632  32.976  1.00  0.00     0.178 C 
ATOM      6  O   UNL     1       5.142  23.809  32.907  1.00  0.00    -0.332 OA
ENDROOT
BRANCH   1   7
ATOM      7  O   UNL     1       5.172  26.073  33.078  1.00  0.00    -0.338 OA
BRANCH   7   8
ATOM      8  C   UNL     1       6.344  26.331  33.554  1.00  0.00     0.199 C 
BRANCH   8   9
ATOM      9  C   UNL     1       6.381  27.409  34.640  1.00  0.00     0.179 C 
ATOM     10  C   UNL     1       8.707  27.483  35.099  1.00  0.00     0.282 C 
ATOM     11  O   UNL     1       7.434  27.233  35.472  1.00  0.00    -0.341 OA
ATOM     12  C   UNL     1       8.884  28.763  34.330  1.00  0.00     0.202 C 
ATOM     13  C   UNL     1       7.590  29.569  34.363  1.00  0.00     0.179 C 
ATOM     14  C   UNL     1       6.412  28.758  33.977  1.00  0.00     0.177 C 
BRANCH  10  15
ATOM     15  O   UNL     1       9.209  26.437  34.344  1.00  0.00    -0.341 OA
BRANCH  15  16
ATOM     16  C   UNL     1      10.033  25.601  35.041  1.00  0.00     0.184 C 
ATOM     17  C   UNL     1      11.455  25.523  34.619  1.00  0.00     0.178 C 
ATOM     18  O   UNL     1      12.168  24.989  35.712  1.00  0.00    -0.341 OA
ATOM     19  C   UNL     1      11.790  23.721  36.050  1.00  0.00     0.281 C 
ATOM     20  C   UNL     1       9.510  24.181  35.124  1.00  0.00     0.180 C 
ATOM     21  C   UNL     1      10.300  23.524  36.235  1.00  0.00     0.202 C 
BRANCH  17  22
ATOM     22  C   UNL     1      12.102  26.864  34.336  1.00  0.00     0.191 C 
BRANCH  22  23
ATOM     23  O   UNL     1      11.862  27.163  32.990  1.00  0.00    -0.394 OA
ATOM     24  H   UNL     1      12.339  27.970  32.688  1.00  0.00     0.210 HD
ENDBRANCH  22  23
ENDBRANCH  17  22
BRANCH  19  25
ATOM     25  O   UNL     1      12.370  23.420  37.286  1.00  0.00    -0.350 OA
BRANCH  25  26
ATOM     26  C   UNL     1      12.300  24.545  38.087  1.00  0.00     0.169 C 
BRANCH  26  27
ATOM     27  C   UNL     1      12.143  24.206  39.545  1.00  0.00     0.119 C 
BRANCH  27  28
ATOM     28  N   UNL     1      11.069  23.273  39.806  1.00  0.00    -0.092 NA
ATOM     29  N   UNL     1      10.944  22.736  40.925  1.00  0.00     0.001 N 
ATOM     30  N   UNL     1      10.595  22.635  42.104  1.00  0.00    -0.003 NA
ENDBRANCH  27  28
ENDBRANCH  26  27
ENDBRANCH  25  26
ENDBRANCH  19  25
BRANCH  20  31
ATOM     31  O   UNL     1       8.166  24.115  35.407  1.00  0.00    -0.387 OA
ATOM     32  H   UNL     1       7.754  23.464  34.799  1.00  0.00     0.211 HD
ENDBRANCH  20  31
BRANCH  21  33
ATOM     33  O   UNL     1      10.058  22.153  36.175  1.00  0.00    -0.385 OA
ATOM     34  H   UNL     1       9.537  21.831  36.961  1.00  0.00     0.211 HD
ENDBRANCH  21  33
ENDBRANCH  15  16
ENDBRANCH  10  15
BRANCH  12  35
ATOM     35  O   UNL     1       9.953  29.542  34.772  1.00  0.00    -0.385 OA
ATOM     36  H   UNL     1      10.364  29.117  35.553  1.00  0.00     0.211 HD
ENDBRANCH  12  35
BRANCH  13  37
ATOM     37  O   UNL     1       7.803  30.631  33.453  1.00  0.00    -0.387 OA
ATOM     38  H   UNL     1       8.752  30.677  33.182  1.00  0.00     0.211 HD
ENDBRANCH  13  37
BRANCH  14  39
ATOM     39  O   UNL     1       6.403  28.529  32.578  1.00  0.00    -0.387 OA
ATOM     40  H   UNL     1       7.102  27.861  32.353  1.00  0.00     0.211 HD
ENDBRANCH  14  39
ENDBRANCH   8   9
ENDBRANCH   7   8
ENDBRANCH   1   7
BRANCH   1  41
ATOM     41  C   UNL     1       3.610  25.143  31.738  1.00  0.00     0.364 C 
ATOM     42  O   UNL     1       2.394  25.451  31.827  1.00  0.00    -0.246 OA
BRANCH  41  43
ATOM     43  O   UNL     1       4.119  24.966  30.490  1.00  0.00    -0.477 OA
ATOM     44  H   UNL     1       4.620  24.151  30.143  1.00  0.00     0.296 HD
ENDBRANCH  41  43
ENDBRANCH   1  41
BRANCH   3  45
ATOM     45  O   UNL     1       5.254  23.932  35.515  1.00  0.00    -0.391 OA
ATOM     46  H   UNL     1       5.784  24.506  34.892  1.00  0.00     0.211 HD
ENDBRANCH   3  45
BRANCH   5  47
ATOM     47  C   UNL     1       5.216  21.611  32.245  1.00  0.00     0.176 C 
BRANCH  47  48
ATOM     48  O   UNL     1       6.018  20.843  33.059  1.00  0.00    -0.388 OA
ATOM     49  H   UNL     1       5.805  20.903  34.033  1.00  0.00     0.211 HD
ENDBRANCH  47  48
BRANCH  47  50
ATOM     50  C   UNL     1       4.492  20.827  31.172  1.00  0.00     0.165 C 
BRANCH  50  51
ATOM     51  O   UNL     1       5.304  20.391  30.177  1.00  0.00    -0.388 OA
ATOM     52  H   UNL     1       6.046  19.857  30.495  1.00  0.00     0.211 HD
ENDBRANCH  50  51
BRANCH  50  53
ATOM     53  C   UNL     1       3.271  21.590  30.775  1.00  0.00     0.154 C 
BRANCH  53  54
ATOM     54  N   UNL     1       3.157  21.987  29.423  1.00  0.00    -0.319 N 
ATOM     55  C   UNL     1       2.272  21.362  28.476  1.00  0.00     0.407 C 
ATOM     56  H   UNL     1       3.744  22.792  29.047  1.00  0.00     0.167 HD
ATOM     57  O   UNL     1       1.551  20.395  28.795  1.00  0.00    -0.225 OA
BRANCH  55  58
ATOM     58  O   UNL     1       2.195  21.817  27.173  1.00  0.00    -0.443 OA
BRANCH  58  59
ATOM     59  C   UNL     1       1.299  22.819  26.785  1.00  0.00     0.294 C 
BRANCH  59  60
ATOM     60  C   UNL     1       1.877  24.140  27.186  1.00  0.00     0.120 A 
ATOM     61  C   UNL     1       2.583  25.006  26.330  1.00  0.00     0.139 A 
ATOM     62  N   UNL     1       1.892  24.767  28.369  1.00  0.00    -0.132 NA
ATOM     63  N   UNL     1       2.983  26.086  27.015  1.00  0.00    -0.239 N 
ATOM     64  N   UNL     1       2.559  25.929  28.246  1.00  0.00    -0.066 NA
BRANCH  63  65
ATOM     65  C   UNL     1       3.736  27.191  26.459  1.00  0.00     0.122 C 
ATOM     66  C   UNL     1       2.752  28.412  26.422  1.00  0.00     0.046 C 
ATOM     67  C   UNL     1       4.107  27.000  25.008  1.00  0.00     0.046 C 
BRANCH  65  68
ATOM     68  C   UNL     1       4.847  27.584  27.304  1.00  0.00     0.192 C 
ATOM     69  O   UNL     1       5.918  26.849  27.155  1.00  0.00    -0.291 OA
BRANCH  68  70
ATOM     70  C   UNL     1       4.969  28.633  28.269  1.00  0.00     0.045 A 
ATOM     71  C   UNL     1       4.566  28.508  29.604  1.00  0.00     0.095 A 
ATOM     72  C   UNL     1       5.448  29.919  28.125  1.00  0.00     0.010 A 
ATOM     73  N   UNL     1       4.796  29.658  30.206  1.00  0.00    -0.360 N 
ATOM     74  C   UNL     1       5.325  30.549  29.367  1.00  0.00     0.046 A 
ATOM     75  C   UNL     1       5.975  30.645  27.092  1.00  0.00     0.011 A 
ATOM     76  H   UNL     1       4.575  29.825  31.229  1.00  0.00     0.166 HD
ATOM     77  C   UNL     1       5.723  31.862  29.550  1.00  0.00     0.027 A 
ATOM     78  C   UNL     1       6.373  31.968  27.280  1.00  0.00     0.001 A 
ATOM     79  C   UNL     1       6.245  32.562  28.501  1.00  0.00     0.002 A 
ENDBRANCH  68  70
ENDBRANCH  65  68
ENDBRANCH  63  65
ENDBRANCH  59  60
ENDBRANCH  58  59
ENDBRANCH  55  58
ENDBRANCH  53  54
ENDBRANCH  50  53
ENDBRANCH  47  50
ENDBRANCH   5  47
BRANCH   4  80
ATOM     80  N   UNL     1       2.651  21.864  34.449  1.00  0.00    -0.348 N 
ATOM     81  C   UNL     1       2.268  20.556  34.838  1.00  0.00     0.217 C 
ATOM     82  H   UNL     1       1.880  22.538  34.191  1.00  0.00     0.163 HD
ATOM     83  C   UNL     1       0.857  20.091  34.900  1.00  0.00     0.114 C 
ATOM     84  O   UNL     1       3.218  19.758  35.146  1.00  0.00    -0.275 OA
ENDBRANCH   4  80
TORSDOF 32
