REMARK VINA RESULT:    -6.624      4.379     11.681
REMARK INTER + INTRA:         -21.322
REMARK INTER:                 -15.117
REMARK INTRA:                  -6.205
REMARK UNBOUND:                -5.017
REMARK SMILES CC(=O)N[C@@H]1[C@@H](O)C[C@](OC[C@H]2O[C@@H](O[C@H]3[C@H](O)[C@@H](O)[C@H](OCCN=[N+]=[N-])O[C@@H]3CO)[C@H](O)[C@@H](O)[C@H]2O)(C(=O)O)O[C@H]1C(O)[C@H](O)CNC(=O)OCc1cn(C2CCCCC2)nn1
REMARK SMILES IDX 9 1 8 2 6 3 5 4 42 5 41 6 10 7 11 8 12 9 14 10 13 11 32 12
REMARK SMILES IDX 34 13 36 14 15 15 16 16 29 17 28 18 21 19 17 20 19 21 30 22
REMARK SMILES IDX 31 23 22 25 23 26 24 27 25 28 26 29 27 30 18 31 20 33 33 35
REMARK SMILES IDX 35 37 37 39 38 41 39 42 40 43 7 45 43 47 44 48 45 50 46 51
REMARK SMILES IDX 47 53 48 54 49 55 50 57 51 58 52 59 53 60 54 61 63 62 55 63
REMARK SMILES IDX 62 64 56 65 57 66 61 67 58 68 60 69 59 70 4 71 2 72 1 74
REMARK SMILES IDX 3 75
REMARK H PARENT 31 24 18 32 20 34 33 36 35 38 37 40 40 44 7 46 44 49 46 52
REMARK H PARENT 48 56 4 73
REMARK Flexibility Score: inf
ROOT
ATOM      1  C   UNL     1      22.825  25.181  22.595  1.00  0.00     0.272 C 
ATOM      2  C   UNL     1      23.271  23.786  22.019  1.00  0.00     0.113 C 
ATOM      3  C   UNL     1      24.685  23.881  21.532  1.00  0.00     0.145 C 
ATOM      4  C   UNL     1      24.837  24.988  20.523  1.00  0.00     0.142 C 
ATOM      5  C   UNL     1      24.028  26.197  20.837  1.00  0.00     0.178 C 
ATOM      6  O   UNL     1      23.029  26.159  21.696  1.00  0.00    -0.332 OA
ENDROOT
BRANCH   1   7
ATOM      7  O   UNL     1      23.558  25.299  23.693  1.00  0.00    -0.338 OA
BRANCH   7   8
ATOM      8  C   UNL     1      23.815  26.251  24.524  1.00  0.00     0.199 C 
BRANCH   8   9
ATOM      9  C   UNL     1      24.271  25.995  25.952  1.00  0.00     0.179 C 
ATOM     10  C   UNL     1      23.270  27.008  27.815  1.00  0.00     0.282 C 
ATOM     11  O   UNL     1      24.156  27.089  26.746  1.00  0.00    -0.341 OA
ATOM     12  C   UNL     1      23.587  25.815  28.635  1.00  0.00     0.202 C 
ATOM     13  C   UNL     1      23.718  24.541  27.837  1.00  0.00     0.179 C 
ATOM     14  C   UNL     1      23.427  24.809  26.410  1.00  0.00     0.177 C 
BRANCH  10  15
ATOM     15  O   UNL     1      22.026  27.168  27.326  1.00  0.00    -0.341 OA
BRANCH  15  16
ATOM     16  C   UNL     1      21.408  28.373  27.399  1.00  0.00     0.184 C 
ATOM     17  C   UNL     1      21.154  28.853  25.986  1.00  0.00     0.178 C 
ATOM     18  O   UNL     1      20.283  29.925  25.940  1.00  0.00    -0.341 OA
ATOM     19  C   UNL     1      20.261  30.690  27.076  1.00  0.00     0.281 C 
ATOM     20  C   UNL     1      22.249  29.459  28.036  1.00  0.00     0.180 C 
ATOM     21  C   UNL     1      21.594  30.784  27.722  1.00  0.00     0.202 C 
BRANCH  17  22
ATOM     22  C   UNL     1      20.783  27.753  25.033  1.00  0.00     0.191 C 
BRANCH  22  23
ATOM     23  O   UNL     1      20.842  28.278  23.742  1.00  0.00    -0.394 OA
ATOM     24  H   UNL     1      21.303  27.673  23.114  1.00  0.00     0.210 HD
ENDBRANCH  22  23
ENDBRANCH  17  22
BRANCH  19  25
ATOM     25  O   UNL     1      19.220  30.296  27.874  1.00  0.00    -0.350 OA
BRANCH  25  26
ATOM     26  C   UNL     1      18.844  31.228  28.830  1.00  0.00     0.169 C 
BRANCH  26  27
ATOM     27  C   UNL     1      18.557  30.632  30.181  1.00  0.00     0.119 C 
BRANCH  27  28
ATOM     28  N   UNL     1      19.497  29.554  30.410  1.00  0.00    -0.092 NA
ATOM     29  N   UNL     1      19.033  28.522  30.914  1.00  0.00     0.001 N 
ATOM     30  N   UNL     1      18.846  27.712  31.839  1.00  0.00    -0.003 NA
ENDBRANCH  27  28
ENDBRANCH  26  27
ENDBRANCH  25  26
ENDBRANCH  19  25
BRANCH  20  31
ATOM     31  O   UNL     1      22.364  29.344  29.400  1.00  0.00    -0.387 OA
ATOM     32  H   UNL     1      23.281  29.127  29.698  1.00  0.00     0.211 HD
ENDBRANCH  20  31
BRANCH  21  33
ATOM     33  O   UNL     1      22.451  31.430  26.797  1.00  0.00    -0.385 OA
ATOM     34  H   UNL     1      22.545  32.388  27.024  1.00  0.00     0.211 HD
ENDBRANCH  21  33
ENDBRANCH  15  16
ENDBRANCH  10  15
BRANCH  12  35
ATOM     35  O   UNL     1      24.871  26.055  29.193  1.00  0.00    -0.385 OA
ATOM     36  H   UNL     1      24.843  26.771  29.864  1.00  0.00     0.211 HD
ENDBRANCH  12  35
BRANCH  13  37
ATOM     37  O   UNL     1      22.847  23.547  28.326  1.00  0.00    -0.387 OA
ATOM     38  H   UNL     1      23.185  22.679  28.054  1.00  0.00     0.211 HD
ENDBRANCH  13  37
BRANCH  14  39
ATOM     39  O   UNL     1      22.111  24.898  26.049  1.00  0.00    -0.387 OA
ATOM     40  H   UNL     1      21.909  24.154  25.433  1.00  0.00     0.211 HD
ENDBRANCH  14  39
ENDBRANCH   8   9
ENDBRANCH   7   8
ENDBRANCH   1   7
BRANCH   1  41
ATOM     41  C   UNL     1      21.337  25.010  22.741  1.00  0.00     0.364 C 
ATOM     42  O   UNL     1      20.797  24.251  23.536  1.00  0.00    -0.246 OA
BRANCH  41  43
ATOM     43  O   UNL     1      20.471  25.762  21.922  1.00  0.00    -0.477 OA
ATOM     44  H   UNL     1      20.807  26.167  21.063  1.00  0.00     0.296 HD
ENDBRANCH  41  43
ENDBRANCH   1  41
BRANCH   3  45
ATOM     45  O   UNL     1      25.582  24.004  22.587  1.00  0.00    -0.391 OA
ATOM     46  H   UNL     1      25.244  24.730  23.186  1.00  0.00     0.211 HD
ENDBRANCH   3  45
BRANCH   5  47
ATOM     47  C   UNL     1      24.967  27.359  21.287  1.00  0.00     0.176 C 
BRANCH  47  48
ATOM     48  O   UNL     1      26.167  27.269  20.555  1.00  0.00    -0.388 OA
ATOM     49  H   UNL     1      26.492  28.151  20.285  1.00  0.00     0.211 HD
ENDBRANCH  47  48
BRANCH  47  50
ATOM     50  C   UNL     1      24.313  28.689  21.134  1.00  0.00     0.165 C 
BRANCH  50  51
ATOM     51  O   UNL     1      23.509  28.874  22.283  1.00  0.00    -0.388 OA
ATOM     52  H   UNL     1      24.031  28.799  23.105  1.00  0.00     0.211 HD
ENDBRANCH  50  51
BRANCH  50  53
ATOM     53  C   UNL     1      23.423  28.871  19.961  1.00  0.00     0.154 C 
BRANCH  53  54
ATOM     54  N   UNL     1      22.013  28.913  20.244  1.00  0.00    -0.319 N 
ATOM     55  C   UNL     1      21.061  28.092  19.582  1.00  0.00     0.407 C 
ATOM     56  H   UNL     1      21.665  29.568  20.966  1.00  0.00     0.167 HD
ATOM     57  O   UNL     1      21.436  27.278  18.702  1.00  0.00    -0.225 OA
BRANCH  55  58
ATOM     58  O   UNL     1      19.725  28.154  19.870  1.00  0.00    -0.443 OA
BRANCH  58  59
ATOM     59  C   UNL     1      18.742  28.871  19.163  1.00  0.00     0.294 C 
BRANCH  59  60
ATOM     60  C   UNL     1      17.449  28.733  19.867  1.00  0.00     0.120 A 
ATOM     61  C   UNL     1      16.805  29.786  20.449  1.00  0.00     0.138 A 
ATOM     62  N   UNL     1      16.699  27.645  20.074  1.00  0.00    -0.132 NA
ATOM     63  N   UNL     1      15.661  29.327  21.008  1.00  0.00    -0.249 N 
ATOM     64  N   UNL     1      15.624  28.019  20.764  1.00  0.00    -0.067 NA
BRANCH  63  65
ATOM     65  C   UNL     1      14.686  30.119  21.730  1.00  0.00     0.109 C 
ATOM     66  C   UNL     1      13.480  29.206  21.932  1.00  0.00     0.027 C 
ATOM     67  C   UNL     1      14.251  31.306  20.900  1.00  0.00     0.027 C 
ATOM     68  C   UNL     1      12.435  29.943  22.771  1.00  0.00     0.002 C 
ATOM     69  C   UNL     1      12.745  31.403  20.768  1.00  0.00     0.002 C 
ATOM     70  C   UNL     1      12.088  31.235  22.105  1.00  0.00     0.000 C 
ENDBRANCH  63  65
ENDBRANCH  59  60
ENDBRANCH  58  59
ENDBRANCH  55  58
ENDBRANCH  53  54
ENDBRANCH  50  53
ENDBRANCH  47  50
ENDBRANCH   5  47
BRANCH   4  71
ATOM     71  N   UNL     1      24.680  24.510  19.175  1.00  0.00    -0.348 N 
ATOM     72  C   UNL     1      25.595  24.740  18.134  1.00  0.00     0.217 C 
ATOM     73  H   UNL     1      23.825  23.933  18.890  1.00  0.00     0.163 HD
ATOM     74  C   UNL     1      25.375  24.198  16.749  1.00  0.00     0.114 C 
ATOM     75  O   UNL     1      26.621  25.398  18.310  1.00  0.00    -0.275 OA
ENDBRANCH   4  71
TORSDOF 30
