REMARK VINA RESULT:    -5.695     13.150     18.779
REMARK INTER + INTRA:         -20.785
REMARK INTER:                 -13.761
REMARK INTRA:                  -7.024
REMARK UNBOUND:                -6.268
REMARK SMILES CC(=O)N[C@@H]1[C@@H](O)C[C@](OC[C@H]2O[C@@H](O[C@H]3[C@H](O)[C@@H](O)[C@H](OCCN=[N+]=[N-])O[C@@H]3CO)[C@H](O)[C@@H](O)[C@H]2O)(C(=O)O)O[C@H]1C(O)[C@H](O)CNC(=O)OCc1cn(C(C)(C)CO)nn1
REMARK SMILES IDX 9 1 8 2 6 3 5 4 42 5 41 6 10 7 11 8 12 9 14 10 13 11 32 12
REMARK SMILES IDX 34 13 36 14 15 15 16 16 29 17 28 18 21 19 17 20 19 21 30 22
REMARK SMILES IDX 31 23 22 25 23 26 24 27 25 28 26 29 27 30 18 31 20 33 33 35
REMARK SMILES IDX 35 37 37 39 38 41 39 42 40 43 7 45 43 47 44 48 45 50 46 51
REMARK SMILES IDX 47 53 48 54 49 55 50 57 51 58 52 59 53 60 54 61 62 62 55 63
REMARK SMILES IDX 61 64 56 65 57 66 58 67 59 68 60 69 4 71 2 72 1 74 3 75
REMARK H PARENT 31 24 18 32 20 34 33 36 35 38 37 40 40 44 7 46 44 49 46 52
REMARK H PARENT 48 56 60 70 4 73
REMARK Flexibility Score: inf
ROOT
ATOM      1  C   UNL     1       2.683  21.730  30.767  1.00  0.00     0.272 C 
ATOM      2  C   UNL     1       1.554  21.824  31.758  1.00  0.00     0.113 C 
ATOM      3  C   UNL     1       1.819  23.017  32.645  1.00  0.00     0.145 C 
ATOM      4  C   UNL     1       3.017  22.601  33.529  1.00  0.00     0.142 C 
ATOM      5  C   UNL     1       4.107  22.166  32.597  1.00  0.00     0.178 C 
ATOM      6  O   UNL     1       3.828  22.452  31.275  1.00  0.00    -0.332 OA
ENDROOT
BRANCH   1   7
ATOM      7  O   UNL     1       2.444  22.362  29.590  1.00  0.00    -0.338 OA
BRANCH   7   8
ATOM      8  C   UNL     1       1.303  22.292  28.925  1.00  0.00     0.199 C 
BRANCH   8   9
ATOM      9  C   UNL     1       0.703  23.383  28.137  1.00  0.00     0.179 C 
ATOM     10  C   UNL     1       0.987  25.634  27.721  1.00  0.00     0.282 C 
ATOM     11  O   UNL     1       1.611  24.495  28.157  1.00  0.00    -0.341 OA
ATOM     12  C   UNL     1      -0.241  25.447  26.903  1.00  0.00     0.202 C 
ATOM     13  C   UNL     1      -0.234  24.196  26.052  1.00  0.00     0.179 C 
ATOM     14  C   UNL     1       0.594  23.101  26.643  1.00  0.00     0.177 C 
BRANCH  10  15
ATOM     15  O   UNL     1       1.951  26.437  27.105  1.00  0.00    -0.341 OA
BRANCH  15  16
ATOM     16  C   UNL     1       3.243  26.020  27.322  1.00  0.00     0.184 C 
ATOM     17  C   UNL     1       4.076  27.009  28.106  1.00  0.00     0.178 C 
ATOM     18  O   UNL     1       5.328  27.225  27.568  1.00  0.00    -0.341 OA
ATOM     19  C   UNL     1       5.356  27.751  26.305  1.00  0.00     0.281 C 
ATOM     20  C   UNL     1       3.878  25.877  25.926  1.00  0.00     0.180 C 
ATOM     21  C   UNL     1       4.156  27.307  25.500  1.00  0.00     0.202 C 
BRANCH  17  22
ATOM     22  C   UNL     1       4.295  26.375  29.474  1.00  0.00     0.191 C 
BRANCH  22  23
ATOM     23  O   UNL     1       3.873  25.045  29.445  1.00  0.00    -0.394 OA
ATOM     24  H   UNL     1       3.952  24.628  28.567  1.00  0.00     0.210 HD
ENDBRANCH  22  23
ENDBRANCH  17  22
BRANCH  19  25
ATOM     25  O   UNL     1       6.554  27.376  25.723  1.00  0.00    -0.350 OA
BRANCH  25  26
ATOM     26  C   UNL     1       6.879  28.017  24.569  1.00  0.00     0.169 C 
BRANCH  26  27
ATOM     27  C   UNL     1       8.246  28.683  24.591  1.00  0.00     0.119 C 
BRANCH  27  28
ATOM     28  N   UNL     1       8.122  30.128  24.582  1.00  0.00    -0.092 NA
ATOM     29  N   UNL     1       9.109  30.781  24.213  1.00  0.00     0.001 N 
ATOM     30  N   UNL     1       9.878  31.497  23.535  1.00  0.00    -0.003 NA
ENDBRANCH  27  28
ENDBRANCH  26  27
ENDBRANCH  25  26
ENDBRANCH  19  25
BRANCH  20  31
ATOM     31  O   UNL     1       5.056  25.151  26.131  1.00  0.00    -0.387 OA
ATOM     32  H   UNL     1       5.370  24.894  25.224  1.00  0.00     0.211 HD
ENDBRANCH  20  31
BRANCH  21  33
ATOM     33  O   UNL     1       3.065  28.083  25.925  1.00  0.00    -0.385 OA
ATOM     34  H   UNL     1       2.835  27.858  26.876  1.00  0.00     0.211 HD
ENDBRANCH  21  33
ENDBRANCH  15  16
ENDBRANCH  10  15
BRANCH  12  35
ATOM     35  O   UNL     1      -1.435  25.569  27.615  1.00  0.00    -0.385 OA
ATOM     36  H   UNL     1      -1.685  24.668  27.902  1.00  0.00     0.211 HD
ENDBRANCH  12  35
BRANCH  13  37
ATOM     37  O   UNL     1       0.171  24.484  24.737  1.00  0.00    -0.387 OA
ATOM     38  H   UNL     1      -0.545  24.964  24.243  1.00  0.00     0.211 HD
ENDBRANCH  13  37
BRANCH  14  39
ATOM     39  O   UNL     1       1.896  23.248  26.111  1.00  0.00    -0.387 OA
ATOM     40  H   UNL     1       2.558  23.184  26.831  1.00  0.00     0.211 HD
ENDBRANCH  14  39
ENDBRANCH   8   9
ENDBRANCH   7   8
ENDBRANCH   1   7
BRANCH   1  41
ATOM     41  C   UNL     1       3.203  20.371  30.624  1.00  0.00     0.364 C 
ATOM     42  O   UNL     1       2.519  19.371  30.855  1.00  0.00    -0.246 OA
BRANCH  41  43
ATOM     43  O   UNL     1       4.523  20.111  30.213  1.00  0.00    -0.477 OA
ATOM     44  H   UNL     1       4.921  20.740  29.525  1.00  0.00     0.296 HD
ENDBRANCH  41  43
ENDBRANCH   1  41
BRANCH   3  45
ATOM     45  O   UNL     1       2.318  24.038  31.833  1.00  0.00    -0.391 OA
ATOM     46  H   UNL     1       2.346  23.767  30.894  1.00  0.00     0.211 HD
ENDBRANCH   3  45
BRANCH   5  47
ATOM     47  C   UNL     1       5.315  23.066  32.918  1.00  0.00     0.176 C 
BRANCH  47  48
ATOM     48  O   UNL     1       5.270  24.187  32.053  1.00  0.00    -0.388 OA
ATOM     49  H   UNL     1       4.550  24.120  31.405  1.00  0.00     0.211 HD
ENDBRANCH  47  48
BRANCH  47  50
ATOM     50  C   UNL     1       6.631  22.389  32.575  1.00  0.00     0.165 C 
BRANCH  50  51
ATOM     51  O   UNL     1       6.523  21.047  32.418  1.00  0.00    -0.388 OA
ATOM     52  H   UNL     1       5.788  20.732  31.842  1.00  0.00     0.211 HD
ENDBRANCH  50  51
BRANCH  50  53
ATOM     53  C   UNL     1       7.676  22.734  33.618  1.00  0.00     0.154 C 
BRANCH  53  54
ATOM     54  N   UNL     1       7.918  24.115  33.823  1.00  0.00    -0.319 N 
ATOM     55  C   UNL     1       9.122  24.648  34.293  1.00  0.00     0.407 C 
ATOM     56  H   UNL     1       7.133  24.822  33.609  1.00  0.00     0.167 HD
ATOM     57  O   UNL     1      10.103  23.937  34.565  1.00  0.00    -0.225 OA
BRANCH  55  58
ATOM     58  O   UNL     1       9.285  26.041  34.486  1.00  0.00    -0.443 OA
BRANCH  58  59
ATOM     59  C   UNL     1       8.312  26.807  35.159  1.00  0.00     0.294 C 
BRANCH  59  60
ATOM     60  C   UNL     1       7.216  27.272  34.285  1.00  0.00     0.120 A 
ATOM     61  C   UNL     1       7.028  28.543  33.780  1.00  0.00     0.139 A 
ATOM     62  N   UNL     1       6.192  26.544  33.812  1.00  0.00    -0.132 NA
ATOM     63  N   UNL     1       5.905  28.554  33.020  1.00  0.00    -0.244 N 
ATOM     64  N   UNL     1       5.417  27.326  33.057  1.00  0.00    -0.066 NA
BRANCH  63  65
ATOM     65  C   UNL     1       5.378  29.698  32.319  1.00  0.00     0.082 C 
ATOM     66  C   UNL     1       5.458  29.468  30.839  1.00  0.00     0.039 C 
ATOM     67  C   UNL     1       6.229  30.940  32.623  1.00  0.00     0.039 C 
BRANCH  65  68
ATOM     68  C   UNL     1       3.963  30.037  32.690  1.00  0.00     0.186 C 
BRANCH  68  69
ATOM     69  O   UNL     1       3.043  29.109  32.260  1.00  0.00    -0.394 OA
ATOM     70  H   UNL     1       2.246  29.474  31.844  1.00  0.00     0.210 HD
ENDBRANCH  68  69
ENDBRANCH  65  68
ENDBRANCH  63  65
ENDBRANCH  59  60
ENDBRANCH  58  59
ENDBRANCH  55  58
ENDBRANCH  53  54
ENDBRANCH  50  53
ENDBRANCH  47  50
ENDBRANCH   5  47
BRANCH   4  71
ATOM     71  N   UNL     1       2.514  21.590  34.404  1.00  0.00    -0.348 N 
ATOM     72  C   UNL     1       2.790  21.465  35.786  1.00  0.00     0.217 C 
ATOM     73  H   UNL     1       1.870  20.837  34.019  1.00  0.00     0.163 HD
ATOM     74  C   UNL     1       2.219  20.372  36.617  1.00  0.00     0.114 C 
ATOM     75  O   UNL     1       3.535  22.295  36.334  1.00  0.00    -0.275 OA
ENDBRANCH   4  71
TORSDOF 32
