REMARK VINA RESULT:    -5.474      2.043      3.348
REMARK INTER + INTRA:         -21.765
REMARK INTER:                 -12.491
REMARK INTRA:                  -9.274
REMARK UNBOUND:                -7.010
REMARK SMILES CC(=O)N[C@@H]1[C@@H](O)C[C@](OC[C@H]2O[C@@H](O[C@H]3[C@H](O)[C@@H](O)[C@H](OCCN=[N+]=[N-])O[C@@H]3CO)[C@H](O)[C@@H](O)[C@H]2O)(C(=O)O)O[C@H]1C(O)[C@H](O)CNC(=O)OCc1cn([C@@H](CC(=O)O)C(=O)O)nn1
REMARK SMILES IDX 43 1 42 2 9 3 8 4 41 5 6 6 5 7 10 8 11 9 12 10 14 11 13 12
REMARK SMILES IDX 32 13 34 14 36 15 15 16 16 17 29 18 28 19 21 20 17 21 19 22
REMARK SMILES IDX 30 23 31 24 22 26 23 27 24 28 25 29 26 30 27 31 18 32 20 34
REMARK SMILES IDX 33 36 35 38 37 40 38 42 39 43 40 44 7 46 4 48 2 49 1 51 3 52
REMARK SMILES IDX 44 53 45 55 46 56 47 58 48 59 49 60 50 62 51 63 52 64 53 65
REMARK SMILES IDX 54 66 65 67 55 68 64 69 56 70 57 71 58 72 59 73 60 74 61 76
REMARK SMILES IDX 62 77 63 78
REMARK H PARENT 31 25 18 33 20 35 33 37 35 39 37 41 40 45 7 47 4 50 44 54
REMARK H PARENT 46 57 48 61 60 75 63 79
REMARK Flexibility Score: inf
ROOT
ATOM      1  C   UNL     1      15.115  30.906  20.889  1.00  0.00     0.176 C 
ENDROOT
BRANCH   1   2
ATOM      2  C   UNL     1      15.631  31.328  22.254  1.00  0.00     0.178 C 
ATOM      3  C   UNL     1      17.648  31.636  23.422  1.00  0.00     0.272 C 
ATOM      4  C   UNL     1      16.598  31.551  24.538  1.00  0.00     0.113 C 
ATOM      5  O   UNL     1      16.986  31.206  22.250  1.00  0.00    -0.332 OA
ATOM      6  C   UNL     1      15.928  30.196  24.360  1.00  0.00     0.145 C 
ATOM      7  C   UNL     1      14.890  30.462  23.258  1.00  0.00     0.142 C 
BRANCH   3   8
ATOM      8  O   UNL     1      18.654  30.936  23.681  1.00  0.00    -0.338 OA
BRANCH   8   9
ATOM      9  C   UNL     1      19.649  30.233  23.932  1.00  0.00     0.199 C 
BRANCH   9  10
ATOM     10  C   UNL     1      20.625  30.736  24.995  1.00  0.00     0.179 C 
ATOM     11  C   UNL     1      22.509  29.480  24.586  1.00  0.00     0.282 C 
ATOM     12  O   UNL     1      21.514  29.825  25.454  1.00  0.00    -0.341 OA
ATOM     13  C   UNL     1      23.275  30.645  24.093  1.00  0.00     0.202 C 
ATOM     14  C   UNL     1      22.800  31.849  24.921  1.00  0.00     0.179 C 
ATOM     15  C   UNL     1      21.331  32.003  24.572  1.00  0.00     0.177 C 
BRANCH  11  16
ATOM     16  O   UNL     1      22.188  28.508  23.651  1.00  0.00    -0.341 OA
BRANCH  16  17
ATOM     17  C   UNL     1      22.290  27.223  24.131  1.00  0.00     0.184 C 
ATOM     18  C   UNL     1      23.034  26.333  23.202  1.00  0.00     0.178 C 
ATOM     19  O   UNL     1      23.177  25.055  23.729  1.00  0.00    -0.341 OA
ATOM     20  C   UNL     1      22.060  24.606  24.441  1.00  0.00     0.281 C 
ATOM     21  C   UNL     1      20.857  26.717  24.284  1.00  0.00     0.180 C 
ATOM     22  C   UNL     1      20.799  25.274  23.899  1.00  0.00     0.202 C 
BRANCH  18  23
ATOM     23  C   UNL     1      24.453  26.885  23.076  1.00  0.00     0.191 C 
BRANCH  23  24
ATOM     24  O   UNL     1      24.467  27.852  22.050  1.00  0.00    -0.394 OA
ATOM     25  H   UNL     1      25.441  28.018  21.876  1.00  0.00     0.210 HD
ENDBRANCH  23  24
ENDBRANCH  18  23
BRANCH  20  26
ATOM     26  O   UNL     1      22.214  25.011  25.754  1.00  0.00    -0.350 OA
BRANCH  26  27
ATOM     27  C   UNL     1      23.200  24.408  26.471  1.00  0.00     0.169 C 
BRANCH  27  28
ATOM     28  C   UNL     1      22.782  24.212  27.897  1.00  0.00     0.119 C 
BRANCH  28  29
ATOM     29  N   UNL     1      22.909  25.496  28.588  1.00  0.00    -0.092 NA
ATOM     30  N   UNL     1      21.861  26.039  28.995  1.00  0.00     0.001 N 
ATOM     31  N   UNL     1      21.048  26.970  29.142  1.00  0.00    -0.003 NA
ENDBRANCH  28  29
ENDBRANCH  27  28
ENDBRANCH  26  27
ENDBRANCH  20  26
BRANCH  21  32
ATOM     32  O   UNL     1      20.442  26.871  25.601  1.00  0.00    -0.387 OA
ATOM     33  H   UNL     1      20.944  27.619  26.036  1.00  0.00     0.211 HD
ENDBRANCH  21  32
BRANCH  22  34
ATOM     34  O   UNL     1      20.678  25.056  22.526  1.00  0.00    -0.385 OA
ATOM     35  H   UNL     1      20.456  25.964  22.146  1.00  0.00     0.211 HD
ENDBRANCH  22  34
ENDBRANCH  16  17
ENDBRANCH  11  16
BRANCH  13  36
ATOM     36  O   UNL     1      24.649  30.555  24.326  1.00  0.00    -0.385 OA
ATOM     37  H   UNL     1      24.835  29.626  24.649  1.00  0.00     0.211 HD
ENDBRANCH  13  36
BRANCH  14  38
ATOM     38  O   UNL     1      23.512  32.993  24.659  1.00  0.00    -0.387 OA
ATOM     39  H   UNL     1      22.933  33.807  24.664  1.00  0.00     0.211 HD
ENDBRANCH  14  38
BRANCH  15  40
ATOM     40  O   UNL     1      21.208  32.249  23.223  1.00  0.00    -0.387 OA
ATOM     41  H   UNL     1      20.365  32.657  22.963  1.00  0.00     0.211 HD
ENDBRANCH  15  40
ENDBRANCH   9  10
ENDBRANCH   8   9
ENDBRANCH   3   8
BRANCH   3  42
ATOM     42  C   UNL     1      17.891  33.135  23.272  1.00  0.00     0.364 C 
ATOM     43  O   UNL     1      17.287  33.934  24.002  1.00  0.00    -0.246 OA
BRANCH  42  44
ATOM     44  O   UNL     1      18.777  33.625  22.332  1.00  0.00    -0.477 OA
ATOM     45  H   UNL     1      19.772  33.784  22.542  1.00  0.00     0.296 HD
ENDBRANCH  42  44
ENDBRANCH   3  42
BRANCH   6  46
ATOM     46  O   UNL     1      16.825  29.297  23.743  1.00  0.00    -0.391 OA
ATOM     47  H   UNL     1      17.278  29.685  22.976  1.00  0.00     0.211 HD
ENDBRANCH   6  46
BRANCH   7  48
ATOM     48  N   UNL     1      13.790  31.142  23.902  1.00  0.00    -0.348 N 
ATOM     49  C   UNL     1      12.443  30.824  23.547  1.00  0.00     0.217 C 
ATOM     50  H   UNL     1      13.926  31.877  24.633  1.00  0.00     0.163 HD
ATOM     51  C   UNL     1      11.345  31.569  24.251  1.00  0.00     0.114 C 
ATOM     52  O   UNL     1      12.172  29.954  22.678  1.00  0.00    -0.275 OA
ENDBRANCH   7  48
ENDBRANCH   1   2
BRANCH   1  53
ATOM     53  O   UNL     1      13.890  31.495  20.599  1.00  0.00    -0.388 OA
ATOM     54  H   UNL     1      13.620  31.342  19.650  1.00  0.00     0.211 HD
ENDBRANCH   1  53
BRANCH   1  55
ATOM     55  C   UNL     1      15.072  29.446  20.638  1.00  0.00     0.165 C 
BRANCH  55  56
ATOM     56  O   UNL     1      16.270  28.776  20.734  1.00  0.00    -0.388 OA
ATOM     57  H   UNL     1      16.780  28.721  19.882  1.00  0.00     0.211 HD
ENDBRANCH  55  56
BRANCH  55  58
ATOM     58  C   UNL     1      14.286  29.124  19.413  1.00  0.00     0.154 C 
BRANCH  58  59
ATOM     59  N   UNL     1      15.038  28.889  18.221  1.00  0.00    -0.319 N 
ATOM     60  C   UNL     1      15.339  29.972  17.361  1.00  0.00     0.407 C 
ATOM     61  H   UNL     1      15.371  27.947  17.972  1.00  0.00     0.167 HD
ATOM     62  O   UNL     1      14.930  31.136  17.700  1.00  0.00    -0.225 OA
BRANCH  60  63
ATOM     63  O   UNL     1      16.036  29.896  16.168  1.00  0.00    -0.443 OA
BRANCH  63  64
ATOM     64  C   UNL     1      16.954  28.812  15.951  1.00  0.00     0.294 C 
BRANCH  64  65
ATOM     65  C   UNL     1      17.843  28.701  17.131  1.00  0.00     0.120 A 
ATOM     66  C   UNL     1      18.954  29.437  17.477  1.00  0.00     0.139 A 
ATOM     67  N   UNL     1      17.714  27.774  18.138  1.00  0.00    -0.132 NA
ATOM     68  N   UNL     1      19.458  28.951  18.649  1.00  0.00    -0.237 N 
ATOM     69  N   UNL     1      18.681  27.966  18.994  1.00  0.00    -0.066 NA
BRANCH  68  70
ATOM     70  C   UNL     1      20.629  29.435  19.344  1.00  0.00     0.229 C 
BRANCH  70  71
ATOM     71  C   UNL     1      20.211  30.609  20.212  1.00  0.00     0.161 C 
BRANCH  71  72
ATOM     72  C   UNL     1      20.798  31.874  19.732  1.00  0.00     0.306 C 
ATOM     73  O   UNL     1      20.781  32.910  20.445  1.00  0.00    -0.252 OA
BRANCH  72  74
ATOM     74  O   UNL     1      21.378  31.946  18.485  1.00  0.00    -0.481 OA
ATOM     75  H   UNL     1      21.515  31.077  17.955  1.00  0.00     0.296 HD
ENDBRANCH  72  74
ENDBRANCH  71  72
ENDBRANCH  70  71
BRANCH  70  76
ATOM     76  C   UNL     1      21.161  28.357  20.196  1.00  0.00     0.329 C 
ATOM     77  O   UNL     1      22.346  27.985  20.034  1.00  0.00    -0.250 OA
BRANCH  76  78
ATOM     78  O   UNL     1      20.410  27.728  21.180  1.00  0.00    -0.480 OA
ATOM     79  H   UNL     1      20.902  27.233  21.919  1.00  0.00     0.296 HD
ENDBRANCH  76  78
ENDBRANCH  70  76
ENDBRANCH  68  70
ENDBRANCH  64  65
ENDBRANCH  63  64
ENDBRANCH  60  63
ENDBRANCH  58  59
ENDBRANCH  55  58
ENDBRANCH   1  55
TORSDOF 35
