REMARK VINA RESULT:    -6.080     10.285     18.462
REMARK INTER + INTRA:         -23.203
REMARK INTER:                 -17.117
REMARK INTRA:                  -6.085
REMARK UNBOUND:                -6.283
REMARK SMILES CC(=O)N[C@@H]1[C@@H](O)C[C@](OC[C@H]2O[C@@H](O[C@H]3[C@H](O)[C@@H](O)[C@H](OCCN=[N+]=[N-])O[C@@H]3CO)[C@H](O)[C@@H](O)[C@H]2O)(C(=O)O)O[C@H]1C(O)[C@H](O)CNC(=O)OCc1cn(C[C@H](CC(=O)O)CC(C)C)nn1
REMARK SMILES IDX 43 1 42 2 9 3 8 4 41 5 6 6 5 7 10 8 11 9 12 10 14 11 13 12
REMARK SMILES IDX 32 13 34 14 36 15 15 16 16 17 29 18 28 19 21 20 17 21 19 22
REMARK SMILES IDX 30 23 31 24 22 26 23 27 24 28 25 29 26 30 27 31 18 32 20 34
REMARK SMILES IDX 33 36 35 38 37 40 38 42 39 43 40 44 7 46 4 48 2 49 1 51 3 52
REMARK SMILES IDX 44 53 45 55 46 56 47 58 48 59 49 60 50 62 51 63 52 64 53 65
REMARK SMILES IDX 54 66 67 67 55 68 66 69 56 70 57 71 58 72 59 73 60 74 61 75
REMARK SMILES IDX 62 77 63 78 64 79 65 80
REMARK H PARENT 31 25 18 33 20 35 33 37 35 39 37 41 40 45 7 47 4 50 44 54
REMARK H PARENT 46 57 48 61 61 76
REMARK Flexibility Score: inf
ROOT
ATOM      1  C   UNL     1       8.929  30.974  14.092  1.00  0.00     0.176 C 
ENDROOT
BRANCH   1   2
ATOM      2  C   UNL     1       9.609  29.691  13.702  1.00  0.00     0.178 C 
ATOM      3  C   UNL     1      12.016  29.606  13.618  1.00  0.00     0.272 C 
ATOM      4  C   UNL     1      11.994  29.794  12.144  1.00  0.00     0.113 C 
ATOM      5  O   UNL     1      10.859  29.760  14.228  1.00  0.00    -0.332 OA
ATOM      6  C   UNL     1      10.714  30.181  11.521  1.00  0.00     0.145 C 
ATOM      7  C   UNL     1       9.506  29.554  12.222  1.00  0.00     0.142 C 
BRANCH   3   8
ATOM      8  O   UNL     1      12.955  30.507  14.191  1.00  0.00    -0.338 OA
BRANCH   8   9
ATOM      9  C   UNL     1      13.750  31.149  13.294  1.00  0.00     0.199 C 
BRANCH   9  10
ATOM     10  C   UNL     1      15.206  31.192  13.809  1.00  0.00     0.179 C 
ATOM     11  C   UNL     1      16.469  30.871  15.730  1.00  0.00     0.282 C 
ATOM     12  O   UNL     1      15.312  30.559  15.031  1.00  0.00    -0.341 OA
ATOM     13  C   UNL     1      17.577  31.055  14.681  1.00  0.00     0.202 C 
ATOM     14  C   UNL     1      17.368  30.095  13.527  1.00  0.00     0.179 C 
ATOM     15  C   UNL     1      16.091  30.414  12.825  1.00  0.00     0.177 C 
BRANCH  11  16
ATOM     16  O   UNL     1      16.851  29.775  16.463  1.00  0.00    -0.341 OA
BRANCH  16  17
ATOM     17  C   UNL     1      16.012  29.395  17.477  1.00  0.00     0.184 C 
ATOM     18  C   UNL     1      15.384  30.530  18.230  1.00  0.00     0.178 C 
ATOM     19  O   UNL     1      15.742  30.632  19.542  1.00  0.00    -0.341 OA
ATOM     20  C   UNL     1      15.526  29.502  20.307  1.00  0.00     0.281 C 
ATOM     21  C   UNL     1      16.834  28.591  18.463  1.00  0.00     0.180 C 
ATOM     22  C   UNL     1      15.922  28.229  19.644  1.00  0.00     0.202 C 
BRANCH  18  23
ATOM     23  C   UNL     1      13.882  30.446  18.025  1.00  0.00     0.191 C 
BRANCH  23  24
ATOM     24  O   UNL     1      13.556  29.518  17.039  1.00  0.00    -0.394 OA
ATOM     25  H   UNL     1      14.320  29.336  16.426  1.00  0.00     0.210 HD
ENDBRANCH  23  24
ENDBRANCH  18  23
BRANCH  20  26
ATOM     26  O   UNL     1      14.212  29.536  20.749  1.00  0.00    -0.350 OA
BRANCH  26  27
ATOM     27  C   UNL     1      14.056  30.215  21.946  1.00  0.00     0.169 C 
BRANCH  27  28
ATOM     28  C   UNL     1      14.867  29.461  22.991  1.00  0.00     0.119 C 
BRANCH  28  29
ATOM     29  N   UNL     1      14.262  29.787  24.274  1.00  0.00    -0.092 NA
ATOM     30  N   UNL     1      13.087  29.551  24.437  1.00  0.00     0.001 N 
ATOM     31  N   UNL     1      11.909  29.563  24.818  1.00  0.00    -0.003 NA
ENDBRANCH  28  29
ENDBRANCH  27  28
ENDBRANCH  26  27
ENDBRANCH  20  26
BRANCH  21  32
ATOM     32  O   UNL     1      17.350  27.464  17.851  1.00  0.00    -0.387 OA
ATOM     33  H   UNL     1      18.281  27.699  17.546  1.00  0.00     0.211 HD
ENDBRANCH  21  32
BRANCH  22  34
ATOM     34  O   UNL     1      16.716  27.406  20.470  1.00  0.00    -0.385 OA
ATOM     35  H   UNL     1      17.155  26.750  19.888  1.00  0.00     0.211 HD
ENDBRANCH  22  34
ENDBRANCH  16  17
ENDBRANCH  11  16
BRANCH  13  36
ATOM     36  O   UNL     1      17.740  32.362  14.299  1.00  0.00    -0.385 OA
ATOM     37  H   UNL     1      18.448  32.514  13.649  1.00  0.00     0.211 HD
ENDBRANCH  13  36
BRANCH  14  38
ATOM     38  O   UNL     1      17.258  28.819  14.115  1.00  0.00    -0.387 OA
ATOM     39  H   UNL     1      16.564  28.782  14.792  1.00  0.00     0.211 HD
ENDBRANCH  14  38
BRANCH  15  40
ATOM     40  O   UNL     1      15.471  29.189  12.501  1.00  0.00    -0.387 OA
ATOM     41  H   UNL     1      16.121  28.470  12.455  1.00  0.00     0.211 HD
ENDBRANCH  15  40
ENDBRANCH   9  10
ENDBRANCH   8   9
ENDBRANCH   3   8
BRANCH   3  42
ATOM     42  C   UNL     1      12.628  28.256  13.945  1.00  0.00     0.364 C 
ATOM     43  O   UNL     1      12.079  27.213  13.570  1.00  0.00    -0.246 OA
BRANCH  42  44
ATOM     44  O   UNL     1      13.790  28.178  14.656  1.00  0.00    -0.477 OA
ATOM     45  H   UNL     1      13.855  27.737  15.572  1.00  0.00     0.296 HD
ENDBRANCH  42  44
ENDBRANCH   3  42
BRANCH   6  46
ATOM     46  O   UNL     1      10.488  31.528  11.340  1.00  0.00    -0.391 OA
ATOM     47  H   UNL     1       9.599  31.724  11.728  1.00  0.00     0.211 HD
ENDBRANCH   6  46
BRANCH   7  48
ATOM     48  N   UNL     1       9.424  28.211  11.714  1.00  0.00    -0.348 N 
ATOM     49  C   UNL     1       8.115  27.677  11.411  1.00  0.00     0.217 C 
ATOM     50  H   UNL     1      10.228  27.569  11.544  1.00  0.00     0.163 HD
ATOM     51  C   UNL     1       8.032  26.274  10.875  1.00  0.00     0.114 C 
ATOM     52  O   UNL     1       7.063  28.341  11.582  1.00  0.00    -0.275 OA
ENDBRANCH   7  48
ENDBRANCH   1   2
BRANCH   1  53
ATOM     53  O   UNL     1       9.311  31.292  15.430  1.00  0.00    -0.388 OA
ATOM     54  H   UNL     1       9.805  32.153  15.429  1.00  0.00     0.211 HD
ENDBRANCH   1  53
BRANCH   1  55
ATOM     55  C   UNL     1       7.418  30.963  14.151  1.00  0.00     0.165 C 
BRANCH  55  56
ATOM     56  O   UNL     1       7.099  31.923  13.095  1.00  0.00    -0.388 OA
ATOM     57  H   UNL     1       8.023  32.233  12.827  1.00  0.00     0.211 HD
ENDBRANCH  55  56
BRANCH  55  58
ATOM     58  C   UNL     1       6.879  31.634  15.367  1.00  0.00     0.154 C 
BRANCH  58  59
ATOM     59  N   UNL     1       6.483  30.711  16.370  1.00  0.00    -0.319 N 
ATOM     60  C   UNL     1       6.966  30.974  17.706  1.00  0.00     0.407 C 
ATOM     61  H   UNL     1       5.895  29.864  16.272  1.00  0.00     0.167 HD
ATOM     62  O   UNL     1       7.693  31.985  17.920  1.00  0.00    -0.225 OA
BRANCH  60  63
ATOM     63  O   UNL     1       6.683  30.170  18.788  1.00  0.00    -0.443 OA
BRANCH  63  64
ATOM     64  C   UNL     1       5.393  29.898  19.296  1.00  0.00     0.294 C 
BRANCH  64  65
ATOM     65  C   UNL     1       5.299  30.076  20.773  1.00  0.00     0.120 A 
ATOM     66  C   UNL     1       5.929  29.364  21.767  1.00  0.00     0.138 A 
ATOM     67  N   UNL     1       4.550  31.003  21.378  1.00  0.00    -0.132 NA
ATOM     68  N   UNL     1       5.544  29.882  22.973  1.00  0.00    -0.252 N 
ATOM     69  N   UNL     1       4.719  30.860  22.680  1.00  0.00    -0.067 NA
BRANCH  68  70
ATOM     70  C   UNL     1       5.930  29.438  24.262  1.00  0.00     0.150 C 
BRANCH  70  71
ATOM     71  C   UNL     1       7.342  29.057  24.412  1.00  0.00     0.022 C 
BRANCH  71  72
ATOM     72  C   UNL     1       7.648  27.930  25.327  1.00  0.00     0.128 C 
BRANCH  72  73
ATOM     73  C   UNL     1       8.637  26.946  24.869  1.00  0.00     0.303 C 
ATOM     74  O   UNL     1       8.241  25.877  24.336  1.00  0.00    -0.252 OA
BRANCH  73  75
ATOM     75  O   UNL     1      10.010  27.123  24.989  1.00  0.00    -0.481 OA
ATOM     76  H   UNL     1      10.398  28.051  25.076  1.00  0.00     0.296 HD
ENDBRANCH  73  75
ENDBRANCH  72  73
ENDBRANCH  71  72
BRANCH  71  77
ATOM     77  C   UNL     1       8.293  30.210  24.561  1.00  0.00     0.009 C 
BRANCH  77  78
ATOM     78  C   UNL     1       7.840  31.565  24.256  1.00  0.00    -0.017 C 
ATOM     79  C   UNL     1       7.993  32.626  25.285  1.00  0.00     0.007 C 
ATOM     80  C   UNL     1       8.346  32.115  22.936  1.00  0.00     0.007 C 
ENDBRANCH  77  78
ENDBRANCH  71  77
ENDBRANCH  70  71
ENDBRANCH  68  70
ENDBRANCH  64  65
ENDBRANCH  63  64
ENDBRANCH  60  63
ENDBRANCH  58  59
ENDBRANCH  55  58
ENDBRANCH   1  55
TORSDOF 36
