REMARK VINA RESULT:    -8.278      3.681     11.231
REMARK INTER + INTRA:         -20.205
REMARK INTER:                 -14.749
REMARK INTRA:                  -5.456
REMARK UNBOUND:                 3.076
REMARK SMILES CC(=O)N[C@@H]1[C@@H](O)C[C@](OC[C@H]2O[C@@H](O[C@H]3[C@H](O)[C@@H](O)[C@H](OCCN=[N+]=[N-])O[C@@H]3CO)[C@H](O)[C@@H](O)[C@H]2O)(C(=O)O)O[C@H]1C(O)[C@H](O)CNC(=O)OCc1cn(C2CC(O)C=C[C@@H](O)C2)nn1
REMARK SMILES IDX 43 1 42 2 9 3 8 4 41 5 6 6 5 7 10 8 11 9 12 10 14 11 13 12
REMARK SMILES IDX 32 13 34 14 36 15 15 16 16 17 29 18 28 19 21 20 17 21 19 22
REMARK SMILES IDX 30 23 31 24 22 26 23 27 24 28 25 29 26 30 27 31 18 32 20 34
REMARK SMILES IDX 33 36 35 38 37 40 38 42 39 43 40 44 7 46 4 48 2 49 1 51 3 52
REMARK SMILES IDX 44 53 45 55 46 56 47 58 48 59 49 60 50 62 51 63 52 64 53 65
REMARK SMILES IDX 54 66 66 67 55 68 65 69 56 70 57 71 58 72 59 74 64 76 62 77
REMARK SMILES IDX 61 78 60 79 63 81
REMARK H PARENT 31 25 18 33 20 35 33 37 35 39 37 41 40 45 7 47 4 50 44 54
REMARK H PARENT 46 57 48 61 59 75 63 82
REMARK Flexibility Score: 90.00
ROOT
ATOM      1  C   UNL     1      20.863  28.635  20.750  1.00  0.00     0.176 C 
ENDROOT
BRANCH   1   2
ATOM      2  C   UNL     1      22.214  28.825  21.417  1.00  0.00     0.178 C 
ATOM      3  C   UNL     1      24.149  27.526  21.743  1.00  0.00     0.272 C 
ATOM      4  C   UNL     1      24.611  28.413  22.840  1.00  0.00     0.113 C 
ATOM      5  O   UNL     1      22.859  27.556  21.366  1.00  0.00    -0.332 OA
ATOM      6  C   UNL     1      23.733  29.580  23.112  1.00  0.00     0.145 C 
ATOM      7  C   UNL     1      22.243  29.213  22.831  1.00  0.00     0.142 C 
BRANCH   3   8
ATOM      8  O   UNL     1      24.573  26.214  22.038  1.00  0.00    -0.338 OA
BRANCH   8   9
ATOM      9  C   UNL     1      25.300  26.091  23.186  1.00  0.00     0.199 C 
BRANCH   9  10
ATOM     10  C   UNL     1      24.512  25.328  24.252  1.00  0.00     0.179 C 
ATOM     11  C   UNL     1      22.629  25.870  25.474  1.00  0.00     0.282 C 
ATOM     12  O   UNL     1      23.909  26.241  25.059  1.00  0.00    -0.341 OA
ATOM     13  C   UNL     1      21.806  25.862  24.199  1.00  0.00     0.202 C 
ATOM     14  C   UNL     1      22.230  24.628  23.437  1.00  0.00     0.179 C 
ATOM     15  C   UNL     1      23.661  24.257  23.665  1.00  0.00     0.177 C 
BRANCH  11  16
ATOM     16  O   UNL     1      22.187  26.767  26.417  1.00  0.00    -0.341 OA
BRANCH  16  17
ATOM     17  C   UNL     1      22.061  26.126  27.652  1.00  0.00     0.184 C 
ATOM     18  C   UNL     1      21.879  27.142  28.751  1.00  0.00     0.178 C 
ATOM     19  O   UNL     1      23.023  27.808  29.111  1.00  0.00    -0.341 OA
ATOM     20  C   UNL     1      24.179  27.324  28.503  1.00  0.00     0.281 C 
ATOM     21  C   UNL     1      23.189  25.170  27.930  1.00  0.00     0.180 C 
ATOM     22  C   UNL     1      24.288  25.820  28.727  1.00  0.00     0.202 C 
BRANCH  18  23
ATOM     23  C   UNL     1      21.242  26.503  29.977  1.00  0.00     0.191 C 
BRANCH  23  24
ATOM     24  O   UNL     1      19.946  26.939  30.180  1.00  0.00    -0.394 OA
ATOM     25  H   UNL     1      19.288  26.229  30.118  1.00  0.00     0.210 HD
ENDBRANCH  23  24
ENDBRANCH  18  23
BRANCH  20  26
ATOM     26  O   UNL     1      25.241  27.979  29.119  1.00  0.00    -0.350 OA
BRANCH  26  27
ATOM     27  C   UNL     1      25.085  27.877  30.497  1.00  0.00     0.169 C 
BRANCH  27  28
ATOM     28  C   UNL     1      26.409  27.589  31.183  1.00  0.00     0.119 C 
BRANCH  28  29
ATOM     29  N   UNL     1      27.446  27.320  30.209  1.00  0.00    -0.092 NA
ATOM     30  N   UNL     1      27.890  26.164  30.109  1.00  0.00     0.001 N 
ATOM     31  N   UNL     1      28.316  25.003  30.180  1.00  0.00    -0.003 NA
ENDBRANCH  28  29
ENDBRANCH  27  28
ENDBRANCH  26  27
ENDBRANCH  20  26
BRANCH  21  32
ATOM     32  O   UNL     1      22.716  24.046  28.607  1.00  0.00    -0.387 OA
ATOM     33  H   UNL     1      22.979  23.207  28.158  1.00  0.00     0.211 HD
ENDBRANCH  21  32
BRANCH  22  34
ATOM     34  O   UNL     1      25.538  25.378  28.309  1.00  0.00    -0.385 OA
ATOM     35  H   UNL     1      26.251  25.997  28.614  1.00  0.00     0.211 HD
ENDBRANCH  22  34
ENDBRANCH  16  17
ENDBRANCH  11  16
BRANCH  13  36
ATOM     36  O   UNL     1      20.451  25.857  24.401  1.00  0.00    -0.385 OA
ATOM     37  H   UNL     1      20.096  25.059  24.823  1.00  0.00     0.211 HD
ENDBRANCH  13  36
BRANCH  14  38
ATOM     38  O   UNL     1      21.939  24.867  22.094  1.00  0.00    -0.387 OA
ATOM     39  H   UNL     1      21.550  24.055  21.664  1.00  0.00     0.211 HD
ENDBRANCH  14  38
BRANCH  15  40
ATOM     40  O   UNL     1      24.259  23.878  22.446  1.00  0.00    -0.387 OA
ATOM     41  H   UNL     1      25.226  23.865  22.477  1.00  0.00     0.211 HD
ENDBRANCH  15  40
ENDBRANCH   9  10
ENDBRANCH   8   9
ENDBRANCH   3   8
BRANCH   3  42
ATOM     42  C   UNL     1      24.954  27.926  20.525  1.00  0.00     0.364 C 
ATOM     43  O   UNL     1      25.733  28.915  20.526  1.00  0.00    -0.246 OA
BRANCH  42  44
ATOM     44  O   UNL     1      24.809  27.157  19.381  1.00  0.00    -0.477 OA
ATOM     45  H   UNL     1      25.397  27.315  18.563  1.00  0.00     0.296 HD
ENDBRANCH  42  44
ENDBRANCH   3  42
BRANCH   6  46
ATOM     46  O   UNL     1      23.871  30.034  24.401  1.00  0.00    -0.391 OA
ATOM     47  H   UNL     1      24.800  29.927  24.700  1.00  0.00     0.211 HD
ENDBRANCH   6  46
BRANCH   7  48
ATOM     48  N   UNL     1      21.421  30.245  23.333  1.00  0.00    -0.348 N 
ATOM     49  C   UNL     1      20.221  29.932  24.020  1.00  0.00     0.217 C 
ATOM     50  H   UNL     1      21.691  31.241  23.239  1.00  0.00     0.163 HD
ATOM     51  C   UNL     1      19.340  31.003  24.558  1.00  0.00     0.114 C 
ATOM     52  O   UNL     1      19.892  28.733  24.179  1.00  0.00    -0.275 OA
ENDBRANCH   7  48
ENDBRANCH   1   2
BRANCH   1  53
ATOM     53  O   UNL     1      20.488  27.325  21.286  1.00  0.00    -0.388 OA
ATOM     54  H   UNL     1      21.093  26.646  20.852  1.00  0.00     0.211 HD
ENDBRANCH   1  53
BRANCH   1  55
ATOM     55  C   UNL     1      20.937  28.339  19.280  1.00  0.00     0.165 C 
BRANCH  55  56
ATOM     56  O   UNL     1      22.230  28.323  18.816  1.00  0.00    -0.388 OA
ATOM     57  H   UNL     1      22.777  27.590  19.177  1.00  0.00     0.211 HD
ENDBRANCH  55  56
BRANCH  55  58
ATOM     58  C   UNL     1      20.202  29.406  18.476  1.00  0.00     0.154 C 
BRANCH  58  59
ATOM     59  N   UNL     1      18.804  29.487  18.753  1.00  0.00    -0.319 N 
ATOM     60  C   UNL     1      17.827  28.751  18.028  1.00  0.00     0.407 C 
ATOM     61  H   UNL     1      18.459  30.123  19.533  1.00  0.00     0.167 HD
ATOM     62  O   UNL     1      18.248  28.002  17.101  1.00  0.00    -0.225 OA
BRANCH  60  63
ATOM     63  O   UNL     1      16.492  28.868  18.343  1.00  0.00    -0.443 OA
BRANCH  63  64
ATOM     64  C   UNL     1      15.895  28.003  19.305  1.00  0.00     0.294 C 
BRANCH  64  65
ATOM     65  C   UNL     1      15.951  28.681  20.620  1.00  0.00     0.120 A 
ATOM     66  C   UNL     1      14.916  28.987  21.464  1.00  0.00     0.138 A 
ATOM     67  N   UNL     1      17.069  29.128  21.217  1.00  0.00    -0.132 NA
ATOM     68  N   UNL     1      15.443  29.613  22.546  1.00  0.00    -0.249 N 
ATOM     69  N   UNL     1      16.745  29.682  22.365  1.00  0.00    -0.067 NA
BRANCH  68  70
ATOM     70  C   UNL     1      14.701  30.127  23.707  1.00  0.00     0.115 C 
BRANCH  70  71
ATOM     71  C   UNL     1      15.665  30.791  24.631  1.00  0.00     0.063 C 
BRANCH  71  72
ATOM     72  C   UNL     1      15.099  30.748  26.054  1.00  0.00     0.139 CG0
ATOM     73  G   UNL     1      14.010  31.731  26.167  1.00  0.00     0.000 G0
BRANCH  72  74
ATOM     74  O   UNL     1      16.112  31.004  26.975  1.00  0.00    -0.389 OA
ATOM     75  H   UNL     1      16.069  31.973  27.215  1.00  0.00     0.211 HD
ENDBRANCH  72  74
ENDBRANCH  71  72
ENDBRANCH  70  71
BRANCH  70  76
ATOM     76  C   UNL     1      13.662  31.087  23.218  1.00  0.00     0.063 C 
BRANCH  76  77
ATOM     77  C   UNL     1      12.522  31.056  24.242  1.00  0.00     0.139 C 
BRANCH  77  78
ATOM     78  C   UNL     1      12.889  31.884  25.422  1.00  0.00     0.002 C 
ATOM     79  C   UNL     1      13.972  31.740  26.172  1.00  0.00     0.002 CG0
ATOM     80  G   UNL     1      15.071  30.767  26.060  1.00  0.00     0.000 G0
ENDBRANCH  77  78
BRANCH  77  81
ATOM     81  O   UNL     1      11.322  31.468  23.685  1.00  0.00    -0.389 OA
ATOM     82  H   UNL     1      10.695  31.663  24.437  1.00  0.00     0.211 HD
ENDBRANCH  77  81
ENDBRANCH  76  77
ENDBRANCH  70  76
ENDBRANCH  68  70
ENDBRANCH  64  65
ENDBRANCH  63  64
ENDBRANCH  60  63
ENDBRANCH  58  59
ENDBRANCH  55  58
ENDBRANCH   1  55
TORSDOF 32
