REMARK VINA RESULT:    -5.411      2.715      9.357
REMARK INTER + INTRA:         -21.593
REMARK INTER:                 -15.339
REMARK INTRA:                  -6.254
REMARK UNBOUND:                -7.010
REMARK SMILES CC(=O)N[C@@H]1[C@@H](O)C[C@](OC[C@H]2O[C@@H](O[C@H]3[C@H](O)[C@@H](O)[C@H](OCCN=[N+]=[N-])O[C@@H]3CO)[C@H](O)[C@@H](O)[C@H]2O)(C(=O)O)O[C@H]1C(O)[C@H](O)CNC(=O)OCc1cn([C@@H](CC(=O)O)C(=O)O)nn1
REMARK SMILES IDX 43 1 42 2 9 3 8 4 41 5 6 6 5 7 10 8 11 9 12 10 14 11 13 12
REMARK SMILES IDX 32 13 34 14 36 15 15 16 16 17 29 18 28 19 21 20 17 21 19 22
REMARK SMILES IDX 30 23 31 24 22 26 23 27 24 28 25 29 26 30 27 31 18 32 20 34
REMARK SMILES IDX 33 36 35 38 37 40 38 42 39 43 40 44 7 46 4 48 2 49 1 51 3 52
REMARK SMILES IDX 44 53 45 55 46 56 47 58 48 59 49 60 50 62 51 63 52 64 53 65
REMARK SMILES IDX 54 66 65 67 55 68 64 69 56 70 57 71 58 72 59 73 60 74 61 76
REMARK SMILES IDX 62 77 63 78
REMARK H PARENT 31 25 18 33 20 35 33 37 35 39 37 41 40 45 7 47 4 50 44 54
REMARK H PARENT 46 57 48 61 60 75 63 79
REMARK Flexibility Score: inf
ROOT
ATOM      1  C   UNL     1      21.240  28.550  25.859  1.00  0.00     0.176 C 
ENDROOT
BRANCH   1   2
ATOM      2  C   UNL     1      21.210  29.659  24.822  1.00  0.00     0.178 C 
ATOM      3  C   UNL     1      19.694  30.855  23.481  1.00  0.00     0.272 C 
ATOM      4  C   UNL     1      21.050  31.122  22.813  1.00  0.00     0.113 C 
ATOM      5  O   UNL     1      19.926  29.803  24.396  1.00  0.00    -0.332 OA
ATOM      6  C   UNL     1      21.596  29.749  22.446  1.00  0.00     0.145 C 
ATOM      7  C   UNL     1      22.221  29.258  23.763  1.00  0.00     0.142 C 
BRANCH   3   8
ATOM      8  O   UNL     1      18.814  30.565  22.639  1.00  0.00    -0.338 OA
BRANCH   8   9
ATOM      9  C   UNL     1      17.932  30.279  21.808  1.00  0.00     0.199 C 
BRANCH   9  10
ATOM     10  C   UNL     1      16.523  30.819  22.055  1.00  0.00     0.179 C 
ATOM     11  C   UNL     1      15.225  29.466  20.721  1.00  0.00     0.282 C 
ATOM     12  O   UNL     1      15.668  30.724  21.011  1.00  0.00    -0.341 OA
ATOM     13  C   UNL     1      14.595  28.795  21.879  1.00  0.00     0.202 C 
ATOM     14  C   UNL     1      14.470  29.865  22.975  1.00  0.00     0.179 C 
ATOM     15  C   UNL     1      15.900  30.247  23.307  1.00  0.00     0.177 C 
BRANCH  11  16
ATOM     16  O   UNL     1      16.067  28.691  19.938  1.00  0.00    -0.341 OA
BRANCH  16  17
ATOM     17  C   UNL     1      16.068  29.046  18.609  1.00  0.00     0.184 C 
ATOM     18  C   UNL     1      17.273  29.835  18.239  1.00  0.00     0.178 C 
ATOM     19  O   UNL     1      17.286  30.135  16.883  1.00  0.00    -0.341 OA
ATOM     20  C   UNL     1      16.025  30.426  16.353  1.00  0.00     0.281 C 
ATOM     21  C   UNL     1      14.818  29.897  18.400  1.00  0.00     0.180 C 
ATOM     22  C   UNL     1      15.127  31.003  17.443  1.00  0.00     0.202 C 
BRANCH  18  23
ATOM     23  C   UNL     1      18.493  28.946  18.474  1.00  0.00     0.191 C 
BRANCH  23  24
ATOM     24  O   UNL     1      18.181  27.637  18.051  1.00  0.00    -0.394 OA
ATOM     25  H   UNL     1      19.070  27.224  17.838  1.00  0.00     0.210 HD
ENDBRANCH  23  24
ENDBRANCH  18  23
BRANCH  20  26
ATOM     26  O   UNL     1      15.463  29.233  15.939  1.00  0.00    -0.350 OA
BRANCH  26  27
ATOM     27  C   UNL     1      15.729  28.837  14.665  1.00  0.00     0.169 C 
BRANCH  27  28
ATOM     28  C   UNL     1      14.585  29.161  13.753  1.00  0.00     0.119 C 
BRANCH  28  29
ATOM     29  N   UNL     1      13.483  28.249  14.065  1.00  0.00    -0.092 NA
ATOM     30  N   UNL     1      12.471  28.732  14.612  1.00  0.00     0.001 N 
ATOM     31  N   UNL     1      11.568  28.805  15.466  1.00  0.00    -0.003 NA
ENDBRANCH  28  29
ENDBRANCH  27  28
ENDBRANCH  26  27
ENDBRANCH  20  26
BRANCH  21  32
ATOM     32  O   UNL     1      13.792  29.109  17.892  1.00  0.00    -0.387 OA
ATOM     33  H   UNL     1      12.909  29.429  18.235  1.00  0.00     0.211 HD
ENDBRANCH  21  32
BRANCH  22  34
ATOM     34  O   UNL     1      15.725  32.116  18.036  1.00  0.00    -0.385 OA
ATOM     35  H   UNL     1      16.190  32.588  17.275  1.00  0.00     0.211 HD
ENDBRANCH  22  34
ENDBRANCH  16  17
ENDBRANCH  11  16
BRANCH  13  36
ATOM     36  O   UNL     1      13.290  28.360  21.636  1.00  0.00    -0.385 OA
ATOM     37  H   UNL     1      13.334  27.376  21.459  1.00  0.00     0.211 HD
ENDBRANCH  13  36
BRANCH  14  38
ATOM     38  O   UNL     1      13.789  29.421  24.081  1.00  0.00    -0.387 OA
ATOM     39  H   UNL     1      14.336  29.487  24.913  1.00  0.00     0.211 HD
ENDBRANCH  14  38
BRANCH  15  40
ATOM     40  O   UNL     1      16.572  29.138  23.770  1.00  0.00    -0.387 OA
ATOM     41  H   UNL     1      16.044  28.322  23.783  1.00  0.00     0.211 HD
ENDBRANCH  15  40
ENDBRANCH   9  10
ENDBRANCH   8   9
ENDBRANCH   3   8
BRANCH   3  42
ATOM     42  C   UNL     1      19.447  32.116  24.304  1.00  0.00     0.364 C 
ATOM     43  O   UNL     1      18.686  32.995  23.875  1.00  0.00    -0.246 OA
BRANCH  42  44
ATOM     44  O   UNL     1      20.060  32.301  25.529  1.00  0.00    -0.477 OA
ATOM     45  H   UNL     1      20.682  31.595  25.946  1.00  0.00     0.296 HD
ENDBRANCH  42  44
ENDBRANCH   3  42
BRANCH   6  46
ATOM     46  O   UNL     1      20.528  28.848  22.245  1.00  0.00    -0.391 OA
ATOM     47  H   UNL     1      20.205  28.457  23.074  1.00  0.00     0.211 HD
ENDBRANCH   6  46
BRANCH   7  48
ATOM     48  N   UNL     1      23.484  29.947  23.885  1.00  0.00    -0.348 N 
ATOM     49  C   UNL     1      24.619  29.271  24.430  1.00  0.00     0.217 C 
ATOM     50  H   UNL     1      23.621  30.940  23.590  1.00  0.00     0.163 HD
ATOM     51  C   UNL     1      25.903  30.043  24.533  1.00  0.00     0.114 C 
ATOM     52  O   UNL     1      24.560  28.074  24.815  1.00  0.00    -0.275 OA
ENDBRANCH   7  48
ENDBRANCH   1   2
BRANCH   1  53
ATOM     53  O   UNL     1      20.444  27.474  25.483  1.00  0.00    -0.388 OA
ATOM     54  H   UNL     1      19.474  27.711  25.484  1.00  0.00     0.211 HD
ENDBRANCH   1  53
BRANCH   1  55
ATOM     55  C   UNL     1      20.947  28.960  27.252  1.00  0.00     0.165 C 
BRANCH  55  56
ATOM     56  O   UNL     1      20.022  29.968  27.409  1.00  0.00    -0.388 OA
ATOM     57  H   UNL     1      20.378  30.882  27.248  1.00  0.00     0.211 HD
ENDBRANCH  55  56
BRANCH  55  58
ATOM     58  C   UNL     1      22.197  29.149  28.042  1.00  0.00     0.154 C 
BRANCH  58  59
ATOM     59  N   UNL     1      23.321  28.358  27.649  1.00  0.00    -0.319 N 
ATOM     60  C   UNL     1      23.598  27.151  28.334  1.00  0.00     0.407 C 
ATOM     61  H   UNL     1      23.936  28.646  26.876  1.00  0.00     0.167 HD
ATOM     62  O   UNL     1      22.808  26.806  29.280  1.00  0.00    -0.225 OA
BRANCH  60  63
ATOM     63  O   UNL     1      24.656  26.295  28.082  1.00  0.00    -0.443 OA
BRANCH  63  64
ATOM     64  C   UNL     1      24.395  24.911  27.799  1.00  0.00     0.294 C 
BRANCH  64  65
ATOM     65  C   UNL     1      23.703  24.818  26.491  1.00  0.00     0.120 A 
ATOM     66  C   UNL     1      24.220  24.742  25.217  1.00  0.00     0.139 A 
ATOM     67  N   UNL     1      22.340  24.812  26.313  1.00  0.00    -0.132 NA
ATOM     68  N   UNL     1      23.188  24.694  24.325  1.00  0.00    -0.237 N 
ATOM     69  N   UNL     1      22.097  24.738  25.032  1.00  0.00    -0.066 NA
BRANCH  68  70
ATOM     70  C   UNL     1      23.303  24.625  22.886  1.00  0.00     0.229 C 
BRANCH  70  71
ATOM     71  C   UNL     1      22.874  25.965  22.313  1.00  0.00     0.161 C 
BRANCH  71  72
ATOM     72  C   UNL     1      21.540  25.887  21.689  1.00  0.00     0.306 C 
ATOM     73  O   UNL     1      21.294  26.476  20.606  1.00  0.00    -0.252 OA
BRANCH  72  74
ATOM     74  O   UNL     1      20.532  25.163  22.286  1.00  0.00    -0.481 OA
ATOM     75  H   UNL     1      20.753  24.607  23.121  1.00  0.00     0.296 HD
ENDBRANCH  72  74
ENDBRANCH  71  72
ENDBRANCH  70  71
BRANCH  70  76
ATOM     76  C   UNL     1      24.708  24.364  22.527  1.00  0.00     0.329 C 
ATOM     77  O   UNL     1      25.417  25.313  22.122  1.00  0.00    -0.250 OA
BRANCH  76  78
ATOM     78  O   UNL     1      25.291  23.107  22.616  1.00  0.00    -0.480 OA
ATOM     79  H   UNL     1      25.931  22.820  21.880  1.00  0.00     0.296 HD
ENDBRANCH  76  78
ENDBRANCH  70  76
ENDBRANCH  68  70
ENDBRANCH  64  65
ENDBRANCH  63  64
ENDBRANCH  60  63
ENDBRANCH  58  59
ENDBRANCH  55  58
ENDBRANCH   1  55
TORSDOF 35
