REMARK VINA RESULT:    -6.438      8.484     13.698
REMARK INTER + INTRA:         -22.609
REMARK INTER:                 -14.045
REMARK INTRA:                  -8.564
REMARK UNBOUND:                -5.634
REMARK SMILES CC(=O)N[C@@H]1[C@@H](O)C[C@](OC[C@H]2O[C@@H](O[C@H]3[C@H](O)[C@@H](O)[C@H](OCCN=[N+]=[N-])O[C@@H]3CO)[C@H](O)[C@@H](O)[C@H]2O)(C(=O)O)O[C@H]1C(O)[C@H](O)CNC(=O)OCc1cn(Cc2ccccc2OC(C)=O)nn1
REMARK SMILES IDX 43 1 42 2 9 3 8 4 41 5 6 6 5 7 10 8 11 9 12 10 14 11 13 12
REMARK SMILES IDX 32 13 34 14 36 15 15 16 16 17 29 18 28 19 21 20 17 21 19 22
REMARK SMILES IDX 30 23 31 24 22 26 23 27 24 28 25 29 26 30 27 31 18 32 20 34
REMARK SMILES IDX 33 36 35 38 37 40 38 42 39 43 40 44 7 46 4 48 2 49 1 51 3 52
REMARK SMILES IDX 44 53 45 55 46 56 47 58 48 59 49 60 50 62 51 63 52 64 53 65
REMARK SMILES IDX 54 66 68 67 55 68 67 69 56 70 57 71 62 72 58 73 61 74 59 75
REMARK SMILES IDX 60 76 63 77 64 78 66 79 65 80
REMARK H PARENT 31 25 18 33 20 35 33 37 35 39 37 41 40 45 7 47 4 50 44 54
REMARK H PARENT 46 57 48 61
REMARK Flexibility Score: inf
ROOT
ATOM      1  C   UNL     1      26.830  25.411  20.087  1.00  0.00     0.176 C 
ENDROOT
BRANCH   1   2
ATOM      2  C   UNL     1      27.814  24.529  20.840  1.00  0.00     0.178 C 
ATOM      3  C   UNL     1      29.808  23.363  20.526  1.00  0.00     0.272 C 
ATOM      4  C   UNL     1      29.292  22.734  21.815  1.00  0.00     0.113 C 
ATOM      5  O   UNL     1      28.749  24.088  19.930  1.00  0.00    -0.332 OA
ATOM      6  C   UNL     1      27.905  22.199  21.501  1.00  0.00     0.145 C 
ATOM      7  C   UNL     1      26.992  23.358  21.382  1.00  0.00     0.142 C 
BRANCH   3   8
ATOM      8  O   UNL     1      30.198  22.445  19.597  1.00  0.00    -0.338 OA
BRANCH   8   9
ATOM      9  C   UNL     1      30.398  22.853  18.316  1.00  0.00     0.199 C 
BRANCH   9  10
ATOM     10  C   UNL     1      30.066  21.669  17.392  1.00  0.00     0.179 C 
ATOM     11  C   UNL     1      29.865  19.379  17.402  1.00  0.00     0.282 C 
ATOM     12  O   UNL     1      30.049  20.544  18.223  1.00  0.00    -0.341 OA
ATOM     13  C   UNL     1      28.433  19.414  17.000  1.00  0.00     0.202 C 
ATOM     14  C   UNL     1      28.279  20.631  16.070  1.00  0.00     0.179 C 
ATOM     15  C   UNL     1      28.750  21.888  16.718  1.00  0.00     0.177 C 
BRANCH  11  16
ATOM     16  O   UNL     1      30.281  18.342  18.201  1.00  0.00    -0.341 OA
BRANCH  16  17
ATOM     17  C   UNL     1      30.938  18.816  19.352  1.00  0.00     0.184 C 
ATOM     18  C   UNL     1      32.276  18.216  19.575  1.00  0.00     0.178 C 
ATOM     19  O   UNL     1      32.484  17.816  20.899  1.00  0.00    -0.341 OA
ATOM     20  C   UNL     1      32.108  18.761  21.844  1.00  0.00     0.281 C 
ATOM     21  C   UNL     1      30.083  18.304  20.571  1.00  0.00     0.180 C 
ATOM     22  C   UNL     1      30.613  19.064  21.756  1.00  0.00     0.202 C 
BRANCH  18  23
ATOM     23  C   UNL     1      33.443  18.984  19.034  1.00  0.00     0.191 C 
BRANCH  23  24
ATOM     24  O   UNL     1      33.012  20.233  18.613  1.00  0.00    -0.394 OA
ATOM     25  H   UNL     1      32.719  20.770  19.378  1.00  0.00     0.210 HD
ENDBRANCH  23  24
ENDBRANCH  18  23
BRANCH  20  26
ATOM     26  O   UNL     1      32.773  19.924  21.676  1.00  0.00    -0.350 OA
BRANCH  26  27
ATOM     27  C   UNL     1      33.757  20.297  22.515  1.00  0.00     0.169 C 
BRANCH  27  28
ATOM     28  C   UNL     1      33.580  21.530  23.326  1.00  0.00     0.119 C 
BRANCH  28  29
ATOM     29  N   UNL     1      32.976  21.240  24.582  1.00  0.00    -0.092 NA
ATOM     30  N   UNL     1      31.779  21.279  24.764  1.00  0.00     0.001 N 
ATOM     31  N   UNL     1      30.558  21.094  24.758  1.00  0.00    -0.003 NA
ENDBRANCH  28  29
ENDBRANCH  27  28
ENDBRANCH  26  27
ENDBRANCH  20  26
BRANCH  21  32
ATOM     32  O   UNL     1      28.751  18.516  20.315  1.00  0.00    -0.387 OA
ATOM     33  H   UNL     1      28.631  19.388  19.819  1.00  0.00     0.211 HD
ENDBRANCH  21  32
BRANCH  22  34
ATOM     34  O   UNL     1      29.933  18.776  22.918  1.00  0.00    -0.385 OA
ATOM     35  H   UNL     1      29.121  19.360  22.936  1.00  0.00     0.211 HD
ENDBRANCH  22  34
ENDBRANCH  16  17
ENDBRANCH  11  16
BRANCH  13  36
ATOM     36  O   UNL     1      28.041  18.329  16.233  1.00  0.00    -0.385 OA
ATOM     37  H   UNL     1      27.196  18.452  15.754  1.00  0.00     0.211 HD
ENDBRANCH  13  36
BRANCH  14  38
ATOM     38  O   UNL     1      26.959  20.726  15.625  1.00  0.00    -0.387 OA
ATOM     39  H   UNL     1      26.466  19.968  16.054  1.00  0.00     0.211 HD
ENDBRANCH  14  38
BRANCH  15  40
ATOM     40  O   UNL     1      27.760  22.324  17.595  1.00  0.00    -0.387 OA
ATOM     41  H   UNL     1      27.683  21.777  18.399  1.00  0.00     0.211 HD
ENDBRANCH  15  40
ENDBRANCH   9  10
ENDBRANCH   8   9
ENDBRANCH   3   8
BRANCH   3  42
ATOM     42  C   UNL     1      30.865  24.314  20.933  1.00  0.00     0.364 C 
ATOM     43  O   UNL     1      31.656  24.074  21.842  1.00  0.00    -0.246 OA
BRANCH  42  44
ATOM     44  O   UNL     1      30.963  25.532  20.254  1.00  0.00    -0.477 OA
ATOM     45  H   UNL     1      31.071  25.569  19.230  1.00  0.00     0.296 HD
ENDBRANCH  42  44
ENDBRANCH   3  42
BRANCH   6  46
ATOM     46  O   UNL     1      28.009  21.595  20.244  1.00  0.00    -0.391 OA
ATOM     47  H   UNL     1      27.513  22.069  19.535  1.00  0.00     0.211 HD
ENDBRANCH   6  46
BRANCH   7  48
ATOM     48  N   UNL     1      26.268  23.746  22.521  1.00  0.00    -0.348 N 
ATOM     49  C   UNL     1      24.855  23.908  22.554  1.00  0.00     0.217 C 
ATOM     50  H   UNL     1      26.814  23.929  23.411  1.00  0.00     0.163 HD
ATOM     51  C   UNL     1      24.131  24.317  23.769  1.00  0.00     0.114 C 
ATOM     52  O   UNL     1      24.246  23.686  21.499  1.00  0.00    -0.275 OA
ENDBRANCH   7  48
ENDBRANCH   1   2
BRANCH   1  53
ATOM     53  O   UNL     1      27.262  26.714  20.253  1.00  0.00    -0.388 OA
ATOM     54  H   UNL     1      28.009  26.823  20.880  1.00  0.00     0.211 HD
ENDBRANCH   1  53
BRANCH   1  55
ATOM     55  C   UNL     1      26.607  24.994  18.672  1.00  0.00     0.165 C 
BRANCH  55  56
ATOM     56  O   UNL     1      27.683  25.465  17.914  1.00  0.00    -0.388 OA
ATOM     57  H   UNL     1      28.451  25.685  18.463  1.00  0.00     0.211 HD
ENDBRANCH  55  56
BRANCH  55  58
ATOM     58  C   UNL     1      25.293  25.482  18.111  1.00  0.00     0.154 C 
BRANCH  58  59
ATOM     59  N   UNL     1      24.257  25.640  19.077  1.00  0.00    -0.319 N 
ATOM     60  C   UNL     1      22.903  25.270  18.867  1.00  0.00     0.407 C 
ATOM     61  H   UNL     1      24.491  26.058  20.018  1.00  0.00     0.167 HD
ATOM     62  O   UNL     1      22.598  24.775  17.754  1.00  0.00    -0.225 OA
BRANCH  60  63
ATOM     63  O   UNL     1      21.914  25.428  19.807  1.00  0.00    -0.443 OA
BRANCH  63  64
ATOM     64  C   UNL     1      21.801  26.598  20.617  1.00  0.00     0.294 C 
BRANCH  64  65
ATOM     65  C   UNL     1      21.430  26.263  21.999  1.00  0.00     0.120 A 
ATOM     66  C   UNL     1      21.697  27.067  23.082  1.00  0.00     0.138 A 
ATOM     67  N   UNL     1      20.794  25.191  22.486  1.00  0.00    -0.132 NA
ATOM     68  N   UNL     1      21.228  26.477  24.183  1.00  0.00    -0.248 N 
ATOM     69  N   UNL     1      20.675  25.318  23.778  1.00  0.00    -0.067 NA
BRANCH  68  70
ATOM     70  C   UNL     1      21.268  26.910  25.567  1.00  0.00     0.185 C 
BRANCH  70  71
ATOM     71  C   UNL     1      22.486  26.455  26.245  1.00  0.00     0.016 A 
ATOM     72  C   UNL     1      23.625  27.183  26.245  1.00  0.00     0.135 A 
ATOM     73  C   UNL     1      22.416  25.229  26.913  1.00  0.00     0.009 A 
ATOM     74  C   UNL     1      24.740  26.691  26.926  1.00  0.00     0.047 A 
ATOM     75  C   UNL     1      23.518  24.755  27.578  1.00  0.00     0.001 A 
ATOM     76  C   UNL     1      24.687  25.481  27.591  1.00  0.00     0.004 A 
BRANCH  72  77
ATOM     77  O   UNL     1      23.743  28.396  25.599  1.00  0.00    -0.426 OA
BRANCH  77  78
ATOM     78  C   UNL     1      23.720  29.558  26.379  1.00  0.00     0.308 C 
ATOM     79  O   UNL     1      24.798  29.998  26.834  1.00  0.00    -0.252 OA
ATOM     80  C   UNL     1      22.446  30.232  26.647  1.00  0.00     0.139 C 
ENDBRANCH  77  78
ENDBRANCH  72  77
ENDBRANCH  70  71
ENDBRANCH  68  70
ENDBRANCH  64  65
ENDBRANCH  63  64
ENDBRANCH  60  63
ENDBRANCH  58  59
ENDBRANCH  55  58
ENDBRANCH   1  55
TORSDOF 33
