REMARK VINA RESULT:    -5.399      7.487     12.796
REMARK INTER + INTRA:         -20.710
REMARK INTER:                 -13.290
REMARK INTRA:                  -7.419
REMARK UNBOUND:                -7.419
REMARK SMILES CC(=O)N[C@@H]1[C@@H](O)C[C@](OC[C@H]2O[C@@H](O[C@H]3[C@H](O)[C@@H](O)[C@H](OCCN=[N+]=[N-])O[C@@H]3CO)[C@H](O)[C@@H](O)[C@H]2O)(C(=O)O)O[C@H]1C(O)[C@H](O)CNC(=O)OCc1cn(-c2ccc(C)cc2)nn1
REMARK SMILES IDX 9 1 8 2 6 3 5 4 42 5 41 6 10 7 11 8 12 9 14 10 13 11 32 12
REMARK SMILES IDX 34 13 36 14 15 15 16 16 29 17 28 18 21 19 17 20 19 21 30 22
REMARK SMILES IDX 31 23 22 25 23 26 24 27 25 28 26 29 27 30 18 31 20 33 33 35
REMARK SMILES IDX 35 37 37 39 38 41 39 42 40 43 7 45 43 47 44 48 45 50 46 51
REMARK SMILES IDX 47 53 48 54 49 55 50 57 51 58 52 59 53 60 54 61 64 62 55 63
REMARK SMILES IDX 63 64 56 65 57 66 62 67 58 68 61 69 59 70 60 71 4 72 2 73
REMARK SMILES IDX 1 75 3 76
REMARK H PARENT 31 24 18 32 20 34 33 36 35 38 37 40 40 44 7 46 44 49 46 52
REMARK H PARENT 48 56 4 74
REMARK Flexibility Score: inf
ROOT
ATOM      1  C   UNL     1      20.111  29.220  24.067  1.00  0.00     0.272 C 
ATOM      2  C   UNL     1      20.781  30.587  24.146  1.00  0.00     0.113 C 
ATOM      3  C   UNL     1      22.225  30.515  23.820  1.00  0.00     0.145 C 
ATOM      4  C   UNL     1      22.607  29.480  22.823  1.00  0.00     0.142 C 
ATOM      5  C   UNL     1      21.456  28.739  22.152  1.00  0.00     0.178 C 
ATOM      6  O   UNL     1      20.439  28.507  23.015  1.00  0.00    -0.332 OA
ENDROOT
BRANCH   1   7
ATOM      7  O   UNL     1      18.721  29.534  23.955  1.00  0.00    -0.338 OA
BRANCH   7   8
ATOM      8  C   UNL     1      18.607  30.887  23.628  1.00  0.00     0.199 C 
BRANCH   8   9
ATOM      9  C   UNL     1      17.450  31.163  22.745  1.00  0.00     0.179 C 
ATOM     10  C   UNL     1      16.518  30.723  20.697  1.00  0.00     0.282 C 
ATOM     11  O   UNL     1      17.460  30.314  21.636  1.00  0.00    -0.341 OA
ATOM     12  C   UNL     1      15.147  30.475  21.202  1.00  0.00     0.202 C 
ATOM     13  C   UNL     1      15.169  30.201  22.680  1.00  0.00     0.179 C 
ATOM     14  C   UNL     1      16.119  31.101  23.443  1.00  0.00     0.177 C 
BRANCH  10  15
ATOM     15  O   UNL     1      16.713  30.015  19.513  1.00  0.00    -0.341 OA
BRANCH  15  16
ATOM     16  C   UNL     1      16.839  30.873  18.420  1.00  0.00     0.184 C 
ATOM     17  C   UNL     1      15.595  31.005  17.587  1.00  0.00     0.178 C 
ATOM     18  O   UNL     1      15.825  30.527  16.292  1.00  0.00    -0.341 OA
ATOM     19  C   UNL     1      16.085  29.169  16.349  1.00  0.00     0.281 C 
ATOM     20  C   UNL     1      17.918  30.268  17.548  1.00  0.00     0.180 C 
ATOM     21  C   UNL     1      17.371  28.902  17.106  1.00  0.00     0.202 C 
BRANCH  17  22
ATOM     22  C   UNL     1      15.246  32.489  17.387  1.00  0.00     0.191 C 
BRANCH  22  23
ATOM     23  O   UNL     1      16.304  33.162  16.781  1.00  0.00    -0.394 OA
ATOM     24  H   UNL     1      17.127  32.612  16.949  1.00  0.00     0.210 HD
ENDBRANCH  22  23
ENDBRANCH  17  22
BRANCH  19  25
ATOM     25  O   UNL     1      16.143  28.583  15.094  1.00  0.00    -0.350 OA
BRANCH  25  26
ATOM     26  C   UNL     1      16.132  29.486  14.061  1.00  0.00     0.169 C 
BRANCH  26  27
ATOM     27  C   UNL     1      17.010  29.135  12.893  1.00  0.00     0.119 C 
BRANCH  27  28
ATOM     28  N   UNL     1      18.292  29.792  12.966  1.00  0.00    -0.092 NA
ATOM     29  N   UNL     1      19.101  29.464  13.817  1.00  0.00     0.001 N 
ATOM     30  N   UNL     1      19.963  29.082  14.611  1.00  0.00    -0.003 NA
ENDBRANCH  27  28
ENDBRANCH  26  27
ENDBRANCH  25  26
ENDBRANCH  19  25
BRANCH  20  31
ATOM     31  O   UNL     1      18.211  31.041  16.435  1.00  0.00    -0.387 OA
ATOM     32  H   UNL     1      18.479  31.934  16.764  1.00  0.00     0.211 HD
ENDBRANCH  20  31
BRANCH  21  33
ATOM     33  O   UNL     1      17.011  28.256  18.306  1.00  0.00    -0.385 OA
ATOM     34  H   UNL     1      17.339  27.329  18.348  1.00  0.00     0.211 HD
ENDBRANCH  21  33
ENDBRANCH  15  16
ENDBRANCH  10  15
BRANCH  12  35
ATOM     35  O   UNL     1      14.274  31.539  20.909  1.00  0.00    -0.385 OA
ATOM     36  H   UNL     1      13.423  31.085  20.603  1.00  0.00     0.211 HD
ENDBRANCH  12  35
BRANCH  13  37
ATOM     37  O   UNL     1      15.372  28.860  22.891  1.00  0.00    -0.387 OA
ATOM     38  H   UNL     1      16.180  28.485  22.415  1.00  0.00     0.211 HD
ENDBRANCH  13  37
BRANCH  14  39
ATOM     39  O   UNL     1      16.319  30.574  24.705  1.00  0.00    -0.387 OA
ATOM     40  H   UNL     1      16.911  31.098  25.282  1.00  0.00     0.211 HD
ENDBRANCH  14  39
ENDBRANCH   8   9
ENDBRANCH   7   8
ENDBRANCH   1   7
BRANCH   1  41
ATOM     41  C   UNL     1      20.378  28.583  25.372  1.00  0.00     0.364 C 
ATOM     42  O   UNL     1      20.462  27.344  25.534  1.00  0.00    -0.246 OA
BRANCH  41  43
ATOM     43  O   UNL     1      20.552  29.428  26.484  1.00  0.00    -0.477 OA
ATOM     44  H   UNL     1      21.468  29.851  26.635  1.00  0.00     0.296 HD
ENDBRANCH  41  43
ENDBRANCH   1  41
BRANCH   3  45
ATOM     45  O   UNL     1      22.726  31.796  23.495  1.00  0.00    -0.391 OA
ATOM     46  H   UNL     1      23.598  31.616  23.016  1.00  0.00     0.211 HD
ENDBRANCH   3  45
BRANCH   5  47
ATOM     47  C   UNL     1      21.040  29.506  20.914  1.00  0.00     0.176 C 
BRANCH  47  48
ATOM     48  O   UNL     1      22.066  30.228  20.323  1.00  0.00    -0.388 OA
ATOM     49  H   UNL     1      21.622  30.919  19.763  1.00  0.00     0.211 HD
ENDBRANCH  47  48
BRANCH  47  50
ATOM     50  C   UNL     1      20.136  28.902  19.948  1.00  0.00     0.165 C 
BRANCH  50  51
ATOM     51  O   UNL     1      19.019  28.223  20.481  1.00  0.00    -0.388 OA
ATOM     52  H   UNL     1      18.385  28.875  20.879  1.00  0.00     0.211 HD
ENDBRANCH  50  51
BRANCH  50  53
ATOM     53  C   UNL     1      20.633  28.095  18.800  1.00  0.00     0.154 C 
BRANCH  53  54
ATOM     54  N   UNL     1      21.929  27.502  19.000  1.00  0.00    -0.319 N 
ATOM     55  C   UNL     1      22.897  27.474  17.953  1.00  0.00     0.407 C 
ATOM     56  H   UNL     1      22.178  27.078  19.923  1.00  0.00     0.167 HD
ATOM     57  O   UNL     1      22.610  27.995  16.848  1.00  0.00    -0.225 OA
BRANCH  55  58
ATOM     58  O   UNL     1      24.121  26.878  18.167  1.00  0.00    -0.443 OA
BRANCH  58  59
ATOM     59  C   UNL     1      24.297  25.512  18.327  1.00  0.00     0.294 C 
BRANCH  59  60
ATOM     60  C   UNL     1      23.591  25.011  19.507  1.00  0.00     0.121 A 
ATOM     61  C   UNL     1      23.959  25.224  20.849  1.00  0.00     0.144 A 
ATOM     62  N   UNL     1      22.494  24.270  19.575  1.00  0.00    -0.131 NA
ATOM     63  N   UNL     1      23.072  24.607  21.629  1.00  0.00    -0.220 N 
ATOM     64  N   UNL     1      22.192  24.034  20.837  1.00  0.00    -0.062 NA
BRANCH  63  65
ATOM     65  C   UNL     1      23.131  24.604  23.067  1.00  0.00     0.066 A 
ATOM     66  C   UNL     1      21.967  24.605  23.803  1.00  0.00     0.029 A 
ATOM     67  C   UNL     1      24.328  24.583  23.751  1.00  0.00     0.029 A 
ATOM     68  C   UNL     1      22.012  24.586  25.200  1.00  0.00     0.005 A 
ATOM     69  C   UNL     1      24.375  24.564  25.149  1.00  0.00     0.005 A 
ATOM     70  C   UNL     1      23.209  24.565  25.880  1.00  0.00    -0.051 A 
ATOM     71  C   UNL     1      23.258  24.533  27.377  1.00  0.00     0.044 C 
ENDBRANCH  63  65
ENDBRANCH  59  60
ENDBRANCH  58  59
ENDBRANCH  55  58
ENDBRANCH  53  54
ENDBRANCH  50  53
ENDBRANCH  47  50
ENDBRANCH   5  47
BRANCH   4  72
ATOM     72  N   UNL     1      23.634  28.580  23.313  1.00  0.00    -0.348 N 
ATOM     73  C   UNL     1      25.026  28.897  23.327  1.00  0.00     0.217 C 
ATOM     74  H   UNL     1      23.387  27.639  23.678  1.00  0.00     0.163 HD
ATOM     75  C   UNL     1      26.045  27.927  23.834  1.00  0.00     0.114 C 
ATOM     76  O   UNL     1      25.322  30.036  22.886  1.00  0.00    -0.275 OA
ENDBRANCH   4  72
TORSDOF 30
