REMARK VINA RESULT:    -5.857     17.760     24.157
REMARK INTER + INTRA:         -20.616
REMARK INTER:                 -14.206
REMARK INTRA:                  -6.409
REMARK UNBOUND:                -5.342
REMARK SMILES CC(=O)N[C@@H]1[C@@H](O)C[C@](OC[C@H]2O[C@@H](O[C@H]3[C@H](O)[C@@H](O)[C@H](OCCN=[N+]=[N-])O[C@@H]3CO)[C@H](O)[C@@H](O)[C@H]2O)(C(=O)O)O[C@H]1C(O)[C@H](O)CNC(=O)OCc1cn(CCC(=O)O)nn1
REMARK SMILES IDX 43 1 42 2 9 3 8 4 41 5 6 6 5 7 10 8 11 9 12 10 14 11 13 12
REMARK SMILES IDX 32 13 34 14 36 15 15 16 16 17 29 18 28 19 21 20 17 21 19 22
REMARK SMILES IDX 30 23 31 24 22 26 23 27 24 28 25 29 26 30 27 31 18 32 20 34
REMARK SMILES IDX 33 36 35 38 37 40 38 42 39 43 40 44 7 46 4 48 2 49 1 51 3 52
REMARK SMILES IDX 44 53 45 55 46 56 47 58 48 59 49 60 50 62 51 63 52 64 53 65
REMARK SMILES IDX 54 66 62 67 55 68 61 69 56 70 57 71 58 72 59 73 60 74
REMARK H PARENT 31 25 18 33 20 35 33 37 35 39 37 41 40 45 7 47 4 50 44 54
REMARK H PARENT 46 57 48 61 60 75
REMARK Flexibility Score: inf
ROOT
ATOM      1  C   UNL     1      21.212  27.709  20.757  1.00  0.00     0.176 C 
ENDROOT
BRANCH   1   2
ATOM      2  C   UNL     1      22.216  26.923  19.948  1.00  0.00     0.178 C 
ATOM      3  C   UNL     1      23.049  26.718  17.764  1.00  0.00     0.272 C 
ATOM      4  C   UNL     1      23.961  25.836  18.599  1.00  0.00     0.113 C 
ATOM      5  O   UNL     1      21.890  26.842  18.619  1.00  0.00    -0.332 OA
ATOM      6  C   UNL     1      23.152  24.774  19.372  1.00  0.00     0.145 C 
ATOM      7  C   UNL     1      22.341  25.489  20.445  1.00  0.00     0.142 C 
BRANCH   3   8
ATOM      8  O   UNL     1      22.688  26.092  16.629  1.00  0.00    -0.338 OA
BRANCH   8   9
ATOM      9  C   UNL     1      23.129  26.261  15.413  1.00  0.00     0.199 C 
BRANCH   9  10
ATOM     10  C   UNL     1      23.424  25.222  14.420  1.00  0.00     0.179 C 
ATOM     11  C   UNL     1      24.814  23.592  13.591  1.00  0.00     0.282 C 
ATOM     12  O   UNL     1      24.658  24.634  14.460  1.00  0.00    -0.341 OA
ATOM     13  C   UNL     1      23.633  23.285  12.714  1.00  0.00     0.202 C 
ATOM     14  C   UNL     1      22.336  23.251  13.498  1.00  0.00     0.179 C 
ATOM     15  C   UNL     1      22.452  24.040  14.782  1.00  0.00     0.177 C 
BRANCH  11  16
ATOM     16  O   UNL     1      25.166  22.394  14.212  1.00  0.00    -0.341 OA
BRANCH  16  17
ATOM     17  C   UNL     1      25.423  21.360  13.316  1.00  0.00     0.184 C 
ATOM     18  C   UNL     1      25.297  20.063  14.035  1.00  0.00     0.178 C 
ATOM     19  O   UNL     1      26.508  19.361  14.158  1.00  0.00    -0.341 OA
ATOM     20  C   UNL     1      27.407  20.291  14.720  1.00  0.00     0.281 C 
ATOM     21  C   UNL     1      26.776  21.611  12.718  1.00  0.00     0.180 C 
ATOM     22  C   UNL     1      27.911  21.118  13.559  1.00  0.00     0.202 C 
BRANCH  18  23
ATOM     23  C   UNL     1      24.294  19.145  13.353  1.00  0.00     0.191 C 
BRANCH  23  24
ATOM     24  O   UNL     1      23.543  19.858  12.423  1.00  0.00    -0.394 OA
ATOM     25  H   UNL     1      22.683  20.101  12.839  1.00  0.00     0.210 HD
ENDBRANCH  23  24
ENDBRANCH  18  23
BRANCH  20  26
ATOM     26  O   UNL     1      28.426  19.673  15.404  1.00  0.00    -0.350 OA
BRANCH  26  27
ATOM     27  C   UNL     1      28.207  19.805  16.773  1.00  0.00     0.169 C 
BRANCH  27  28
ATOM     28  C   UNL     1      27.950  21.271  17.099  1.00  0.00     0.119 C 
BRANCH  28  29
ATOM     29  N   UNL     1      27.675  21.331  18.520  1.00  0.00    -0.092 NA
ATOM     30  N   UNL     1      28.319  20.602  19.273  1.00  0.00     0.001 N 
ATOM     31  N   UNL     1      28.877  20.058  20.250  1.00  0.00    -0.003 NA
ENDBRANCH  28  29
ENDBRANCH  27  28
ENDBRANCH  26  27
ENDBRANCH  20  26
BRANCH  21  32
ATOM     32  O   UNL     1      26.816  20.954  11.492  1.00  0.00    -0.387 OA
ATOM     33  H   UNL     1      26.732  19.994  11.653  1.00  0.00     0.211 HD
ENDBRANCH  21  32
BRANCH  22  34
ATOM     34  O   UNL     1      28.702  22.179  14.005  1.00  0.00    -0.385 OA
ATOM     35  H   UNL     1      28.167  22.786  14.587  1.00  0.00     0.211 HD
ENDBRANCH  22  34
ENDBRANCH  16  17
ENDBRANCH  11  16
BRANCH  13  36
ATOM     36  O   UNL     1      23.544  24.122  11.592  1.00  0.00    -0.385 OA
ATOM     37  H   UNL     1      23.372  23.590  10.799  1.00  0.00     0.211 HD
ENDBRANCH  13  36
BRANCH  14  38
ATOM     38  O   UNL     1      21.924  21.953  13.695  1.00  0.00    -0.387 OA
ATOM     39  H   UNL     1      21.886  21.736  14.649  1.00  0.00     0.211 HD
ENDBRANCH  14  38
BRANCH  15  40
ATOM     40  O   UNL     1      23.087  23.341  15.781  1.00  0.00    -0.387 OA
ATOM     41  H   UNL     1      22.502  22.761  16.321  1.00  0.00     0.211 HD
ENDBRANCH  15  40
ENDBRANCH   9  10
ENDBRANCH   8   9
ENDBRANCH   3   8
BRANCH   3  42
ATOM     42  C   UNL     1      23.548  28.083  17.576  1.00  0.00     0.364 C 
ATOM     43  O   UNL     1      24.770  28.333  17.724  1.00  0.00    -0.246 OA
BRANCH  42  44
ATOM     44  O   UNL     1      22.709  29.113  17.237  1.00  0.00    -0.477 OA
ATOM     45  H   UNL     1      22.733  29.632  16.383  1.00  0.00     0.296 HD
ENDBRANCH  42  44
ENDBRANCH   3  42
BRANCH   6  46
ATOM     46  O   UNL     1      22.278  24.199  18.476  1.00  0.00    -0.391 OA
ATOM     47  H   UNL     1      22.689  23.346  18.148  1.00  0.00     0.211 HD
ENDBRANCH   6  46
BRANCH   7  48
ATOM     48  N   UNL     1      22.993  25.408  21.711  1.00  0.00    -0.348 N 
ATOM     49  C   UNL     1      22.332  24.781  22.800  1.00  0.00     0.217 C 
ATOM     50  H   UNL     1      23.947  25.793  21.881  1.00  0.00     0.163 HD
ATOM     51  C   UNL     1      22.935  24.656  24.148  1.00  0.00     0.114 C 
ATOM     52  O   UNL     1      21.172  24.293  22.659  1.00  0.00    -0.275 OA
ENDBRANCH   7  48
ENDBRANCH   1   2
BRANCH   1  53
ATOM     53  O   UNL     1      20.518  26.814  21.572  1.00  0.00    -0.388 OA
ATOM     54  H   UNL     1      20.501  25.915  21.186  1.00  0.00     0.211 HD
ENDBRANCH   1  53
BRANCH   1  55
ATOM     55  C   UNL     1      21.802  28.780  21.618  1.00  0.00     0.165 C 
BRANCH  55  56
ATOM     56  O   UNL     1      22.866  28.234  22.344  1.00  0.00    -0.388 OA
ATOM     57  H   UNL     1      23.328  27.573  21.774  1.00  0.00     0.211 HD
ENDBRANCH  55  56
BRANCH  55  58
ATOM     58  C   UNL     1      20.721  29.176  22.630  1.00  0.00     0.154 C 
BRANCH  58  59
ATOM     59  N   UNL     1      19.582  29.745  21.965  1.00  0.00    -0.319 N 
ATOM     60  C   UNL     1      18.323  29.980  22.582  1.00  0.00     0.407 C 
ATOM     61  H   UNL     1      19.642  30.028  20.941  1.00  0.00     0.167 HD
ATOM     62  O   UNL     1      18.199  29.667  23.793  1.00  0.00    -0.225 OA
BRANCH  60  63
ATOM     63  O   UNL     1      17.253  30.531  21.900  1.00  0.00    -0.443 OA
BRANCH  63  64
ATOM     64  C   UNL     1      16.135  29.728  21.611  1.00  0.00     0.294 C 
BRANCH  64  65
ATOM     65  C   UNL     1      16.355  28.944  20.381  1.00  0.00     0.120 A 
ATOM     66  C   UNL     1      16.506  29.525  19.129  1.00  0.00     0.138 A 
ATOM     67  N   UNL     1      16.460  27.600  20.240  1.00  0.00    -0.132 NA
ATOM     68  N   UNL     1      16.702  28.496  18.270  1.00  0.00    -0.252 N 
ATOM     69  N   UNL     1      16.669  27.366  18.961  1.00  0.00    -0.067 NA
BRANCH  68  70
ATOM     70  C   UNL     1      16.920  28.602  16.843  1.00  0.00     0.158 C 
BRANCH  70  71
ATOM     71  C   UNL     1      18.098  29.478  16.483  1.00  0.00     0.146 C 
BRANCH  71  72
ATOM     72  C   UNL     1      19.320  28.831  16.980  1.00  0.00     0.305 C 
ATOM     73  O   UNL     1      19.866  27.935  16.301  1.00  0.00    -0.252 OA
BRANCH  72  74
ATOM     74  O   UNL     1      19.896  29.186  18.199  1.00  0.00    -0.481 OA
ATOM     75  H   UNL     1      19.700  30.060  18.676  1.00  0.00     0.296 HD
ENDBRANCH  72  74
ENDBRANCH  71  72
ENDBRANCH  70  71
ENDBRANCH  68  70
ENDBRANCH  64  65
ENDBRANCH  63  64
ENDBRANCH  60  63
ENDBRANCH  58  59
ENDBRANCH  55  58
ENDBRANCH   1  55
TORSDOF 33
