REMARK VINA RESULT:    -5.179      2.708      3.792
REMARK INTER + INTRA:         -20.348
REMARK INTER:                 -12.985
REMARK INTRA:                  -7.363
REMARK UNBOUND:                -7.600
REMARK SMILES CC(=O)N[C@@H]1[C@@H](O)C[C@](OC[C@H]2O[C@@H](O[C@H]3[C@H](O)[C@@H](O)[C@H](OCCN=[N+]=[N-])O[C@@H]3CO)[C@H](O)[C@@H](O)[C@H]2O)(C(=O)O)O[C@H]1C(O)[C@H](O)CNC(=O)OCc1cn(-c2ccc(Cl)cc2)nn1
REMARK SMILES IDX 9 1 8 2 6 3 5 4 42 5 41 6 10 7 11 8 12 9 14 10 13 11 32 12
REMARK SMILES IDX 34 13 36 14 15 15 16 16 29 17 28 18 21 19 17 20 19 21 30 22
REMARK SMILES IDX 31 23 22 25 23 26 24 27 25 28 26 29 27 30 18 31 20 33 33 35
REMARK SMILES IDX 35 37 37 39 38 41 39 42 40 43 7 45 43 47 44 48 45 50 46 51
REMARK SMILES IDX 47 53 48 54 49 55 50 57 51 58 52 59 53 60 54 61 64 62 55 63
REMARK SMILES IDX 63 64 56 65 57 66 62 67 58 68 61 69 59 70 60 71 4 72 2 73
REMARK SMILES IDX 1 75 3 76
REMARK H PARENT 31 24 18 32 20 34 33 36 35 38 37 40 40 44 7 46 44 49 46 52
REMARK H PARENT 48 56 4 74
REMARK Flexibility Score: inf
ROOT
ATOM      1  C   UNL     1      22.794  26.238  24.949  1.00  0.00     0.272 C 
ATOM      2  C   UNL     1      23.111  24.847  24.583  1.00  0.00     0.113 C 
ATOM      3  C   UNL     1      23.709  24.553  23.269  1.00  0.00     0.145 C 
ATOM      4  C   UNL     1      24.082  25.838  22.561  1.00  0.00     0.142 C 
ATOM      5  C   UNL     1      22.846  26.747  22.731  1.00  0.00     0.178 C 
ATOM      6  O   UNL     1      23.073  27.237  24.053  1.00  0.00    -0.332 OA
ENDROOT
BRANCH   1   7
ATOM      7  O   UNL     1      23.485  26.518  26.161  1.00  0.00    -0.338 OA
BRANCH   7   8
ATOM      8  C   UNL     1      24.016  25.405  26.753  1.00  0.00     0.199 C 
BRANCH   8   9
ATOM      9  C   UNL     1      25.005  25.766  27.859  1.00  0.00     0.179 C 
ATOM     10  C   UNL     1      25.630  27.862  28.725  1.00  0.00     0.282 C 
ATOM     11  O   UNL     1      25.592  26.973  27.650  1.00  0.00    -0.341 OA
ATOM     12  C   UNL     1      24.247  28.137  29.144  1.00  0.00     0.202 C 
ATOM     13  C   UNL     1      23.589  26.842  29.600  1.00  0.00     0.179 C 
ATOM     14  C   UNL     1      24.379  25.628  29.228  1.00  0.00     0.177 C 
BRANCH  10  15
ATOM     15  O   UNL     1      26.370  28.933  28.227  1.00  0.00    -0.341 OA
BRANCH  15  16
ATOM     16  C   UNL     1      26.499  29.036  26.909  1.00  0.00     0.184 C 
ATOM     17  C   UNL     1      27.849  29.464  26.455  1.00  0.00     0.178 C 
ATOM     18  O   UNL     1      28.013  29.251  25.091  1.00  0.00    -0.341 OA
ATOM     19  C   UNL     1      27.134  29.899  24.284  1.00  0.00     0.281 C 
ATOM     20  C   UNL     1      25.511  30.014  26.241  1.00  0.00     0.180 C 
ATOM     21  C   UNL     1      26.116  30.663  25.048  1.00  0.00     0.202 C 
BRANCH  17  22
ATOM     22  C   UNL     1      29.024  28.880  27.175  1.00  0.00     0.191 C 
BRANCH  22  23
ATOM     23  O   UNL     1      28.789  27.573  27.601  1.00  0.00    -0.394 OA
ATOM     24  H   UNL     1      29.653  27.123  27.755  1.00  0.00     0.210 HD
ENDBRANCH  22  23
ENDBRANCH  17  22
BRANCH  19  25
ATOM     25  O   UNL     1      26.459  28.984  23.468  1.00  0.00    -0.350 OA
BRANCH  25  26
ATOM     26  C   UNL     1      26.258  29.487  22.192  1.00  0.00     0.169 C 
BRANCH  26  27
ATOM     27  C   UNL     1      27.372  29.181  21.237  1.00  0.00     0.119 C 
BRANCH  27  28
ATOM     28  N   UNL     1      26.955  29.670  19.925  1.00  0.00    -0.092 NA
ATOM     29  N   UNL     1      26.026  29.036  19.392  1.00  0.00     0.001 N 
ATOM     30  N   UNL     1      24.899  28.668  18.996  1.00  0.00    -0.003 NA
ENDBRANCH  27  28
ENDBRANCH  26  27
ENDBRANCH  25  26
ENDBRANCH  19  25
BRANCH  20  31
ATOM     31  O   UNL     1      24.414  29.263  25.857  1.00  0.00    -0.387 OA
ATOM     32  H   UNL     1      24.413  29.262  24.847  1.00  0.00     0.211 HD
ENDBRANCH  20  31
BRANCH  21  33
ATOM     33  O   UNL     1      26.610  31.953  25.330  1.00  0.00    -0.385 OA
ATOM     34  H   UNL     1      25.824  32.475  25.605  1.00  0.00     0.211 HD
ENDBRANCH  21  33
ENDBRANCH  15  16
ENDBRANCH  10  15
BRANCH  12  35
ATOM     35  O   UNL     1      24.103  29.073  30.169  1.00  0.00    -0.385 OA
ATOM     36  H   UNL     1      23.342  29.711  29.978  1.00  0.00     0.211 HD
ENDBRANCH  12  35
BRANCH  13  37
ATOM     37  O   UNL     1      22.283  26.827  29.117  1.00  0.00    -0.387 OA
ATOM     38  H   UNL     1      21.625  26.460  29.728  1.00  0.00     0.211 HD
ENDBRANCH  13  37
BRANCH  14  39
ATOM     39  O   UNL     1      23.512  24.513  29.127  1.00  0.00    -0.387 OA
ATOM     40  H   UNL     1      23.970  23.855  28.574  1.00  0.00     0.211 HD
ENDBRANCH  14  39
ENDBRANCH   8   9
ENDBRANCH   7   8
ENDBRANCH   1   7
BRANCH   1  41
ATOM     41  C   UNL     1      21.333  26.319  25.308  1.00  0.00     0.364 C 
ATOM     42  O   UNL     1      20.443  25.852  24.564  1.00  0.00    -0.246 OA
BRANCH  41  43
ATOM     43  O   UNL     1      20.965  26.922  26.485  1.00  0.00    -0.477 OA
ATOM     44  H   UNL     1      20.713  26.412  27.329  1.00  0.00     0.296 HD
ENDBRANCH  41  43
ENDBRANCH   1  41
BRANCH   3  45
ATOM     45  O   UNL     1      24.883  23.812  23.400  1.00  0.00    -0.391 OA
ATOM     46  H   UNL     1      25.558  24.208  22.817  1.00  0.00     0.211 HD
ENDBRANCH   3  45
BRANCH   5  47
ATOM     47  C   UNL     1      22.839  27.904  21.797  1.00  0.00     0.176 C 
BRANCH  47  48
ATOM     48  O   UNL     1      22.534  27.426  20.530  1.00  0.00    -0.388 OA
ATOM     49  H   UNL     1      23.057  26.635  20.254  1.00  0.00     0.211 HD
ENDBRANCH  47  48
BRANCH  47  50
ATOM     50  C   UNL     1      22.058  29.104  22.126  1.00  0.00     0.165 C 
BRANCH  50  51
ATOM     51  O   UNL     1      21.027  28.637  23.022  1.00  0.00    -0.388 OA
ATOM     52  H   UNL     1      21.076  27.656  23.103  1.00  0.00     0.211 HD
ENDBRANCH  50  51
BRANCH  50  53
ATOM     53  C   UNL     1      21.239  29.633  20.957  1.00  0.00     0.154 C 
BRANCH  53  54
ATOM     54  N   UNL     1      19.850  29.268  20.996  1.00  0.00    -0.319 N 
ATOM     55  C   UNL     1      19.338  28.419  19.982  1.00  0.00     0.407 C 
ATOM     56  H   UNL     1      19.188  29.600  21.737  1.00  0.00     0.167 HD
ATOM     57  O   UNL     1      20.066  27.988  19.037  1.00  0.00    -0.225 OA
BRANCH  55  58
ATOM     58  O   UNL     1      18.012  28.028  19.989  1.00  0.00    -0.443 OA
BRANCH  58  59
ATOM     59  C   UNL     1      16.965  28.883  19.522  1.00  0.00     0.294 C 
BRANCH  59  60
ATOM     60  C   UNL     1      15.858  28.934  20.520  1.00  0.00     0.121 A 
ATOM     61  C   UNL     1      15.930  29.547  21.763  1.00  0.00     0.144 A 
ATOM     62  N   UNL     1      14.627  28.417  20.415  1.00  0.00    -0.131 NA
ATOM     63  N   UNL     1      14.748  29.383  22.370  1.00  0.00    -0.220 N 
ATOM     64  N   UNL     1      13.995  28.710  21.549  1.00  0.00    -0.062 NA
BRANCH  63  65
ATOM     65  C   UNL     1      14.474  29.895  23.676  1.00  0.00     0.066 A 
ATOM     66  C   UNL     1      13.199  29.916  24.181  1.00  0.00     0.030 A 
ATOM     67  C   UNL     1      15.488  30.378  24.456  1.00  0.00     0.030 A 
ATOM     68  C   UNL     1      12.900  30.409  25.454  1.00  0.00     0.023 A 
ATOM     69  C   UNL     1      15.221  30.874  25.724  1.00  0.00     0.023 A 
ATOM     70  C   UNL     1      13.920  30.891  26.229  1.00  0.00     0.041 A 
ATOM     71  Cl  UNL     1      13.593  31.526  27.844  1.00  0.00    -0.084 Cl
ENDBRANCH  63  65
ENDBRANCH  59  60
ENDBRANCH  58  59
ENDBRANCH  55  58
ENDBRANCH  53  54
ENDBRANCH  50  53
ENDBRANCH  47  50
ENDBRANCH   5  47
BRANCH   4  72
ATOM     72  N   UNL     1      24.466  25.603  21.221  1.00  0.00    -0.348 N 
ATOM     73  C   UNL     1      25.863  25.561  20.877  1.00  0.00     0.217 C 
ATOM     74  H   UNL     1      23.815  25.438  20.436  1.00  0.00     0.163 HD
ATOM     75  C   UNL     1      26.302  25.315  19.473  1.00  0.00     0.114 C 
ATOM     76  O   UNL     1      26.707  25.737  21.792  1.00  0.00    -0.275 OA
ENDBRANCH   4  72
TORSDOF 30
