REMARK VINA RESULT:    -5.638      4.423     10.820
REMARK INTER + INTRA:         -24.504
REMARK INTER:                 -16.789
REMARK INTRA:                  -7.715
REMARK UNBOUND:                -7.166
REMARK SMILES CC(=O)N[C@@H]1[C@@H](O)C[C@](OC[C@H]2O[C@@H](O[C@H]3[C@H](O)[C@@H](O)[C@H](OCCN=[N+]=[N-])O[C@@H]3CO)[C@H](O)[C@@H](O)[C@H]2O)(C(=O)O)O[C@H]1C(O)[C@H](O)CNC(=O)OCc1cn(CCCCCCCCCCC(=O)O)nn1
REMARK SMILES IDX 51 1 49 2 48 3 50 5 47 6 45 7 43 8 42 9 9 10 8 11 41 12 6 13
REMARK SMILES IDX 5 14 10 15 11 16 12 17 14 18 13 19 32 20 34 21 36 22 15 23
REMARK SMILES IDX 16 24 29 25 28 26 21 27 17 28 19 29 30 30 31 31 22 33 23 34
REMARK SMILES IDX 24 35 25 36 26 37 27 38 18 39 20 41 33 43 35 45 37 47 38 49
REMARK SMILES IDX 39 50 40 51 7 53 4 55 2 56 1 58 3 59 44 60 46 62 52 64 53 65
REMARK SMILES IDX 54 66 70 67 55 68 69 69 56 70 57 71 58 72 59 73 60 74 61 75
REMARK SMILES IDX 62 76 63 77 64 78 65 79 66 80 67 81 68 82
REMARK H PARENT 48 4 31 32 18 40 20 42 33 44 35 46 37 48 40 52 7 54 4 57 44 61
REMARK H PARENT 46 63 68 83
REMARK Flexibility Score: inf
ROOT
ATOM      1  O   UNL     1      19.234  30.973  29.220  1.00  0.00    -0.443 OA
ENDROOT
BRANCH   1   2
ATOM      2  C   UNL     1      19.795  30.011  30.088  1.00  0.00     0.407 C 
ATOM      3  N   UNL     1      20.352  30.394  31.334  1.00  0.00    -0.319 N 
ATOM      4  H   UNL     1      20.345  31.416  31.593  1.00  0.00     0.167 HD
ATOM      5  O   UNL     1      19.812  28.797  29.782  1.00  0.00    -0.225 OA
BRANCH   3   6
ATOM      6  C   UNL     1      20.923  29.452  32.248  1.00  0.00     0.154 C 
BRANCH   6   7
ATOM      7  C   UNL     1      22.435  29.298  32.130  1.00  0.00     0.165 C 
BRANCH   7   8
ATOM      8  C   UNL     1      22.683  27.850  31.889  1.00  0.00     0.176 C 
BRANCH   8   9
ATOM      9  C   UNL     1      24.089  27.474  31.483  1.00  0.00     0.178 C 
ATOM     10  C   UNL     1      25.384  27.259  29.564  1.00  0.00     0.272 C 
ATOM     11  C   UNL     1      26.048  26.085  30.250  1.00  0.00     0.113 C 
ATOM     12  O   UNL     1      24.126  27.404  30.119  1.00  0.00    -0.332 OA
ATOM     13  C   UNL     1      25.138  25.323  31.159  1.00  0.00     0.145 C 
ATOM     14  C   UNL     1      24.602  26.271  32.212  1.00  0.00     0.142 C 
BRANCH  10  15
ATOM     15  O   UNL     1      25.284  27.033  28.181  1.00  0.00    -0.338 OA
BRANCH  15  16
ATOM     16  C   UNL     1      24.046  26.787  27.692  1.00  0.00     0.199 C 
BRANCH  16  17
ATOM     17  C   UNL     1      23.806  27.828  26.578  1.00  0.00     0.179 C 
ATOM     18  C   UNL     1      22.413  26.828  24.947  1.00  0.00     0.282 C 
ATOM     19  O   UNL     1      23.617  27.284  25.370  1.00  0.00    -0.341 OA
ATOM     20  C   UNL     1      21.268  27.291  25.764  1.00  0.00     0.202 C 
ATOM     21  C   UNL     1      21.514  28.734  26.187  1.00  0.00     0.179 C 
ATOM     22  C   UNL     1      22.770  28.835  27.028  1.00  0.00     0.177 C 
BRANCH  18  23
ATOM     23  O   UNL     1      22.523  25.416  24.866  1.00  0.00    -0.341 OA
BRANCH  23  24
ATOM     24  C   UNL     1      23.027  25.113  23.609  1.00  0.00     0.184 C 
ATOM     25  C   UNL     1      22.127  24.295  22.743  1.00  0.00     0.178 C 
ATOM     26  O   UNL     1      22.771  23.904  21.606  1.00  0.00    -0.341 OA
ATOM     27  C   UNL     1      23.982  24.396  21.290  1.00  0.00     0.281 C 
ATOM     28  C   UNL     1      24.327  24.304  23.756  1.00  0.00     0.180 C 
ATOM     29  C   UNL     1      25.001  24.353  22.404  1.00  0.00     0.202 C 
BRANCH  25  30
ATOM     30  C   UNL     1      20.829  24.994  22.383  1.00  0.00     0.191 C 
BRANCH  30  31
ATOM     31  O   UNL     1      21.005  26.204  21.764  1.00  0.00    -0.394 OA
ATOM     32  H   UNL     1      20.128  26.510  21.416  1.00  0.00     0.210 HD
ENDBRANCH  30  31
ENDBRANCH  25  30
BRANCH  27  33
ATOM     33  O   UNL     1      23.869  25.712  20.861  1.00  0.00    -0.350 OA
BRANCH  33  34
ATOM     34  C   UNL     1      24.458  25.912  19.613  1.00  0.00     0.169 C 
BRANCH  34  35
ATOM     35  C   UNL     1      23.679  26.880  18.768  1.00  0.00     0.119 C 
BRANCH  35  36
ATOM     36  N   UNL     1      22.259  26.751  19.100  1.00  0.00    -0.092 NA
ATOM     37  N   UNL     1      21.465  27.691  18.878  1.00  0.00     0.001 N 
ATOM     38  N   UNL     1      20.919  28.772  18.569  1.00  0.00    -0.003 NA
ENDBRANCH  35  36
ENDBRANCH  34  35
ENDBRANCH  33  34
ENDBRANCH  27  33
BRANCH  28  39
ATOM     39  O   UNL     1      25.168  24.823  24.717  1.00  0.00    -0.387 OA
ATOM     40  H   UNL     1      25.918  25.351  24.344  1.00  0.00     0.211 HD
ENDBRANCH  28  39
BRANCH  29  41
ATOM     41  O   UNL     1      25.730  23.176  22.260  1.00  0.00    -0.385 OA
ATOM     42  H   UNL     1      26.193  23.004  23.138  1.00  0.00     0.211 HD
ENDBRANCH  29  41
ENDBRANCH  23  24
ENDBRANCH  18  23
BRANCH  20  43
ATOM     43  O   UNL     1      20.068  27.332  25.040  1.00  0.00    -0.385 OA
ATOM     44  H   UNL     1      20.255  27.915  24.245  1.00  0.00     0.211 HD
ENDBRANCH  20  43
BRANCH  21  45
ATOM     45  O   UNL     1      20.429  29.227  26.909  1.00  0.00    -0.387 OA
ATOM     46  H   UNL     1      19.616  28.875  26.465  1.00  0.00     0.211 HD
ENDBRANCH  21  45
BRANCH  22  47
ATOM     47  O   UNL     1      22.420  28.608  28.337  1.00  0.00    -0.387 OA
ATOM     48  H   UNL     1      22.214  27.645  28.445  1.00  0.00     0.211 HD
ENDBRANCH  22  47
ENDBRANCH  16  17
ENDBRANCH  15  16
ENDBRANCH  10  15
BRANCH  10  49
ATOM     49  C   UNL     1      26.172  28.489  29.686  1.00  0.00     0.364 C 
ATOM     50  O   UNL     1      25.893  29.533  29.075  1.00  0.00    -0.246 OA
BRANCH  49  51
ATOM     51  O   UNL     1      27.284  28.531  30.510  1.00  0.00    -0.477 OA
ATOM     52  H   UNL     1      27.480  29.325  31.125  1.00  0.00     0.296 HD
ENDBRANCH  49  51
ENDBRANCH  10  49
BRANCH  13  53
ATOM     53  O   UNL     1      24.142  24.602  30.539  1.00  0.00    -0.391 OA
ATOM     54  H   UNL     1      24.420  23.681  30.266  1.00  0.00     0.211 HD
ENDBRANCH  13  53
BRANCH  14  55
ATOM     55  N   UNL     1      25.657  26.524  33.136  1.00  0.00    -0.348 N 
ATOM     56  C   UNL     1      25.575  26.280  34.536  1.00  0.00     0.217 C 
ATOM     57  H   UNL     1      26.571  26.916  32.805  1.00  0.00     0.163 HD
ATOM     58  C   UNL     1      26.711  26.568  35.430  1.00  0.00     0.114 C 
ATOM     59  O   UNL     1      24.509  25.815  34.980  1.00  0.00    -0.275 OA
ENDBRANCH  14  55
ENDBRANCH   8   9
BRANCH   8  60
ATOM     60  O   UNL     1      21.705  27.360  31.066  1.00  0.00    -0.388 OA
ATOM     61  H   UNL     1      21.712  27.702  30.159  1.00  0.00     0.211 HD
ENDBRANCH   8  60
ENDBRANCH   7   8
BRANCH   7  62
ATOM     62  O   UNL     1      22.985  29.794  33.306  1.00  0.00    -0.388 OA
ATOM     63  H   UNL     1      22.401  29.636  34.087  1.00  0.00     0.211 HD
ENDBRANCH   7  62
ENDBRANCH   6   7
ENDBRANCH   3   6
ENDBRANCH   1   2
BRANCH   1  64
ATOM     64  C   UNL     1      17.888  31.379  29.503  1.00  0.00     0.294 C 
BRANCH  64  65
ATOM     65  C   UNL     1      17.133  31.293  28.235  1.00  0.00     0.120 A 
ATOM     66  C   UNL     1      15.765  31.465  28.114  1.00  0.00     0.138 A 
ATOM     67  N   UNL     1      17.606  31.052  27.005  1.00  0.00    -0.132 NA
ATOM     68  N   UNL     1      15.478  31.318  26.807  1.00  0.00    -0.252 N 
ATOM     69  N   UNL     1      16.625  31.065  26.146  1.00  0.00    -0.067 NA
BRANCH  68  70
ATOM     70  C   UNL     1      14.211  31.404  26.151  1.00  0.00     0.146 C 
BRANCH  70  71
ATOM     71  C   UNL     1      13.974  30.421  25.059  1.00  0.00     0.024 C 
BRANCH  71  72
ATOM     72  C   UNL     1      12.581  29.919  24.914  1.00  0.00     0.002 C 
BRANCH  72  73
ATOM     73  C   UNL     1      12.136  29.633  23.522  1.00  0.00     0.000 C 
BRANCH  73  74
ATOM     74  C   UNL     1      13.076  30.047  22.444  1.00  0.00     0.000 C 
BRANCH  74  75
ATOM     75  C   UNL     1      13.366  28.886  21.533  1.00  0.00     0.000 C 
BRANCH  75  76
ATOM     76  C   UNL     1      14.160  29.277  20.305  1.00  0.00     0.000 C 
BRANCH  76  77
ATOM     77  C   UNL     1      14.962  30.524  20.488  1.00  0.00     0.001 C 
BRANCH  77  78
ATOM     78  C   UNL     1      16.428  30.371  20.225  1.00  0.00     0.012 C 
BRANCH  78  79
ATOM     79  C   UNL     1      16.602  29.658  18.895  1.00  0.00     0.122 C 
BRANCH  79  80
ATOM     80  C   UNL     1      17.497  28.504  19.085  1.00  0.00     0.303 C 
ATOM     81  O   UNL     1      17.594  27.621  18.207  1.00  0.00    -0.252 OA
BRANCH  80  82
ATOM     82  O   UNL     1      18.256  28.359  20.238  1.00  0.00    -0.481 OA
ATOM     83  H   UNL     1      18.152  28.969  21.028  1.00  0.00     0.296 HD
ENDBRANCH  80  82
ENDBRANCH  79  80
ENDBRANCH  78  79
ENDBRANCH  77  78
ENDBRANCH  76  77
ENDBRANCH  75  76
ENDBRANCH  74  75
ENDBRANCH  73  74
ENDBRANCH  72  73
ENDBRANCH  71  72
ENDBRANCH  70  71
ENDBRANCH  68  70
ENDBRANCH  64  65
ENDBRANCH   1  64
TORSDOF 41
