REMARK VINA RESULT:    -8.752     10.029     14.446
REMARK INTER + INTRA:         -20.859
REMARK INTER:                 -12.582
REMARK INTRA:                  -8.277
REMARK UNBOUND:                 2.731
REMARK SMILES CC(=O)N[C@@H]1[C@@H](O)C[C@](OC[C@H]2O[C@@H](O[C@H]3[C@H](O)[C@@H](O)[C@H](OCCN=[N+]=[N-])O[C@@H]3CO)[C@H](O)[C@@H](O)[C@H]2O)(C(=O)O)O[C@H]1C(O)[C@H](O)CNC(=O)OCc1cn(C2CCc3ccccc3NC2=O)nn1
REMARK SMILES IDX 43 1 42 2 9 3 8 4 41 5 6 6 5 7 10 8 11 9 12 10 14 11 13 12
REMARK SMILES IDX 32 13 34 14 36 15 15 16 16 17 29 18 28 19 21 20 17 21 19 22
REMARK SMILES IDX 30 23 31 24 22 26 23 27 24 28 25 29 26 30 27 31 18 32 20 34
REMARK SMILES IDX 33 36 35 38 37 40 38 42 39 43 40 44 7 46 4 48 2 49 1 51 3 52
REMARK SMILES IDX 44 53 45 55 46 56 47 58 48 59 49 60 50 62 51 63 52 64 53 65
REMARK SMILES IDX 54 66 69 67 55 68 68 69 56 70 57 71 66 73 65 74 67 75 64 77
REMARK SMILES IDX 59 78 63 79 60 80 62 81 61 82 58 83
REMARK H PARENT 31 25 18 33 20 35 33 37 35 39 37 41 40 45 7 47 4 50 44 54
REMARK H PARENT 46 57 48 61 65 76
REMARK Flexibility Score: 90.00
ROOT
ATOM      1  C   UNL     1      28.232  22.725  14.070  1.00  0.00     0.176 C 
ENDROOT
BRANCH   1   2
ATOM      2  C   UNL     1      28.772  21.288  13.928  1.00  0.00     0.178 C 
ATOM      3  C   UNL     1      27.350  19.402  13.598  1.00  0.00     0.272 C 
ATOM      4  C   UNL     1      27.698  18.882  14.934  1.00  0.00     0.113 C 
ATOM      5  O   UNL     1      28.054  20.516  13.135  1.00  0.00    -0.332 OA
ATOM      6  C   UNL     1      28.042  19.961  15.905  1.00  0.00     0.145 C 
ATOM      7  C   UNL     1      29.165  20.784  15.290  1.00  0.00     0.142 C 
BRANCH   3   8
ATOM      8  O   UNL     1      26.049  19.701  13.399  1.00  0.00    -0.338 OA
BRANCH   8   9
ATOM      9  C   UNL     1      25.586  20.549  12.495  1.00  0.00     0.199 C 
BRANCH   9  10
ATOM     10  C   UNL     1      24.674  21.669  12.747  1.00  0.00     0.179 C 
ATOM     11  C   UNL     1      22.638  22.470  11.994  1.00  0.00     0.282 C 
ATOM     12  O   UNL     1      23.462  21.347  12.048  1.00  0.00    -0.341 OA
ATOM     13  C   UNL     1      22.939  23.547  12.960  1.00  0.00     0.202 C 
ATOM     14  C   UNL     1      23.534  23.151  14.267  1.00  0.00     0.179 C 
ATOM     15  C   UNL     1      24.166  21.784  14.183  1.00  0.00     0.177 C 
BRANCH  11  16
ATOM     16  O   UNL     1      21.297  22.034  12.013  1.00  0.00    -0.341 OA
BRANCH  16  17
ATOM     17  C   UNL     1      21.115  20.866  11.322  1.00  0.00     0.184 C 
ATOM     18  C   UNL     1      20.189  20.950  10.138  1.00  0.00     0.178 C 
ATOM     19  O   UNL     1      20.264  19.707   9.505  1.00  0.00    -0.341 OA
ATOM     20  C   UNL     1      19.535  18.742  10.183  1.00  0.00     0.281 C 
ATOM     21  C   UNL     1      20.566  19.772  12.225  1.00  0.00     0.180 C 
ATOM     22  C   UNL     1      19.417  19.024  11.652  1.00  0.00     0.202 C 
BRANCH  18  23
ATOM     23  C   UNL     1      20.653  21.978   9.126  1.00  0.00     0.191 C 
BRANCH  23  24
ATOM     24  O   UNL     1      20.120  23.239   9.387  1.00  0.00    -0.394 OA
ATOM     25  H   UNL     1      19.168  23.214   9.620  1.00  0.00     0.210 HD
ENDBRANCH  23  24
ENDBRANCH  18  23
BRANCH  20  26
ATOM     26  O   UNL     1      20.097  17.505   9.926  1.00  0.00    -0.350 OA
BRANCH  26  27
ATOM     27  C   UNL     1      21.339  17.618   9.325  1.00  0.00     0.169 C 
BRANCH  27  28
ATOM     28  C   UNL     1      22.156  16.367   9.323  1.00  0.00     0.119 C 
BRANCH  28  29
ATOM     29  N   UNL     1      22.720  16.166  10.647  1.00  0.00    -0.092 NA
ATOM     30  N   UNL     1      23.864  15.704  10.811  1.00  0.00     0.001 N 
ATOM     31  N   UNL     1      25.103  15.718  10.803  1.00  0.00    -0.003 NA
ENDBRANCH  28  29
ENDBRANCH  27  28
ENDBRANCH  26  27
ENDBRANCH  20  26
BRANCH  21  32
ATOM     32  O   UNL     1      21.588  18.925  12.681  1.00  0.00    -0.387 OA
ATOM     33  H   UNL     1      21.254  17.991  12.661  1.00  0.00     0.211 HD
ENDBRANCH  21  32
BRANCH  22  34
ATOM     34  O   UNL     1      18.177  19.658  11.904  1.00  0.00    -0.385 OA
ATOM     35  H   UNL     1      17.499  19.030  12.215  1.00  0.00     0.211 HD
ENDBRANCH  22  34
ENDBRANCH  16  17
ENDBRANCH  11  16
BRANCH  13  36
ATOM     36  O   UNL     1      23.656  24.567  12.326  1.00  0.00    -0.385 OA
ATOM     37  H   UNL     1      24.123  25.118  13.007  1.00  0.00     0.211 HD
ENDBRANCH  13  36
BRANCH  14  38
ATOM     38  O   UNL     1      22.641  23.262  15.332  1.00  0.00    -0.387 OA
ATOM     39  H   UNL     1      21.777  23.550  14.937  1.00  0.00     0.211 HD
ENDBRANCH  14  38
BRANCH  15  40
ATOM     40  O   UNL     1      23.182  20.788  14.402  1.00  0.00    -0.387 OA
ATOM     41  H   UNL     1      22.461  21.234  14.897  1.00  0.00     0.211 HD
ENDBRANCH  15  40
ENDBRANCH   9  10
ENDBRANCH   8   9
ENDBRANCH   3   8
BRANCH   3  42
ATOM     42  C   UNL     1      27.826  18.360  12.611  1.00  0.00     0.364 C 
ATOM     43  O   UNL     1      28.968  17.964  12.597  1.00  0.00    -0.246 OA
BRANCH  42  44
ATOM     44  O   UNL     1      26.927  17.831  11.679  1.00  0.00    -0.477 OA
ATOM     45  H   UNL     1      26.002  18.207  11.549  1.00  0.00     0.296 HD
ENDBRANCH  42  44
ENDBRANCH   3  42
BRANCH   6  46
ATOM     46  O   UNL     1      26.897  20.760  16.065  1.00  0.00    -0.391 OA
ATOM     47  H   UNL     1      26.208  20.576  15.406  1.00  0.00     0.211 HD
ENDBRANCH   6  46
BRANCH   7  48
ATOM     48  N   UNL     1      30.358  20.007  15.330  1.00  0.00    -0.348 N 
ATOM     49  C   UNL     1      31.592  20.592  15.731  1.00  0.00     0.217 C 
ATOM     50  H   UNL     1      30.358  18.995  15.064  1.00  0.00     0.163 HD
ATOM     51  C   UNL     1      32.865  19.823  15.786  1.00  0.00     0.114 C 
ATOM     52  O   UNL     1      31.588  21.788  16.043  1.00  0.00    -0.275 OA
ENDBRANCH   7  48
ENDBRANCH   1   2
BRANCH   1  53
ATOM     53  O   UNL     1      28.669  23.266  15.284  1.00  0.00    -0.388 OA
ATOM     54  H   UNL     1      28.925  22.585  15.945  1.00  0.00     0.211 HD
ENDBRANCH   1  53
BRANCH   1  55
ATOM     55  C   UNL     1      28.672  23.627  12.976  1.00  0.00     0.165 C 
BRANCH  55  56
ATOM     56  O   UNL     1      29.819  24.364  13.245  1.00  0.00    -0.388 OA
ATOM     57  H   UNL     1      30.602  23.779  13.063  1.00  0.00     0.211 HD
ENDBRANCH  55  56
BRANCH  55  58
ATOM     58  C   UNL     1      27.645  24.571  12.442  1.00  0.00     0.154 C 
BRANCH  58  59
ATOM     59  N   UNL     1      26.489  24.757  13.265  1.00  0.00    -0.319 N 
ATOM     60  C   UNL     1      26.237  25.915  14.036  1.00  0.00     0.407 C 
ATOM     61  H   UNL     1      25.786  23.991  13.300  1.00  0.00     0.167 HD
ATOM     62  O   UNL     1      27.043  26.877  14.041  1.00  0.00    -0.225 OA
BRANCH  60  63
ATOM     63  O   UNL     1      25.089  25.980  14.790  1.00  0.00    -0.443 OA
BRANCH  63  64
ATOM     64  C   UNL     1      25.074  26.180  16.160  1.00  0.00     0.294 C 
BRANCH  64  65
ATOM     65  C   UNL     1      25.879  25.165  16.843  1.00  0.00     0.120 A 
ATOM     66  C   UNL     1      26.772  25.380  17.864  1.00  0.00     0.139 A 
ATOM     67  N   UNL     1      25.917  23.830  16.616  1.00  0.00    -0.132 NA
ATOM     68  N   UNL     1      27.325  24.198  18.232  1.00  0.00    -0.240 N 
ATOM     69  N   UNL     1      26.783  23.284  17.454  1.00  0.00    -0.066 NA
BRANCH  68  70
ATOM     70  C   UNL     1      28.327  23.984  19.290  1.00  0.00     0.198 C 
BRANCH  70  71
ATOM     71  C   UNL     1      27.615  23.329  20.414  1.00  0.00     0.042 CG0
ATOM     72  G   UNL     1      28.453  22.686  21.463  1.00  0.00     0.000 G0
ENDBRANCH  70  71
BRANCH  70  73
ATOM     73  C   UNL     1      29.408  23.215  18.665  1.00  0.00     0.249 C 
ATOM     74  N   UNL     1      29.688  21.824  18.711  1.00  0.00    -0.324 N 
ATOM     75  O   UNL     1      30.214  23.901  17.980  1.00  0.00    -0.272 OA
ATOM     76  H   UNL     1      30.248  21.400  17.939  1.00  0.00     0.170 HD
BRANCH  74  77
ATOM     77  C   UNL     1      29.241  20.948  19.767  1.00  0.00     0.044 A 
ATOM     78  C   UNL     1      28.694  21.273  21.003  1.00  0.00    -0.024 A 
ATOM     79  C   UNL     1      29.413  19.622  19.434  1.00  0.00     0.026 A 
ATOM     80  C   UNL     1      28.317  20.304  21.903  1.00  0.00     0.006 A 
ATOM     81  C   UNL     1      29.043  18.628  20.319  1.00  0.00     0.002 A 
ATOM     82  C   UNL     1      28.494  18.987  21.555  1.00  0.00     0.000 A 
BRANCH  78  83
ATOM     83  C   UNL     1      28.468  22.675  21.456  1.00  0.00     0.040 CG0
ATOM     84  G   UNL     1      27.624  23.334  20.421  1.00  0.00     0.000 G0
ENDBRANCH  78  83
ENDBRANCH  74  77
ENDBRANCH  70  73
ENDBRANCH  68  70
ENDBRANCH  64  65
ENDBRANCH  63  64
ENDBRANCH  60  63
ENDBRANCH  58  59
ENDBRANCH  55  58
ENDBRANCH   1  55
TORSDOF 30
