REMARK VINA RESULT:    -5.330      3.280      8.987
REMARK INTER + INTRA:         -20.156
REMARK INTER:                 -13.121
REMARK INTRA:                  -7.035
REMARK UNBOUND:                -7.035
REMARK SMILES CC(=O)N[C@@H]1[C@@H](O)C[C@](OC[C@H]2O[C@@H](O[C@H]3[C@H](O)[C@@H](O)[C@H](OCCN=[N+]=[N-])O[C@@H]3CO)[C@H](O)[C@@H](O)[C@H]2O)(C(=O)O)O[C@H]1C(O)[C@H](O)CNC(=O)OCc1cn([C@@H]2C[C@H]3CC[C@@H](C2)N3C)nn1
REMARK SMILES IDX 9 1 8 2 6 3 5 4 42 5 41 6 10 7 11 8 12 9 14 10 13 11 32 12
REMARK SMILES IDX 34 13 36 14 15 15 16 16 29 17 28 18 21 19 17 20 19 21 30 22
REMARK SMILES IDX 31 23 22 25 23 26 24 27 25 28 26 29 27 30 18 31 20 33 33 35
REMARK SMILES IDX 35 37 37 39 38 41 39 42 40 43 7 45 43 47 44 48 45 50 46 51
REMARK SMILES IDX 47 53 48 54 49 55 50 57 51 58 52 59 53 60 54 61 66 62 55 63
REMARK SMILES IDX 65 64 56 65 62 66 57 67 61 68 58 69 63 70 60 71 59 72 64 73
REMARK SMILES IDX 4 74 2 75 1 77 3 78
REMARK H PARENT 31 24 18 32 20 34 33 36 35 38 37 40 40 44 7 46 44 49 46 52
REMARK H PARENT 48 56 4 76
REMARK Flexibility Score: inf
ROOT
ATOM      1  C   UNL     1      14.208  30.942  21.011  1.00  0.00     0.272 C 
ATOM      2  C   UNL     1      13.736  32.000  21.925  1.00  0.00     0.113 C 
ATOM      3  C   UNL     1      14.881  32.626  22.708  1.00  0.00     0.145 C 
ATOM      4  C   UNL     1      15.685  31.508  23.413  1.00  0.00     0.142 C 
ATOM      5  C   UNL     1      15.880  30.342  22.528  1.00  0.00     0.178 C 
ATOM      6  O   UNL     1      15.595  30.722  21.233  1.00  0.00    -0.332 OA
ENDROOT
BRANCH   1   7
ATOM      7  O   UNL     1      13.992  30.996  19.680  1.00  0.00    -0.338 OA
BRANCH   7   8
ATOM      8  C   UNL     1      14.601  31.642  18.739  1.00  0.00     0.199 C 
BRANCH   8   9
ATOM      9  C   UNL     1      14.080  31.471  17.320  1.00  0.00     0.179 C 
ATOM     10  C   UNL     1      15.378  30.349  15.712  1.00  0.00     0.282 C 
ATOM     11  O   UNL     1      15.196  31.469  16.470  1.00  0.00    -0.341 OA
ATOM     12  C   UNL     1      14.200  29.979  14.875  1.00  0.00     0.202 C 
ATOM     13  C   UNL     1      13.004  29.892  15.756  1.00  0.00     0.179 C 
ATOM     14  C   UNL     1      13.271  30.221  17.184  1.00  0.00     0.177 C 
BRANCH  10  15
ATOM     15  O   UNL     1      15.932  29.289  16.410  1.00  0.00    -0.341 OA
BRANCH  15  16
ATOM     16  C   UNL     1      17.108  29.590  17.065  1.00  0.00     0.184 C 
ATOM     17  C   UNL     1      18.299  29.312  16.236  1.00  0.00     0.178 C 
ATOM     18  O   UNL     1      19.478  29.770  16.834  1.00  0.00    -0.341 OA
ATOM     19  C   UNL     1      19.329  30.069  18.189  1.00  0.00     0.281 C 
ATOM     20  C   UNL     1      17.254  28.615  18.283  1.00  0.00     0.180 C 
ATOM     21  C   UNL     1      18.516  29.046  18.956  1.00  0.00     0.202 C 
BRANCH  17  22
ATOM     22  C   UNL     1      18.258  29.737  14.810  1.00  0.00     0.191 C 
BRANCH  22  23
ATOM     23  O   UNL     1      17.724  28.727  14.014  1.00  0.00    -0.394 OA
ATOM     24  H   UNL     1      17.768  27.872  14.510  1.00  0.00     0.210 HD
ENDBRANCH  22  23
ENDBRANCH  17  22
BRANCH  19  25
ATOM     25  O   UNL     1      18.954  31.367  18.399  1.00  0.00    -0.350 OA
BRANCH  25  26
ATOM     26  C   UNL     1      19.594  32.368  17.758  1.00  0.00     0.169 C 
BRANCH  26  27
ATOM     27  C   UNL     1      18.764  33.162  16.818  1.00  0.00     0.119 C 
BRANCH  27  28
ATOM     28  N   UNL     1      19.434  33.649  15.663  1.00  0.00    -0.092 NA
ATOM     29  N   UNL     1      19.098  33.377  14.506  1.00  0.00     0.001 N 
ATOM     30  N   UNL     1      19.264  32.947  13.360  1.00  0.00    -0.003 NA
ENDBRANCH  27  28
ENDBRANCH  26  27
ENDBRANCH  25  26
ENDBRANCH  19  25
BRANCH  20  31
ATOM     31  O   UNL     1      16.195  28.740  19.145  1.00  0.00    -0.387 OA
ATOM     32  H   UNL     1      15.334  28.726  18.646  1.00  0.00     0.211 HD
ENDBRANCH  20  31
BRANCH  21  33
ATOM     33  O   UNL     1      19.333  27.943  19.224  1.00  0.00    -0.385 OA
ATOM     34  H   UNL     1      20.258  28.227  19.175  1.00  0.00     0.211 HD
ENDBRANCH  21  33
ENDBRANCH  15  16
ENDBRANCH  10  15
BRANCH  12  35
ATOM     35  O   UNL     1      13.999  30.973  13.894  1.00  0.00    -0.385 OA
ATOM     36  H   UNL     1      13.097  31.360  14.048  1.00  0.00     0.211 HD
ENDBRANCH  12  35
BRANCH  13  37
ATOM     37  O   UNL     1      12.431  28.599  15.701  1.00  0.00    -0.387 OA
ATOM     38  H   UNL     1      11.932  28.413  16.532  1.00  0.00     0.211 HD
ENDBRANCH  13  37
BRANCH  14  39
ATOM     39  O   UNL     1      13.824  29.112  17.836  1.00  0.00    -0.387 OA
ATOM     40  H   UNL     1      13.254  28.332  17.573  1.00  0.00     0.211 HD
ENDBRANCH  14  39
ENDBRANCH   8   9
ENDBRANCH   7   8
ENDBRANCH   1   7
BRANCH   1  41
ATOM     41  C   UNL     1      13.526  29.656  21.429  1.00  0.00     0.364 C 
ATOM     42  O   UNL     1      13.732  28.544  20.915  1.00  0.00    -0.246 OA
BRANCH  41  43
ATOM     43  O   UNL     1      12.589  29.679  22.467  1.00  0.00    -0.477 OA
ATOM     44  H   UNL     1      11.636  30.020  22.293  1.00  0.00     0.296 HD
ENDBRANCH  41  43
ENDBRANCH   1  41
BRANCH   3  45
ATOM     45  O   UNL     1      15.692  33.454  21.964  1.00  0.00    -0.391 OA
ATOM     46  H   UNL     1      16.383  33.848  22.578  1.00  0.00     0.211 HD
ENDBRANCH   3  45
BRANCH   5  47
ATOM     47  C   UNL     1      17.409  29.984  22.407  1.00  0.00     0.176 C 
BRANCH  47  48
ATOM     48  O   UNL     1      17.729  29.516  23.754  1.00  0.00    -0.388 OA
ATOM     49  H   UNL     1      17.236  30.146  24.362  1.00  0.00     0.211 HD
ENDBRANCH  47  48
BRANCH  47  50
ATOM     50  C   UNL     1      18.268  31.198  22.287  1.00  0.00     0.165 C 
BRANCH  50  51
ATOM     51  O   UNL     1      18.056  31.827  21.082  1.00  0.00    -0.388 OA
ATOM     52  H   UNL     1      17.378  31.436  20.508  1.00  0.00     0.211 HD
ENDBRANCH  50  51
BRANCH  50  53
ATOM     53  C   UNL     1      19.695  31.020  22.647  1.00  0.00     0.154 C 
BRANCH  53  54
ATOM     54  N   UNL     1      20.322  30.012  21.792  1.00  0.00    -0.319 N 
ATOM     55  C   UNL     1      20.703  28.766  22.301  1.00  0.00     0.407 C 
ATOM     56  H   UNL     1      20.472  30.248  20.800  1.00  0.00     0.167 HD
ATOM     57  O   UNL     1      20.495  28.523  23.527  1.00  0.00    -0.225 OA
BRANCH  55  58
ATOM     58  O   UNL     1      21.300  27.780  21.524  1.00  0.00    -0.443 OA
BRANCH  58  59
ATOM     59  C   UNL     1      22.714  27.628  21.504  1.00  0.00     0.294 C 
BRANCH  59  60
ATOM     60  C   UNL     1      23.121  26.590  22.501  1.00  0.00     0.120 A 
ATOM     61  C   UNL     1      23.954  26.756  23.587  1.00  0.00     0.138 A 
ATOM     62  N   UNL     1      22.756  25.312  22.523  1.00  0.00    -0.132 NA
ATOM     63  N   UNL     1      24.076  25.589  24.235  1.00  0.00    -0.249 N 
ATOM     64  N   UNL     1      23.319  24.718  23.544  1.00  0.00    -0.067 NA
BRANCH  63  65
ATOM     65  C   UNL     1      24.829  25.246  25.418  1.00  0.00     0.112 C 
ATOM     66  C   UNL     1      25.044  26.399  26.353  1.00  0.00     0.046 C 
ATOM     67  C   UNL     1      24.018  24.202  26.201  1.00  0.00     0.046 C 
ATOM     68  C   UNL     1      23.753  26.795  27.020  1.00  0.00     0.058 C 
ATOM     69  C   UNL     1      22.707  24.813  26.658  1.00  0.00     0.058 C 
ATOM     70  N   UNL     1      22.672  26.204  26.242  1.00  0.00    -0.300 NA
ATOM     71  C   UNL     1      23.594  26.160  28.376  1.00  0.00     0.021 C 
ATOM     72  C   UNL     1      22.710  24.962  28.167  1.00  0.00     0.021 C 
ATOM     73  C   UNL     1      21.454  26.856  26.615  1.00  0.00     0.105 C 
ENDBRANCH  63  65
ENDBRANCH  59  60
ENDBRANCH  58  59
ENDBRANCH  55  58
ENDBRANCH  53  54
ENDBRANCH  50  53
ENDBRANCH  47  50
ENDBRANCH   5  47
BRANCH   4  74
ATOM     74  N   UNL     1      15.003  31.234  24.684  1.00  0.00    -0.348 N 
ATOM     75  C   UNL     1      15.745  31.194  25.925  1.00  0.00     0.217 C 
ATOM     76  H   UNL     1      13.985  31.056  24.778  1.00  0.00     0.163 HD
ATOM     77  C   UNL     1      15.140  30.927  27.233  1.00  0.00     0.114 C 
ATOM     78  O   UNL     1      16.974  31.404  25.842  1.00  0.00    -0.275 OA
ENDBRANCH   4  74
TORSDOF 30
