REMARK VINA RESULT:    -5.910      7.613     13.112
REMARK INTER + INTRA:         -21.692
REMARK INTER:                 -13.448
REMARK INTRA:                  -8.244
REMARK UNBOUND:                -7.145
REMARK SMILES CC(=O)N[C@@H]1[C@@H](O)C[C@](OC[C@H]2O[C@@H](O[C@H]3[C@H](O)[C@@H](O)[C@H](OCCN=[N+]=[N-])O[C@@H]3CO)[C@H](O)[C@@H](O)[C@H]2O)(C(=O)O)O[C@H]1C(O)[C@H](O)CNC(=O)OCc1cn(-c2ccccc2Br)nn1
REMARK SMILES IDX 9 1 8 2 6 3 5 4 42 5 41 6 10 7 11 8 12 9 14 10 13 11 32 12
REMARK SMILES IDX 34 13 36 14 15 15 16 16 29 17 28 18 21 19 17 20 19 21 30 22
REMARK SMILES IDX 31 23 22 25 23 26 24 27 25 28 26 29 27 30 18 31 20 33 33 35
REMARK SMILES IDX 35 37 37 39 38 41 39 42 40 43 7 45 43 47 44 48 45 50 46 51
REMARK SMILES IDX 47 53 48 54 49 55 50 57 51 58 52 59 53 60 54 61 64 62 55 63
REMARK SMILES IDX 63 64 56 65 57 66 61 67 58 68 60 69 62 70 59 71 4 72 2 73
REMARK SMILES IDX 1 75 3 76
REMARK H PARENT 31 24 18 32 20 34 33 36 35 38 37 40 40 44 7 46 44 49 46 52
REMARK H PARENT 48 56 4 74
REMARK Flexibility Score: inf
ROOT
ATOM      1  C   UNL     1      17.567  29.597  20.109  1.00  0.00     0.272 C 
ATOM      2  C   UNL     1      16.740  30.769  19.738  1.00  0.00     0.113 C 
ATOM      3  C   UNL     1      15.594  30.965  20.676  1.00  0.00     0.145 C 
ATOM      4  C   UNL     1      15.912  30.831  22.123  1.00  0.00     0.142 C 
ATOM      5  C   UNL     1      17.249  30.219  22.354  1.00  0.00     0.178 C 
ATOM      6  O   UNL     1      17.686  29.309  21.451  1.00  0.00    -0.332 OA
ENDROOT
BRANCH   1   7
ATOM      7  O   UNL     1      18.873  29.620  19.651  1.00  0.00    -0.338 OA
BRANCH   7   8
ATOM      8  C   UNL     1      19.222  30.614  18.801  1.00  0.00     0.199 C 
BRANCH   8   9
ATOM      9  C   UNL     1      20.455  30.115  18.007  1.00  0.00     0.179 C 
ATOM     10  C   UNL     1      22.220  28.659  18.332  1.00  0.00     0.282 C 
ATOM     11  O   UNL     1      21.432  29.670  18.814  1.00  0.00    -0.341 OA
ATOM     12  C   UNL     1      22.536  28.809  16.861  1.00  0.00     0.202 C 
ATOM     13  C   UNL     1      21.266  28.916  16.044  1.00  0.00     0.179 C 
ATOM     14  C   UNL     1      20.066  29.180  16.933  1.00  0.00     0.177 C 
BRANCH  10  15
ATOM     15  O   UNL     1      21.734  27.398  18.644  1.00  0.00    -0.341 OA
BRANCH  15  16
ATOM     16  C   UNL     1      22.209  26.878  19.826  1.00  0.00     0.184 C 
ATOM     17  C   UNL     1      22.720  25.462  19.722  1.00  0.00     0.178 C 
ATOM     18  O   UNL     1      23.517  25.249  20.836  1.00  0.00    -0.341 OA
ATOM     19  C   UNL     1      22.900  25.422  22.034  1.00  0.00     0.281 C 
ATOM     20  C   UNL     1      21.107  26.807  20.877  1.00  0.00     0.180 C 
ATOM     21  C   UNL     1      21.576  26.062  22.058  1.00  0.00     0.202 C 
BRANCH  17  22
ATOM     22  C   UNL     1      23.505  25.172  18.486  1.00  0.00     0.191 C 
BRANCH  22  23
ATOM     23  O   UNL     1      24.659  24.475  18.835  1.00  0.00    -0.394 OA
ATOM     24  H   UNL     1      25.445  24.976  18.555  1.00  0.00     0.210 HD
ENDBRANCH  22  23
ENDBRANCH  17  22
BRANCH  19  25
ATOM     25  O   UNL     1      23.782  26.195  22.825  1.00  0.00    -0.350 OA
BRANCH  25  26
ATOM     26  C   UNL     1      23.166  26.832  23.865  1.00  0.00     0.169 C 
BRANCH  26  27
ATOM     27  C   UNL     1      23.785  28.129  24.284  1.00  0.00     0.119 C 
BRANCH  27  28
ATOM     28  N   UNL     1      24.088  28.873  23.071  1.00  0.00    -0.092 NA
ATOM     29  N   UNL     1      23.249  29.617  22.583  1.00  0.00     0.001 N 
ATOM     30  N   UNL     1      22.452  30.421  22.117  1.00  0.00    -0.003 NA
ENDBRANCH  27  28
ENDBRANCH  26  27
ENDBRANCH  25  26
ENDBRANCH  19  25
BRANCH  20  31
ATOM     31  O   UNL     1      20.677  28.070  21.250  1.00  0.00    -0.387 OA
ATOM     32  H   UNL     1      19.696  28.145  21.313  1.00  0.00     0.211 HD
ENDBRANCH  20  31
BRANCH  21  33
ATOM     33  O   UNL     1      20.555  25.108  22.346  1.00  0.00    -0.385 OA
ATOM     34  H   UNL     1      19.950  24.997  21.576  1.00  0.00     0.211 HD
ENDBRANCH  21  33
ENDBRANCH  15  16
ENDBRANCH  10  15
BRANCH  12  35
ATOM     35  O   UNL     1      23.406  29.875  16.630  1.00  0.00    -0.385 OA
ATOM     36  H   UNL     1      23.892  29.768  15.776  1.00  0.00     0.211 HD
ENDBRANCH  12  35
BRANCH  13  37
ATOM     37  O   UNL     1      21.107  27.816  15.224  1.00  0.00    -0.387 OA
ATOM     38  H   UNL     1      21.670  27.890  14.427  1.00  0.00     0.211 HD
ENDBRANCH  13  37
BRANCH  14  39
ATOM     39  O   UNL     1      19.596  27.958  17.383  1.00  0.00    -0.387 OA
ATOM     40  H   UNL     1      20.172  27.553  18.076  1.00  0.00     0.211 HD
ENDBRANCH  14  39
ENDBRANCH   8   9
ENDBRANCH   7   8
ENDBRANCH   1   7
BRANCH   1  41
ATOM     41  C   UNL     1      16.843  28.387  19.546  1.00  0.00     0.364 C 
ATOM     42  O   UNL     1      16.360  27.589  20.377  1.00  0.00    -0.246 OA
BRANCH  41  43
ATOM     43  O   UNL     1      16.703  28.142  18.213  1.00  0.00    -0.477 OA
ATOM     44  H   UNL     1      17.516  28.217  17.582  1.00  0.00     0.296 HD
ENDBRANCH  41  43
ENDBRANCH   1  41
BRANCH   3  45
ATOM     45  O   UNL     1      15.014  32.225  20.401  1.00  0.00    -0.391 OA
ATOM     46  H   UNL     1      14.984  32.325  19.410  1.00  0.00     0.211 HD
ENDBRANCH   3  45
BRANCH   5  47
ATOM     47  C   UNL     1      18.283  31.268  22.761  1.00  0.00     0.176 C 
BRANCH  47  48
ATOM     48  O   UNL     1      19.542  31.008  22.283  1.00  0.00    -0.388 OA
ATOM     49  H   UNL     1      20.103  30.531  22.962  1.00  0.00     0.211 HD
ENDBRANCH  47  48
BRANCH  47  50
ATOM     50  C   UNL     1      18.376  31.388  24.291  1.00  0.00     0.165 C 
BRANCH  50  51
ATOM     51  O   UNL     1      17.677  32.507  24.664  1.00  0.00    -0.388 OA
ATOM     52  H   UNL     1      17.821  32.837  25.569  1.00  0.00     0.211 HD
ENDBRANCH  50  51
BRANCH  50  53
ATOM     53  C   UNL     1      19.805  31.464  24.719  1.00  0.00     0.154 C 
BRANCH  53  54
ATOM     54  N   UNL     1      20.199  30.341  25.498  1.00  0.00    -0.319 N 
ATOM     55  C   UNL     1      20.348  29.004  25.074  1.00  0.00     0.407 C 
ATOM     56  H   UNL     1      20.414  30.507  26.533  1.00  0.00     0.167 HD
ATOM     57  O   UNL     1      20.143  28.687  23.898  1.00  0.00    -0.225 OA
BRANCH  55  58
ATOM     58  O   UNL     1      20.730  28.011  25.976  1.00  0.00    -0.443 OA
BRANCH  58  59
ATOM     59  C   UNL     1      21.188  28.252  27.284  1.00  0.00     0.294 C 
BRANCH  59  60
ATOM     60  C   UNL     1      22.137  27.179  27.726  1.00  0.00     0.121 A 
ATOM     61  C   UNL     1      23.331  27.413  28.410  1.00  0.00     0.144 A 
ATOM     62  N   UNL     1      22.061  25.868  27.564  1.00  0.00    -0.131 NA
ATOM     63  N   UNL     1      23.908  26.221  28.621  1.00  0.00    -0.219 N 
ATOM     64  N   UNL     1      23.138  25.293  28.109  1.00  0.00    -0.062 NA
BRANCH  63  65
ATOM     65  C   UNL     1      25.141  25.987  29.279  1.00  0.00     0.081 A 
ATOM     66  C   UNL     1      25.191  25.524  30.575  1.00  0.00     0.029 A 
ATOM     67  C   UNL     1      26.323  26.218  28.629  1.00  0.00     0.043 A 
ATOM     68  C   UNL     1      26.421  25.304  31.190  1.00  0.00     0.002 A 
ATOM     69  C   UNL     1      27.540  26.004  29.230  1.00  0.00     0.018 A 
ATOM     70  Br  UNL     1      26.297  26.864  26.837  1.00  0.00    -0.048 Br
ATOM     71  C   UNL     1      27.604  25.541  30.522  1.00  0.00     0.001 A 
ENDBRANCH  63  65
ENDBRANCH  59  60
ENDBRANCH  58  59
ENDBRANCH  55  58
ENDBRANCH  53  54
ENDBRANCH  50  53
ENDBRANCH  47  50
ENDBRANCH   5  47
BRANCH   4  72
ATOM     72  N   UNL     1      14.898  30.114  22.864  1.00  0.00    -0.348 N 
ATOM     73  C   UNL     1      14.366  30.631  24.071  1.00  0.00     0.217 C 
ATOM     74  H   UNL     1      14.544  29.202  22.518  1.00  0.00     0.163 HD
ATOM     75  C   UNL     1      13.322  29.825  24.772  1.00  0.00     0.114 C 
ATOM     76  O   UNL     1      14.740  31.718  24.550  1.00  0.00    -0.275 OA
ENDBRANCH   4  72
TORSDOF 30
