REMARK VINA RESULT:    -6.499      3.667      7.033
REMARK INTER + INTRA:         -23.561
REMARK INTER:                 -16.039
REMARK INTRA:                  -7.522
REMARK UNBOUND:                -6.425
REMARK SMILES CC(=O)N[C@@H]1[C@@H](O)C[C@](OC[C@H]2O[C@@H](O[C@H]3[C@H](O)[C@@H](O)[C@H](OCCN=[N+]=[N-])O[C@@H]3CO)[C@H](O)[C@@H](O)[C@H]2O)(C(=O)O)O[C@H]1C(O)[C@H](O)CNC(=O)OCc1cn(-c2ccc(S(=O)(=O)Nc3nccs3)cc2)nn1
REMARK SMILES IDX 43 1 42 2 9 3 8 4 41 5 6 6 5 7 10 8 11 9 12 10 14 11 13 12
REMARK SMILES IDX 32 13 34 14 36 15 15 16 16 17 29 18 28 19 21 20 17 21 19 22
REMARK SMILES IDX 30 23 31 24 22 26 23 27 24 28 25 29 26 30 27 31 18 32 20 34
REMARK SMILES IDX 33 36 35 38 37 40 38 42 39 43 40 44 7 46 4 48 2 49 1 51 3 52
REMARK SMILES IDX 44 53 45 55 46 56 47 58 48 59 49 60 50 62 51 63 52 64 53 65
REMARK SMILES IDX 54 66 72 67 55 68 71 69 56 70 57 71 70 72 58 73 69 74 59 75
REMARK SMILES IDX 60 76 61 77 62 78 63 79 64 81 65 82 68 83 66 84 67 85
REMARK H PARENT 31 25 18 33 20 35 33 37 35 39 37 41 40 45 7 47 4 50 44 54
REMARK H PARENT 46 57 48 61 63 80
REMARK Flexibility Score: inf
ROOT
ATOM      1  C   UNL     1      21.617  28.944  24.560  1.00  0.00     0.176 C 
ENDROOT
BRANCH   1   2
ATOM      2  C   UNL     1      20.643  29.673  23.697  1.00  0.00     0.178 C 
ATOM      3  C   UNL     1      18.380  30.232  23.879  1.00  0.00     0.272 C 
ATOM      4  C   UNL     1      18.786  30.895  22.544  1.00  0.00     0.113 C 
ATOM      5  O   UNL     1      19.382  29.414  24.320  1.00  0.00    -0.332 OA
ATOM      6  C   UNL     1      19.428  29.956  21.595  1.00  0.00     0.145 C 
ATOM      7  C   UNL     1      20.475  29.099  22.311  1.00  0.00     0.142 C 
BRANCH   3   8
ATOM      8  O   UNL     1      17.248  29.478  23.702  1.00  0.00    -0.338 OA
BRANCH   8   9
ATOM      9  C   UNL     1      16.068  30.176  23.759  1.00  0.00     0.199 C 
BRANCH   9  10
ATOM     10  C   UNL     1      15.433  30.390  22.405  1.00  0.00     0.179 C 
ATOM     11  C   UNL     1      15.325  29.825  20.249  1.00  0.00     0.282 C 
ATOM     12  O   UNL     1      15.655  29.330  21.533  1.00  0.00    -0.341 OA
ATOM     13  C   UNL     1      13.820  29.778  20.152  1.00  0.00     0.202 C 
ATOM     14  C   UNL     1      13.214  29.611  21.549  1.00  0.00     0.179 C 
ATOM     15  C   UNL     1      13.923  30.528  22.527  1.00  0.00     0.177 C 
BRANCH  11  16
ATOM     16  O   UNL     1      15.895  29.114  19.248  1.00  0.00    -0.341 OA
BRANCH  16  17
ATOM     17  C   UNL     1      16.256  29.836  18.124  1.00  0.00     0.184 C 
ATOM     18  C   UNL     1      15.878  29.288  16.808  1.00  0.00     0.178 C 
ATOM     19  O   UNL     1      16.836  29.736  15.857  1.00  0.00    -0.341 OA
ATOM     20  C   UNL     1      18.029  29.010  15.979  1.00  0.00     0.281 C 
ATOM     21  C   UNL     1      17.738  30.186  18.153  1.00  0.00     0.180 C 
ATOM     22  C   UNL     1      18.579  29.165  17.385  1.00  0.00     0.202 C 
BRANCH  18  23
ATOM     23  C   UNL     1      14.562  29.823  16.243  1.00  0.00     0.191 C 
BRANCH  23  24
ATOM     24  O   UNL     1      13.458  29.484  16.964  1.00  0.00    -0.394 OA
ATOM     25  H   UNL     1      12.744  29.167  16.366  1.00  0.00     0.210 HD
ENDBRANCH  23  24
ENDBRANCH  18  23
BRANCH  20  26
ATOM     26  O   UNL     1      18.920  29.501  15.051  1.00  0.00    -0.350 OA
BRANCH  26  27
ATOM     27  C   UNL     1      18.573  29.313  13.738  1.00  0.00     0.169 C 
BRANCH  27  28
ATOM     28  C   UNL     1      18.487  30.594  12.943  1.00  0.00     0.119 C 
BRANCH  28  29
ATOM     29  N   UNL     1      17.968  30.257  11.642  1.00  0.00    -0.092 NA
ATOM     30  N   UNL     1      17.931  29.080  11.293  1.00  0.00     0.001 N 
ATOM     31  N   UNL     1      18.222  28.035  10.707  1.00  0.00    -0.003 NA
ENDBRANCH  28  29
ENDBRANCH  27  28
ENDBRANCH  26  27
ENDBRANCH  20  26
BRANCH  21  32
ATOM     32  O   UNL     1      17.969  31.423  17.553  1.00  0.00    -0.387 OA
ATOM     33  H   UNL     1      17.171  31.997  17.596  1.00  0.00     0.211 HD
ENDBRANCH  21  32
BRANCH  22  34
ATOM     34  O   UNL     1      18.668  27.962  18.071  1.00  0.00    -0.385 OA
ATOM     35  H   UNL     1      18.874  27.267  17.407  1.00  0.00     0.211 HD
ENDBRANCH  22  34
ENDBRANCH  16  17
ENDBRANCH  11  16
BRANCH  13  36
ATOM     36  O   UNL     1      13.277  31.009  19.705  1.00  0.00    -0.385 OA
ATOM     37  H   UNL     1      13.048  30.982  18.765  1.00  0.00     0.211 HD
ENDBRANCH  13  36
BRANCH  14  38
ATOM     38  O   UNL     1      13.243  28.280  21.940  1.00  0.00    -0.387 OA
ATOM     39  H   UNL     1      14.170  27.932  22.009  1.00  0.00     0.211 HD
ENDBRANCH  14  38
BRANCH  15  40
ATOM     40  O   UNL     1      13.480  30.215  23.802  1.00  0.00    -0.387 OA
ATOM     41  H   UNL     1      13.806  29.369  24.150  1.00  0.00     0.211 HD
ENDBRANCH  15  40
ENDBRANCH   9  10
ENDBRANCH   8   9
ENDBRANCH   3   8
BRANCH   3  42
ATOM     42  C   UNL     1      18.152  31.342  24.806  1.00  0.00     0.364 C 
ATOM     43  O   UNL     1      18.161  31.180  26.069  1.00  0.00    -0.246 OA
BRANCH  42  44
ATOM     44  O   UNL     1      17.913  32.637  24.382  1.00  0.00    -0.477 OA
ATOM     45  H   UNL     1      18.385  33.421  24.851  1.00  0.00     0.296 HD
ENDBRANCH  42  44
ENDBRANCH   3  42
BRANCH   6  46
ATOM     46  O   UNL     1      18.515  29.153  20.911  1.00  0.00    -0.391 OA
ATOM     47  H   UNL     1      18.060  28.555  21.551  1.00  0.00     0.211 HD
ENDBRANCH   6  46
BRANCH   7  48
ATOM     48  N   UNL     1      21.653  29.009  21.526  1.00  0.00    -0.348 N 
ATOM     49  C   UNL     1      21.732  28.069  20.459  1.00  0.00     0.217 C 
ATOM     50  H   UNL     1      22.480  29.612  21.696  1.00  0.00     0.163 HD
ATOM     51  C   UNL     1      22.914  27.913  19.597  1.00  0.00     0.114 C 
ATOM     52  O   UNL     1      20.726  27.314  20.226  1.00  0.00    -0.275 OA
ENDBRANCH   7  48
ENDBRANCH   1   2
BRANCH   1  53
ATOM     53  O   UNL     1      21.485  27.544  24.295  1.00  0.00    -0.388 OA
ATOM     54  H   UNL     1      21.356  27.046  25.123  1.00  0.00     0.211 HD
ENDBRANCH   1  53
BRANCH   1  55
ATOM     55  C   UNL     1      21.505  29.163  26.041  1.00  0.00     0.165 C 
BRANCH  55  56
ATOM     56  O   UNL     1      21.198  30.562  26.152  1.00  0.00    -0.388 OA
ATOM     57  H   UNL     1      20.487  30.784  25.497  1.00  0.00     0.211 HD
ENDBRANCH  55  56
BRANCH  55  58
ATOM     58  C   UNL     1      22.860  29.057  26.731  1.00  0.00     0.154 C 
BRANCH  58  59
ATOM     59  N   UNL     1      23.340  27.719  26.506  1.00  0.00    -0.319 N 
ATOM     60  C   UNL     1      24.125  27.000  27.446  1.00  0.00     0.407 C 
ATOM     61  H   UNL     1      23.111  27.203  25.595  1.00  0.00     0.167 HD
ATOM     62  O   UNL     1      24.424  27.500  28.536  1.00  0.00    -0.225 OA
BRANCH  60  63
ATOM     63  O   UNL     1      24.585  25.717  27.172  1.00  0.00    -0.443 OA
BRANCH  63  64
ATOM     64  C   UNL     1      23.793  24.606  26.853  1.00  0.00     0.294 C 
BRANCH  64  65
ATOM     65  C   UNL     1      23.226  24.612  25.494  1.00  0.00     0.121 A 
ATOM     66  C   UNL     1      23.948  24.630  24.297  1.00  0.00     0.144 A 
ATOM     67  N   UNL     1      21.950  24.594  25.112  1.00  0.00    -0.131 NA
ATOM     68  N   UNL     1      23.095  24.622  23.242  1.00  0.00    -0.220 N 
ATOM     69  N   UNL     1      21.885  24.601  23.770  1.00  0.00    -0.062 NA
BRANCH  68  70
ATOM     70  C   UNL     1      23.488  24.631  21.858  1.00  0.00     0.066 A 
ATOM     71  C   UNL     1      22.624  24.315  20.849  1.00  0.00     0.030 A 
ATOM     72  C   UNL     1      24.796  24.962  21.553  1.00  0.00     0.030 A 
ATOM     73  C   UNL     1      23.058  24.326  19.524  1.00  0.00     0.024 A 
ATOM     74  C   UNL     1      25.271  24.987  20.264  1.00  0.00     0.024 A 
ATOM     75  C   UNL     1      24.366  24.660  19.262  1.00  0.00     0.088 A 
BRANCH  75  76
ATOM     76  S   UNL     1      24.943  24.676  17.614  1.00  0.00     0.263 S 
ATOM     77  O   UNL     1      25.885  23.500  17.446  1.00  0.00    -0.201 OA
ATOM     78  O   UNL     1      25.753  25.931  17.447  1.00  0.00    -0.201 OA
BRANCH  76  79
ATOM     79  N   UNL     1      23.628  24.612  16.534  1.00  0.00    -0.255 N 
ATOM     80  H   UNL     1      23.348  23.690  16.156  1.00  0.00     0.182 HD
BRANCH  79  81
ATOM     81  C   UNL     1      22.964  25.776  16.184  1.00  0.00     0.196 A 
ATOM     82  N   UNL     1      21.932  26.449  16.514  1.00  0.00    -0.228 NA
ATOM     83  S   UNL     1      23.600  26.860  14.816  1.00  0.00    -0.105 S 
ATOM     84  C   UNL     1      21.541  27.548  15.983  1.00  0.00     0.125 A 
ATOM     85  C   UNL     1      22.265  28.097  14.959  1.00  0.00     0.089 A 
ENDBRANCH  79  81
ENDBRANCH  76  79
ENDBRANCH  75  76
ENDBRANCH  68  70
ENDBRANCH  64  65
ENDBRANCH  63  64
ENDBRANCH  60  63
ENDBRANCH  58  59
ENDBRANCH  55  58
ENDBRANCH   1  55
TORSDOF 33
