REMARK VINA RESULT:    -5.999      2.330      5.720
REMARK INTER + INTRA:         -21.544
REMARK INTER:                 -13.288
REMARK INTRA:                  -8.256
REMARK UNBOUND:                -6.778
REMARK SMILES CC(=O)N[C@@H]1[C@@H](O)C[C@](OC[C@H]2O[C@@H](O[C@H]3[C@H](O)[C@@H](O)[C@H](OCCN=[N+]=[N-])O[C@@H]3CO)[C@H](O)[C@@H](O)[C@H]2O)(C(=O)O)O[C@H]1C(O)[C@H](O)CNC(=O)OCc1cn(-c2ccc3c(c2)OCO3)nn1
REMARK SMILES IDX 9 1 8 2 6 3 5 4 42 5 41 6 10 7 11 8 12 9 14 10 13 11 32 12
REMARK SMILES IDX 34 13 36 14 15 15 16 16 29 17 28 18 21 19 17 20 19 21 30 22
REMARK SMILES IDX 31 23 22 25 23 26 24 27 25 28 26 29 27 30 18 31 20 33 33 35
REMARK SMILES IDX 35 37 37 39 38 41 39 42 40 43 7 45 43 47 44 48 45 50 46 51
REMARK SMILES IDX 47 53 48 54 49 55 50 57 51 58 52 59 53 60 54 61 66 62 55 63
REMARK SMILES IDX 65 64 56 65 57 66 61 67 58 68 60 69 59 70 62 71 64 72 63 73
REMARK SMILES IDX 4 74 2 75 1 77 3 78
REMARK H PARENT 31 24 18 32 20 34 33 36 35 38 37 40 40 44 7 46 44 49 46 52
REMARK H PARENT 48 56 4 76
REMARK Flexibility Score: inf
ROOT
ATOM      1  C   UNL     1      20.964  29.957  25.108  1.00  0.00     0.272 C 
ATOM      2  C   UNL     1      20.152  31.101  25.650  1.00  0.00     0.113 C 
ATOM      3  C   UNL     1      18.863  31.327  24.839  1.00  0.00     0.145 C 
ATOM      4  C   UNL     1      19.328  31.816  23.484  1.00  0.00     0.142 C 
ATOM      5  C   UNL     1      20.320  30.781  22.995  1.00  0.00     0.178 C 
ATOM      6  O   UNL     1      20.476  29.701  23.795  1.00  0.00    -0.332 OA
ENDROOT
BRANCH   1   7
ATOM      7  O   UNL     1      20.813  28.817  25.762  1.00  0.00    -0.338 OA
BRANCH   7   8
ATOM      8  C   UNL     1      21.204  28.384  26.921  1.00  0.00     0.199 C 
BRANCH   8   9
ATOM      9  C   UNL     1      21.829  27.027  27.103  1.00  0.00     0.179 C 
ATOM     10  C   UNL     1      22.402  25.184  25.800  1.00  0.00     0.282 C 
ATOM     11  O   UNL     1      21.628  26.304  25.956  1.00  0.00    -0.341 OA
ATOM     12  C   UNL     1      23.152  24.783  27.027  1.00  0.00     0.202 C 
ATOM     13  C   UNL     1      24.007  25.919  27.561  1.00  0.00     0.179 C 
ATOM     14  C   UNL     1      23.350  27.239  27.318  1.00  0.00     0.177 C 
BRANCH  10  15
ATOM     15  O   UNL     1      23.367  25.486  24.819  1.00  0.00    -0.341 OA
BRANCH  15  16
ATOM     16  C   UNL     1      23.359  24.610  23.765  1.00  0.00     0.184 C 
ATOM     17  C   UNL     1      24.647  24.739  22.995  1.00  0.00     0.178 C 
ATOM     18  O   UNL     1      24.631  25.729  22.042  1.00  0.00    -0.341 OA
ATOM     19  C   UNL     1      23.772  26.781  22.364  1.00  0.00     0.281 C 
ATOM     20  C   UNL     1      22.152  24.939  22.918  1.00  0.00     0.180 C 
ATOM     21  C   UNL     1      22.329  26.342  22.379  1.00  0.00     0.202 C 
BRANCH  17  22
ATOM     22  C   UNL     1      25.008  23.438  22.291  1.00  0.00     0.191 C 
BRANCH  22  23
ATOM     23  O   UNL     1      25.971  23.645  21.311  1.00  0.00    -0.394 OA
ATOM     24  H   UNL     1      26.740  22.999  21.388  1.00  0.00     0.210 HD
ENDBRANCH  22  23
ENDBRANCH  17  22
BRANCH  19  25
ATOM     25  O   UNL     1      23.925  27.716  21.349  1.00  0.00    -0.350 OA
BRANCH  25  26
ATOM     26  C   UNL     1      24.396  27.069  20.212  1.00  0.00     0.169 C 
BRANCH  26  27
ATOM     27  C   UNL     1      23.671  27.558  18.962  1.00  0.00     0.119 C 
BRANCH  27  28
ATOM     28  N   UNL     1      22.396  26.827  18.908  1.00  0.00    -0.092 NA
ATOM     29  N   UNL     1      22.416  25.578  18.945  1.00  0.00     0.001 N 
ATOM     30  N   UNL     1      22.652  24.357  18.943  1.00  0.00    -0.003 NA
ENDBRANCH  27  28
ENDBRANCH  26  27
ENDBRANCH  25  26
ENDBRANCH  19  25
BRANCH  20  31
ATOM     31  O   UNL     1      21.912  24.015  21.921  1.00  0.00    -0.387 OA
ATOM     32  H   UNL     1      21.133  23.412  22.107  1.00  0.00     0.211 HD
ENDBRANCH  20  31
BRANCH  21  33
ATOM     33  O   UNL     1      21.635  27.207  23.227  1.00  0.00    -0.385 OA
ATOM     34  H   UNL     1      21.553  28.124  22.859  1.00  0.00     0.211 HD
ENDBRANCH  21  33
ENDBRANCH  15  16
ENDBRANCH  10  15
BRANCH  12  35
ATOM     35  O   UNL     1      22.352  24.304  28.061  1.00  0.00    -0.385 OA
ATOM     36  H   UNL     1      21.565  23.830  27.647  1.00  0.00     0.211 HD
ENDBRANCH  12  35
BRANCH  13  37
ATOM     37  O   UNL     1      25.248  25.858  26.923  1.00  0.00    -0.387 OA
ATOM     38  H   UNL     1      25.828  25.147  27.252  1.00  0.00     0.211 HD
ENDBRANCH  13  37
BRANCH  14  39
ATOM     39  O   UNL     1      23.908  27.808  26.178  1.00  0.00    -0.387 OA
ATOM     40  H   UNL     1      23.256  28.154  25.547  1.00  0.00     0.211 HD
ENDBRANCH  14  39
ENDBRANCH   8   9
ENDBRANCH   7   8
ENDBRANCH   1   7
BRANCH   1  41
ATOM     41  C   UNL     1      22.396  30.359  24.923  1.00  0.00     0.364 C 
ATOM     42  O   UNL     1      23.099  29.582  24.187  1.00  0.00    -0.246 OA
BRANCH  41  43
ATOM     43  O   UNL     1      23.001  31.449  25.460  1.00  0.00    -0.477 OA
ATOM     44  H   UNL     1      23.989  31.638  25.396  1.00  0.00     0.296 HD
ENDBRANCH  41  43
ENDBRANCH   1  41
BRANCH   3  45
ATOM     45  O   UNL     1      18.262  30.064  24.742  1.00  0.00    -0.391 OA
ATOM     46  H   UNL     1      17.518  30.086  24.101  1.00  0.00     0.211 HD
ENDBRANCH   3  45
BRANCH   5  47
ATOM     47  C   UNL     1      19.697  30.236  21.692  1.00  0.00     0.176 C 
BRANCH  47  48
ATOM     48  O   UNL     1      19.099  31.204  20.938  1.00  0.00    -0.388 OA
ATOM     49  H   UNL     1      19.621  31.492  20.149  1.00  0.00     0.211 HD
ENDBRANCH  47  48
BRANCH  47  50
ATOM     50  C   UNL     1      20.735  29.496  20.858  1.00  0.00     0.165 C 
BRANCH  50  51
ATOM     51  O   UNL     1      21.999  29.670  21.312  1.00  0.00    -0.388 OA
ATOM     52  H   UNL     1      22.722  29.276  20.782  1.00  0.00     0.211 HD
ENDBRANCH  50  51
BRANCH  50  53
ATOM     53  C   UNL     1      20.568  29.985  19.453  1.00  0.00     0.154 C 
BRANCH  53  54
ATOM     54  N   UNL     1      19.458  29.377  18.789  1.00  0.00    -0.319 N 
ATOM     55  C   UNL     1      18.832  29.857  17.610  1.00  0.00     0.407 C 
ATOM     56  H   UNL     1      19.015  28.469  19.174  1.00  0.00     0.167 HD
ATOM     57  O   UNL     1      19.244  30.888  17.041  1.00  0.00    -0.225 OA
BRANCH  55  58
ATOM     58  O   UNL     1      17.737  29.195  17.046  1.00  0.00    -0.443 OA
BRANCH  58  59
ATOM     59  C   UNL     1      17.254  27.962  17.505  1.00  0.00     0.294 C 
BRANCH  59  60
ATOM     60  C   UNL     1      16.523  28.188  18.798  1.00  0.00     0.121 A 
ATOM     61  C   UNL     1      15.458  29.071  18.987  1.00  0.00     0.144 A 
ATOM     62  N   UNL     1      16.723  27.610  19.989  1.00  0.00    -0.131 NA
ATOM     63  N   UNL     1      15.059  28.994  20.276  1.00  0.00    -0.220 N 
ATOM     64  N   UNL     1      15.854  28.097  20.839  1.00  0.00    -0.062 NA
BRANCH  63  65
ATOM     65  C   UNL     1      14.019  29.698  20.909  1.00  0.00     0.070 A 
ATOM     66  C   UNL     1      13.590  30.898  20.414  1.00  0.00     0.032 A 
ATOM     67  C   UNL     1      13.417  29.187  22.032  1.00  0.00     0.079 A 
ATOM     68  C   UNL     1      12.549  31.587  21.054  1.00  0.00     0.053 A 
ATOM     69  C   UNL     1      12.393  29.851  22.674  1.00  0.00     0.167 A 
ATOM     70  C   UNL     1      11.964  31.054  22.176  1.00  0.00     0.165 A 
ATOM     71  O   UNL     1      11.657  29.533  23.794  1.00  0.00    -0.454 OA
ATOM     72  O   UNL     1      10.937  31.512  22.991  1.00  0.00    -0.454 OA
ATOM     73  C   UNL     1      10.943  30.723  24.150  1.00  0.00     0.468 C 
ENDBRANCH  63  65
ENDBRANCH  59  60
ENDBRANCH  58  59
ENDBRANCH  55  58
ENDBRANCH  53  54
ENDBRANCH  50  53
ENDBRANCH  47  50
ENDBRANCH   5  47
BRANCH   4  74
ATOM     74  N   UNL     1      19.869  33.134  23.616  1.00  0.00    -0.348 N 
ATOM     75  C   UNL     1      19.433  34.219  22.769  1.00  0.00     0.217 C 
ATOM     76  H   UNL     1      20.597  33.414  24.307  1.00  0.00     0.163 HD
ATOM     77  C   UNL     1      20.003  35.585  22.916  1.00  0.00     0.114 C 
ATOM     78  O   UNL     1      18.573  34.003  21.909  1.00  0.00    -0.275 OA
ENDBRANCH   4  74
TORSDOF 30
