REMARK VINA RESULT:    -6.014      4.071     10.853
REMARK INTER + INTRA:         -23.354
REMARK INTER:                 -15.727
REMARK INTRA:                  -7.626
REMARK UNBOUND:                -7.494
REMARK SMILES CC(=O)N[C@@H]1[C@@H](O)C[C@](OC[C@H]2O[C@@H](O[C@H]3[C@H](O)[C@@H](O)[C@H](OCCN=[N+]=[N-])O[C@@H]3CO)[C@H](O)[C@@H](O)[C@H]2O)(C(=O)O)O[C@H]1C(O)[C@H](O)CNC(=O)OCc1cn(C(C)CC(=O)c2ccccc2)nn1
REMARK SMILES IDX 43 1 42 2 9 3 8 4 41 5 6 6 5 7 10 8 11 9 12 10 14 11 13 12
REMARK SMILES IDX 32 13 34 14 36 15 15 16 16 17 29 18 28 19 21 20 17 21 19 22
REMARK SMILES IDX 30 23 31 24 22 26 23 27 24 28 25 29 26 30 27 31 18 32 20 34
REMARK SMILES IDX 33 36 35 38 37 40 38 42 39 43 40 44 7 46 4 48 2 49 1 51 3 52
REMARK SMILES IDX 44 53 45 55 46 56 47 58 48 59 49 60 50 62 51 63 52 64 53 65
REMARK SMILES IDX 54 66 68 67 55 68 67 69 56 70 57 71 58 72 59 73 60 74 61 75
REMARK SMILES IDX 62 76 66 77 63 78 65 79 64 80
REMARK H PARENT 31 25 18 33 20 35 33 37 35 39 37 41 40 45 7 47 4 50 44 54
REMARK H PARENT 46 57 48 61
REMARK Flexibility Score: inf
ROOT
ATOM      1  C   UNL     1      17.108  30.722  23.439  1.00  0.00     0.176 C 
ENDROOT
BRANCH   1   2
ATOM      2  C   UNL     1      15.985  29.794  23.282  1.00  0.00     0.178 C 
ATOM      3  C   UNL     1      15.100  29.469  21.119  1.00  0.00     0.272 C 
ATOM      4  C   UNL     1      13.714  29.235  21.616  1.00  0.00     0.113 C 
ATOM      5  O   UNL     1      15.946  29.012  22.196  1.00  0.00    -0.332 OA
ATOM      6  C   UNL     1      13.596  29.532  23.098  1.00  0.00     0.145 C 
ATOM      7  C   UNL     1      14.632  30.494  23.544  1.00  0.00     0.142 C 
BRANCH   3   8
ATOM      8  O   UNL     1      15.531  30.645  20.769  1.00  0.00    -0.338 OA
BRANCH   8   9
ATOM      9  C   UNL     1      15.647  31.372  19.714  1.00  0.00     0.199 C 
BRANCH   9  10
ATOM     10  C   UNL     1      16.613  31.213  18.585  1.00  0.00     0.179 C 
ATOM     11  C   UNL     1      18.509  29.859  18.163  1.00  0.00     0.282 C 
ATOM     12  O   UNL     1      17.641  30.460  18.994  1.00  0.00    -0.341 OA
ATOM     13  C   UNL     1      17.803  29.057  17.120  1.00  0.00     0.202 C 
ATOM     14  C   UNL     1      16.637  29.732  16.555  1.00  0.00     0.179 C 
ATOM     15  C   UNL     1      16.063  30.922  17.246  1.00  0.00     0.177 C 
BRANCH  11  16
ATOM     16  O   UNL     1      19.292  29.016  18.996  1.00  0.00    -0.341 OA
BRANCH  16  17
ATOM     17  C   UNL     1      20.605  29.415  18.940  1.00  0.00     0.184 C 
ATOM     18  C   UNL     1      21.388  28.594  17.958  1.00  0.00     0.178 C 
ATOM     19  O   UNL     1      21.481  27.268  18.352  1.00  0.00    -0.341 OA
ATOM     20  C   UNL     1      21.972  27.022  19.596  1.00  0.00     0.281 C 
ATOM     21  C   UNL     1      21.226  29.247  20.343  1.00  0.00     0.180 C 
ATOM     22  C   UNL     1      21.366  27.813  20.703  1.00  0.00     0.202 C 
BRANCH  18  23
ATOM     23  C   UNL     1      22.752  29.197  17.688  1.00  0.00     0.191 C 
BRANCH  23  24
ATOM     24  O   UNL     1      23.416  28.567  16.642  1.00  0.00    -0.394 OA
ATOM     25  H   UNL     1      23.597  27.623  16.895  1.00  0.00     0.210 HD
ENDBRANCH  23  24
ENDBRANCH  18  23
BRANCH  20  26
ATOM     26  O   UNL     1      23.341  27.015  19.689  1.00  0.00    -0.350 OA
BRANCH  26  27
ATOM     27  C   UNL     1      23.848  26.533  20.865  1.00  0.00     0.169 C 
BRANCH  27  28
ATOM     28  C   UNL     1      24.310  25.104  20.761  1.00  0.00     0.119 C 
BRANCH  28  29
ATOM     29  N   UNL     1      23.639  24.328  21.789  1.00  0.00    -0.092 NA
ATOM     30  N   UNL     1      22.424  24.438  21.933  1.00  0.00     0.001 N 
ATOM     31  N   UNL     1      21.192  24.405  21.931  1.00  0.00    -0.003 NA
ENDBRANCH  28  29
ENDBRANCH  27  28
ENDBRANCH  26  27
ENDBRANCH  20  26
BRANCH  21  32
ATOM     32  O   UNL     1      22.410  29.965  20.446  1.00  0.00    -0.387 OA
ATOM     33  H   UNL     1      22.658  30.159  21.382  1.00  0.00     0.211 HD
ENDBRANCH  21  32
BRANCH  22  34
ATOM     34  O   UNL     1      20.173  27.268  21.181  1.00  0.00    -0.385 OA
ATOM     35  H   UNL     1      19.959  27.778  22.003  1.00  0.00     0.211 HD
ENDBRANCH  22  34
ENDBRANCH  16  17
ENDBRANCH  11  16
BRANCH  13  36
ATOM     36  O   UNL     1      18.704  28.753  16.058  1.00  0.00    -0.385 OA
ATOM     37  H   UNL     1      19.566  28.552  16.510  1.00  0.00     0.211 HD
ENDBRANCH  13  36
BRANCH  14  38
ATOM     38  O   UNL     1      15.618  28.753  16.371  1.00  0.00    -0.387 OA
ATOM     39  H   UNL     1      15.955  27.971  15.875  1.00  0.00     0.211 HD
ENDBRANCH  14  38
BRANCH  15  40
ATOM     40  O   UNL     1      14.688  30.846  17.161  1.00  0.00    -0.387 OA
ATOM     41  H   UNL     1      14.241  31.370  16.492  1.00  0.00     0.211 HD
ENDBRANCH  15  40
ENDBRANCH   9  10
ENDBRANCH   8   9
ENDBRANCH   3   8
BRANCH   3  42
ATOM     42  C   UNL     1      15.375  28.414  20.048  1.00  0.00     0.364 C 
ATOM     43  O   UNL     1      16.319  27.628  20.192  1.00  0.00    -0.246 OA
BRANCH  42  44
ATOM     44  O   UNL     1      14.581  28.325  18.927  1.00  0.00    -0.477 OA
ATOM     45  H   UNL     1      13.844  29.013  18.824  1.00  0.00     0.296 HD
ENDBRANCH  42  44
ENDBRANCH   3  42
BRANCH   6  46
ATOM     46  O   UNL     1      12.304  29.917  23.437  1.00  0.00    -0.391 OA
ATOM     47  H   UNL     1      12.375  30.673  24.110  1.00  0.00     0.211 HD
ENDBRANCH   6  46
BRANCH   7  48
ATOM     48  N   UNL     1      14.552  30.697  24.988  1.00  0.00    -0.348 N 
ATOM     49  C   UNL     1      13.796  31.743  25.584  1.00  0.00     0.217 C 
ATOM     50  H   UNL     1      15.067  30.049  25.610  1.00  0.00     0.163 HD
ATOM     51  C   UNL     1      13.721  31.943  27.032  1.00  0.00     0.114 C 
ATOM     52  O   UNL     1      13.157  32.546  24.821  1.00  0.00    -0.275 OA
ENDBRANCH   7  48
ENDBRANCH   1   2
BRANCH   1  53
ATOM     53  O   UNL     1      16.739  32.088  23.446  1.00  0.00    -0.388 OA
ATOM     54  H   UNL     1      17.448  32.567  22.916  1.00  0.00     0.211 HD
ENDBRANCH   1  53
BRANCH   1  55
ATOM     55  C   UNL     1      18.254  30.608  22.456  1.00  0.00     0.165 C 
BRANCH  55  56
ATOM     56  O   UNL     1      18.297  29.444  21.760  1.00  0.00    -0.388 OA
ATOM     57  H   UNL     1      17.580  29.430  21.085  1.00  0.00     0.211 HD
ENDBRANCH  55  56
BRANCH  55  58
ATOM     58  C   UNL     1      19.541  30.777  23.277  1.00  0.00     0.154 C 
BRANCH  58  59
ATOM     59  N   UNL     1      19.692  29.682  24.209  1.00  0.00    -0.319 N 
ATOM     60  C   UNL     1      20.879  28.955  24.449  1.00  0.00     0.407 C 
ATOM     61  H   UNL     1      18.859  29.366  24.797  1.00  0.00     0.167 HD
ATOM     62  O   UNL     1      21.943  29.256  23.874  1.00  0.00    -0.225 OA
BRANCH  60  63
ATOM     63  O   UNL     1      20.903  27.864  25.341  1.00  0.00    -0.443 OA
BRANCH  63  64
ATOM     64  C   UNL     1      20.896  26.530  24.789  1.00  0.00     0.294 C 
BRANCH  64  65
ATOM     65  C   UNL     1      22.086  25.872  25.445  1.00  0.00     0.120 A 
ATOM     66  C   UNL     1      22.971  26.569  26.290  1.00  0.00     0.138 A 
ATOM     67  N   UNL     1      22.568  24.648  25.363  1.00  0.00    -0.132 NA
ATOM     68  N   UNL     1      23.949  25.734  26.674  1.00  0.00    -0.249 N 
ATOM     69  N   UNL     1      23.691  24.580  26.108  1.00  0.00    -0.067 NA
BRANCH  68  70
ATOM     70  C   UNL     1      25.062  26.130  27.538  1.00  0.00     0.114 C 
ATOM     71  C   UNL     1      26.068  26.877  26.720  1.00  0.00     0.034 C 
BRANCH  70  72
ATOM     72  C   UNL     1      24.560  26.838  28.753  1.00  0.00     0.108 C 
BRANCH  72  73
ATOM     73  C   UNL     1      24.417  25.834  29.840  1.00  0.00     0.164 C 
ATOM     74  O   UNL     1      23.506  25.003  29.835  1.00  0.00    -0.294 OA
BRANCH  73  75
ATOM     75  C   UNL     1      25.410  25.867  30.925  1.00  0.00     0.018 A 
ATOM     76  C   UNL     1      26.657  25.378  30.789  1.00  0.00     0.012 A 
ATOM     77  C   UNL     1      25.002  26.448  32.137  1.00  0.00     0.012 A 
ATOM     78  C   UNL     1      27.566  25.446  31.859  1.00  0.00     0.001 A 
ATOM     79  C   UNL     1      25.899  26.504  33.164  1.00  0.00     0.001 A 
ATOM     80  C   UNL     1      27.173  26.015  33.048  1.00  0.00     0.000 A 
ENDBRANCH  73  75
ENDBRANCH  72  73
ENDBRANCH  70  72
ENDBRANCH  68  70
ENDBRANCH  64  65
ENDBRANCH  63  64
ENDBRANCH  60  63
ENDBRANCH  58  59
ENDBRANCH  55  58
ENDBRANCH   1  55
TORSDOF 33
