REMARK VINA RESULT:    -5.304      0.000      0.000
REMARK INTER + INTRA:         -22.765
REMARK INTER:                 -16.856
REMARK INTRA:                  -5.909
REMARK UNBOUND:                -8.780
REMARK SMILES COc1ccc(Cn2cc(COC(=O)NC[C@@H](O)C(O)[C@@H]3O[C@@](OC[C@H]4O[C@@H](O[C@H]5[C@H](O)[C@@H](O)[C@H](OCCN=[N+]=[N-])O[C@@H]5CO)[C@H](O)[C@@H](O)[C@H]4O)(C(=O)O)C[C@H](O)[C@H]3NC(C)=O)nn2)cc1OC
REMARK SMILES IDX 23 1 55 2 56 3 58 4 21 5 22 6 24 7 25 8 26 9 28 10 27 11
REMARK SMILES IDX 46 12 48 13 50 14 29 15 30 16 43 17 42 18 35 19 31 20 33 21
REMARK SMILES IDX 44 22 45 23 36 25 37 26 38 27 39 28 40 29 41 30 32 31 34 33
REMARK SMILES IDX 47 35 49 37 51 39 52 41 53 42 54 43 57 45 19 47 20 48 17 50
REMARK SMILES IDX 18 51 16 53 15 54 13 55 14 57 12 58 11 59 10 60 9 61 63 62
REMARK SMILES IDX 8 63 64 64 7 65 6 66 65 67 5 68 66 69 4 70 3 71 67 72 68 73
REMARK SMILES IDX 2 74 1 75 59 76 60 77 61 79 62 80
REMARK H PARENT 45 24 32 32 34 34 47 36 49 38 51 40 54 44 57 46 20 49 18 52
REMARK H PARENT 15 56 59 78
REMARK Flexibility Score: inf
ROOT
ATOM      1  C   UNL     1      22.632  25.432  20.568  1.00  0.00     0.272 C 
ATOM      2  C   UNL     1      21.910  24.264  21.214  1.00  0.00     0.113 C 
ATOM      3  C   UNL     1      21.738  24.262  22.689  1.00  0.00     0.145 C 
ATOM      4  C   UNL     1      22.778  25.179  23.328  1.00  0.00     0.142 C 
ATOM      5  C   UNL     1      23.958  25.106  22.443  1.00  0.00     0.178 C 
ATOM      6  O   UNL     1      23.737  25.879  21.319  1.00  0.00    -0.332 OA
ENDROOT
BRANCH   1   7
ATOM      7  O   UNL     1      21.689  26.452  20.548  1.00  0.00    -0.338 OA
BRANCH   7   8
ATOM      8  C   UNL     1      22.076  27.659  20.052  1.00  0.00     0.199 C 
BRANCH   8   9
ATOM      9  C   UNL     1      21.336  28.784  20.722  1.00  0.00     0.179 C 
ATOM     10  C   UNL     1      19.316  29.611  21.352  1.00  0.00     0.282 C 
ATOM     11  O   UNL     1      20.042  28.383  21.103  1.00  0.00    -0.341 OA
ATOM     12  C   UNL     1      19.777  30.207  22.600  1.00  0.00     0.202 C 
ATOM     13  C   UNL     1      21.291  30.218  22.721  1.00  0.00     0.179 C 
ATOM     14  C   UNL     1      22.001  29.097  22.070  1.00  0.00     0.177 C 
BRANCH  10  15
ATOM     15  O   UNL     1      17.978  29.275  21.314  1.00  0.00    -0.341 OA
BRANCH  15  16
ATOM     16  C   UNL     1      17.423  29.640  20.087  1.00  0.00     0.184 C 
ATOM     17  C   UNL     1      16.237  30.513  20.210  1.00  0.00     0.178 C 
ATOM     18  O   UNL     1      15.949  31.029  18.950  1.00  0.00    -0.341 OA
ATOM     19  C   UNL     1      16.144  30.145  17.949  1.00  0.00     0.281 C 
ATOM     20  C   UNL     1      17.038  28.341  19.369  1.00  0.00     0.180 C 
ATOM     21  C   UNL     1      15.980  28.687  18.313  1.00  0.00     0.202 C 
BRANCH  17  22
ATOM     22  C   UNL     1      16.410  31.611  21.233  1.00  0.00     0.191 C 
BRANCH  22  23
ATOM     23  O   UNL     1      16.234  31.019  22.482  1.00  0.00    -0.394 OA
ATOM     24  H   UNL     1      15.767  31.670  23.086  1.00  0.00     0.210 HD
ENDBRANCH  22  23
ENDBRANCH  17  22
BRANCH  19  25
ATOM     25  O   UNL     1      17.508  30.275  17.500  1.00  0.00    -0.350 OA
BRANCH  25  26
ATOM     26  C   UNL     1      17.464  30.982  16.281  1.00  0.00     0.169 C 
BRANCH  26  27
ATOM     27  C   UNL     1      18.692  30.746  15.420  1.00  0.00     0.119 C 
BRANCH  27  28
ATOM     28  N   UNL     1      18.758  29.352  15.077  1.00  0.00    -0.092 NA
ATOM     29  N   UNL     1      19.407  28.540  15.743  1.00  0.00     0.001 N 
ATOM     30  N   UNL     1      20.267  28.020  16.482  1.00  0.00    -0.003 NA
ENDBRANCH  27  28
ENDBRANCH  26  27
ENDBRANCH  25  26
ENDBRANCH  19  25
BRANCH  20  31
ATOM     31  O   UNL     1      18.161  27.897  18.691  1.00  0.00    -0.387 OA
ATOM     32  H   UNL     1      18.848  27.628  19.373  1.00  0.00     0.211 HD
ENDBRANCH  20  31
BRANCH  21  33
ATOM     33  O   UNL     1      14.738  28.483  18.866  1.00  0.00    -0.385 OA
ATOM     34  H   UNL     1      14.125  27.991  18.254  1.00  0.00     0.211 HD
ENDBRANCH  21  33
ENDBRANCH  15  16
ENDBRANCH  10  15
BRANCH  12  35
ATOM     35  O   UNL     1      19.376  31.528  22.719  1.00  0.00    -0.385 OA
ATOM     36  H   UNL     1      20.154  32.157  22.727  1.00  0.00     0.211 HD
ENDBRANCH  12  35
BRANCH  13  37
ATOM     37  O   UNL     1      21.604  30.288  24.104  1.00  0.00    -0.387 OA
ATOM     38  H   UNL     1      22.549  29.996  24.194  1.00  0.00     0.211 HD
ENDBRANCH  13  37
BRANCH  14  39
ATOM     39  O   UNL     1      21.890  27.907  22.822  1.00  0.00    -0.387 OA
ATOM     40  H   UNL     1      21.341  28.065  23.665  1.00  0.00     0.211 HD
ENDBRANCH  14  39
ENDBRANCH   8   9
ENDBRANCH   7   8
ENDBRANCH   1   7
BRANCH   1  41
ATOM     41  C   UNL     1      23.121  24.993  19.236  1.00  0.00     0.364 C 
ATOM     42  O   UNL     1      24.268  25.239  18.854  1.00  0.00    -0.246 OA
BRANCH  41  43
ATOM     43  O   UNL     1      22.323  24.271  18.308  1.00  0.00    -0.477 OA
ATOM     44  H   UNL     1      22.818  23.972  17.436  1.00  0.00     0.296 HD
ENDBRANCH  41  43
ENDBRANCH   1  41
BRANCH   3  45
ATOM     45  O   UNL     1      20.489  24.701  23.059  1.00  0.00    -0.391 OA
ATOM     46  H   UNL     1      20.441  25.699  22.998  1.00  0.00     0.211 HD
ENDBRANCH   3  45
BRANCH   5  47
ATOM     47  C   UNL     1      25.238  25.266  23.124  1.00  0.00     0.176 C 
BRANCH  47  48
ATOM     48  O   UNL     1      25.589  24.271  24.027  1.00  0.00    -0.388 OA
ATOM     49  H   UNL     1      26.295  23.679  23.744  1.00  0.00     0.211 HD
ENDBRANCH  47  48
BRANCH  47  50
ATOM     50  C   UNL     1      26.405  24.979  22.031  1.00  0.00     0.165 C 
BRANCH  50  51
ATOM     51  O   UNL     1      26.409  26.013  21.178  1.00  0.00    -0.388 OA
ATOM     52  H   UNL     1      25.894  26.805  21.511  1.00  0.00     0.211 HD
ENDBRANCH  50  51
BRANCH  50  53
ATOM     53  C   UNL     1      26.365  23.598  21.612  1.00  0.00     0.154 C 
BRANCH  53  54
ATOM     54  N   UNL     1      27.343  22.617  21.943  1.00  0.00    -0.319 N 
ATOM     55  C   UNL     1      27.947  21.939  20.856  1.00  0.00     0.407 C 
ATOM     56  H   UNL     1      27.641  22.343  22.876  1.00  0.00     0.167 HD
ATOM     57  O   UNL     1      27.606  22.204  19.656  1.00  0.00    -0.225 OA
BRANCH  55  58
ATOM     58  O   UNL     1      28.927  20.958  20.963  1.00  0.00    -0.443 OA
BRANCH  58  59
ATOM     59  C   UNL     1      28.715  19.944  22.005  1.00  0.00     0.294 C 
BRANCH  59  60
ATOM     60  C   UNL     1      29.777  20.277  22.999  1.00  0.00     0.120 A 
ATOM     61  C   UNL     1      30.992  19.568  23.149  1.00  0.00     0.138 A 
ATOM     62  N   UNL     1      29.813  21.304  23.839  1.00  0.00    -0.132 NA
ATOM     63  N   UNL     1      31.689  20.245  24.092  1.00  0.00    -0.248 N 
ATOM     64  N   UNL     1      30.996  21.254  24.490  1.00  0.00    -0.067 NA
BRANCH  63  65
ATOM     65  C   UNL     1      33.068  19.888  24.523  1.00  0.00     0.181 C 
BRANCH  65  66
ATOM     66  C   UNL     1      32.879  19.541  26.001  1.00  0.00    -0.023 A 
ATOM     67  C   UNL     1      33.200  20.425  27.008  1.00  0.00     0.056 A 
ATOM     68  C   UNL     1      32.262  18.367  26.288  1.00  0.00     0.010 A 
ATOM     69  C   UNL     1      32.833  20.012  28.320  1.00  0.00     0.161 A 
ATOM     70  C   UNL     1      31.903  17.971  27.613  1.00  0.00     0.051 A 
ATOM     71  C   UNL     1      32.220  18.860  28.605  1.00  0.00     0.160 A 
BRANCH  69  72
ATOM     72  O   UNL     1      33.136  20.860  29.388  1.00  0.00    -0.493 OA
ATOM     73  C   UNL     1      34.488  21.167  29.747  1.00  0.00     0.278 C 
ENDBRANCH  69  72
BRANCH  71  74
ATOM     74  O   UNL     1      31.877  18.569  29.956  1.00  0.00    -0.493 OA
ATOM     75  C   UNL     1      32.465  17.401  30.568  1.00  0.00     0.278 C 
ENDBRANCH  71  74
ENDBRANCH  65  66
ENDBRANCH  63  65
ENDBRANCH  59  60
ENDBRANCH  58  59
ENDBRANCH  55  58
ENDBRANCH  53  54
ENDBRANCH  50  53
ENDBRANCH  47  50
ENDBRANCH   5  47
BRANCH   4  76
ATOM     76  N   UNL     1      22.999  24.743  24.681  1.00  0.00    -0.348 N 
ATOM     77  C   UNL     1      22.374  25.421  25.734  1.00  0.00     0.217 C 
ATOM     78  H   UNL     1      23.602  23.912  24.936  1.00  0.00     0.163 HD
ATOM     79  C   UNL     1      22.520  25.112  27.189  1.00  0.00     0.114 C 
ATOM     80  O   UNL     1      21.578  26.426  25.538  1.00  0.00    -0.275 OA
ENDBRANCH   4  76
TORSDOF 33
