REMARK VINA RESULT:    -6.556      4.170     11.715
REMARK INTER + INTRA:         -22.239
REMARK INTER:                 -16.961
REMARK INTRA:                  -5.278
REMARK UNBOUND:                -5.144
REMARK SMILES CC(=O)N[C@@H]1[C@@H](O)C[C@](OC[C@H]2O[C@@H](O[C@H]3[C@H](O)[C@@H](O)[C@H](OCCN=[N+]=[N-])O[C@@H]3CO)[C@H](O)[C@@H](O)[C@H]2O)(C(=O)O)O[C@H]1C(O)[C@H](O)CNC(=O)OCc1cn(-c2cccc(C=CC(=O)O)c2)nn1
REMARK SMILES IDX 43 1 42 2 9 3 8 4 41 5 6 6 5 7 10 8 11 9 12 10 14 11 13 12
REMARK SMILES IDX 32 13 34 14 36 15 15 16 16 17 29 18 28 19 21 20 17 21 19 22
REMARK SMILES IDX 30 23 31 24 22 26 23 27 24 28 25 29 26 30 27 31 18 32 20 34
REMARK SMILES IDX 33 36 35 38 37 40 38 42 39 43 40 44 7 46 4 48 2 49 1 51 3 52
REMARK SMILES IDX 44 53 45 55 46 56 47 58 48 59 49 60 50 62 51 63 52 64 53 65
REMARK SMILES IDX 54 66 68 67 55 68 67 69 56 70 66 71 57 72 60 73 58 74 59 75
REMARK SMILES IDX 61 76 62 77 63 78 64 79 65 80
REMARK H PARENT 31 25 18 33 20 35 33 37 35 39 37 41 40 45 7 47 4 50 44 54
REMARK H PARENT 46 57 48 61 65 81
REMARK Flexibility Score: inf
ROOT
ATOM      1  C   UNL     1      16.641  28.219  18.877  1.00  0.00     0.176 C 
ENDROOT
BRANCH   1   2
ATOM      2  C   UNL     1      17.986  28.880  19.104  1.00  0.00     0.178 C 
ATOM      3  C   UNL     1      20.249  28.431  18.619  1.00  0.00     0.272 C 
ATOM      4  C   UNL     1      20.273  29.814  19.430  1.00  0.00     0.113 C 
ATOM      5  O   UNL     1      18.934  28.016  18.629  1.00  0.00    -0.332 OA
ATOM      6  C   UNL     1      19.669  29.501  20.752  1.00  0.00     0.145 C 
ATOM      7  C   UNL     1      18.209  29.136  20.568  1.00  0.00     0.142 C 
BRANCH   3   8
ATOM      8  O   UNL     1      20.977  27.629  19.405  1.00  0.00    -0.338 OA
BRANCH   8   9
ATOM      9  C   UNL     1      21.950  26.820  19.027  1.00  0.00     0.199 C 
BRANCH   9  10
ATOM     10  C   UNL     1      23.183  26.684  19.895  1.00  0.00     0.179 C 
ATOM     11  C   UNL     1      23.446  27.160  22.197  1.00  0.00     0.282 C 
ATOM     12  O   UNL     1      23.065  27.539  20.925  1.00  0.00    -0.341 OA
ATOM     13  C   UNL     1      24.572  26.208  22.122  1.00  0.00     0.202 C 
ATOM     14  C   UNL     1      24.330  24.983  21.295  1.00  0.00     0.179 C 
ATOM     15  C   UNL     1      23.163  25.241  20.377  1.00  0.00     0.177 C 
BRANCH  11  16
ATOM     16  O   UNL     1      22.297  26.756  22.840  1.00  0.00    -0.341 OA
BRANCH  16  17
ATOM     17  C   UNL     1      22.213  27.051  24.157  1.00  0.00     0.184 C 
ATOM     18  C   UNL     1      21.526  25.962  24.922  1.00  0.00     0.178 C 
ATOM     19  O   UNL     1      21.848  26.210  26.279  1.00  0.00    -0.341 OA
ATOM     20  C   UNL     1      21.136  27.323  26.732  1.00  0.00     0.281 C 
ATOM     21  C   UNL     1      21.381  28.308  24.430  1.00  0.00     0.180 C 
ATOM     22  C   UNL     1      21.393  28.553  25.924  1.00  0.00     0.202 C 
BRANCH  18  23
ATOM     23  C   UNL     1      21.940  24.579  24.567  1.00  0.00     0.191 C 
BRANCH  23  24
ATOM     24  O   UNL     1      23.320  24.462  24.716  1.00  0.00    -0.394 OA
ATOM     25  H   UNL     1      23.634  23.579  24.347  1.00  0.00     0.210 HD
ENDBRANCH  23  24
ENDBRANCH  18  23
BRANCH  20  26
ATOM     26  O   UNL     1      21.529  27.560  28.046  1.00  0.00    -0.350 OA
BRANCH  26  27
ATOM     27  C   UNL     1      22.916  27.606  28.174  1.00  0.00     0.169 C 
BRANCH  27  28
ATOM     28  C   UNL     1      23.299  26.790  29.388  1.00  0.00     0.119 C 
BRANCH  28  29
ATOM     29  N   UNL     1      24.520  26.070  29.115  1.00  0.00    -0.092 NA
ATOM     30  N   UNL     1      24.908  25.909  27.944  1.00  0.00     0.001 N 
ATOM     31  N   UNL     1      25.091  25.399  26.828  1.00  0.00    -0.003 NA
ENDBRANCH  28  29
ENDBRANCH  27  28
ENDBRANCH  26  27
ENDBRANCH  20  26
BRANCH  21  32
ATOM     32  O   UNL     1      21.922  29.439  23.830  1.00  0.00    -0.387 OA
ATOM     33  H   UNL     1      22.578  29.099  23.171  1.00  0.00     0.211 HD
ENDBRANCH  21  32
BRANCH  22  34
ATOM     34  O   UNL     1      20.322  29.442  26.174  1.00  0.00    -0.385 OA
ATOM     35  H   UNL     1      19.590  29.010  26.668  1.00  0.00     0.211 HD
ENDBRANCH  22  34
ENDBRANCH  16  17
ENDBRANCH  11  16
BRANCH  13  36
ATOM     36  O   UNL     1      25.702  26.868  21.556  1.00  0.00    -0.385 OA
ATOM     37  H   UNL     1      25.423  27.769  21.230  1.00  0.00     0.211 HD
ENDBRANCH  13  36
BRANCH  14  38
ATOM     38  O   UNL     1      24.147  23.819  22.047  1.00  0.00    -0.387 OA
ATOM     39  H   UNL     1      23.730  24.009  22.925  1.00  0.00     0.211 HD
ENDBRANCH  14  38
BRANCH  15  40
ATOM     40  O   UNL     1      21.989  24.961  21.047  1.00  0.00    -0.387 OA
ATOM     41  H   UNL     1      21.970  24.019  21.403  1.00  0.00     0.211 HD
ENDBRANCH  15  40
ENDBRANCH   9  10
ENDBRANCH   8   9
ENDBRANCH   3   8
BRANCH   3  42
ATOM     42  C   UNL     1      20.681  28.775  17.275  1.00  0.00     0.364 C 
ATOM     43  O   UNL     1      21.647  29.473  16.919  1.00  0.00    -0.246 OA
BRANCH  42  44
ATOM     44  O   UNL     1      19.917  28.262  16.198  1.00  0.00    -0.477 OA
ATOM     45  H   UNL     1      18.893  28.381  16.245  1.00  0.00     0.296 HD
ENDBRANCH  42  44
ENDBRANCH   3  42
BRANCH   6  46
ATOM     46  O   UNL     1      20.363  28.342  21.236  1.00  0.00    -0.391 OA
ATOM     47  H   UNL     1      21.332  28.424  21.018  1.00  0.00     0.211 HD
ENDBRANCH   6  46
BRANCH   7  48
ATOM     48  N   UNL     1      17.280  30.002  21.198  1.00  0.00    -0.348 N 
ATOM     49  C   UNL     1      17.012  30.146  22.562  1.00  0.00     0.217 C 
ATOM     50  H   UNL     1      16.664  30.629  20.561  1.00  0.00     0.163 HD
ATOM     51  C   UNL     1      15.949  31.136  23.001  1.00  0.00     0.114 C 
ATOM     52  O   UNL     1      17.599  29.504  23.474  1.00  0.00    -0.275 OA
ENDBRANCH   7  48
ENDBRANCH   1   2
BRANCH   1  53
ATOM     53  O   UNL     1      16.219  27.620  20.050  1.00  0.00    -0.388 OA
ATOM     54  H   UNL     1      15.255  27.614  20.187  1.00  0.00     0.211 HD
ENDBRANCH   1  53
BRANCH   1  55
ATOM     55  C   UNL     1      15.562  29.238  18.510  1.00  0.00     0.165 C 
BRANCH  55  56
ATOM     56  O   UNL     1      14.293  28.729  18.527  1.00  0.00    -0.388 OA
ATOM     57  H   UNL     1      14.023  28.321  19.382  1.00  0.00     0.211 HD
ENDBRANCH  55  56
BRANCH  55  58
ATOM     58  C   UNL     1      15.876  29.915  17.214  1.00  0.00     0.154 C 
BRANCH  58  59
ATOM     59  N   UNL     1      15.258  29.274  16.110  1.00  0.00    -0.319 N 
ATOM     60  C   UNL     1      15.017  29.928  14.881  1.00  0.00     0.407 C 
ATOM     61  H   UNL     1      14.950  28.266  16.174  1.00  0.00     0.167 HD
ATOM     62  O   UNL     1      15.347  31.134  14.710  1.00  0.00    -0.225 OA
BRANCH  60  63
ATOM     63  O   UNL     1      14.414  29.289  13.800  1.00  0.00    -0.443 OA
BRANCH  63  64
ATOM     64  C   UNL     1      13.441  28.286  14.113  1.00  0.00     0.294 C 
BRANCH  64  65
ATOM     65  C   UNL     1      12.146  28.974  14.270  1.00  0.00     0.121 A 
ATOM     66  C   UNL     1      11.769  29.867  15.269  1.00  0.00     0.144 A 
ATOM     67  N   UNL     1      11.086  28.862  13.453  1.00  0.00    -0.131 NA
ATOM     68  N   UNL     1      10.500  30.261  15.017  1.00  0.00    -0.220 N 
ATOM     69  N   UNL     1      10.118  29.640  13.920  1.00  0.00    -0.062 NA
BRANCH  68  70
ATOM     70  C   UNL     1       9.789  31.184  15.825  1.00  0.00     0.067 A 
ATOM     71  C   UNL     1       8.592  30.796  16.428  1.00  0.00     0.036 A 
ATOM     72  C   UNL     1      10.245  32.443  16.031  1.00  0.00     0.028 A 
ATOM     73  C   UNL     1       7.875  31.644  17.213  1.00  0.00    -0.023 A 
ATOM     74  C   UNL     1       9.544  33.346  16.826  1.00  0.00     0.003 A 
ATOM     75  C   UNL     1       8.369  32.920  17.402  1.00  0.00     0.008 A 
BRANCH  73  76
ATOM     76  C   UNL     1       6.631  31.245  17.837  1.00  0.00     0.015 C 
ATOM     77  C   UNL     1       6.060  30.104  17.544  1.00  0.00     0.094 C 
BRANCH  77  78
ATOM     78  C   UNL     1       4.802  29.741  18.200  1.00  0.00     0.328 C 
ATOM     79  O   UNL     1       4.788  29.145  19.283  1.00  0.00    -0.247 OA
BRANCH  78  80
ATOM     80  O   UNL     1       3.583  30.066  17.609  1.00  0.00    -0.478 OA
ATOM     81  H   UNL     1       2.924  30.612  18.167  1.00  0.00     0.297 HD
ENDBRANCH  78  80
ENDBRANCH  77  78
ENDBRANCH  73  76
ENDBRANCH  68  70
ENDBRANCH  64  65
ENDBRANCH  63  64
ENDBRANCH  60  63
ENDBRANCH  58  59
ENDBRANCH  55  58
ENDBRANCH   1  55
TORSDOF 33
