REMARK VINA RESULT:    -5.121     15.781     20.769
REMARK INTER + INTRA:         -19.892
REMARK INTER:                 -13.503
REMARK INTRA:                  -6.390
REMARK UNBOUND:                -6.390
REMARK SMILES CCOC(=O)Cn1cc(COC(=O)NC[C@@H](O)C(O)[C@@H]2O[C@@](OC[C@H]3O[C@@H](O[C@H]4[C@H](O)[C@@H](O)[C@H](OCCN=[N+]=[N-])O[C@@H]4CO)[C@H](O)[C@@H](O)[C@H]3O)(C(=O)O)C[C@H](O)[C@H]2NC(C)=O)nn1
REMARK SMILES IDX 18 1 20 2 22 3 54 4 21 5 55 6 57 7 23 8 24 9 25 10 27 11
REMARK SMILES IDX 26 12 45 13 47 14 49 15 28 16 29 17 42 18 41 19 34 20 30 21
REMARK SMILES IDX 32 22 43 23 44 24 35 26 36 27 37 28 38 29 39 30 40 31 31 32
REMARK SMILES IDX 33 34 46 36 48 38 50 40 51 42 52 43 53 44 56 46 58 48 59 49
REMARK SMILES IDX 60 51 61 52 19 53 16 55 17 56 15 58 14 59 12 60 13 62 11 63
REMARK SMILES IDX 10 64 9 65 8 66 62 67 7 68 63 69 6 70 4 71 5 72 3 73 2 74
REMARK SMILES IDX 1 75
REMARK H PARENT 44 25 31 33 33 35 46 37 48 39 50 41 53 45 56 47 58 50 19 54
REMARK H PARENT 17 57 14 61
REMARK Flexibility Score: inf
ROOT
ATOM      1  C   UNL     1       2.283  24.883  26.369  1.00  0.00     0.176 C 
ENDROOT
BRANCH   1   2
ATOM      2  C   UNL     1       3.082  25.948  25.671  1.00  0.00     0.178 C 
ATOM      3  C   UNL     1       5.088  27.137  25.853  1.00  0.00     0.272 C 
ATOM      4  C   UNL     1       4.444  27.989  24.814  1.00  0.00     0.113 C 
ATOM      5  O   UNL     1       4.403  25.916  26.036  1.00  0.00    -0.332 OA
ATOM      6  C   UNL     1       3.010  28.309  25.088  1.00  0.00     0.145 C 
ATOM      7  C   UNL     1       2.475  27.281  26.071  1.00  0.00     0.142 C 
BRANCH   3   8
ATOM      8  O   UNL     1       5.265  27.731  27.083  1.00  0.00    -0.338 OA
BRANCH   8   9
ATOM      9  C   UNL     1       5.619  26.952  28.131  1.00  0.00     0.199 C 
BRANCH   9  10
ATOM     10  C   UNL     1       4.488  27.011  29.177  1.00  0.00     0.179 C 
ATOM     11  C   UNL     1       3.903  26.311  31.310  1.00  0.00     0.282 C 
ATOM     12  O   UNL     1       4.714  26.154  30.208  1.00  0.00    -0.341 OA
ATOM     13  C   UNL     1       3.840  27.718  31.822  1.00  0.00     0.202 C 
ATOM     14  C   UNL     1       3.266  28.564  30.714  1.00  0.00     0.179 C 
ATOM     15  C   UNL     1       4.180  28.432  29.542  1.00  0.00     0.177 C 
BRANCH  11  16
ATOM     16  O   UNL     1       4.251  25.481  32.362  1.00  0.00    -0.341 OA
BRANCH  16  17
ATOM     17  C   UNL     1       3.831  24.180  32.249  1.00  0.00     0.184 C 
ATOM     18  C   UNL     1       2.465  23.935  32.852  1.00  0.00     0.178 C 
ATOM     19  O   UNL     1       2.545  23.164  34.004  1.00  0.00    -0.341 OA
ATOM     20  C   UNL     1       2.997  21.852  33.732  1.00  0.00     0.281 C 
ATOM     21  C   UNL     1       4.835  23.261  32.943  1.00  0.00     0.180 C 
ATOM     22  C   UNL     1       4.236  21.863  32.894  1.00  0.00     0.202 C 
BRANCH  18  23
ATOM     23  C   UNL     1       1.531  23.375  31.811  1.00  0.00     0.191 C 
BRANCH  23  24
ATOM     24  O   UNL     1       0.223  23.858  31.999  1.00  0.00    -0.394 OA
ATOM     25  H   UNL     1      -0.367  23.581  31.270  1.00  0.00     0.210 HD
ENDBRANCH  23  24
ENDBRANCH  18  23
BRANCH  20  26
ATOM     26  O   UNL     1       1.993  21.099  33.182  1.00  0.00    -0.350 OA
BRANCH  26  27
ATOM     27  C   UNL     1       1.326  20.197  33.940  1.00  0.00     0.169 C 
BRANCH  27  28
ATOM     28  C   UNL     1       1.304  18.772  33.534  1.00  0.00     0.119 C 
BRANCH  28  29
ATOM     29  N   UNL     1       2.215  17.889  34.180  1.00  0.00    -0.092 NA
ATOM     30  N   UNL     1       3.195  18.324  34.821  1.00  0.00     0.001 N 
ATOM     31  N   UNL     1       3.969  18.960  35.557  1.00  0.00    -0.003 NA
ENDBRANCH  28  29
ENDBRANCH  27  28
ENDBRANCH  26  27
ENDBRANCH  20  26
BRANCH  21  32
ATOM     32  O   UNL     1       6.042  23.283  32.239  1.00  0.00    -0.387 OA
ATOM     33  H   UNL     1       6.103  24.191  31.807  1.00  0.00     0.211 HD
ENDBRANCH  21  32
BRANCH  22  34
ATOM     34  O   UNL     1       5.192  20.937  33.320  1.00  0.00    -0.385 OA
ATOM     35  H   UNL     1       4.891  19.998  33.248  1.00  0.00     0.211 HD
ENDBRANCH  22  34
ENDBRANCH  16  17
ENDBRANCH  11  16
BRANCH  13  36
ATOM     36  O   UNL     1       3.007  27.750  32.934  1.00  0.00    -0.385 OA
ATOM     37  H   UNL     1       2.665  26.891  33.225  1.00  0.00     0.211 HD
ENDBRANCH  13  36
BRANCH  14  38
ATOM     38  O   UNL     1       3.269  29.906  31.155  1.00  0.00    -0.387 OA
ATOM     39  H   UNL     1       2.415  30.120  31.606  1.00  0.00     0.211 HD
ENDBRANCH  14  38
BRANCH  15  40
ATOM     40  O   UNL     1       5.359  29.153  29.844  1.00  0.00    -0.387 OA
ATOM     41  H   UNL     1       5.700  28.726  30.678  1.00  0.00     0.211 HD
ENDBRANCH  15  40
ENDBRANCH   9  10
ENDBRANCH   8   9
ENDBRANCH   3   8
BRANCH   3  42
ATOM     42  C   UNL     1       6.409  26.714  25.326  1.00  0.00     0.364 C 
ATOM     43  O   UNL     1       7.306  27.568  25.154  1.00  0.00    -0.246 OA
BRANCH  42  44
ATOM     44  O   UNL     1       6.656  25.404  25.025  1.00  0.00    -0.477 OA
ATOM     45  H   UNL     1       7.538  25.095  24.624  1.00  0.00     0.296 HD
ENDBRANCH  42  44
ENDBRANCH   3  42
BRANCH   6  46
ATOM     46  O   UNL     1       2.769  29.598  25.501  1.00  0.00    -0.391 OA
ATOM     47  H   UNL     1       3.503  29.877  26.117  1.00  0.00     0.211 HD
ENDBRANCH   6  46
BRANCH   7  48
ATOM     48  N   UNL     1       1.020  27.234  26.026  1.00  0.00    -0.348 N 
ATOM     49  C   UNL     1       0.214  27.967  26.929  1.00  0.00     0.217 C 
ATOM     50  H   UNL     1       0.563  26.648  25.306  1.00  0.00     0.163 HD
ATOM     51  C   UNL     1      -1.279  27.927  26.893  1.00  0.00     0.114 C 
ATOM     52  O   UNL     1       0.791  28.680  27.794  1.00  0.00    -0.275 OA
ENDBRANCH   7  48
ENDBRANCH   1   2
BRANCH   1  53
ATOM     53  O   UNL     1       1.505  24.186  25.466  1.00  0.00    -0.388 OA
ATOM     54  H   UNL     1       1.116  23.345  25.844  1.00  0.00     0.211 HD
ENDBRANCH   1  53
BRANCH   1  55
ATOM     55  C   UNL     1       3.149  23.895  27.132  1.00  0.00     0.165 C 
BRANCH  55  56
ATOM     56  O   UNL     1       3.419  22.753  26.416  1.00  0.00    -0.388 OA
ATOM     57  H   UNL     1       3.998  22.897  25.631  1.00  0.00     0.211 HD
ENDBRANCH  55  56
BRANCH  55  58
ATOM     58  C   UNL     1       2.480  23.586  28.430  1.00  0.00     0.154 C 
BRANCH  58  59
ATOM     59  N   UNL     1       1.200  22.983  28.314  1.00  0.00    -0.319 N 
ATOM     60  C   UNL     1       0.938  21.588  28.369  1.00  0.00     0.407 C 
ATOM     61  H   UNL     1       0.325  23.599  28.170  1.00  0.00     0.167 HD
ATOM     62  O   UNL     1       1.843  20.753  28.536  1.00  0.00    -0.225 OA
BRANCH  60  63
ATOM     63  O   UNL     1      -0.387  21.135  28.235  1.00  0.00    -0.443 OA
BRANCH  63  64
ATOM     64  C   UNL     1      -0.742  20.262  27.215  1.00  0.00     0.294 C 
BRANCH  64  65
ATOM     65  C   UNL     1      -0.400  20.741  25.863  1.00  0.00     0.120 A 
ATOM     66  C   UNL     1      -1.119  20.513  24.705  1.00  0.00     0.139 A 
ATOM     67  N   UNL     1       0.660  21.468  25.486  1.00  0.00    -0.132 NA
ATOM     68  N   UNL     1      -0.485  21.100  23.662  1.00  0.00    -0.241 N 
ATOM     69  N   UNL     1       0.585  21.669  24.173  1.00  0.00    -0.066 NA
BRANCH  68  70
ATOM     70  C   UNL     1      -0.952  21.062  22.281  1.00  0.00     0.268 C 
BRANCH  70  71
ATOM     71  C   UNL     1       0.258  20.852  21.408  1.00  0.00     0.327 C 
ATOM     72  O   UNL     1       0.949  19.818  21.471  1.00  0.00    -0.250 OA
BRANCH  71  73
ATOM     73  O   UNL     1       0.651  21.811  20.491  1.00  0.00    -0.465 OA
BRANCH  73  74
ATOM     74  C   UNL     1      -0.032  22.111  19.308  1.00  0.00     0.229 C 
ATOM     75  C   UNL     1      -0.743  23.441  19.360  1.00  0.00     0.049 C 
ENDBRANCH  73  74
ENDBRANCH  71  73
ENDBRANCH  70  71
ENDBRANCH  68  70
ENDBRANCH  64  65
ENDBRANCH  63  64
ENDBRANCH  60  63
ENDBRANCH  58  59
ENDBRANCH  55  58
ENDBRANCH   1  55
TORSDOF 33
