REMARK VINA RESULT:    -6.163      3.972     10.061
REMARK INTER + INTRA:         -21.467
REMARK INTER:                 -14.654
REMARK INTRA:                  -6.813
REMARK UNBOUND:                -6.298
REMARK SMILES CC(=O)N[C@@H]1[C@@H](O)C[C@](OC[C@H]2O[C@@H](O[C@H]3[C@H](O)[C@@H](O)[C@H](OCCN=[N+]=[N-])O[C@@H]3CO)[C@H](O)[C@@H](O)[C@H]2O)(C(=O)O)O[C@H]1C(O)[C@H](O)CNC(=O)OCc1cn(-c2c(C)cc(C)cc2C)nn1
REMARK SMILES IDX 9 1 8 2 6 3 5 4 42 5 41 6 10 7 11 8 12 9 14 10 13 11 32 12
REMARK SMILES IDX 34 13 36 14 15 15 16 16 29 17 28 18 21 19 17 20 19 21 30 22
REMARK SMILES IDX 31 23 22 25 23 26 24 27 25 28 26 29 27 30 18 31 20 33 33 35
REMARK SMILES IDX 35 37 37 39 38 41 39 42 40 43 7 45 43 47 44 48 45 50 46 51
REMARK SMILES IDX 47 53 48 54 49 55 50 57 51 58 52 59 53 60 54 61 66 62 55 63
REMARK SMILES IDX 65 64 56 65 57 66 63 67 58 68 59 69 62 70 64 71 60 72 61 73
REMARK SMILES IDX 4 74 2 75 1 77 3 78
REMARK H PARENT 31 24 18 32 20 34 33 36 35 38 37 40 40 44 7 46 44 49 46 52
REMARK H PARENT 48 56 4 76
REMARK Flexibility Score: inf
ROOT
ATOM      1  C   UNL     1      16.669  30.808  21.084  1.00  0.00     0.272 C 
ATOM      2  C   UNL     1      16.798  32.157  20.493  1.00  0.00     0.113 C 
ATOM      3  C   UNL     1      15.662  32.619  19.614  1.00  0.00     0.145 C 
ATOM      4  C   UNL     1      15.087  31.455  18.870  1.00  0.00     0.142 C 
ATOM      5  C   UNL     1      16.210  30.412  18.814  1.00  0.00     0.178 C 
ATOM      6  O   UNL     1      16.291  29.860  20.122  1.00  0.00    -0.332 OA
ENDROOT
BRANCH   1   7
ATOM      7  O   UNL     1      15.893  30.672  22.195  1.00  0.00    -0.338 OA
BRANCH   7   8
ATOM      8  C   UNL     1      15.794  29.484  22.821  1.00  0.00     0.199 C 
BRANCH   8   9
ATOM      9  C   UNL     1      14.440  29.455  23.546  1.00  0.00     0.179 C 
ATOM     10  C   UNL     1      12.970  30.990  24.431  1.00  0.00     0.282 C 
ATOM     11  O   UNL     1      14.290  30.573  24.343  1.00  0.00    -0.341 OA
ATOM     12  C   UNL     1      12.615  31.537  23.073  1.00  0.00     0.202 C 
ATOM     13  C   UNL     1      12.621  30.347  22.125  1.00  0.00     0.179 C 
ATOM     14  C   UNL     1      13.294  29.133  22.661  1.00  0.00     0.177 C 
BRANCH  10  15
ATOM     15  O   UNL     1      12.712  31.788  25.479  1.00  0.00    -0.341 OA
BRANCH  15  16
ATOM     16  C   UNL     1      13.732  32.269  26.216  1.00  0.00     0.184 C 
ATOM     17  C   UNL     1      13.864  31.454  27.490  1.00  0.00     0.178 C 
ATOM     18  O   UNL     1      13.360  32.086  28.587  1.00  0.00    -0.341 OA
ATOM     19  C   UNL     1      14.001  33.269  28.921  1.00  0.00     0.281 C 
ATOM     20  C   UNL     1      13.433  33.726  26.582  1.00  0.00     0.180 C 
ATOM     21  C   UNL     1      14.286  34.153  27.762  1.00  0.00     0.202 C 
BRANCH  17  22
ATOM     22  C   UNL     1      15.291  30.968  27.680  1.00  0.00     0.191 C 
BRANCH  22  23
ATOM     23  O   UNL     1      15.971  30.955  26.465  1.00  0.00    -0.394 OA
ATOM     24  H   UNL     1      16.853  30.521  26.511  1.00  0.00     0.210 HD
ENDBRANCH  22  23
ENDBRANCH  17  22
BRANCH  19  25
ATOM     25  O   UNL     1      15.193  33.017  29.616  1.00  0.00    -0.350 OA
BRANCH  25  26
ATOM     26  C   UNL     1      15.004  32.684  30.934  1.00  0.00     0.169 C 
BRANCH  26  27
ATOM     27  C   UNL     1      15.736  31.461  31.396  1.00  0.00     0.119 C 
BRANCH  27  28
ATOM     28  N   UNL     1      15.031  30.238  31.057  1.00  0.00    -0.092 NA
ATOM     29  N   UNL     1      14.113  29.807  31.783  1.00  0.00     0.001 N 
ATOM     30  N   UNL     1      13.203  29.585  32.591  1.00  0.00    -0.003 NA
ENDBRANCH  27  28
ENDBRANCH  26  27
ENDBRANCH  25  26
ENDBRANCH  19  25
BRANCH  20  31
ATOM     31  O   UNL     1      13.667  34.601  25.550  1.00  0.00    -0.387 OA
ATOM     32  H   UNL     1      13.798  34.176  24.664  1.00  0.00     0.211 HD
ENDBRANCH  20  31
BRANCH  21  33
ATOM     33  O   UNL     1      13.912  35.456  28.081  1.00  0.00    -0.385 OA
ATOM     34  H   UNL     1      12.991  35.482  28.464  1.00  0.00     0.211 HD
ENDBRANCH  21  33
ENDBRANCH  15  16
ENDBRANCH  10  15
BRANCH  12  35
ATOM     35  O   UNL     1      11.337  32.086  23.034  1.00  0.00    -0.385 OA
ATOM     36  H   UNL     1      11.425  32.996  22.615  1.00  0.00     0.211 HD
ENDBRANCH  12  35
BRANCH  13  37
ATOM     37  O   UNL     1      13.198  30.678  20.900  1.00  0.00    -0.387 OA
ATOM     38  H   UNL     1      12.534  30.793  20.173  1.00  0.00     0.211 HD
ENDBRANCH  13  37
BRANCH  14  39
ATOM     39  O   UNL     1      13.746  28.377  21.552  1.00  0.00    -0.387 OA
ATOM     40  H   UNL     1      13.743  28.926  20.734  1.00  0.00     0.211 HD
ENDBRANCH  14  39
ENDBRANCH   8   9
ENDBRANCH   7   8
ENDBRANCH   1   7
BRANCH   1  41
ATOM     41  C   UNL     1      18.074  30.369  21.433  1.00  0.00     0.364 C 
ATOM     42  O   UNL     1      18.800  31.143  22.065  1.00  0.00    -0.246 OA
BRANCH  41  43
ATOM     43  O   UNL     1      18.556  29.129  21.062  1.00  0.00    -0.477 OA
ATOM     44  H   UNL     1      19.151  28.956  20.272  1.00  0.00     0.296 HD
ENDBRANCH  41  43
ENDBRANCH   1  41
BRANCH   3  45
ATOM     45  O   UNL     1      14.746  33.272  20.437  1.00  0.00    -0.391 OA
ATOM     46  H   UNL     1      14.060  32.598  20.748  1.00  0.00     0.211 HD
ENDBRANCH   3  45
BRANCH   5  47
ATOM     47  C   UNL     1      15.940  29.250  17.943  1.00  0.00     0.176 C 
BRANCH  47  48
ATOM     48  O   UNL     1      15.211  28.302  18.751  1.00  0.00    -0.388 OA
ATOM     49  H   UNL     1      15.323  28.553  19.704  1.00  0.00     0.211 HD
ENDBRANCH  47  48
BRANCH  47  50
ATOM     50  C   UNL     1      17.124  28.419  17.492  1.00  0.00     0.165 C 
BRANCH  50  51
ATOM     51  O   UNL     1      17.400  27.636  18.679  1.00  0.00    -0.388 OA
ATOM     52  H   UNL     1      17.259  26.691  18.474  1.00  0.00     0.211 HD
ENDBRANCH  50  51
BRANCH  50  53
ATOM     53  C   UNL     1      18.373  29.255  17.354  1.00  0.00     0.154 C 
BRANCH  53  54
ATOM     54  N   UNL     1      19.488  28.864  18.162  1.00  0.00    -0.319 N 
ATOM     55  C   UNL     1      20.786  28.770  17.574  1.00  0.00     0.407 C 
ATOM     56  H   UNL     1      19.363  28.639  19.189  1.00  0.00     0.167 HD
ATOM     57  O   UNL     1      20.868  29.034  16.343  1.00  0.00    -0.225 OA
BRANCH  55  58
ATOM     58  O   UNL     1      21.913  28.409  18.303  1.00  0.00    -0.443 OA
BRANCH  58  59
ATOM     59  C   UNL     1      22.164  28.909  19.594  1.00  0.00     0.294 C 
BRANCH  59  60
ATOM     60  C   UNL     1      21.771  27.979  20.687  1.00  0.00     0.121 A 
ATOM     61  C   UNL     1      22.466  27.660  21.831  1.00  0.00     0.144 A 
ATOM     62  N   UNL     1      20.619  27.250  20.756  1.00  0.00    -0.131 NA
ATOM     63  N   UNL     1      21.751  26.777  22.546  1.00  0.00    -0.220 N 
ATOM     64  N   UNL     1      20.636  26.559  21.851  1.00  0.00    -0.062 NA
BRANCH  63  65
ATOM     65  C   UNL     1      22.082  26.159  23.805  1.00  0.00     0.072 A 
ATOM     66  C   UNL     1      21.624  26.779  24.940  1.00  0.00    -0.025 A 
ATOM     67  C   UNL     1      22.814  25.023  23.831  1.00  0.00    -0.025 A 
ATOM     68  C   UNL     1      20.813  28.043  24.868  1.00  0.00     0.047 C 
ATOM     69  C   UNL     1      21.935  26.204  26.156  1.00  0.00     0.009 A 
ATOM     70  C   UNL     1      23.104  24.478  25.086  1.00  0.00     0.009 A 
ATOM     71  C   UNL     1      23.325  24.323  22.624  1.00  0.00     0.047 C 
ATOM     72  C   UNL     1      22.673  25.053  26.257  1.00  0.00    -0.050 A 
ATOM     73  C   UNL     1      22.970  24.483  27.594  1.00  0.00     0.044 C 
ENDBRANCH  63  65
ENDBRANCH  59  60
ENDBRANCH  58  59
ENDBRANCH  55  58
ENDBRANCH  53  54
ENDBRANCH  50  53
ENDBRANCH  47  50
ENDBRANCH   5  47
BRANCH   4  74
ATOM     74  N   UNL     1      14.504  31.727  17.629  1.00  0.00    -0.348 N 
ATOM     75  C   UNL     1      13.133  32.080  17.465  1.00  0.00     0.217 C 
ATOM     76  H   UNL     1      15.078  31.699  16.767  1.00  0.00     0.163 HD
ATOM     77  C   UNL     1      12.541  32.367  16.123  1.00  0.00     0.114 C 
ATOM     78  O   UNL     1      12.432  32.146  18.488  1.00  0.00    -0.275 OA
ENDBRANCH   4  74
TORSDOF 30
