REMARK VINA RESULT:    -6.321      4.641      9.322
REMARK INTER + INTRA:         -24.476
REMARK INTER:                 -16.482
REMARK INTRA:                  -7.995
REMARK UNBOUND:                -7.995
REMARK SMILES CC(=O)N[C@@H]1[C@@H](O)C[C@](OC[C@H]2O[C@@H](O[C@H]3[C@H](O)[C@@H](O)[C@H](OCCN=[N+]=[N-])O[C@@H]3CO)[C@H](O)[C@@H](O)[C@H]2O)(C(=O)O)O[C@H]1C(O)[C@H](O)CNC(=O)OCc1cn(-c2ccc(-c3c4ccc(=O)cc-4oc4cc(O)ccc34)c(C(=O)[O-])c2)nn1
REMARK SMILES IDX 9 1 8 2 6 3 5 4 42 5 41 6 10 7 11 8 12 9 14 10 13 11 32 12
REMARK SMILES IDX 34 13 36 14 15 15 16 16 29 17 28 18 21 19 17 20 19 21 30 22
REMARK SMILES IDX 31 23 22 25 23 26 24 27 25 28 26 29 27 30 18 31 20 33 33 35
REMARK SMILES IDX 35 37 37 39 38 41 39 42 40 43 7 45 43 47 44 48 45 50 46 51
REMARK SMILES IDX 47 53 48 54 49 55 50 57 51 58 52 59 53 60 54 61 82 62 55 63
REMARK SMILES IDX 81 64 56 65 80 66 57 67 76 68 58 69 59 70 77 71 78 72 79 73
REMARK SMILES IDX 60 74 75 75 61 76 74 77 69 78 67 79 62 80 73 81 70 82 68 83
REMARK SMILES IDX 66 84 63 85 71 86 64 87 65 88 72 89 4 91 2 92 1 94 3 95
REMARK H PARENT 31 24 18 32 20 34 33 36 35 38 37 40 40 44 7 46 44 49 46 52
REMARK H PARENT 48 56 72 90 4 93
REMARK Flexibility Score: inf
ROOT
ATOM      1  C   UNL     1      19.989  29.772  20.732  1.00  0.00     0.272 C 
ATOM      2  C   UNL     1      20.796  30.872  21.375  1.00  0.00     0.113 C 
ATOM      3  C   UNL     1      20.839  32.132  20.558  1.00  0.00     0.145 C 
ATOM      4  C   UNL     1      20.391  31.793  19.159  1.00  0.00     0.142 C 
ATOM      5  C   UNL     1      21.079  30.507  18.785  1.00  0.00     0.178 C 
ATOM      6  O   UNL     1      20.487  29.458  19.443  1.00  0.00    -0.332 OA
ENDROOT
BRANCH   1   7
ATOM      7  O   UNL     1      18.640  29.983  20.657  1.00  0.00    -0.338 OA
BRANCH   7   8
ATOM      8  C   UNL     1      18.047  30.283  21.832  1.00  0.00     0.199 C 
BRANCH   8   9
ATOM      9  C   UNL     1      16.556  30.605  21.651  1.00  0.00     0.179 C 
ATOM     10  C   UNL     1      14.891  30.643  20.056  1.00  0.00     0.282 C 
ATOM     11  O   UNL     1      16.214  30.800  20.363  1.00  0.00    -0.341 OA
ATOM     12  C   UNL     1      13.945  30.920  21.159  1.00  0.00     0.202 C 
ATOM     13  C   UNL     1      14.299  30.194  22.435  1.00  0.00     0.179 C 
ATOM     14  C   UNL     1      15.697  29.605  22.331  1.00  0.00     0.177 C 
BRANCH  10  15
ATOM     15  O   UNL     1      14.770  29.409  19.419  1.00  0.00    -0.341 OA
BRANCH  15  16
ATOM     16  C   UNL     1      14.934  29.468  18.073  1.00  0.00     0.184 C 
ATOM     17  C   UNL     1      16.310  29.070  17.638  1.00  0.00     0.178 C 
ATOM     18  O   UNL     1      16.308  28.732  16.277  1.00  0.00    -0.341 OA
ATOM     19  C   UNL     1      15.558  29.636  15.534  1.00  0.00     0.281 C 
ATOM     20  C   UNL     1      14.751  30.889  17.510  1.00  0.00     0.180 C 
ATOM     21  C   UNL     1      15.467  30.972  16.178  1.00  0.00     0.202 C 
BRANCH  17  22
ATOM     22  C   UNL     1      16.782  27.882  18.419  1.00  0.00     0.191 C 
BRANCH  22  23
ATOM     23  O   UNL     1      18.169  27.957  18.558  1.00  0.00    -0.394 OA
ATOM     24  H   UNL     1      18.557  27.651  17.709  1.00  0.00     0.210 HD
ENDBRANCH  22  23
ENDBRANCH  17  22
BRANCH  19  25
ATOM     25  O   UNL     1      14.314  29.124  15.230  1.00  0.00    -0.350 OA
BRANCH  25  26
ATOM     26  C   UNL     1      14.029  29.085  13.871  1.00  0.00     0.169 C 
BRANCH  26  27
ATOM     27  C   UNL     1      12.745  28.289  13.725  1.00  0.00     0.119 C 
BRANCH  27  28
ATOM     28  N   UNL     1      12.347  28.160  12.349  1.00  0.00    -0.092 NA
ATOM     29  N   UNL     1      11.167  28.382  12.048  1.00  0.00     0.001 N 
ATOM     30  N   UNL     1      10.142  28.791  11.501  1.00  0.00    -0.003 NA
ENDBRANCH  27  28
ENDBRANCH  26  27
ENDBRANCH  25  26
ENDBRANCH  19  25
BRANCH  20  31
ATOM     31  O   UNL     1      13.389  31.038  17.263  1.00  0.00    -0.387 OA
ATOM     32  H   UNL     1      12.883  30.198  17.305  1.00  0.00     0.211 HD
ENDBRANCH  20  31
BRANCH  21  33
ATOM     33  O   UNL     1      16.704  31.614  16.264  1.00  0.00    -0.385 OA
ATOM     34  H   UNL     1      16.758  32.190  15.440  1.00  0.00     0.211 HD
ENDBRANCH  21  33
ENDBRANCH  15  16
ENDBRANCH  10  15
BRANCH  12  35
ATOM     35  O   UNL     1      13.877  32.313  21.416  1.00  0.00    -0.385 OA
ATOM     36  H   UNL     1      13.263  32.727  20.738  1.00  0.00     0.211 HD
ENDBRANCH  12  35
BRANCH  13  37
ATOM     37  O   UNL     1      13.345  29.256  22.794  1.00  0.00    -0.387 OA
ATOM     38  H   UNL     1      13.026  29.480  23.699  1.00  0.00     0.211 HD
ENDBRANCH  13  37
BRANCH  14  39
ATOM     39  O   UNL     1      15.593  28.385  21.677  1.00  0.00    -0.387 OA
ATOM     40  H   UNL     1      14.989  27.825  22.247  1.00  0.00     0.211 HD
ENDBRANCH  14  39
ENDBRANCH   8   9
ENDBRANCH   7   8
ENDBRANCH   1   7
BRANCH   1  41
ATOM     41  C   UNL     1      20.337  28.528  21.528  1.00  0.00     0.364 C 
ATOM     42  O   UNL     1      20.735  28.554  22.707  1.00  0.00    -0.246 OA
BRANCH  41  43
ATOM     43  O   UNL     1      20.218  27.273  20.938  1.00  0.00    -0.477 OA
ATOM     44  H   UNL     1      20.567  27.100  20.006  1.00  0.00     0.296 HD
ENDBRANCH  41  43
ENDBRANCH   1  41
BRANCH   3  45
ATOM     45  O   UNL     1      20.081  33.107  21.177  1.00  0.00    -0.391 OA
ATOM     46  H   UNL     1      19.485  33.501  20.493  1.00  0.00     0.211 HD
ENDBRANCH   3  45
BRANCH   5  47
ATOM     47  C   UNL     1      20.908  30.220  17.290  1.00  0.00     0.176 C 
BRANCH  47  48
ATOM     48  O   UNL     1      19.521  30.243  17.007  1.00  0.00    -0.388 OA
ATOM     49  H   UNL     1      19.325  30.036  16.079  1.00  0.00     0.211 HD
ENDBRANCH  47  48
BRANCH  47  50
ATOM     50  C   UNL     1      21.371  28.841  16.954  1.00  0.00     0.165 C 
BRANCH  50  51
ATOM     51  O   UNL     1      20.274  27.984  16.844  1.00  0.00    -0.388 OA
ATOM     52  H   UNL     1      19.532  28.477  16.411  1.00  0.00     0.211 HD
ENDBRANCH  50  51
BRANCH  50  53
ATOM     53  C   UNL     1      22.410  28.271  17.854  1.00  0.00     0.154 C 
BRANCH  53  54
ATOM     54  N   UNL     1      21.955  27.074  18.524  1.00  0.00    -0.319 N 
ATOM     55  C   UNL     1      22.746  25.918  18.720  1.00  0.00     0.407 C 
ATOM     56  H   UNL     1      20.968  27.004  18.919  1.00  0.00     0.167 HD
ATOM     57  O   UNL     1      23.920  25.888  18.302  1.00  0.00    -0.225 OA
BRANCH  55  58
ATOM     58  O   UNL     1      22.273  24.784  19.368  1.00  0.00    -0.443 OA
BRANCH  58  59
ATOM     59  C   UNL     1      23.017  24.130  20.403  1.00  0.00     0.294 C 
BRANCH  59  60
ATOM     60  C   UNL     1      22.402  24.565  21.683  1.00  0.00     0.121 A 
ATOM     61  C   UNL     1      23.049  24.868  22.848  1.00  0.00     0.144 A 
ATOM     62  N   UNL     1      21.074  24.746  21.938  1.00  0.00    -0.131 NA
ATOM     63  N   UNL     1      22.139  25.220  23.781  1.00  0.00    -0.220 N 
ATOM     64  N   UNL     1      20.948  25.135  23.193  1.00  0.00    -0.062 NA
BRANCH  63  65
ATOM     65  C   UNL     1      22.426  25.606  25.116  1.00  0.00     0.067 A 
ATOM     66  C   UNL     1      22.798  26.888  25.443  1.00  0.00     0.039 A 
ATOM     67  C   UNL     1      22.324  24.666  26.111  1.00  0.00     0.029 A 
ATOM     68  C   UNL     1      23.061  27.212  26.754  1.00  0.00     0.007 A 
ATOM     69  C   UNL     1      22.588  24.993  27.424  1.00  0.00     0.012 A 
ATOM     70  C   UNL     1      22.962  26.270  27.775  1.00  0.00    -0.008 A 
BRANCH  68  71
ATOM     71  C   UNL     1      23.459  28.568  27.137  1.00  0.00     0.072 C 
ATOM     72  O   UNL     1      24.663  28.904  27.239  1.00  0.00    -0.545 OA
ATOM     73  O   UNL     1      22.488  29.505  27.395  1.00  0.00    -0.545 OA
ENDBRANCH  68  71
BRANCH  70  74
ATOM     74  C   UNL     1      23.239  26.625  29.154  1.00  0.00     0.004 A 
ATOM     75  C   UNL     1      24.510  26.449  29.643  1.00  0.00     0.026 A 
ATOM     76  C   UNL     1      22.273  27.130  29.987  1.00  0.00     0.026 A 
ATOM     77  C   UNL     1      25.540  25.950  28.881  1.00  0.00     0.016 A 
ATOM     78  C   UNL     1      24.758  26.792  30.967  1.00  0.00     0.139 A 
ATOM     79  C   UNL     1      22.587  27.480  31.389  1.00  0.00     0.139 A 
ATOM     80  C   UNL     1      20.983  27.333  29.570  1.00  0.00     0.016 A 
ATOM     81  C   UNL     1      26.816  25.776  29.384  1.00  0.00     0.047 A 
ATOM     82  C   UNL     1      26.028  26.616  31.460  1.00  0.00     0.093 A 
ATOM     83  O   UNL     1      23.823  27.276  31.762  1.00  0.00    -0.456 OA
ATOM     84  C   UNL     1      21.617  27.983  32.219  1.00  0.00     0.099 A 
ATOM     85  C   UNL     1      20.015  27.842  30.418  1.00  0.00     0.053 A 
ATOM     86  C   UNL     1      27.072  26.113  30.695  1.00  0.00     0.119 A 
ATOM     87  C   UNL     1      20.347  28.158  31.723  1.00  0.00     0.182 A 
ATOM     88  O   UNL     1      19.422  28.618  32.446  1.00  0.00    -0.290 OA
BRANCH  86  89
ATOM     89  O   UNL     1      28.354  25.936  31.191  1.00  0.00    -0.508 OA
ATOM     90  H   UNL     1      28.693  24.979  31.244  1.00  0.00     0.293 HD
ENDBRANCH  86  89
ENDBRANCH  70  74
ENDBRANCH  63  65
ENDBRANCH  59  60
ENDBRANCH  58  59
ENDBRANCH  55  58
ENDBRANCH  53  54
ENDBRANCH  50  53
ENDBRANCH  47  50
ENDBRANCH   5  47
BRANCH   4  91
ATOM     91  N   UNL     1      20.667  32.854  18.214  1.00  0.00    -0.348 N 
ATOM     92  C   UNL     1      19.582  33.517  17.606  1.00  0.00     0.217 C 
ATOM     93  H   UNL     1      21.633  33.155  17.958  1.00  0.00     0.163 HD
ATOM     94  C   UNL     1      19.748  34.616  16.624  1.00  0.00     0.114 C 
ATOM     95  O   UNL     1      18.374  33.195  17.877  1.00  0.00    -0.275 OA
ENDBRANCH   4  91
TORSDOF 33
