REMARK VINA RESULT:    -6.174      7.952     12.304
REMARK INTER + INTRA:         -21.925
REMARK INTER:                 -12.918
REMARK INTRA:                  -9.007
REMARK UNBOUND:                -6.367
REMARK SMILES CC(=O)N[C@@H]1[C@@H](O)C[C@](OC[C@H]2O[C@@H](O[C@H]3[C@H](O)[C@@H](O)[C@H](OCCN=[N+]=[N-])O[C@@H]3CO)[C@H](O)[C@@H](O)[C@H]2O)(C(=O)O)O[C@H]1C(O)[C@H](O)CNC(=O)OCc1cn(-c2ncn3c2c(=O)n(C(C)C)c2ccccc23)nn1
REMARK SMILES IDX 9 1 8 2 6 3 5 4 42 5 41 6 10 7 11 8 12 9 14 10 13 11 32 12
REMARK SMILES IDX 34 13 36 14 15 15 16 16 29 17 28 18 21 19 17 20 19 21 30 22
REMARK SMILES IDX 31 23 22 25 23 26 24 27 25 28 26 29 27 30 18 31 20 33 33 35
REMARK SMILES IDX 35 37 37 39 38 41 39 42 40 43 7 45 43 47 44 48 45 50 46 51
REMARK SMILES IDX 47 53 48 54 49 55 50 57 51 58 52 59 53 60 54 61 74 62 55 63
REMARK SMILES IDX 73 64 56 65 57 66 60 67 58 68 59 69 61 70 72 71 63 72 62 73
REMARK SMILES IDX 71 74 67 75 70 76 68 77 69 78 64 79 65 80 66 81 4 82 2 83
REMARK SMILES IDX 1 85 3 86
REMARK H PARENT 31 24 18 32 20 34 33 36 35 38 37 40 40 44 7 46 44 49 46 52
REMARK H PARENT 48 56 4 84
REMARK Flexibility Score: inf
ROOT
ATOM      1  C   UNL     1      16.077  29.526  21.564  1.00  0.00     0.272 C 
ATOM      2  C   UNL     1      15.855  28.332  20.677  1.00  0.00     0.113 C 
ATOM      3  C   UNL     1      16.457  28.486  19.343  1.00  0.00     0.145 C 
ATOM      4  C   UNL     1      17.850  29.046  19.342  1.00  0.00     0.142 C 
ATOM      5  C   UNL     1      18.141  29.934  20.498  1.00  0.00     0.178 C 
ATOM      6  O   UNL     1      17.493  29.721  21.641  1.00  0.00    -0.332 OA
ENDROOT
BRANCH   1   7
ATOM      7  O   UNL     1      15.794  29.113  22.836  1.00  0.00    -0.338 OA
BRANCH   7   8
ATOM      8  C   UNL     1      14.843  29.544  23.616  1.00  0.00     0.199 C 
BRANCH   8   9
ATOM      9  C   UNL     1      15.013  30.378  24.840  1.00  0.00     0.179 C 
ATOM     10  C   UNL     1      16.468  32.042  25.570  1.00  0.00     0.282 C 
ATOM     11  O   UNL     1      16.155  31.191  24.544  1.00  0.00    -0.341 OA
ATOM     12  C   UNL     1      15.372  33.060  25.831  1.00  0.00     0.202 C 
ATOM     13  C   UNL     1      14.032  32.371  26.012  1.00  0.00     0.179 C 
ATOM     14  C   UNL     1      13.855  31.376  24.898  1.00  0.00     0.177 C 
BRANCH  10  15
ATOM     15  O   UNL     1      17.610  32.737  25.189  1.00  0.00    -0.341 OA
BRANCH  15  16
ATOM     16  C   UNL     1      18.662  32.455  26.021  1.00  0.00     0.184 C 
ATOM     17  C   UNL     1      19.865  33.232  25.624  1.00  0.00     0.178 C 
ATOM     18  O   UNL     1      20.789  32.570  24.856  1.00  0.00    -0.341 OA
ATOM     19  C   UNL     1      20.315  31.533  24.096  1.00  0.00     0.281 C 
ATOM     20  C   UNL     1      18.940  30.970  26.135  1.00  0.00     0.180 C 
ATOM     21  C   UNL     1      19.612  30.474  24.909  1.00  0.00     0.202 C 
BRANCH  17  22
ATOM     22  C   UNL     1      20.545  33.820  26.842  1.00  0.00     0.191 C 
BRANCH  22  23
ATOM     23  O   UNL     1      21.714  34.450  26.352  1.00  0.00    -0.394 OA
ATOM     24  H   UNL     1      22.374  34.403  27.081  1.00  0.00     0.210 HD
ENDBRANCH  22  23
ENDBRANCH  17  22
BRANCH  19  25
ATOM     25  O   UNL     1      21.429  30.895  23.522  1.00  0.00    -0.350 OA
BRANCH  25  26
ATOM     26  C   UNL     1      22.397  31.753  23.078  1.00  0.00     0.169 C 
BRANCH  26  27
ATOM     27  C   UNL     1      23.216  31.273  21.922  1.00  0.00     0.119 C 
BRANCH  27  28
ATOM     28  N   UNL     1      24.269  30.422  22.499  1.00  0.00    -0.092 NA
ATOM     29  N   UNL     1      24.705  29.429  21.958  1.00  0.00     0.001 N 
ATOM     30  N   UNL     1      25.008  28.275  21.637  1.00  0.00    -0.003 NA
ENDBRANCH  27  28
ENDBRANCH  26  27
ENDBRANCH  25  26
ENDBRANCH  19  25
BRANCH  20  31
ATOM     31  O   UNL     1      19.668  30.739  27.308  1.00  0.00    -0.387 OA
ATOM     32  H   UNL     1      20.263  31.540  27.403  1.00  0.00     0.211 HD
ENDBRANCH  20  31
BRANCH  21  33
ATOM     33  O   UNL     1      18.623  29.893  24.094  1.00  0.00    -0.385 OA
ATOM     34  H   UNL     1      18.993  29.602  23.221  1.00  0.00     0.211 HD
ENDBRANCH  21  33
ENDBRANCH  15  16
ENDBRANCH  10  15
BRANCH  12  35
ATOM     35  O   UNL     1      15.658  33.676  27.048  1.00  0.00    -0.385 OA
ATOM     36  H   UNL     1      15.930  33.029  27.741  1.00  0.00     0.211 HD
ENDBRANCH  12  35
BRANCH  13  37
ATOM     37  O   UNL     1      13.049  33.360  25.820  1.00  0.00    -0.387 OA
ATOM     38  H   UNL     1      12.380  33.051  25.148  1.00  0.00     0.211 HD
ENDBRANCH  13  37
BRANCH  14  39
ATOM     39  O   UNL     1      13.885  32.131  23.697  1.00  0.00    -0.387 OA
ATOM     40  H   UNL     1      14.757  32.020  23.248  1.00  0.00     0.211 HD
ENDBRANCH  14  39
ENDBRANCH   8   9
ENDBRANCH   7   8
ENDBRANCH   1   7
BRANCH   1  41
ATOM     41  C   UNL     1      15.497  30.769  21.077  1.00  0.00     0.364 C 
ATOM     42  O   UNL     1      14.620  30.845  20.217  1.00  0.00    -0.246 OA
BRANCH  41  43
ATOM     43  O   UNL     1      15.932  32.005  21.591  1.00  0.00    -0.477 OA
ATOM     44  H   UNL     1      15.285  32.584  22.112  1.00  0.00     0.296 HD
ENDBRANCH  41  43
ENDBRANCH   1  41
BRANCH   3  45
ATOM     45  O   UNL     1      16.477  27.195  18.753  1.00  0.00    -0.391 OA
ATOM     46  H   UNL     1      17.359  27.005  18.360  1.00  0.00     0.211 HD
ENDBRANCH   3  45
BRANCH   5  47
ATOM     47  C   UNL     1      19.629  30.034  20.785  1.00  0.00     0.176 C 
BRANCH  47  48
ATOM     48  O   UNL     1      20.242  30.789  19.810  1.00  0.00    -0.388 OA
ATOM     49  H   UNL     1      19.927  30.585  18.894  1.00  0.00     0.211 HD
ENDBRANCH  47  48
BRANCH  47  50
ATOM     50  C   UNL     1      20.318  28.726  20.955  1.00  0.00     0.165 C 
BRANCH  50  51
ATOM     51  O   UNL     1      20.508  28.296  22.240  1.00  0.00    -0.388 OA
ATOM     52  H   UNL     1      19.679  28.070  22.721  1.00  0.00     0.211 HD
ENDBRANCH  50  51
BRANCH  50  53
ATOM     53  C   UNL     1      21.590  28.607  20.172  1.00  0.00     0.154 C 
BRANCH  53  54
ATOM     54  N   UNL     1      22.272  27.345  20.484  1.00  0.00    -0.319 N 
ATOM     55  C   UNL     1      22.482  26.340  19.526  1.00  0.00     0.407 C 
ATOM     56  H   UNL     1      22.627  27.175  21.472  1.00  0.00     0.167 HD
ATOM     57  O   UNL     1      22.075  26.473  18.343  1.00  0.00    -0.225 OA
BRANCH  55  58
ATOM     58  O   UNL     1      23.159  25.178  19.924  1.00  0.00    -0.443 OA
BRANCH  58  59
ATOM     59  C   UNL     1      22.491  24.170  20.630  1.00  0.00     0.294 C 
BRANCH  59  60
ATOM     60  C   UNL     1      22.002  24.641  21.981  1.00  0.00     0.121 A 
ATOM     61  C   UNL     1      22.720  24.630  23.155  1.00  0.00     0.146 A 
ATOM     62  N   UNL     1      20.803  25.157  22.295  1.00  0.00    -0.131 NA
ATOM     63  N   UNL     1      21.948  25.139  24.161  1.00  0.00    -0.200 N 
ATOM     64  N   UNL     1      20.796  25.444  23.595  1.00  0.00    -0.060 NA
BRANCH  63  65
ATOM     65  C   UNL     1      22.350  25.292  25.522  1.00  0.00     0.186 A 
ATOM     66  N   UNL     1      22.307  24.321  26.449  1.00  0.00    -0.216 NA
ATOM     67  C   UNL     1      22.833  26.392  26.186  1.00  0.00     0.158 A 
ATOM     68  C   UNL     1      22.742  24.798  27.631  1.00  0.00     0.207 A 
ATOM     69  N   UNL     1      23.078  26.098  27.488  1.00  0.00    -0.291 N 
ATOM     70  C   UNL     1      23.076  27.659  25.721  1.00  0.00     0.279 A 
ATOM     71  C   UNL     1      23.556  27.023  28.339  1.00  0.00     0.071 A 
ATOM     72  N   UNL     1      23.559  28.613  26.557  1.00  0.00    -0.302 N 
ATOM     73  O   UNL     1      22.857  27.961  24.507  1.00  0.00    -0.267 OA
ATOM     74  C   UNL     1      23.798  26.731  29.654  1.00  0.00     0.029 A 
ATOM     75  C   UNL     1      23.791  28.289  27.848  1.00  0.00     0.068 A 
ATOM     76  C   UNL     1      24.291  27.698  30.544  1.00  0.00     0.002 A 
ATOM     77  C   UNL     1      24.277  29.237  28.728  1.00  0.00     0.028 A 
ATOM     78  C   UNL     1      24.530  28.965  30.066  1.00  0.00     0.002 A 
BRANCH  72  79
ATOM     79  C   UNL     1      23.827  29.964  26.060  1.00  0.00     0.085 C 
ATOM     80  C   UNL     1      23.083  31.030  26.795  1.00  0.00     0.031 C 
ATOM     81  C   UNL     1      25.302  30.229  25.895  1.00  0.00     0.031 C 
ENDBRANCH  72  79
ENDBRANCH  63  65
ENDBRANCH  59  60
ENDBRANCH  58  59
ENDBRANCH  55  58
ENDBRANCH  53  54
ENDBRANCH  50  53
ENDBRANCH  47  50
ENDBRANCH   5  47
BRANCH   4  82
ATOM     82  N   UNL     1      18.082  29.691  18.066  1.00  0.00    -0.348 N 
ATOM     83  C   UNL     1      18.770  29.075  16.997  1.00  0.00     0.217 C 
ATOM     84  H   UNL     1      17.729  30.665  17.906  1.00  0.00     0.163 HD
ATOM     85  C   UNL     1      19.003  29.752  15.687  1.00  0.00     0.114 C 
ATOM     86  O   UNL     1      19.203  27.899  17.175  1.00  0.00    -0.275 OA
ENDBRANCH   4  82
TORSDOF 31
