REMARK VINA RESULT:    -5.533      8.489     13.486
REMARK INTER + INTRA:         -21.710
REMARK INTER:                 -11.726
REMARK INTRA:                  -9.984
REMARK UNBOUND:                -7.606
REMARK SMILES CC(=O)N[C@@H]1[C@@H](O)C[C@](OC[C@H]2O[C@@H](O[C@H]3[C@H](O)[C@@H](O)[C@H](OCCN=[N+]=[N-])O[C@@H]3CO)[C@H](O)[C@@H](O)[C@H]2O)(C(=O)O)O[C@H]1C(O)[C@H](O)CNC(=O)OCc1cn(-c2ccc(CO)cn2)nn1
REMARK SMILES IDX 9 1 8 2 6 3 5 4 42 5 41 6 10 7 11 8 12 9 14 10 13 11 32 12
REMARK SMILES IDX 34 13 36 14 15 15 16 16 29 17 28 18 21 19 17 20 19 21 30 22
REMARK SMILES IDX 31 23 22 25 23 26 24 27 25 28 26 29 27 30 18 31 20 33 33 35
REMARK SMILES IDX 35 37 37 39 38 41 39 42 40 43 7 45 43 47 44 48 45 50 46 51
REMARK SMILES IDX 47 53 48 54 49 55 50 57 51 58 52 59 53 60 54 61 65 62 55 63
REMARK SMILES IDX 64 64 56 65 57 66 63 67 58 68 62 69 59 70 60 71 61 72 4 74
REMARK SMILES IDX 2 75 1 77 3 78
REMARK H PARENT 31 24 18 32 20 34 33 36 35 38 37 40 40 44 7 46 44 49 46 52
REMARK H PARENT 48 56 61 73 4 76
REMARK Flexibility Score: inf
ROOT
ATOM      1  C   UNL     1      20.404  19.355  11.075  1.00  0.00     0.272 C 
ATOM      2  C   UNL     1      20.392  18.289  10.045  1.00  0.00     0.113 C 
ATOM      3  C   UNL     1      19.713  18.723   8.776  1.00  0.00     0.145 C 
ATOM      4  C   UNL     1      20.234  20.081   8.347  1.00  0.00     0.142 C 
ATOM      5  C   UNL     1      20.176  21.036   9.467  1.00  0.00     0.178 C 
ATOM      6  O   UNL     1      20.764  20.591  10.601  1.00  0.00    -0.332 OA
ENDROOT
BRANCH   1   7
ATOM      7  O   UNL     1      21.225  19.081  12.155  1.00  0.00    -0.338 OA
BRANCH   7   8
ATOM      8  C   UNL     1      22.321  18.311  11.824  1.00  0.00     0.199 C 
BRANCH   8   9
ATOM      9  C   UNL     1      23.579  19.064  12.132  1.00  0.00     0.179 C 
ATOM     10  C   UNL     1      24.771  20.887  11.528  1.00  0.00     0.282 C 
ATOM     11  O   UNL     1      23.460  20.432  11.821  1.00  0.00    -0.341 OA
ATOM     12  C   UNL     1      25.695  20.498  12.608  1.00  0.00     0.202 C 
ATOM     13  C   UNL     1      25.045  20.006  13.891  1.00  0.00     0.179 C 
ATOM     14  C   UNL     1      23.950  18.992  13.578  1.00  0.00     0.177 C 
BRANCH  10  15
ATOM     15  O   UNL     1      24.730  22.257  11.246  1.00  0.00    -0.341 OA
BRANCH  15  16
ATOM     16  C   UNL     1      24.133  22.990  12.248  1.00  0.00     0.184 C 
ATOM     17  C   UNL     1      22.684  23.304  12.048  1.00  0.00     0.178 C 
ATOM     18  O   UNL     1      22.432  24.656  11.827  1.00  0.00    -0.341 OA
ATOM     19  C   UNL     1      23.120  25.170  10.757  1.00  0.00     0.281 C 
ATOM     20  C   UNL     1      24.878  24.336  12.292  1.00  0.00     0.180 C 
ATOM     21  C   UNL     1      24.632  24.944  10.904  1.00  0.00     0.202 C 
BRANCH  17  22
ATOM     22  C   UNL     1      21.971  22.987  13.375  1.00  0.00     0.191 C 
BRANCH  22  23
ATOM     23  O   UNL     1      21.409  21.702  13.313  1.00  0.00    -0.394 OA
ATOM     24  H   UNL     1      22.086  21.009  13.577  1.00  0.00     0.210 HD
ENDBRANCH  22  23
ENDBRANCH  17  22
BRANCH  19  25
ATOM     25  O   UNL     1      22.876  26.539  10.695  1.00  0.00    -0.350 OA
BRANCH  25  26
ATOM     26  C   UNL     1      22.703  27.004   9.417  1.00  0.00     0.169 C 
BRANCH  26  27
ATOM     27  C   UNL     1      21.210  27.012   9.116  1.00  0.00     0.119 C 
BRANCH  27  28
ATOM     28  N   UNL     1      20.918  27.944   8.035  1.00  0.00    -0.092 NA
ATOM     29  N   UNL     1      20.937  27.640   6.854  1.00  0.00     0.001 N 
ATOM     30  N   UNL     1      20.556  27.347   5.721  1.00  0.00    -0.003 NA
ENDBRANCH  27  28
ENDBRANCH  26  27
ENDBRANCH  25  26
ENDBRANCH  19  25
BRANCH  20  31
ATOM     31  O   UNL     1      24.465  25.143  13.316  1.00  0.00    -0.387 OA
ATOM     32  H   UNL     1      24.446  24.638  14.143  1.00  0.00     0.211 HD
ENDBRANCH  20  31
BRANCH  21  33
ATOM     33  O   UNL     1      25.062  23.991   9.984  1.00  0.00    -0.385 OA
ATOM     34  H   UNL     1      24.523  24.109   9.161  1.00  0.00     0.211 HD
ENDBRANCH  21  33
ENDBRANCH  15  16
ENDBRANCH  10  15
BRANCH  12  35
ATOM     35  O   UNL     1      26.545  19.470  12.136  1.00  0.00    -0.385 OA
ATOM     36  H   UNL     1      27.271  19.833  11.567  1.00  0.00     0.211 HD
ENDBRANCH  12  35
BRANCH  13  37
ATOM     37  O   UNL     1      24.601  21.049  14.685  1.00  0.00    -0.387 OA
ATOM     38  H   UNL     1      23.698  21.343  14.490  1.00  0.00     0.211 HD
ENDBRANCH  13  37
BRANCH  14  39
ATOM     39  O   UNL     1      22.879  19.274  14.399  1.00  0.00    -0.387 OA
ATOM     40  H   UNL     1      22.090  18.790  14.086  1.00  0.00     0.211 HD
ENDBRANCH  14  39
ENDBRANCH   8   9
ENDBRANCH   7   8
ENDBRANCH   1   7
BRANCH   1  41
ATOM     41  C   UNL     1      19.028  19.557  11.677  1.00  0.00     0.364 C 
ATOM     42  O   UNL     1      18.198  18.628  11.810  1.00  0.00    -0.246 OA
BRANCH  41  43
ATOM     43  O   UNL     1      18.633  20.807  12.109  1.00  0.00    -0.477 OA
ATOM     44  H   UNL     1      18.446  21.547  11.421  1.00  0.00     0.296 HD
ENDBRANCH  41  43
ENDBRANCH   1  41
BRANCH   3  45
ATOM     45  O   UNL     1      20.129  17.820   7.777  1.00  0.00    -0.391 OA
ATOM     46  H   UNL     1      20.118  18.201   6.881  1.00  0.00     0.211 HD
ENDBRANCH   3  45
BRANCH   5  47
ATOM     47  C   UNL     1      20.690  22.419   9.113  1.00  0.00     0.176 C 
BRANCH  47  48
ATOM     48  O   UNL     1      19.698  23.126   8.436  1.00  0.00    -0.388 OA
ATOM     49  H   UNL     1      19.974  23.313   7.509  1.00  0.00     0.211 HD
ENDBRANCH  47  48
BRANCH  47  50
ATOM     50  C   UNL     1      21.926  22.453   8.297  1.00  0.00     0.165 C 
BRANCH  50  51
ATOM     51  O   UNL     1      23.052  21.981   8.987  1.00  0.00    -0.388 OA
ATOM     52  H   UNL     1      23.835  21.876   8.426  1.00  0.00     0.211 HD
ENDBRANCH  50  51
BRANCH  50  53
ATOM     53  C   UNL     1      22.228  23.750   7.605  1.00  0.00     0.154 C 
BRANCH  53  54
ATOM     54  N   UNL     1      23.572  23.760   7.092  1.00  0.00    -0.319 N 
ATOM     55  C   UNL     1      23.819  23.422   5.740  1.00  0.00     0.407 C 
ATOM     56  H   UNL     1      24.387  24.024   7.737  1.00  0.00     0.167 HD
ATOM     57  O   UNL     1      22.910  23.108   4.941  1.00  0.00    -0.225 OA
BRANCH  55  58
ATOM     58  O   UNL     1      25.119  23.423   5.223  1.00  0.00    -0.443 OA
BRANCH  58  59
ATOM     59  C   UNL     1      25.880  22.250   5.280  1.00  0.00     0.294 C 
BRANCH  59  60
ATOM     60  C   UNL     1      25.823  21.512   6.535  1.00  0.00     0.121 A 
ATOM     61  C   UNL     1      25.408  20.215   6.711  1.00  0.00     0.146 A 
ATOM     62  N   UNL     1      26.160  21.961   7.755  1.00  0.00    -0.131 NA
ATOM     63  N   UNL     1      25.502  19.911   8.021  1.00  0.00    -0.202 N 
ATOM     64  N   UNL     1      25.962  20.996   8.618  1.00  0.00    -0.061 NA
BRANCH  63  65
ATOM     65  C   UNL     1      25.156  18.657   8.588  1.00  0.00     0.155 A 
ATOM     66  C   UNL     1      23.974  18.005   8.255  1.00  0.00     0.049 A 
ATOM     67  N   UNL     1      25.960  18.053   9.480  1.00  0.00    -0.237 NA
ATOM     68  C   UNL     1      23.648  16.782   8.827  1.00  0.00     0.011 A 
ATOM     69  C   UNL     1      25.662  16.861  10.049  1.00  0.00     0.119 A 
ATOM     70  C   UNL     1      24.492  16.187   9.739  1.00  0.00    -0.004 A 
BRANCH  70  71
ATOM     71  C   UNL     1      24.136  14.878  10.349  1.00  0.00     0.193 C 
BRANCH  71  72
ATOM     72  O   UNL     1      23.808  15.031  11.696  1.00  0.00    -0.392 OA
ATOM     73  H   UNL     1      24.013  14.232  12.225  1.00  0.00     0.211 HD
ENDBRANCH  71  72
ENDBRANCH  70  71
ENDBRANCH  63  65
ENDBRANCH  59  60
ENDBRANCH  58  59
ENDBRANCH  55  58
ENDBRANCH  53  54
ENDBRANCH  50  53
ENDBRANCH  47  50
ENDBRANCH   5  47
BRANCH   4  74
ATOM     74  N   UNL     1      19.477  20.541   7.181  1.00  0.00    -0.348 N 
ATOM     75  C   UNL     1      20.038  20.629   5.910  1.00  0.00     0.217 C 
ATOM     76  H   UNL     1      18.482  20.803   7.324  1.00  0.00     0.163 HD
ATOM     77  C   UNL     1      19.146  21.128   4.796  1.00  0.00     0.114 C 
ATOM     78  O   UNL     1      21.209  20.326   5.642  1.00  0.00    -0.275 OA
ENDBRANCH   4  74
TORSDOF 32
