REMARK VINA RESULT:    -6.127     18.712     24.882
REMARK INTER + INTRA:         -23.040
REMARK INTER:                 -16.407
REMARK INTRA:                  -6.633
REMARK UNBOUND:                -6.885
REMARK SMILES CCOC(=O)c1cccc(-n2cc(COC(=O)NC[C@@H](O)C(O)[C@@H]3O[C@@](OC[C@H]4O[C@@H](O[C@H]5[C@H](O)[C@@H](O)[C@H](OCCN=[N+]=[N-])O[C@@H]5CO)[C@H](O)[C@@H](O)[C@H]4O)(C(=O)O)C[C@H](O)[C@H]3NC(C)=O)nn2)c1
REMARK SMILES IDX 22 1 24 2 26 3 58 4 25 5 59 6 61 7 27 8 28 9 29 10 31 11
REMARK SMILES IDX 30 12 49 13 51 14 53 15 32 16 33 17 46 18 45 19 38 20 34 21
REMARK SMILES IDX 36 22 47 23 48 24 39 26 40 27 41 28 42 29 43 30 44 31 35 32
REMARK SMILES IDX 37 34 50 36 52 38 54 40 55 42 56 43 57 44 60 46 62 48 63 49
REMARK SMILES IDX 64 51 65 52 23 53 20 55 21 56 19 58 18 59 16 60 17 62 15 63
REMARK SMILES IDX 14 64 13 65 12 66 66 67 11 68 67 69 10 70 68 71 9 72 6 73
REMARK SMILES IDX 8 74 7 75 4 76 5 77 3 78 2 79 1 80
REMARK H PARENT 48 25 35 33 37 35 50 37 52 39 54 41 57 45 60 47 62 50 23 54
REMARK H PARENT 21 57 18 61
REMARK Flexibility Score: inf
ROOT
ATOM      1  C   UNL     1      23.304  19.749  13.439  1.00  0.00     0.176 C 
ENDROOT
BRANCH   1   2
ATOM      2  C   UNL     1      23.395  21.198  13.201  1.00  0.00     0.178 C 
ATOM      3  C   UNL     1      24.650  22.976  14.122  1.00  0.00     0.272 C 
ATOM      4  C   UNL     1      23.863  23.681  13.065  1.00  0.00     0.113 C 
ATOM      5  O   UNL     1      23.864  21.795  14.374  1.00  0.00    -0.332 OA
ATOM      6  C   UNL     1      22.368  23.413  13.145  1.00  0.00     0.145 C 
ATOM      7  C   UNL     1      22.154  21.905  12.786  1.00  0.00     0.142 C 
BRANCH   3   8
ATOM      8  O   UNL     1      24.619  23.676  15.288  1.00  0.00    -0.338 OA
BRANCH   8   9
ATOM      9  C   UNL     1      24.793  24.966  15.438  1.00  0.00     0.199 C 
BRANCH   9  10
ATOM     10  C   UNL     1      25.350  25.671  16.599  1.00  0.00     0.179 C 
ATOM     11  C   UNL     1      24.926  26.305  18.811  1.00  0.00     0.282 C 
ATOM     12  O   UNL     1      24.426  26.009  17.522  1.00  0.00    -0.341 OA
ATOM     13  C   UNL     1      26.400  26.568  18.776  1.00  0.00     0.202 C 
ATOM     14  C   UNL     1      27.191  25.454  18.170  1.00  0.00     0.179 C 
ATOM     15  C   UNL     1      26.314  24.645  17.276  1.00  0.00     0.177 C 
BRANCH  11  16
ATOM     16  O   UNL     1      24.509  25.275  19.602  1.00  0.00    -0.341 OA
BRANCH  16  17
ATOM     17  C   UNL     1      23.886  25.543  20.771  1.00  0.00     0.184 C 
ATOM     18  C   UNL     1      24.309  24.513  21.785  1.00  0.00     0.178 C 
ATOM     19  O   UNL     1      23.738  24.764  23.034  1.00  0.00    -0.341 OA
ATOM     20  C   UNL     1      22.342  24.516  22.923  1.00  0.00     0.281 C 
ATOM     21  C   UNL     1      22.354  25.445  20.661  1.00  0.00     0.180 C 
ATOM     22  C   UNL     1      21.809  25.637  22.074  1.00  0.00     0.202 C 
BRANCH  18  23
ATOM     23  C   UNL     1      25.802  24.492  21.945  1.00  0.00     0.191 C 
BRANCH  23  24
ATOM     24  O   UNL     1      26.377  23.549  21.054  1.00  0.00    -0.394 OA
ATOM     25  H   UNL     1      26.578  23.978  20.184  1.00  0.00     0.210 HD
ENDBRANCH  23  24
ENDBRANCH  18  23
BRANCH  20  26
ATOM     26  O   UNL     1      21.825  24.464  24.185  1.00  0.00    -0.350 OA
BRANCH  26  27
ATOM     27  C   UNL     1      22.793  24.637  25.163  1.00  0.00     0.169 C 
BRANCH  27  28
ATOM     28  C   UNL     1      22.405  25.622  26.226  1.00  0.00     0.119 C 
BRANCH  28  29
ATOM     29  N   UNL     1      22.285  26.955  25.622  1.00  0.00    -0.092 NA
ATOM     30  N   UNL     1      21.213  27.237  25.069  1.00  0.00     0.001 N 
ATOM     31  N   UNL     1      20.136  27.750  24.703  1.00  0.00    -0.003 NA
ENDBRANCH  28  29
ENDBRANCH  27  28
ENDBRANCH  26  27
ENDBRANCH  20  26
BRANCH  21  32
ATOM     32  O   UNL     1      21.837  26.499  19.924  1.00  0.00    -0.387 OA
ATOM     33  H   UNL     1      22.601  26.986  19.531  1.00  0.00     0.211 HD
ENDBRANCH  21  32
BRANCH  22  34
ATOM     34  O   UNL     1      20.419  25.678  22.069  1.00  0.00    -0.385 OA
ATOM     35  H   UNL     1      20.049  26.392  21.466  1.00  0.00     0.211 HD
ENDBRANCH  22  34
ENDBRANCH  16  17
ENDBRANCH  11  16
BRANCH  13  36
ATOM     36  O   UNL     1      26.632  27.801  18.137  1.00  0.00    -0.385 OA
ATOM     37  H   UNL     1      25.908  28.040  17.514  1.00  0.00     0.211 HD
ENDBRANCH  13  36
BRANCH  14  38
ATOM     38  O   UNL     1      27.933  24.739  19.082  1.00  0.00    -0.387 OA
ATOM     39  H   UNL     1      27.407  23.928  19.315  1.00  0.00     0.211 HD
ENDBRANCH  14  38
BRANCH  15  40
ATOM     40  O   UNL     1      25.637  23.665  17.932  1.00  0.00    -0.387 OA
ATOM     41  H   UNL     1      26.063  22.790  17.756  1.00  0.00     0.211 HD
ENDBRANCH  15  40
ENDBRANCH   9  10
ENDBRANCH   8   9
ENDBRANCH   3   8
BRANCH   3  42
ATOM     42  C   UNL     1      25.980  22.524  13.739  1.00  0.00     0.364 C 
ATOM     43  O   UNL     1      26.996  22.804  14.393  1.00  0.00    -0.246 OA
BRANCH  42  44
ATOM     44  O   UNL     1      26.159  21.743  12.596  1.00  0.00    -0.477 OA
ATOM     45  H   UNL     1      25.827  22.000  11.690  1.00  0.00     0.296 HD
ENDBRANCH  42  44
ENDBRANCH   3  42
BRANCH   6  46
ATOM     46  O   UNL     1      21.969  23.551  14.450  1.00  0.00    -0.391 OA
ATOM     47  H   UNL     1      21.219  24.192  14.499  1.00  0.00     0.211 HD
ENDBRANCH   6  46
BRANCH   7  48
ATOM     48  N   UNL     1      21.921  21.868  11.361  1.00  0.00    -0.348 N 
ATOM     49  C   UNL     1      20.696  21.427  10.763  1.00  0.00     0.217 C 
ATOM     50  H   UNL     1      22.662  22.177  10.662  1.00  0.00     0.163 HD
ATOM     51  C   UNL     1      20.491  21.402   9.291  1.00  0.00     0.114 C 
ATOM     52  O   UNL     1      19.756  21.046  11.491  1.00  0.00    -0.275 OA
ENDBRANCH   7  48
ENDBRANCH   1   2
BRANCH   1  53
ATOM     53  O   UNL     1      23.422  19.332  14.738  1.00  0.00    -0.388 OA
ATOM     54  H   UNL     1      22.656  18.788  15.035  1.00  0.00     0.211 HD
ENDBRANCH   1  53
BRANCH   1  55
ATOM     55  C   UNL     1      22.207  19.007  12.721  1.00  0.00     0.165 C 
BRANCH  55  56
ATOM     56  O   UNL     1      21.207  18.617  13.618  1.00  0.00    -0.388 OA
ATOM     57  H   UNL     1      20.720  19.412  13.955  1.00  0.00     0.211 HD
ENDBRANCH  55  56
BRANCH  55  58
ATOM     58  C   UNL     1      22.678  17.928  11.793  1.00  0.00     0.154 C 
BRANCH  58  59
ATOM     59  N   UNL     1      24.017  17.483  12.107  1.00  0.00    -0.319 N 
ATOM     60  C   UNL     1      25.004  17.354  11.105  1.00  0.00     0.407 C 
ATOM     61  H   UNL     1      24.285  17.244  13.111  1.00  0.00     0.167 HD
ATOM     62  O   UNL     1      24.839  17.607   9.890  1.00  0.00    -0.225 OA
BRANCH  60  63
ATOM     63  O   UNL     1      26.296  16.900  11.439  1.00  0.00    -0.443 OA
BRANCH  63  64
ATOM     64  C   UNL     1      27.381  17.725  11.728  1.00  0.00     0.294 C 
BRANCH  64  65
ATOM     65  C   UNL     1      27.379  18.351  13.057  1.00  0.00     0.121 A 
ATOM     66  C   UNL     1      28.453  18.410  13.938  1.00  0.00     0.144 A 
ATOM     67  N   UNL     1      26.371  18.969  13.661  1.00  0.00    -0.131 NA
ATOM     68  N   UNL     1      28.045  19.056  15.029  1.00  0.00    -0.220 N 
ATOM     69  N   UNL     1      26.787  19.392  14.855  1.00  0.00    -0.062 NA
BRANCH  68  70
ATOM     70  C   UNL     1      28.833  19.332  16.167  1.00  0.00     0.067 A 
ATOM     71  C   UNL     1      28.305  19.978  17.282  1.00  0.00     0.044 A 
ATOM     72  C   UNL     1      30.152  18.970  16.238  1.00  0.00     0.028 A 
ATOM     73  C   UNL     1      29.027  20.257  18.411  1.00  0.00     0.062 A 
ATOM     74  C   UNL     1      30.916  19.233  17.364  1.00  0.00     0.003 A 
ATOM     75  C   UNL     1      30.363  19.874  18.448  1.00  0.00     0.016 A 
BRANCH  73  76
ATOM     76  C   UNL     1      28.416  20.935  19.535  1.00  0.00     0.338 C 
ATOM     77  O   UNL     1      27.554  21.812  19.329  1.00  0.00    -0.246 OA
BRANCH  76  78
ATOM     78  O   UNL     1      28.781  20.612  20.816  1.00  0.00    -0.462 OA
BRANCH  78  79
ATOM     79  C   UNL     1      28.486  19.382  21.437  1.00  0.00     0.230 C 
ATOM     80  C   UNL     1      29.677  18.913  22.244  1.00  0.00     0.049 C 
ENDBRANCH  78  79
ENDBRANCH  76  78
ENDBRANCH  73  76
ENDBRANCH  68  70
ENDBRANCH  64  65
ENDBRANCH  63  64
ENDBRANCH  60  63
ENDBRANCH  58  59
ENDBRANCH  55  58
ENDBRANCH   1  55
TORSDOF 33
