REMARK VINA RESULT:    -6.414      4.834     14.313
REMARK INTER + INTRA:         -22.376
REMARK INTER:                 -16.914
REMARK INTRA:                  -5.463
REMARK UNBOUND:                -5.463
REMARK SMILES CC(=O)N[C@@H]1[C@@H](O)C[C@](OC[C@H]2O[C@@H](O[C@H]3[C@H](O)[C@@H](O)[C@H](OCCN=[N+]=[N-])O[C@@H]3CO)[C@H](O)[C@@H](O)[C@H]2O)(C(=O)O)O[C@H]1C(O)[C@H](O)CNC(=O)OCc1cn(COCc2ccccc2)nn1
REMARK SMILES IDX 43 1 42 2 9 3 8 4 41 5 6 6 5 7 10 8 11 9 12 10 14 11 13 12
REMARK SMILES IDX 32 13 34 14 36 15 15 16 16 17 29 18 28 19 21 20 17 21 19 22
REMARK SMILES IDX 30 23 31 24 22 26 23 27 24 28 25 29 26 30 27 31 18 32 20 34
REMARK SMILES IDX 33 36 35 38 37 40 38 42 39 43 40 44 7 46 4 48 2 49 1 51 3 52
REMARK SMILES IDX 44 53 45 55 46 56 47 58 48 59 49 60 50 62 51 63 52 64 53 65
REMARK SMILES IDX 54 66 66 67 55 68 65 69 56 70 57 71 58 72 59 73 60 74 64 75
REMARK SMILES IDX 61 76 63 77 62 78
REMARK H PARENT 31 25 18 33 20 35 33 37 35 39 37 41 40 45 7 47 4 50 44 54
REMARK H PARENT 46 57 48 61
REMARK Flexibility Score: inf
ROOT
ATOM      1  C   UNL     1      16.668  29.969  21.542  1.00  0.00     0.176 C 
ENDROOT
BRANCH   1   2
ATOM      2  C   UNL     1      18.158  30.140  21.172  1.00  0.00     0.178 C 
ATOM      3  C   UNL     1      20.028  28.767  21.028  1.00  0.00     0.272 C 
ATOM      4  C   UNL     1      20.872  29.869  21.660  1.00  0.00     0.113 C 
ATOM      5  O   UNL     1      18.771  28.935  21.520  1.00  0.00    -0.332 OA
ATOM      6  C   UNL     1      20.042  30.629  22.667  1.00  0.00     0.145 C 
ATOM      7  C   UNL     1      18.809  31.246  21.940  1.00  0.00     0.142 C 
BRANCH   3   8
ATOM      8  O   UNL     1      20.547  27.507  21.385  1.00  0.00    -0.338 OA
BRANCH   8   9
ATOM      9  C   UNL     1      21.875  27.338  21.293  1.00  0.00     0.199 C 
BRANCH   9  10
ATOM     10  C   UNL     1      22.389  26.526  22.459  1.00  0.00     0.179 C 
ATOM     11  C   UNL     1      23.154  26.532  24.592  1.00  0.00     0.282 C 
ATOM     12  O   UNL     1      22.640  27.360  23.568  1.00  0.00    -0.341 OA
ATOM     13  C   UNL     1      22.035  25.704  25.213  1.00  0.00     0.202 C 
ATOM     14  C   UNL     1      20.873  25.764  24.210  1.00  0.00     0.179 C 
ATOM     15  C   UNL     1      21.486  25.421  22.868  1.00  0.00     0.177 C 
BRANCH  11  16
ATOM     16  O   UNL     1      23.667  27.343  25.566  1.00  0.00    -0.341 OA
BRANCH  16  17
ATOM     17  C   UNL     1      23.596  26.806  26.843  1.00  0.00     0.184 C 
ATOM     18  C   UNL     1      23.296  27.812  27.896  1.00  0.00     0.178 C 
ATOM     19  O   UNL     1      24.384  28.603  28.105  1.00  0.00    -0.341 OA
ATOM     20  C   UNL     1      25.465  27.973  28.676  1.00  0.00     0.281 C 
ATOM     21  C   UNL     1      24.854  26.061  27.128  1.00  0.00     0.180 C 
ATOM     22  C   UNL     1      25.736  26.603  28.191  1.00  0.00     0.202 C 
BRANCH  18  23
ATOM     23  C   UNL     1      22.788  27.117  29.138  1.00  0.00     0.191 C 
BRANCH  23  24
ATOM     24  O   UNL     1      22.036  25.982  28.813  1.00  0.00    -0.394 OA
ATOM     25  H   UNL     1      22.595  25.356  28.288  1.00  0.00     0.210 HD
ENDBRANCH  23  24
ENDBRANCH  18  23
BRANCH  20  26
ATOM     26  O   UNL     1      25.227  27.929  30.055  1.00  0.00    -0.350 OA
BRANCH  26  27
ATOM     27  C   UNL     1      26.306  28.283  30.824  1.00  0.00     0.169 C 
BRANCH  27  28
ATOM     28  C   UNL     1      26.324  27.339  32.014  1.00  0.00     0.119 C 
BRANCH  28  29
ATOM     29  N   UNL     1      26.305  25.951  31.610  1.00  0.00    -0.092 NA
ATOM     30  N   UNL     1      27.338  25.411  31.175  1.00  0.00     0.001 N 
ATOM     31  N   UNL     1      28.154  25.101  30.286  1.00  0.00    -0.003 NA
ENDBRANCH  28  29
ENDBRANCH  27  28
ENDBRANCH  26  27
ENDBRANCH  20  26
BRANCH  21  32
ATOM     32  O   UNL     1      24.545  24.724  27.502  1.00  0.00    -0.387 OA
ATOM     33  H   UNL     1      23.609  24.513  27.360  1.00  0.00     0.211 HD
ENDBRANCH  21  32
BRANCH  22  34
ATOM     34  O   UNL     1      27.063  26.611  27.686  1.00  0.00    -0.385 OA
ATOM     35  H   UNL     1      27.653  26.604  28.485  1.00  0.00     0.211 HD
ENDBRANCH  22  34
ENDBRANCH  16  17
ENDBRANCH  11  16
BRANCH  13  36
ATOM     36  O   UNL     1      22.376  24.355  25.309  1.00  0.00    -0.385 OA
ATOM     37  H   UNL     1      22.044  23.909  24.491  1.00  0.00     0.211 HD
ENDBRANCH  13  36
BRANCH  14  38
ATOM     38  O   UNL     1      20.481  27.096  24.188  1.00  0.00    -0.387 OA
ATOM     39  H   UNL     1      21.024  27.660  23.583  1.00  0.00     0.211 HD
ENDBRANCH  14  38
BRANCH  15  40
ATOM     40  O   UNL     1      20.529  25.090  21.923  1.00  0.00    -0.387 OA
ATOM     41  H   UNL     1      20.487  25.729  21.166  1.00  0.00     0.211 HD
ENDBRANCH  15  40
ENDBRANCH   9  10
ENDBRANCH   8   9
ENDBRANCH   3   8
BRANCH   3  42
ATOM     42  C   UNL     1      20.050  28.797  19.566  1.00  0.00     0.364 C 
ATOM     43  O   UNL     1      19.418  28.049  18.775  1.00  0.00    -0.246 OA
BRANCH  42  44
ATOM     44  O   UNL     1      20.859  29.762  18.918  1.00  0.00    -0.477 OA
ATOM     45  H   UNL     1      20.515  30.710  18.767  1.00  0.00     0.296 HD
ENDBRANCH  42  44
ENDBRANCH   3  42
BRANCH   6  46
ATOM     46  O   UNL     1      19.571  29.940  23.729  1.00  0.00    -0.391 OA
ATOM     47  H   UNL     1      19.699  28.945  23.639  1.00  0.00     0.211 HD
ENDBRANCH   6  46
BRANCH   7  48
ATOM     48  N   UNL     1      19.383  32.262  21.091  1.00  0.00    -0.348 N 
ATOM     49  C   UNL     1      19.362  33.603  21.525  1.00  0.00     0.217 C 
ATOM     50  H   UNL     1      19.795  32.018  20.188  1.00  0.00     0.163 HD
ATOM     51  C   UNL     1      19.960  34.666  20.674  1.00  0.00     0.114 C 
ATOM     52  O   UNL     1      18.842  33.921  22.642  1.00  0.00    -0.275 OA
ENDBRANCH   7  48
ENDBRANCH   1   2
BRANCH   1  53
ATOM     53  O   UNL     1      16.668  29.536  22.923  1.00  0.00    -0.388 OA
ATOM     54  H   UNL     1      17.472  28.943  23.012  1.00  0.00     0.211 HD
ENDBRANCH   1  53
BRANCH   1  55
ATOM     55  C   UNL     1      15.950  28.907  20.788  1.00  0.00     0.165 C 
BRANCH  55  56
ATOM     56  O   UNL     1      16.449  28.548  19.568  1.00  0.00    -0.388 OA
ATOM     57  H   UNL     1      16.088  29.053  18.807  1.00  0.00     0.211 HD
ENDBRANCH  55  56
BRANCH  55  58
ATOM     58  C   UNL     1      14.472  28.837  20.837  1.00  0.00     0.154 C 
BRANCH  58  59
ATOM     59  N   UNL     1      13.842  28.794  22.126  1.00  0.00    -0.319 N 
ATOM     60  C   UNL     1      12.998  29.811  22.645  1.00  0.00     0.407 C 
ATOM     61  H   UNL     1      13.981  27.966  22.746  1.00  0.00     0.167 HD
ATOM     62  O   UNL     1      12.753  30.818  21.972  1.00  0.00    -0.225 OA
BRANCH  60  63
ATOM     63  O   UNL     1      12.399  29.755  23.909  1.00  0.00    -0.443 OA
BRANCH  63  64
ATOM     64  C   UNL     1      11.157  30.425  24.135  1.00  0.00     0.294 C 
BRANCH  64  65
ATOM     65  C   UNL     1      10.036  29.481  24.349  1.00  0.00     0.120 A 
ATOM     66  C   UNL     1       8.709  29.856  24.346  1.00  0.00     0.141 A 
ATOM     67  N   UNL     1      10.054  28.163  24.583  1.00  0.00    -0.132 NA
ATOM     68  N   UNL     1       7.966  28.748  24.582  1.00  0.00    -0.226 N 
ATOM     69  N   UNL     1       8.813  27.739  24.721  1.00  0.00    -0.065 NA
BRANCH  68  70
ATOM     70  C   UNL     1       6.527  28.636  24.667  1.00  0.00     0.307 C 
BRANCH  70  71
ATOM     71  O   UNL     1       5.889  29.617  23.959  1.00  0.00    -0.355 OA
BRANCH  71  72
ATOM     72  C   UNL     1       5.274  29.072  22.842  1.00  0.00     0.198 C 
BRANCH  72  73
ATOM     73  C   UNL     1       5.699  29.852  21.626  1.00  0.00    -0.022 A 
ATOM     74  C   UNL     1       5.554  29.251  20.392  1.00  0.00     0.006 A 
ATOM     75  C   UNL     1       6.213  31.117  21.747  1.00  0.00     0.006 A 
ATOM     76  C   UNL     1       5.933  29.932  19.255  1.00  0.00     0.000 A 
ATOM     77  C   UNL     1       6.582  31.772  20.608  1.00  0.00     0.000 A 
ATOM     78  C   UNL     1       6.453  31.206  19.349  1.00  0.00     0.000 A 
ENDBRANCH  72  73
ENDBRANCH  71  72
ENDBRANCH  70  71
ENDBRANCH  68  70
ENDBRANCH  64  65
ENDBRANCH  63  64
ENDBRANCH  60  63
ENDBRANCH  58  59
ENDBRANCH  55  58
ENDBRANCH   1  55
TORSDOF 33
