REMARK VINA RESULT:    -4.683     14.379     20.058
REMARK INTER + INTRA:         -24.017
REMARK INTER:                 -12.734
REMARK INTRA:                 -11.283
REMARK UNBOUND:               -10.710
REMARK SMILES CC(=O)N[C@@H]1[C@@H](O)C[C@](OC[C@H]2O[C@@H](O[C@H]3[C@H](O)[C@@H](O)[C@H](OCCN=[N+]=[N-])O[C@@H]3CO)[C@H](O)[C@@H](O)[C@H]2O)(C(=O)O)O[C@H]1C(O)[C@H](O)CNC(=O)OCc1cn(CC(=O)NCC(O)Cn2ccnc2[N+](=O)[O-])nn1
REMARK SMILES IDX 47 1 45 2 43 3 42 4 9 5 8 6 41 7 6 8 5 9 10 10 11 11 12 12
REMARK SMILES IDX 14 13 13 14 32 15 34 16 36 17 15 18 16 19 29 20 28 21 21 22
REMARK SMILES IDX 17 23 19 24 30 25 31 26 22 28 23 29 24 30 25 31 26 32 27 33
REMARK SMILES IDX 18 34 20 36 33 38 35 40 37 42 38 44 39 45 40 46 7 48 4 50
REMARK SMILES IDX 2 51 1 53 3 54 44 55 46 57 48 59 49 60 50 62 51 63 52 64
REMARK SMILES IDX 53 65 54 66 73 67 55 68 72 69 56 70 57 71 58 72 59 73 60 75
REMARK SMILES IDX 61 76 62 77 63 79 64 80 65 81 68 82 66 83 67 84 69 85 70 86
REMARK SMILES IDX 71 87
REMARK H PARENT 31 27 18 35 20 37 33 39 35 41 37 43 40 47 7 49 4 52 44 56
REMARK H PARENT 46 58 48 61 59 74 62 78
REMARK Flexibility Score: inf
ROOT
ATOM      1  C   UNL     1      13.528  31.469  18.880  1.00  0.00     0.154 C 
ENDROOT
BRANCH   1   2
ATOM      2  C   UNL     1      14.792  32.260  18.850  1.00  0.00     0.165 C 
BRANCH   2   3
ATOM      3  C   UNL     1      15.726  31.966  17.735  1.00  0.00     0.176 C 
BRANCH   3   4
ATOM      4  C   UNL     1      16.520  30.727  17.769  1.00  0.00     0.178 C 
ATOM      5  C   UNL     1      17.785  29.272  19.068  1.00  0.00     0.272 C 
ATOM      6  C   UNL     1      17.423  28.349  17.958  1.00  0.00     0.113 C 
ATOM      7  O   UNL     1      17.145  30.522  18.981  1.00  0.00    -0.332 OA
ATOM      8  C   UNL     1      17.585  28.918  16.589  1.00  0.00     0.145 C 
ATOM      9  C   UNL     1      17.466  30.467  16.658  1.00  0.00     0.142 C 
BRANCH   5  10
ATOM     10  O   UNL     1      19.114  29.503  19.272  1.00  0.00    -0.338 OA
BRANCH  10  11
ATOM     11  C   UNL     1      19.526  30.793  19.387  1.00  0.00     0.199 C 
BRANCH  11  12
ATOM     12  C   UNL     1      20.993  30.981  19.054  1.00  0.00     0.179 C 
ATOM     13  C   UNL     1      23.043  29.874  19.137  1.00  0.00     0.282 C 
ATOM     14  O   UNL     1      21.823  30.164  19.737  1.00  0.00    -0.341 OA
ATOM     15  C   UNL     1      23.585  31.055  18.370  1.00  0.00     0.202 C 
ATOM     16  C   UNL     1      22.609  31.528  17.318  1.00  0.00     0.179 C 
ATOM     17  C   UNL     1      21.239  30.929  17.571  1.00  0.00     0.177 C 
BRANCH  13  18
ATOM     18  O   UNL     1      23.027  28.785  18.341  1.00  0.00    -0.341 OA
BRANCH  18  19
ATOM     19  C   UNL     1      23.528  27.603  18.735  1.00  0.00     0.184 C 
ATOM     20  C   UNL     1      24.530  26.937  17.831  1.00  0.00     0.178 C 
ATOM     21  O   UNL     1      25.212  26.010  18.621  1.00  0.00    -0.341 OA
ATOM     22  C   UNL     1      24.390  24.943  18.968  1.00  0.00     0.281 C 
ATOM     23  C   UNL     1      22.438  26.537  18.929  1.00  0.00     0.180 C 
ATOM     24  C   UNL     1      23.116  25.379  19.626  1.00  0.00     0.202 C 
BRANCH  20  25
ATOM     25  C   UNL     1      25.539  27.941  17.357  1.00  0.00     0.191 C 
BRANCH  25  26
ATOM     26  O   UNL     1      25.052  28.701  16.285  1.00  0.00    -0.394 OA
ATOM     27  H   UNL     1      24.295  28.148  15.913  1.00  0.00     0.210 HD
ENDBRANCH  25  26
ENDBRANCH  20  25
BRANCH  22  28
ATOM     28  O   UNL     1      25.092  24.164  19.885  1.00  0.00    -0.350 OA
BRANCH  28  29
ATOM     29  C   UNL     1      25.950  24.944  20.663  1.00  0.00     0.169 C 
BRANCH  29  30
ATOM     30  C   UNL     1      26.457  24.028  21.780  1.00  0.00     0.119 C 
BRANCH  30  31
ATOM     31  N   UNL     1      27.780  23.523  21.455  1.00  0.00    -0.092 NA
ATOM     32  N   UNL     1      27.828  22.455  20.808  1.00  0.00     0.001 N 
ATOM     33  N   UNL     1      27.941  21.593  19.946  1.00  0.00    -0.003 NA
ENDBRANCH  30  31
ENDBRANCH  29  30
ENDBRANCH  28  29
ENDBRANCH  22  28
BRANCH  23  34
ATOM     34  O   UNL     1      21.436  26.990  19.780  1.00  0.00    -0.387 OA
ATOM     35  H   UNL     1      21.467  26.359  20.568  1.00  0.00     0.211 HD
ENDBRANCH  23  34
BRANCH  24  36
ATOM     36  O   UNL     1      22.290  24.262  19.745  1.00  0.00    -0.385 OA
ATOM     37  H   UNL     1      21.772  24.170  18.892  1.00  0.00     0.211 HD
ENDBRANCH  24  36
ENDBRANCH  18  19
ENDBRANCH  13  18
BRANCH  15  38
ATOM     38  O   UNL     1      23.962  32.098  19.227  1.00  0.00    -0.385 OA
ATOM     39  H   UNL     1      24.695  31.709  19.799  1.00  0.00     0.211 HD
ENDBRANCH  15  38
BRANCH  16  40
ATOM     40  O   UNL     1      23.008  31.125  16.047  1.00  0.00    -0.387 OA
ATOM     41  H   UNL     1      22.338  31.374  15.344  1.00  0.00     0.211 HD
ENDBRANCH  16  40
BRANCH  17  42
ATOM     42  O   UNL     1      21.054  29.689  17.006  1.00  0.00    -0.387 OA
ATOM     43  H   UNL     1      21.626  29.539  16.204  1.00  0.00     0.211 HD
ENDBRANCH  17  42
ENDBRANCH  11  12
ENDBRANCH  10  11
ENDBRANCH   5  10
BRANCH   5  44
ATOM     44  C   UNL     1      17.190  28.685  20.326  1.00  0.00     0.364 C 
ATOM     45  O   UNL     1      17.401  29.299  21.387  1.00  0.00    -0.246 OA
BRANCH  44  46
ATOM     46  O   UNL     1      16.445  27.530  20.342  1.00  0.00    -0.477 OA
ATOM     47  H   UNL     1      15.988  27.187  19.478  1.00  0.00     0.296 HD
ENDBRANCH  44  46
ENDBRANCH   5  44
BRANCH   8  48
ATOM     48  O   UNL     1      18.690  28.556  15.888  1.00  0.00    -0.391 OA
ATOM     49  H   UNL     1      18.947  27.624  15.928  1.00  0.00     0.211 HD
ENDBRANCH   8  48
BRANCH   9  50
ATOM     50  N   UNL     1      17.104  30.903  15.362  1.00  0.00    -0.348 N 
ATOM     51  C   UNL     1      17.803  31.986  14.717  1.00  0.00     0.217 C 
ATOM     52  H   UNL     1      16.342  30.459  14.833  1.00  0.00     0.163 HD
ATOM     53  C   UNL     1      17.433  32.464  13.359  1.00  0.00     0.114 C 
ATOM     54  O   UNL     1      18.743  32.526  15.337  1.00  0.00    -0.275 OA
ENDBRANCH   9  50
ENDBRANCH   3   4
BRANCH   3  55
ATOM     55  O   UNL     1      16.544  33.112  17.569  1.00  0.00    -0.388 OA
ATOM     56  H   UNL     1      17.371  32.820  17.151  1.00  0.00     0.211 HD
ENDBRANCH   3  55
ENDBRANCH   2   3
BRANCH   2  57
ATOM     57  O   UNL     1      15.347  32.449  20.093  1.00  0.00    -0.388 OA
ATOM     58  H   UNL     1      14.909  33.110  20.660  1.00  0.00     0.211 HD
ENDBRANCH   2  57
ENDBRANCH   1   2
BRANCH   1  59
ATOM     59  N   UNL     1      13.426  30.724  20.105  1.00  0.00    -0.319 N 
ATOM     60  C   UNL     1      13.746  29.347  20.211  1.00  0.00     0.407 C 
ATOM     61  H   UNL     1      13.097  31.199  20.997  1.00  0.00     0.167 HD
ATOM     62  O   UNL     1      14.148  28.735  19.200  1.00  0.00    -0.225 OA
BRANCH  60  63
ATOM     63  O   UNL     1      13.640  28.613  21.373  1.00  0.00    -0.443 OA
BRANCH  63  64
ATOM     64  C   UNL     1      13.386  29.217  22.614  1.00  0.00     0.294 C 
BRANCH  64  65
ATOM     65  C   UNL     1      14.389  30.162  23.101  1.00  0.00     0.120 A 
ATOM     66  C   UNL     1      15.370  29.956  24.038  1.00  0.00     0.138 A 
ATOM     67  N   UNL     1      14.533  31.443  22.724  1.00  0.00    -0.132 NA
ATOM     68  N   UNL     1      16.071  31.103  24.201  1.00  0.00    -0.243 N 
ATOM     69  N   UNL     1      15.555  31.986  23.404  1.00  0.00    -0.067 NA
BRANCH  68  70
ATOM     70  C   UNL     1      17.212  31.295  25.088  1.00  0.00     0.245 C 
BRANCH  70  71
ATOM     71  C   UNL     1      18.444  31.380  24.276  1.00  0.00     0.241 C 
ATOM     72  O   UNL     1      18.869  32.501  23.836  1.00  0.00    -0.273 OA
ATOM     73  N   UNL     1      19.230  30.237  23.941  1.00  0.00    -0.352 N 
ATOM     74  H   UNL     1      18.927  29.306  24.274  1.00  0.00     0.163 HD
BRANCH  73  75
ATOM     75  C   UNL     1      20.426  30.422  23.141  1.00  0.00     0.151 C 
BRANCH  75  76
ATOM     76  C   UNL     1      21.043  29.123  22.727  1.00  0.00     0.168 C 
BRANCH  76  77
ATOM     77  O   UNL     1      20.258  28.426  21.825  1.00  0.00    -0.388 OA
ATOM     78  H   UNL     1      19.757  29.089  21.293  1.00  0.00     0.211 HD
ENDBRANCH  76  77
BRANCH  76  79
ATOM     79  C   UNL     1      21.266  28.303  23.989  1.00  0.00     0.239 C 
BRANCH  79  80
ATOM     80  N   UNL     1      22.364  27.392  23.844  1.00  0.00    -0.227 N 
ATOM     81  C   UNL     1      23.664  27.698  24.099  1.00  0.00     0.204 A 
ATOM     82  C   UNL     1      22.375  26.101  23.430  1.00  0.00     0.434 A 
ATOM     83  C   UNL     1      24.448  26.602  23.839  1.00  0.00     0.245 A 
ATOM     84  N   UNL     1      23.639  25.631  23.429  1.00  0.00    -0.074 NA
BRANCH  82  85
ATOM     85  N   UNL     1      21.221  25.346  23.063  1.00  0.00    -0.047 N 
ATOM     86  O   UNL     1      20.625  25.476  21.994  1.00  0.00    -0.390 OA
ATOM     87  O   UNL     1      20.734  24.415  23.969  1.00  0.00    -0.390 OA
ENDBRANCH  82  85
ENDBRANCH  79  80
ENDBRANCH  76  79
ENDBRANCH  75  76
ENDBRANCH  73  75
ENDBRANCH  70  71
ENDBRANCH  68  70
ENDBRANCH  64  65
ENDBRANCH  63  64
ENDBRANCH  60  63
ENDBRANCH   1  59
TORSDOF 37
