REMARK VINA RESULT:    -5.975      6.618     14.372
REMARK INTER + INTRA:         -21.647
REMARK INTER:                 -13.374
REMARK INTRA:                  -8.273
REMARK UNBOUND:                -6.939
REMARK SMILES CC(=O)N[C@@H]1[C@@H](O)C[C@](OC[C@H]2O[C@@H](O[C@H]3[C@H](O)[C@@H](O)[C@H](OCCN=[N+]=[N-])O[C@@H]3CO)[C@H](O)[C@@H](O)[C@H]2O)(C(=O)O)O[C@H]1C(O)[C@H](O)CNC(=O)OCc1cn([C@H]2C[C@H]3CC[C@@H](C2)N3C)nn1
REMARK SMILES IDX 9 1 8 2 6 3 5 4 42 5 41 6 10 7 11 8 12 9 14 10 13 11 32 12
REMARK SMILES IDX 34 13 36 14 15 15 16 16 29 17 28 18 21 19 17 20 19 21 30 22
REMARK SMILES IDX 31 23 22 25 23 26 24 27 25 28 26 29 27 30 18 31 20 33 33 35
REMARK SMILES IDX 35 37 37 39 38 41 39 42 40 43 7 45 43 47 44 48 45 50 46 51
REMARK SMILES IDX 47 53 48 54 49 55 50 57 51 58 52 59 53 60 54 61 66 62 55 63
REMARK SMILES IDX 65 64 56 65 62 66 57 67 61 68 58 69 63 70 60 71 59 72 64 73
REMARK SMILES IDX 4 74 2 75 1 77 3 78
REMARK H PARENT 31 24 18 32 20 34 33 36 35 38 37 40 40 44 7 46 44 49 46 52
REMARK H PARENT 48 56 4 76
REMARK Flexibility Score: inf
ROOT
ATOM      1  C   UNL     1      24.251  24.907  22.653  1.00  0.00     0.272 C 
ATOM      2  C   UNL     1      23.998  24.516  24.098  1.00  0.00     0.113 C 
ATOM      3  C   UNL     1      22.955  25.335  24.797  1.00  0.00     0.145 C 
ATOM      4  C   UNL     1      22.982  26.708  24.239  1.00  0.00     0.142 C 
ATOM      5  C   UNL     1      24.405  26.973  23.740  1.00  0.00     0.178 C 
ATOM      6  O   UNL     1      24.395  26.255  22.474  1.00  0.00    -0.332 OA
ENDROOT
BRANCH   1   7
ATOM      7  O   UNL     1      23.283  24.334  21.885  1.00  0.00    -0.338 OA
BRANCH   7   8
ATOM      8  C   UNL     1      22.501  25.096  21.095  1.00  0.00     0.199 C 
BRANCH   8   9
ATOM      9  C   UNL     1      22.695  25.055  19.626  1.00  0.00     0.179 C 
ATOM     10  C   UNL     1      22.398  26.411  17.845  1.00  0.00     0.282 C 
ATOM     11  O   UNL     1      22.884  26.395  19.158  1.00  0.00    -0.341 OA
ATOM     12  C   UNL     1      23.000  25.393  16.972  1.00  0.00     0.202 C 
ATOM     13  C   UNL     1      23.772  24.292  17.593  1.00  0.00     0.179 C 
ATOM     14  C   UNL     1      23.898  24.342  19.100  1.00  0.00     0.177 C 
BRANCH  10  15
ATOM     15  O   UNL     1      22.564  27.697  17.392  1.00  0.00    -0.341 OA
BRANCH  15  16
ATOM     16  C   UNL     1      21.725  28.607  18.042  1.00  0.00     0.184 C 
ATOM     17  C   UNL     1      20.378  28.071  18.398  1.00  0.00     0.178 C 
ATOM     18  O   UNL     1      19.463  27.970  17.399  1.00  0.00    -0.341 OA
ATOM     19  C   UNL     1      19.398  29.028  16.561  1.00  0.00     0.281 C 
ATOM     20  C   UNL     1      21.617  29.785  17.099  1.00  0.00     0.180 C 
ATOM     21  C   UNL     1      20.767  29.287  15.933  1.00  0.00     0.202 C 
BRANCH  17  22
ATOM     22  C   UNL     1      19.843  28.721  19.680  1.00  0.00     0.191 C 
BRANCH  22  23
ATOM     23  O   UNL     1      19.643  27.830  20.710  1.00  0.00    -0.394 OA
ATOM     24  H   UNL     1      20.213  28.007  21.487  1.00  0.00     0.210 HD
ENDBRANCH  22  23
ENDBRANCH  17  22
BRANCH  19  25
ATOM     25  O   UNL     1      18.809  30.171  17.013  1.00  0.00    -0.350 OA
BRANCH  25  26
ATOM     26  C   UNL     1      17.468  30.321  16.834  1.00  0.00     0.169 C 
BRANCH  26  27
ATOM     27  C   UNL     1      16.699  30.159  18.100  1.00  0.00     0.119 C 
BRANCH  27  28
ATOM     28  N   UNL     1      16.013  28.861  18.156  1.00  0.00    -0.092 NA
ATOM     29  N   UNL     1      16.389  27.995  18.966  1.00  0.00     0.001 N 
ATOM     30  N   UNL     1      16.513  27.482  20.096  1.00  0.00    -0.003 NA
ENDBRANCH  27  28
ENDBRANCH  26  27
ENDBRANCH  25  26
ENDBRANCH  19  25
BRANCH  20  31
ATOM     31  O   UNL     1      21.017  30.889  17.657  1.00  0.00    -0.387 OA
ATOM     32  H   UNL     1      20.467  31.388  17.033  1.00  0.00     0.211 HD
ENDBRANCH  20  31
BRANCH  21  33
ATOM     33  O   UNL     1      21.279  28.101  15.411  1.00  0.00    -0.385 OA
ATOM     34  H   UNL     1      21.915  27.743  16.086  1.00  0.00     0.211 HD
ENDBRANCH  21  33
ENDBRANCH  15  16
ENDBRANCH  10  15
BRANCH  12  35
ATOM     35  O   UNL     1      21.946  24.806  16.225  1.00  0.00    -0.385 OA
ATOM     36  H   UNL     1      21.673  23.935  16.585  1.00  0.00     0.211 HD
ENDBRANCH  12  35
BRANCH  13  37
ATOM     37  O   UNL     1      25.096  24.245  17.090  1.00  0.00    -0.387 OA
ATOM     38  H   UNL     1      25.631  23.673  17.729  1.00  0.00     0.211 HD
ENDBRANCH  13  37
BRANCH  14  39
ATOM     39  O   UNL     1      25.053  25.117  19.361  1.00  0.00    -0.387 OA
ATOM     40  H   UNL     1      25.764  24.422  19.525  1.00  0.00     0.211 HD
ENDBRANCH  14  39
ENDBRANCH   8   9
ENDBRANCH   7   8
ENDBRANCH   1   7
BRANCH   1  41
ATOM     41  C   UNL     1      25.580  24.290  22.345  1.00  0.00     0.364 C 
ATOM     42  O   UNL     1      26.573  24.971  22.107  1.00  0.00    -0.246 OA
BRANCH  41  43
ATOM     43  O   UNL     1      25.726  22.897  22.320  1.00  0.00    -0.477 OA
ATOM     44  H   UNL     1      24.859  22.343  22.295  1.00  0.00     0.296 HD
ENDBRANCH  41  43
ENDBRANCH   1  41
BRANCH   3  45
ATOM     45  O   UNL     1      21.720  24.683  24.569  1.00  0.00    -0.391 OA
ATOM     46  H   UNL     1      21.654  24.399  23.623  1.00  0.00     0.211 HD
ENDBRANCH   3  45
BRANCH   5  47
ATOM     47  C   UNL     1      24.696  28.384  23.418  1.00  0.00     0.176 C 
BRANCH  47  48
ATOM     48  O   UNL     1      23.846  28.717  22.276  1.00  0.00    -0.388 OA
ATOM     49  H   UNL     1      22.928  28.848  22.625  1.00  0.00     0.211 HD
ENDBRANCH  47  48
BRANCH  47  50
ATOM     50  C   UNL     1      26.049  28.652  22.773  1.00  0.00     0.165 C 
BRANCH  50  51
ATOM     51  O   UNL     1      26.653  29.658  23.566  1.00  0.00    -0.388 OA
ATOM     52  H   UNL     1      27.603  29.450  23.745  1.00  0.00     0.211 HD
ENDBRANCH  50  51
BRANCH  50  53
ATOM     53  C   UNL     1      26.065  29.044  21.352  1.00  0.00     0.154 C 
BRANCH  53  54
ATOM     54  N   UNL     1      26.218  27.800  20.570  1.00  0.00    -0.319 N 
ATOM     55  C   UNL     1      27.178  27.692  19.534  1.00  0.00     0.407 C 
ATOM     56  H   UNL     1      25.602  26.999  20.796  1.00  0.00     0.167 HD
ATOM     57  O   UNL     1      27.929  28.690  19.290  1.00  0.00    -0.225 OA
BRANCH  55  58
ATOM     58  O   UNL     1      27.299  26.521  18.803  1.00  0.00    -0.443 OA
BRANCH  58  59
ATOM     59  C   UNL     1      28.523  25.823  18.855  1.00  0.00     0.294 C 
BRANCH  59  60
ATOM     60  C   UNL     1      28.398  24.450  19.382  1.00  0.00     0.120 A 
ATOM     61  C   UNL     1      29.294  23.856  20.246  1.00  0.00     0.138 A 
ATOM     62  N   UNL     1      27.464  23.523  19.144  1.00  0.00    -0.132 NA
ATOM     63  N   UNL     1      28.896  22.605  20.509  1.00  0.00    -0.249 N 
ATOM     64  N   UNL     1      27.768  22.414  19.825  1.00  0.00    -0.067 NA
BRANCH  63  65
ATOM     65  C   UNL     1      29.611  21.681  21.378  1.00  0.00     0.112 C 
ATOM     66  C   UNL     1      30.590  20.945  20.528  1.00  0.00     0.046 C 
ATOM     67  C   UNL     1      28.607  20.840  22.096  1.00  0.00     0.046 C 
ATOM     68  C   UNL     1      30.671  19.475  20.787  1.00  0.00     0.058 C 
ATOM     69  C   UNL     1      28.966  19.393  22.239  1.00  0.00     0.058 C 
ATOM     70  N   UNL     1      30.390  19.148  22.150  1.00  0.00    -0.300 NA
ATOM     71  C   UNL     1      29.534  18.786  20.036  1.00  0.00     0.021 C 
ATOM     72  C   UNL     1      28.418  18.644  21.042  1.00  0.00     0.021 C 
ATOM     73  C   UNL     1      31.149  19.891  23.125  1.00  0.00     0.105 C 
ENDBRANCH  63  65
ENDBRANCH  59  60
ENDBRANCH  58  59
ENDBRANCH  55  58
ENDBRANCH  53  54
ENDBRANCH  50  53
ENDBRANCH  47  50
ENDBRANCH   5  47
BRANCH   4  74
ATOM     74  N   UNL     1      22.318  27.709  24.959  1.00  0.00    -0.348 N 
ATOM     75  C   UNL     1      21.230  28.471  24.411  1.00  0.00     0.217 C 
ATOM     76  H   UNL     1      22.566  27.923  25.951  1.00  0.00     0.163 HD
ATOM     77  C   UNL     1      20.572  29.513  25.267  1.00  0.00     0.114 C 
ATOM     78  O   UNL     1      20.829  28.284  23.256  1.00  0.00    -0.275 OA
ENDBRANCH   4  74
TORSDOF 30
