REMARK VINA RESULT:    -5.395     10.949     16.942
REMARK INTER + INTRA:         -20.450
REMARK INTER:                 -13.808
REMARK INTRA:                  -6.642
REMARK UNBOUND:                -6.855
REMARK SMILES CC(=O)N[C@@H]1[C@@H](O)C[C@](OC[C@H]2O[C@@H](O[C@H]3[C@H](O)[C@@H](O)[C@H](OCCN=[N+]=[N-])O[C@@H]3CO)[C@H](O)[C@@H](O)[C@H]2O)(C(=O)O)O[C@H]1C(O)[C@H](O)CNC(=O)OCc1cn(Cc2ccsc2)nn1
REMARK SMILES IDX 9 1 8 2 6 3 5 4 42 5 41 6 10 7 11 8 12 9 14 10 13 11 32 12
REMARK SMILES IDX 34 13 36 14 15 15 16 16 29 17 28 18 21 19 17 20 19 21 30 22
REMARK SMILES IDX 31 23 22 25 23 26 24 27 25 28 26 29 27 30 18 31 20 33 33 35
REMARK SMILES IDX 35 37 37 39 38 41 39 42 40 43 7 45 43 47 44 48 45 50 46 51
REMARK SMILES IDX 47 53 48 54 49 55 50 57 51 58 52 59 53 60 54 61 63 62 55 63
REMARK SMILES IDX 62 64 56 65 57 66 58 67 61 68 59 69 60 70 4 71 2 72 1 74
REMARK SMILES IDX 3 75
REMARK H PARENT 31 24 18 32 20 34 33 36 35 38 37 40 40 44 7 46 44 49 46 52
REMARK H PARENT 48 56 4 73
REMARK Flexibility Score: inf
ROOT
ATOM      1  C   UNL     1      31.952  19.030  22.264  1.00  0.00     0.272 C 
ATOM      2  C   UNL     1      32.468  19.963  21.209  1.00  0.00     0.113 C 
ATOM      3  C   UNL     1      31.574  21.135  20.907  1.00  0.00     0.145 C 
ATOM      4  C   UNL     1      31.000  21.759  22.119  1.00  0.00     0.142 C 
ATOM      5  C   UNL     1      30.836  20.821  23.299  1.00  0.00     0.178 C 
ATOM      6  O   UNL     1      31.780  19.866  23.437  1.00  0.00    -0.332 OA
ENDROOT
BRANCH   1   7
ATOM      7  O   UNL     1      32.939  18.203  22.667  1.00  0.00    -0.338 OA
BRANCH   7   8
ATOM      8  C   UNL     1      33.750  18.408  23.687  1.00  0.00     0.199 C 
BRANCH   8   9
ATOM      9  C   UNL     1      33.863  17.539  24.870  1.00  0.00     0.179 C 
ATOM     10  C   UNL     1      34.467  17.768  27.051  1.00  0.00     0.282 C 
ATOM     11  O   UNL     1      33.769  18.423  26.010  1.00  0.00    -0.341 OA
ATOM     12  C   UNL     1      34.048  16.349  27.225  1.00  0.00     0.202 C 
ATOM     13  C   UNL     1      32.893  15.892  26.410  1.00  0.00     0.179 C 
ATOM     14  C   UNL     1      32.681  16.615  25.110  1.00  0.00     0.177 C 
BRANCH  10  15
ATOM     15  O   UNL     1      34.334  18.527  28.186  1.00  0.00    -0.341 OA
BRANCH  15  16
ATOM     16  C   UNL     1      34.315  17.775  29.373  1.00  0.00     0.184 C 
ATOM     17  C   UNL     1      33.200  18.178  30.271  1.00  0.00     0.178 C 
ATOM     18  O   UNL     1      33.481  19.070  31.260  1.00  0.00    -0.341 OA
ATOM     19  C   UNL     1      34.792  19.576  31.248  1.00  0.00     0.281 C 
ATOM     20  C   UNL     1      35.666  17.695  30.009  1.00  0.00     0.180 C 
ATOM     21  C   UNL     1      35.689  18.377  31.384  1.00  0.00     0.202 C 
BRANCH  17  22
ATOM     22  C   UNL     1      32.489  16.985  30.891  1.00  0.00     0.191 C 
BRANCH  22  23
ATOM     23  O   UNL     1      31.410  16.685  30.061  1.00  0.00    -0.394 OA
ATOM     24  H   UNL     1      30.738  16.104  30.525  1.00  0.00     0.210 HD
ENDBRANCH  22  23
ENDBRANCH  17  22
BRANCH  19  25
ATOM     25  O   UNL     1      34.881  20.497  32.256  1.00  0.00    -0.350 OA
BRANCH  25  26
ATOM     26  C   UNL     1      35.190  21.774  31.830  1.00  0.00     0.169 C 
BRANCH  26  27
ATOM     27  C   UNL     1      35.102  22.008  30.358  1.00  0.00     0.119 C 
BRANCH  27  28
ATOM     28  N   UNL     1      34.029  22.910  30.038  1.00  0.00    -0.092 NA
ATOM     29  N   UNL     1      33.604  23.656  30.934  1.00  0.00     0.001 N 
ATOM     30  N   UNL     1      33.064  24.558  31.573  1.00  0.00    -0.003 NA
ENDBRANCH  27  28
ENDBRANCH  26  27
ENDBRANCH  25  26
ENDBRANCH  19  25
BRANCH  20  31
ATOM     31  O   UNL     1      36.188  16.422  30.082  1.00  0.00    -0.387 OA
ATOM     32  H   UNL     1      36.617  16.161  29.241  1.00  0.00     0.211 HD
ENDBRANCH  20  31
BRANCH  21  33
ATOM     33  O   UNL     1      36.957  18.705  31.788  1.00  0.00    -0.385 OA
ATOM     34  H   UNL     1      37.190  18.316  32.675  1.00  0.00     0.211 HD
ENDBRANCH  21  33
ENDBRANCH  15  16
ENDBRANCH  10  15
BRANCH  12  35
ATOM     35  O   UNL     1      35.153  15.465  27.108  1.00  0.00    -0.385 OA
ATOM     36  H   UNL     1      34.907  14.701  26.523  1.00  0.00     0.211 HD
ENDBRANCH  12  35
BRANCH  13  37
ATOM     37  O   UNL     1      31.714  16.055  27.164  1.00  0.00    -0.387 OA
ATOM     38  H   UNL     1      31.594  15.254  27.724  1.00  0.00     0.211 HD
ENDBRANCH  13  37
BRANCH  14  39
ATOM     39  O   UNL     1      31.563  17.479  25.203  1.00  0.00    -0.387 OA
ATOM     40  H   UNL     1      31.245  17.372  26.152  1.00  0.00     0.211 HD
ENDBRANCH  14  39
ENDBRANCH   8   9
ENDBRANCH   7   8
ENDBRANCH   1   7
BRANCH   1  41
ATOM     41  C   UNL     1      30.615  18.492  22.016  1.00  0.00     0.364 C 
ATOM     42  O   UNL     1      29.799  18.244  22.925  1.00  0.00    -0.246 OA
BRANCH  41  43
ATOM     43  O   UNL     1      30.151  18.212  20.717  1.00  0.00    -0.477 OA
ATOM     44  H   UNL     1      29.823  18.951  20.111  1.00  0.00     0.296 HD
ENDBRANCH  41  43
ENDBRANCH   1  41
BRANCH   3  45
ATOM     45  O   UNL     1      32.437  22.083  20.293  1.00  0.00    -0.391 OA
ATOM     46  H   UNL     1      32.128  22.269  19.362  1.00  0.00     0.211 HD
ENDBRANCH   3  45
BRANCH   5  47
ATOM     47  C   UNL     1      30.931  21.669  24.591  1.00  0.00     0.176 C 
BRANCH  47  48
ATOM     48  O   UNL     1      31.543  22.883  24.288  1.00  0.00    -0.388 OA
ATOM     49  H   UNL     1      30.911  23.470  23.814  1.00  0.00     0.211 HD
ENDBRANCH  47  48
BRANCH  47  50
ATOM     50  C   UNL     1      31.794  20.937  25.554  1.00  0.00     0.165 C 
BRANCH  50  51
ATOM     51  O   UNL     1      30.992  20.142  26.372  1.00  0.00    -0.388 OA
ATOM     52  H   UNL     1      30.412  19.551  25.833  1.00  0.00     0.211 HD
ENDBRANCH  50  51
BRANCH  50  53
ATOM     53  C   UNL     1      32.628  21.819  26.447  1.00  0.00     0.154 C 
BRANCH  53  54
ATOM     54  N   UNL     1      31.880  22.420  27.510  1.00  0.00    -0.319 N 
ATOM     55  C   UNL     1      31.710  23.796  27.706  1.00  0.00     0.407 C 
ATOM     56  H   UNL     1      31.415  21.765  28.208  1.00  0.00     0.167 HD
ATOM     57  O   UNL     1      32.241  24.596  26.906  1.00  0.00    -0.225 OA
BRANCH  55  58
ATOM     58  O   UNL     1      30.963  24.242  28.775  1.00  0.00    -0.443 OA
BRANCH  58  59
ATOM     59  C   UNL     1      30.624  25.581  28.995  1.00  0.00     0.294 C 
BRANCH  59  60
ATOM     60  C   UNL     1      29.190  25.670  29.335  1.00  0.00     0.120 A 
ATOM     61  C   UNL     1      28.281  26.539  28.818  1.00  0.00     0.138 A 
ATOM     62  N   UNL     1      28.557  24.889  30.222  1.00  0.00    -0.132 NA
ATOM     63  N   UNL     1      27.102  26.269  29.404  1.00  0.00    -0.248 N 
ATOM     64  N   UNL     1      27.278  25.273  30.249  1.00  0.00    -0.067 NA
BRANCH  63  65
ATOM     65  C   UNL     1      25.866  26.961  29.141  1.00  0.00     0.182 C 
BRANCH  65  66
ATOM     66  C   UNL     1      24.958  26.037  28.320  1.00  0.00    -0.016 A 
ATOM     67  C   UNL     1      25.202  25.689  27.073  1.00  0.00     0.017 A 
ATOM     68  C   UNL     1      23.813  25.548  28.948  1.00  0.00     0.070 A 
ATOM     69  C   UNL     1      24.349  24.851  26.379  1.00  0.00     0.065 A 
ATOM     70  S   UNL     1      23.069  24.539  27.652  1.00  0.00    -0.152 S 
ENDBRANCH  65  66
ENDBRANCH  63  65
ENDBRANCH  59  60
ENDBRANCH  58  59
ENDBRANCH  55  58
ENDBRANCH  53  54
ENDBRANCH  50  53
ENDBRANCH  47  50
ENDBRANCH   5  47
BRANCH   4  71
ATOM     71  N   UNL     1      29.746  22.420  21.918  1.00  0.00    -0.348 N 
ATOM     72  C   UNL     1      29.646  23.804  21.620  1.00  0.00     0.217 C 
ATOM     73  H   UNL     1      28.854  21.882  21.989  1.00  0.00     0.163 HD
ATOM     74  C   UNL     1      28.342  24.504  21.408  1.00  0.00     0.114 C 
ATOM     75  O   UNL     1      30.746  24.425  21.542  1.00  0.00    -0.275 OA
ENDBRANCH   4  71
TORSDOF 31
