REMARK VINA RESULT:    -6.018      5.673     12.326
REMARK INTER + INTRA:         -21.713
REMARK INTER:                 -15.516
REMARK INTRA:                  -6.197
REMARK UNBOUND:                -6.197
REMARK SMILES CC(=O)N[C@@H]1[C@@H](O)C[C@](OC[C@H]2O[C@@H](O[C@H]3[C@H](O)[C@@H](O)[C@H](OCCN=[N+]=[N-])O[C@@H]3CO)[C@H](O)[C@@H](O)[C@H]2O)(C(=O)O)O[C@H]1C(O)[C@H](O)CNC(=O)OCc1cn(Cc2cccc(C#N)c2)nn1
REMARK SMILES IDX 9 1 8 2 6 3 5 4 42 5 41 6 10 7 11 8 12 9 14 10 13 11 32 12
REMARK SMILES IDX 34 13 36 14 15 15 16 16 29 17 28 18 21 19 17 20 19 21 30 22
REMARK SMILES IDX 31 23 22 25 23 26 24 27 25 28 26 29 27 30 18 31 20 33 33 35
REMARK SMILES IDX 35 37 37 39 38 41 39 42 40 43 7 45 43 47 44 48 45 50 46 51
REMARK SMILES IDX 47 53 48 54 49 55 50 57 51 58 52 59 53 60 54 61 66 62 55 63
REMARK SMILES IDX 65 64 56 65 57 66 58 67 64 68 59 69 61 70 60 71 62 72 63 73
REMARK SMILES IDX 4 74 2 75 1 77 3 78
REMARK H PARENT 31 24 18 32 20 34 33 36 35 38 37 40 40 44 7 46 44 49 46 52
REMARK H PARENT 48 56 4 76
REMARK Flexibility Score: inf
ROOT
ATOM      1  C   UNL     1      22.838  25.270  23.265  1.00  0.00     0.272 C 
ATOM      2  C   UNL     1      23.434  24.792  21.962  1.00  0.00     0.113 C 
ATOM      3  C   UNL     1      24.023  25.805  21.074  1.00  0.00     0.145 C 
ATOM      4  C   UNL     1      23.310  27.157  21.193  1.00  0.00     0.142 C 
ATOM      5  C   UNL     1      23.076  27.564  22.577  1.00  0.00     0.178 C 
ATOM      6  O   UNL     1      22.905  26.601  23.518  1.00  0.00    -0.332 OA
ENDROOT
BRANCH   1   7
ATOM      7  O   UNL     1      23.423  24.626  24.258  1.00  0.00    -0.338 OA
BRANCH   7   8
ATOM      8  C   UNL     1      24.372  24.521  25.058  1.00  0.00     0.199 C 
BRANCH   8   9
ATOM      9  C   UNL     1      24.381  24.816  26.532  1.00  0.00     0.179 C 
ATOM     10  C   UNL     1      24.970  26.405  28.017  1.00  0.00     0.282 C 
ATOM     11  O   UNL     1      24.553  26.243  26.689  1.00  0.00    -0.341 OA
ATOM     12  C   UNL     1      23.871  26.112  28.981  1.00  0.00     0.202 C 
ATOM     13  C   UNL     1      23.073  24.881  28.595  1.00  0.00     0.179 C 
ATOM     14  C   UNL     1      22.967  24.663  27.124  1.00  0.00     0.177 C 
BRANCH  10  15
ATOM     15  O   UNL     1      25.422  27.710  28.194  1.00  0.00    -0.341 OA
BRANCH  15  16
ATOM     16  C   UNL     1      26.785  27.791  28.310  1.00  0.00     0.184 C 
ATOM     17  C   UNL     1      27.221  28.618  29.463  1.00  0.00     0.178 C 
ATOM     18  O   UNL     1      28.585  28.780  29.549  1.00  0.00    -0.341 OA
ATOM     19  C   UNL     1      29.215  29.205  28.401  1.00  0.00     0.281 C 
ATOM     20  C   UNL     1      27.247  28.605  27.058  1.00  0.00     0.180 C 
ATOM     21  C   UNL     1      28.759  28.552  27.136  1.00  0.00     0.202 C 
BRANCH  17  22
ATOM     22  C   UNL     1      26.773  27.994  30.765  1.00  0.00     0.191 C 
BRANCH  22  23
ATOM     23  O   UNL     1      27.888  27.696  31.555  1.00  0.00    -0.394 OA
ATOM     24  H   UNL     1      27.716  27.008  32.219  1.00  0.00     0.210 HD
ENDBRANCH  22  23
ENDBRANCH  17  22
BRANCH  19  25
ATOM     25  O   UNL     1      30.577  28.866  28.545  1.00  0.00    -0.350 OA
BRANCH  25  26
ATOM     26  C   UNL     1      30.730  27.982  29.581  1.00  0.00     0.169 C 
BRANCH  26  27
ATOM     27  C   UNL     1      31.426  26.716  29.168  1.00  0.00     0.119 C 
BRANCH  27  28
ATOM     28  N   UNL     1      30.513  25.668  28.775  1.00  0.00    -0.092 NA
ATOM     29  N   UNL     1      29.513  25.459  29.476  1.00  0.00     0.001 N 
ATOM     30  N   UNL     1      28.520  25.090  30.144  1.00  0.00    -0.003 NA
ENDBRANCH  27  28
ENDBRANCH  26  27
ENDBRANCH  25  26
ENDBRANCH  19  25
BRANCH  20  31
ATOM     31  O   UNL     1      26.722  27.994  25.951  1.00  0.00    -0.387 OA
ATOM     32  H   UNL     1      25.739  27.833  26.041  1.00  0.00     0.211 HD
ENDBRANCH  20  31
BRANCH  21  33
ATOM     33  O   UNL     1      29.257  29.274  26.054  1.00  0.00    -0.385 OA
ATOM     34  H   UNL     1      28.503  29.842  25.719  1.00  0.00     0.211 HD
ENDBRANCH  21  33
ENDBRANCH  15  16
ENDBRANCH  10  15
BRANCH  12  35
ATOM     35  O   UNL     1      24.461  25.783  30.222  1.00  0.00    -0.385 OA
ATOM     36  H   UNL     1      24.651  26.645  30.668  1.00  0.00     0.211 HD
ENDBRANCH  12  35
BRANCH  13  37
ATOM     37  O   UNL     1      21.774  25.101  29.078  1.00  0.00    -0.387 OA
ATOM     38  H   UNL     1      21.327  24.284  29.370  1.00  0.00     0.211 HD
ENDBRANCH  13  37
BRANCH  14  39
ATOM     39  O   UNL     1      22.185  25.710  26.610  1.00  0.00    -0.387 OA
ATOM     40  H   UNL     1      21.379  25.865  27.140  1.00  0.00     0.211 HD
ENDBRANCH  14  39
ENDBRANCH   8   9
ENDBRANCH   7   8
ENDBRANCH   1   7
BRANCH   1  41
ATOM     41  C   UNL     1      21.366  24.963  23.177  1.00  0.00     0.364 C 
ATOM     42  O   UNL     1      20.749  24.441  24.167  1.00  0.00    -0.246 OA
BRANCH  41  43
ATOM     43  O   UNL     1      20.639  25.227  22.048  1.00  0.00    -0.477 OA
ATOM     44  H   UNL     1      20.545  24.460  21.361  1.00  0.00     0.296 HD
ENDBRANCH  41  43
ENDBRANCH   1  41
BRANCH   3  45
ATOM     45  O   UNL     1      25.366  25.981  21.372  1.00  0.00    -0.391 OA
ATOM     46  H   UNL     1      25.715  25.319  22.015  1.00  0.00     0.211 HD
ENDBRANCH   3  45
BRANCH   5  47
ATOM     47  C   UNL     1      24.151  28.442  23.183  1.00  0.00     0.176 C 
BRANCH  47  48
ATOM     48  O   UNL     1      25.019  28.733  22.078  1.00  0.00    -0.388 OA
ATOM     49  H   UNL     1      24.551  28.435  21.265  1.00  0.00     0.211 HD
ENDBRANCH  47  48
BRANCH  47  50
ATOM     50  C   UNL     1      23.774  29.755  23.729  1.00  0.00     0.165 C 
BRANCH  50  51
ATOM     51  O   UNL     1      24.708  29.905  24.844  1.00  0.00    -0.388 OA
ATOM     52  H   UNL     1      25.313  30.672  24.611  1.00  0.00     0.211 HD
ENDBRANCH  50  51
BRANCH  50  53
ATOM     53  C   UNL     1      22.448  29.902  24.380  1.00  0.00     0.154 C 
BRANCH  53  54
ATOM     54  N   UNL     1      21.341  30.223  23.540  1.00  0.00    -0.319 N 
ATOM     55  C   UNL     1      20.126  29.467  23.642  1.00  0.00     0.407 C 
ATOM     56  H   UNL     1      21.354  30.984  22.850  1.00  0.00     0.167 HD
ATOM     57  O   UNL     1      20.100  28.542  24.487  1.00  0.00    -0.225 OA
BRANCH  55  58
ATOM     58  O   UNL     1      19.023  29.712  22.876  1.00  0.00    -0.443 OA
BRANCH  58  59
ATOM     59  C   UNL     1      19.125  29.993  21.465  1.00  0.00     0.294 C 
BRANCH  59  60
ATOM     60  C   UNL     1      17.953  29.392  20.767  1.00  0.00     0.120 A 
ATOM     61  C   UNL     1      16.785  30.027  20.412  1.00  0.00     0.138 A 
ATOM     62  N   UNL     1      17.817  28.125  20.361  1.00  0.00    -0.132 NA
ATOM     63  N   UNL     1      15.958  29.136  19.796  1.00  0.00    -0.248 N 
ATOM     64  N   UNL     1      16.617  27.988  19.781  1.00  0.00    -0.067 NA
BRANCH  63  65
ATOM     65  C   UNL     1      14.645  29.409  19.288  1.00  0.00     0.181 C 
BRANCH  65  66
ATOM     66  C   UNL     1      13.772  29.854  20.399  1.00  0.00    -0.025 A 
ATOM     67  C   UNL     1      13.523  29.093  21.511  1.00  0.00     0.006 A 
ATOM     68  C   UNL     1      13.164  31.103  20.324  1.00  0.00     0.025 A 
ATOM     69  C   UNL     1      12.711  29.511  22.531  1.00  0.00     0.002 A 
ATOM     70  C   UNL     1      12.350  31.522  21.347  1.00  0.00     0.052 A 
ATOM     71  C   UNL     1      12.091  30.752  22.481  1.00  0.00     0.019 A 
BRANCH  70  72
ATOM     72  C   UNL     1      11.729  32.818  21.263  1.00  0.00     0.099 C 
ATOM     73  N   UNL     1      11.236  33.877  21.203  1.00  0.00    -0.192 NA
ENDBRANCH  70  72
ENDBRANCH  65  66
ENDBRANCH  63  65
ENDBRANCH  59  60
ENDBRANCH  58  59
ENDBRANCH  55  58
ENDBRANCH  53  54
ENDBRANCH  50  53
ENDBRANCH  47  50
ENDBRANCH   5  47
BRANCH   4  74
ATOM     74  N   UNL     1      22.140  27.140  20.316  1.00  0.00    -0.348 N 
ATOM     75  C   UNL     1      21.920  28.221  19.438  1.00  0.00     0.217 C 
ATOM     76  H   UNL     1      21.440  26.373  20.287  1.00  0.00     0.163 HD
ATOM     77  C   UNL     1      20.755  28.289  18.511  1.00  0.00     0.114 C 
ATOM     78  O   UNL     1      22.731  29.161  19.434  1.00  0.00    -0.275 OA
ENDBRANCH   4  74
TORSDOF 32
