REMARK VINA RESULT:    -6.195      3.940      6.615
REMARK INTER + INTRA:         -22.169
REMARK INTER:                 -17.069
REMARK INTRA:                  -5.100
REMARK UNBOUND:                -6.197
REMARK SMILES CC(=O)N[C@@H]1[C@@H](O)C[C@](OC[C@H]2O[C@@H](O[C@H]3[C@H](O)[C@@H](O)[C@H](OCCN=[N+]=[N-])O[C@@H]3CO)[C@H](O)[C@@H](O)[C@H]2O)(C(=O)O)O[C@H]1C(O)[C@H](O)CNC(=O)OCc1cn(Cc2cccc(C#N)c2)nn1
REMARK SMILES IDX 9 1 8 2 6 3 5 4 42 5 41 6 10 7 11 8 12 9 14 10 13 11 32 12
REMARK SMILES IDX 34 13 36 14 15 15 16 16 29 17 28 18 21 19 17 20 19 21 30 22
REMARK SMILES IDX 31 23 22 25 23 26 24 27 25 28 26 29 27 30 18 31 20 33 33 35
REMARK SMILES IDX 35 37 37 39 38 41 39 42 40 43 7 45 43 47 44 48 45 50 46 51
REMARK SMILES IDX 47 53 48 54 49 55 50 57 51 58 52 59 53 60 54 61 66 62 55 63
REMARK SMILES IDX 65 64 56 65 57 66 58 67 64 68 59 69 61 70 60 71 62 72 63 73
REMARK SMILES IDX 4 74 2 75 1 77 3 78
REMARK H PARENT 31 24 18 32 20 34 33 36 35 38 37 40 40 44 7 46 44 49 46 52
REMARK H PARENT 48 56 4 76
REMARK Flexibility Score: inf
ROOT
ATOM      1  C   UNL     1      15.127  30.210  19.005  1.00  0.00     0.272 C 
ATOM      2  C   UNL     1      15.208  28.756  18.605  1.00  0.00     0.113 C 
ATOM      3  C   UNL     1      16.431  28.023  18.965  1.00  0.00     0.145 C 
ATOM      4  C   UNL     1      17.665  28.931  18.974  1.00  0.00     0.142 C 
ATOM      5  C   UNL     1      17.440  30.199  19.667  1.00  0.00     0.178 C 
ATOM      6  O   UNL     1      16.188  30.723  19.676  1.00  0.00    -0.332 OA
ENDROOT
BRANCH   1   7
ATOM      7  O   UNL     1      14.043  30.387  19.739  1.00  0.00    -0.338 OA
BRANCH   7   8
ATOM      8  C   UNL     1      13.301  30.008  20.665  1.00  0.00     0.199 C 
BRANCH   8   9
ATOM      9  C   UNL     1      13.367  30.382  22.119  1.00  0.00     0.179 C 
ATOM     10  C   UNL     1      12.327  30.031  24.087  1.00  0.00     0.282 C 
ATOM     11  O   UNL     1      12.578  29.417  22.853  1.00  0.00    -0.341 OA
ATOM     12  C   UNL     1      13.562  30.124  24.918  1.00  0.00     0.202 C 
ATOM     13  C   UNL     1      14.775  30.544  24.110  1.00  0.00     0.179 C 
ATOM     14  C   UNL     1      14.759  30.065  22.699  1.00  0.00     0.177 C 
BRANCH  10  15
ATOM     15  O   UNL     1      11.353  29.302  24.765  1.00  0.00    -0.341 OA
BRANCH  15  16
ATOM     16  C   UNL     1      10.125  29.365  24.160  1.00  0.00     0.184 C 
ATOM     17  C   UNL     1       9.402  30.630  24.445  1.00  0.00     0.178 C 
ATOM     18  O   UNL     1       8.133  30.679  23.915  1.00  0.00    -0.341 OA
ATOM     19  C   UNL     1       7.322  29.601  24.193  1.00  0.00     0.281 C 
ATOM     20  C   UNL     1       9.270  28.266  24.872  1.00  0.00     0.180 C 
ATOM     21  C   UNL     1       7.974  28.259  24.088  1.00  0.00     0.202 C 
BRANCH  17  22
ATOM     22  C   UNL     1      10.155  31.812  23.880  1.00  0.00     0.191 C 
BRANCH  22  23
ATOM     23  O   UNL     1      10.584  32.642  24.921  1.00  0.00    -0.394 OA
ATOM     24  H   UNL     1      10.204  33.535  24.882  1.00  0.00     0.210 HD
ENDBRANCH  22  23
ENDBRANCH  17  22
BRANCH  19  25
ATOM     25  O   UNL     1       6.297  29.613  23.223  1.00  0.00    -0.350 OA
BRANCH  25  26
ATOM     26  C   UNL     1       5.705  30.848  23.186  1.00  0.00     0.169 C 
BRANCH  26  27
ATOM     27  C   UNL     1       4.915  31.078  21.928  1.00  0.00     0.119 C 
BRANCH  27  28
ATOM     28  N   UNL     1       5.674  30.822  20.727  1.00  0.00    -0.092 NA
ATOM     29  N   UNL     1       5.276  29.943  19.950  1.00  0.00     0.001 N 
ATOM     30  N   UNL     1       5.033  29.025  19.133  1.00  0.00    -0.003 NA
ENDBRANCH  27  28
ENDBRANCH  26  27
ENDBRANCH  25  26
ENDBRANCH  19  25
BRANCH  20  31
ATOM     31  O   UNL     1       9.970  27.091  24.806  1.00  0.00    -0.387 OA
ATOM     32  H   UNL     1      10.270  26.885  23.875  1.00  0.00     0.211 HD
ENDBRANCH  20  31
BRANCH  21  33
ATOM     33  O   UNL     1       7.140  27.309  24.672  1.00  0.00    -0.385 OA
ATOM     34  H   UNL     1       7.546  26.415  24.477  1.00  0.00     0.211 HD
ENDBRANCH  21  33
ENDBRANCH  15  16
ENDBRANCH  10  15
BRANCH  12  35
ATOM     35  O   UNL     1      13.376  31.167  25.853  1.00  0.00    -0.385 OA
ATOM     36  H   UNL     1      12.930  30.753  26.633  1.00  0.00     0.211 HD
ENDBRANCH  12  35
BRANCH  13  37
ATOM     37  O   UNL     1      15.878  29.947  24.740  1.00  0.00    -0.387 OA
ATOM     38  H   UNL     1      15.758  29.832  25.702  1.00  0.00     0.211 HD
ENDBRANCH  13  37
BRANCH  14  39
ATOM     39  O   UNL     1      14.885  28.667  22.738  1.00  0.00    -0.387 OA
ATOM     40  H   UNL     1      15.765  28.366  22.440  1.00  0.00     0.211 HD
ENDBRANCH  14  39
ENDBRANCH   8   9
ENDBRANCH   7   8
ENDBRANCH   1   7
BRANCH   1  41
ATOM     41  C   UNL     1      15.071  30.985  17.714  1.00  0.00     0.364 C 
ATOM     42  O   UNL     1      15.549  30.492  16.637  1.00  0.00    -0.246 OA
BRANCH  41  43
ATOM     43  O   UNL     1      14.512  32.233  17.644  1.00  0.00    -0.477 OA
ATOM     44  H   UNL     1      14.417  32.754  18.531  1.00  0.00     0.296 HD
ENDBRANCH  41  43
ENDBRANCH   1  41
BRANCH   3  45
ATOM     45  O   UNL     1      16.292  27.445  20.218  1.00  0.00    -0.391 OA
ATOM     46  H   UNL     1      15.456  27.698  20.676  1.00  0.00     0.211 HD
ENDBRANCH   3  45
BRANCH   5  47
ATOM     47  C   UNL     1      17.821  30.208  21.134  1.00  0.00     0.176 C 
BRANCH  47  48
ATOM     48  O   UNL     1      18.685  29.071  21.271  1.00  0.00    -0.388 OA
ATOM     49  H   UNL     1      18.529  28.500  20.484  1.00  0.00     0.211 HD
ENDBRANCH  47  48
BRANCH  47  50
ATOM     50  C   UNL     1      18.597  31.343  21.660  1.00  0.00     0.165 C 
BRANCH  50  51
ATOM     51  O   UNL     1      19.973  30.921  21.400  1.00  0.00    -0.388 OA
ATOM     52  H   UNL     1      19.934  29.948  21.155  1.00  0.00     0.211 HD
ENDBRANCH  50  51
BRANCH  50  53
ATOM     53  C   UNL     1      18.593  31.591  23.123  1.00  0.00     0.154 C 
BRANCH  53  54
ATOM     54  N   UNL     1      18.801  30.466  23.976  1.00  0.00    -0.319 N 
ATOM     55  C   UNL     1      20.069  30.287  24.623  1.00  0.00     0.407 C 
ATOM     56  H   UNL     1      18.082  29.758  24.166  1.00  0.00     0.167 HD
ATOM     57  O   UNL     1      20.949  31.151  24.403  1.00  0.00    -0.225 OA
BRANCH  55  58
ATOM     58  O   UNL     1      20.346  29.240  25.454  1.00  0.00    -0.443 OA
BRANCH  58  59
ATOM     59  C   UNL     1      21.511  28.411  25.268  1.00  0.00     0.294 C 
BRANCH  59  60
ATOM     60  C   UNL     1      21.318  27.573  24.050  1.00  0.00     0.120 A 
ATOM     61  C   UNL     1      21.657  26.248  23.894  1.00  0.00     0.138 A 
ATOM     62  N   UNL     1      20.785  27.953  22.884  1.00  0.00    -0.132 NA
ATOM     63  N   UNL     1      21.323  25.844  22.636  1.00  0.00    -0.248 N 
ATOM     64  N   UNL     1      20.795  26.906  22.047  1.00  0.00    -0.067 NA
BRANCH  63  65
ATOM     65  C   UNL     1      21.526  24.536  22.083  1.00  0.00     0.181 C 
BRANCH  65  66
ATOM     66  C   UNL     1      22.723  24.551  21.211  1.00  0.00    -0.025 A 
ATOM     67  C   UNL     1      22.686  24.917  19.891  1.00  0.00     0.006 A 
ATOM     68  C   UNL     1      23.952  24.175  21.742  1.00  0.00     0.025 A 
ATOM     69  C   UNL     1      23.798  24.923  19.091  1.00  0.00     0.002 A 
ATOM     70  C   UNL     1      25.066  24.182  20.939  1.00  0.00     0.052 A 
ATOM     71  C   UNL     1      25.036  24.552  19.595  1.00  0.00     0.019 A 
BRANCH  70  72
ATOM     72  C   UNL     1      26.335  23.796  21.498  1.00  0.00     0.099 C 
ATOM     73  N   UNL     1      27.370  23.498  21.953  1.00  0.00    -0.192 NA
ENDBRANCH  70  72
ENDBRANCH  65  66
ENDBRANCH  63  65
ENDBRANCH  59  60
ENDBRANCH  58  59
ENDBRANCH  55  58
ENDBRANCH  53  54
ENDBRANCH  50  53
ENDBRANCH  47  50
ENDBRANCH   5  47
BRANCH   4  74
ATOM     74  N   UNL     1      18.180  29.024  17.609  1.00  0.00    -0.348 N 
ATOM     75  C   UNL     1      19.473  28.539  17.324  1.00  0.00     0.217 C 
ATOM     76  H   UNL     1      17.654  29.427  16.809  1.00  0.00     0.163 HD
ATOM     77  C   UNL     1      20.079  28.593  15.964  1.00  0.00     0.114 C 
ATOM     78  O   UNL     1      20.141  28.045  18.247  1.00  0.00    -0.275 OA
ENDBRANCH   4  74
TORSDOF 32
