REMARK VINA RESULT:    -6.266     14.627     18.965
REMARK INTER + INTRA:         -20.639
REMARK INTER:                 -14.037
REMARK INTRA:                  -6.602
REMARK UNBOUND:                -5.215
REMARK SMILES CC(=O)N[C@@H]1[C@@H](O)C[C@](OC[C@H]2O[C@@H](O[C@H]3[C@H](O)[C@@H](O)[C@H](OCCN=[N+]=[N-])O[C@@H]3CO)[C@H](O)[C@@H](O)[C@H]2O)(C(=O)O)O[C@H]1C(O)[C@H](O)CNC(=O)OCc1cn(C2CCCC2)nn1
REMARK SMILES IDX 9 1 8 2 6 3 5 4 42 5 41 6 10 7 11 8 12 9 14 10 13 11 32 12
REMARK SMILES IDX 34 13 36 14 15 15 16 16 29 17 28 18 21 19 17 20 19 21 30 22
REMARK SMILES IDX 31 23 22 25 23 26 24 27 25 28 26 29 27 30 18 31 20 33 33 35
REMARK SMILES IDX 35 37 37 39 38 41 39 42 40 43 7 45 43 47 44 48 45 50 46 51
REMARK SMILES IDX 47 53 48 54 49 55 50 57 51 58 52 59 53 60 54 61 62 62 55 63
REMARK SMILES IDX 61 64 56 65 57 66 60 67 58 68 59 69 4 70 2 71 1 73 3 74
REMARK H PARENT 31 24 18 32 20 34 33 36 35 38 37 40 40 44 7 46 44 49 46 52
REMARK H PARENT 48 56 4 72
REMARK Flexibility Score: inf
ROOT
ATOM      1  C   UNL     1       3.302  27.649  31.003  1.00  0.00     0.272 C 
ATOM      2  C   UNL     1       3.610  28.635  32.068  1.00  0.00     0.113 C 
ATOM      3  C   UNL     1       5.045  28.703  32.454  1.00  0.00     0.145 C 
ATOM      4  C   UNL     1       5.596  27.281  32.720  1.00  0.00     0.142 C 
ATOM      5  C   UNL     1       4.476  26.323  32.514  1.00  0.00     0.178 C 
ATOM      6  O   UNL     1       4.122  26.504  31.133  1.00  0.00    -0.332 OA
ENDROOT
BRANCH   1   7
ATOM      7  O   UNL     1       3.459  28.124  29.751  1.00  0.00    -0.338 OA
BRANCH   7   8
ATOM      8  C   UNL     1       4.323  27.498  28.889  1.00  0.00     0.199 C 
BRANCH   8   9
ATOM      9  C   UNL     1       3.540  27.172  27.620  1.00  0.00     0.179 C 
ATOM     10  C   UNL     1       5.169  27.286  25.959  1.00  0.00     0.282 C 
ATOM     11  O   UNL     1       4.003  27.803  26.510  1.00  0.00    -0.341 OA
ATOM     12  C   UNL     1       5.314  25.814  26.130  1.00  0.00     0.202 C 
ATOM     13  C   UNL     1       4.023  25.085  26.340  1.00  0.00     0.179 C 
ATOM     14  C   UNL     1       3.327  25.709  27.523  1.00  0.00     0.177 C 
BRANCH  10  15
ATOM     15  O   UNL     1       6.292  28.009  26.355  1.00  0.00    -0.341 OA
BRANCH  15  16
ATOM     16  C   UNL     1       6.637  28.993  25.429  1.00  0.00     0.184 C 
ATOM     17  C   UNL     1       5.759  30.198  25.452  1.00  0.00     0.178 C 
ATOM     18  O   UNL     1       6.155  31.059  24.431  1.00  0.00    -0.341 OA
ATOM     19  C   UNL     1       5.709  30.579  23.213  1.00  0.00     0.281 C 
ATOM     20  C   UNL     1       6.466  28.348  24.059  1.00  0.00     0.180 C 
ATOM     21  C   UNL     1       6.518  29.326  22.930  1.00  0.00     0.202 C 
BRANCH  17  22
ATOM     22  C   UNL     1       5.884  31.019  26.731  1.00  0.00     0.191 C 
BRANCH  22  23
ATOM     23  O   UNL     1       4.869  30.545  27.579  1.00  0.00    -0.394 OA
ATOM     24  H   UNL     1       4.346  29.849  27.148  1.00  0.00     0.210 HD
ENDBRANCH  22  23
ENDBRANCH  17  22
BRANCH  19  25
ATOM     25  O   UNL     1       6.023  31.503  22.221  1.00  0.00    -0.350 OA
BRANCH  25  26
ATOM     26  C   UNL     1       4.842  31.995  21.640  1.00  0.00     0.169 C 
BRANCH  26  27
ATOM     27  C   UNL     1       5.049  32.261  20.159  1.00  0.00     0.119 C 
BRANCH  27  28
ATOM     28  N   UNL     1       5.869  31.248  19.563  1.00  0.00    -0.092 NA
ATOM     29  N   UNL     1       5.383  30.215  19.059  1.00  0.00     0.001 N 
ATOM     30  N   UNL     1       4.915  29.079  19.034  1.00  0.00    -0.003 NA
ENDBRANCH  27  28
ENDBRANCH  26  27
ENDBRANCH  25  26
ENDBRANCH  19  25
BRANCH  20  31
ATOM     31  O   UNL     1       7.523  27.452  23.917  1.00  0.00    -0.387 OA
ATOM     32  H   UNL     1       8.274  27.642  24.532  1.00  0.00     0.211 HD
ENDBRANCH  20  31
BRANCH  21  33
ATOM     33  O   UNL     1       5.942  28.720  21.803  1.00  0.00    -0.385 OA
ATOM     34  H   UNL     1       6.458  29.057  21.027  1.00  0.00     0.211 HD
ENDBRANCH  21  33
ENDBRANCH  15  16
ENDBRANCH  10  15
BRANCH  12  35
ATOM     35  O   UNL     1       5.910  25.223  24.990  1.00  0.00    -0.385 OA
ATOM     36  H   UNL     1       5.288  25.340  24.247  1.00  0.00     0.211 HD
ENDBRANCH  12  35
BRANCH  13  37
ATOM     37  O   UNL     1       4.285  23.760  26.634  1.00  0.00    -0.387 OA
ATOM     38  H   UNL     1       3.446  23.257  26.542  1.00  0.00     0.211 HD
ENDBRANCH  13  37
BRANCH  14  39
ATOM     39  O   UNL     1       3.689  25.004  28.663  1.00  0.00    -0.387 OA
ATOM     40  H   UNL     1       4.364  24.331  28.496  1.00  0.00     0.211 HD
ENDBRANCH  14  39
ENDBRANCH   8   9
ENDBRANCH   7   8
ENDBRANCH   1   7
BRANCH   1  41
ATOM     41  C   UNL     1       1.911  27.105  31.242  1.00  0.00     0.364 C 
ATOM     42  O   UNL     1       1.043  27.739  31.862  1.00  0.00    -0.246 OA
BRANCH  41  43
ATOM     43  O   UNL     1       1.659  25.834  30.719  1.00  0.00    -0.477 OA
ATOM     44  H   UNL     1       1.409  25.074  31.365  1.00  0.00     0.296 HD
ENDBRANCH  41  43
ENDBRANCH   1  41
BRANCH   3  45
ATOM     45  O   UNL     1       5.860  29.414  31.610  1.00  0.00    -0.391 OA
ATOM     46  H   UNL     1       5.506  29.387  30.692  1.00  0.00     0.211 HD
ENDBRANCH   3  45
BRANCH   5  47
ATOM     47  C   UNL     1       4.851  24.865  32.597  1.00  0.00     0.176 C 
BRANCH  47  48
ATOM     48  O   UNL     1       4.323  24.261  31.380  1.00  0.00    -0.388 OA
ATOM     49  H   UNL     1       3.415  24.639  31.333  1.00  0.00     0.211 HD
ENDBRANCH  47  48
BRANCH  47  50
ATOM     50  C   UNL     1       4.153  24.066  33.662  1.00  0.00     0.165 C 
BRANCH  50  51
ATOM     51  O   UNL     1       2.917  24.453  34.041  1.00  0.00    -0.388 OA
ATOM     52  H   UNL     1       2.775  24.540  35.009  1.00  0.00     0.211 HD
ENDBRANCH  50  51
BRANCH  50  53
ATOM     53  C   UNL     1       5.045  24.065  34.898  1.00  0.00     0.154 C 
BRANCH  53  54
ATOM     54  N   UNL     1       6.359  23.532  34.513  1.00  0.00    -0.319 N 
ATOM     55  C   UNL     1       7.505  23.764  35.315  1.00  0.00     0.407 C 
ATOM     56  H   UNL     1       6.484  22.967  33.634  1.00  0.00     0.167 HD
ATOM     57  O   UNL     1       7.385  24.437  36.371  1.00  0.00    -0.225 OA
BRANCH  55  58
ATOM     58  O   UNL     1       8.742  23.272  34.966  1.00  0.00    -0.443 OA
BRANCH  58  59
ATOM     59  C   UNL     1       9.934  23.701  35.595  1.00  0.00     0.294 C 
BRANCH  59  60
ATOM     60  C   UNL     1      10.582  24.836  34.899  1.00  0.00     0.120 A 
ATOM     61  C   UNL     1      11.484  25.772  35.356  1.00  0.00     0.138 A 
ATOM     62  N   UNL     1      10.375  25.160  33.605  1.00  0.00    -0.132 NA
ATOM     63  N   UNL     1      11.785  26.607  34.358  1.00  0.00    -0.249 N 
ATOM     64  N   UNL     1      11.093  26.204  33.306  1.00  0.00    -0.067 NA
BRANCH  63  65
ATOM     65  C   UNL     1      12.692  27.748  34.373  1.00  0.00     0.109 C 
ATOM     66  C   UNL     1      12.375  28.756  33.318  1.00  0.00     0.027 C 
ATOM     67  C   UNL     1      12.502  28.493  35.678  1.00  0.00     0.027 C 
ATOM     68  C   UNL     1      11.477  29.797  33.934  1.00  0.00     0.002 C 
ATOM     69  C   UNL     1      11.476  29.554  35.422  1.00  0.00     0.002 C 
ENDBRANCH  63  65
ENDBRANCH  59  60
ENDBRANCH  58  59
ENDBRANCH  55  58
ENDBRANCH  53  54
ENDBRANCH  50  53
ENDBRANCH  47  50
ENDBRANCH   5  47
BRANCH   4  70
ATOM     70  N   UNL     1       6.225  27.271  34.021  1.00  0.00    -0.348 N 
ATOM     71  C   UNL     1       7.593  27.724  34.165  1.00  0.00     0.217 C 
ATOM     72  H   UNL     1       5.743  26.970  34.892  1.00  0.00     0.163 HD
ATOM     73  C   UNL     1       8.258  27.722  35.491  1.00  0.00     0.114 C 
ATOM     74  O   UNL     1       8.246  28.128  33.166  1.00  0.00    -0.275 OA
ENDBRANCH   4  70
TORSDOF 30
