REMARK VINA RESULT:    -6.077      4.274     12.560
REMARK INTER + INTRA:         -23.519
REMARK INTER:                 -17.842
REMARK INTRA:                  -5.677
REMARK UNBOUND:                -7.494
REMARK SMILES CC(=O)N[C@@H]1[C@@H](O)C[C@](OC[C@H]2O[C@@H](O[C@H]3[C@H](O)[C@@H](O)[C@H](OCCN=[N+]=[N-])O[C@@H]3CO)[C@H](O)[C@@H](O)[C@H]2O)(C(=O)O)O[C@H]1C(O)[C@H](O)CNC(=O)OCc1cn(C(C)CC(=O)c2ccccc2)nn1
REMARK SMILES IDX 43 1 42 2 9 3 8 4 41 5 6 6 5 7 10 8 11 9 12 10 14 11 13 12
REMARK SMILES IDX 32 13 34 14 36 15 15 16 16 17 29 18 28 19 21 20 17 21 19 22
REMARK SMILES IDX 30 23 31 24 22 26 23 27 24 28 25 29 26 30 27 31 18 32 20 34
REMARK SMILES IDX 33 36 35 38 37 40 38 42 39 43 40 44 7 46 4 48 2 49 1 51 3 52
REMARK SMILES IDX 44 53 45 55 46 56 47 58 48 59 49 60 50 62 51 63 52 64 53 65
REMARK SMILES IDX 54 66 68 67 55 68 67 69 56 70 57 71 58 72 59 73 60 74 61 75
REMARK SMILES IDX 62 76 66 77 63 78 65 79 64 80
REMARK H PARENT 31 25 18 33 20 35 33 37 35 39 37 41 40 45 7 47 4 50 44 54
REMARK H PARENT 46 57 48 61
REMARK Flexibility Score: inf
ROOT
ATOM      1  C   UNL     1      16.218  32.273  21.864  1.00  0.00     0.176 C 
ENDROOT
BRANCH   1   2
ATOM      2  C   UNL     1      15.793  30.916  22.215  1.00  0.00     0.178 C 
ATOM      3  C   UNL     1      15.743  29.286  20.511  1.00  0.00     0.272 C 
ATOM      4  C   UNL     1      14.593  28.552  21.112  1.00  0.00     0.113 C 
ATOM      5  O   UNL     1      16.416  29.879  21.641  1.00  0.00    -0.332 OA
ATOM      6  C   UNL     1      13.989  29.319  22.274  1.00  0.00     0.145 C 
ATOM      7  C   UNL     1      14.255  30.773  22.162  1.00  0.00     0.142 C 
BRANCH   3   8
ATOM      8  O   UNL     1      15.590  30.223  19.622  1.00  0.00    -0.338 OA
BRANCH   8   9
ATOM      9  C   UNL     1      15.165  30.372  18.418  1.00  0.00     0.199 C 
BRANCH   9  10
ATOM     10  C   UNL     1      15.739  29.805  17.160  1.00  0.00     0.179 C 
ATOM     11  C   UNL     1      15.181  29.888  14.861  1.00  0.00     0.282 C 
ATOM     12  O   UNL     1      14.864  29.980  16.164  1.00  0.00    -0.341 OA
ATOM     13  C   UNL     1      16.362  30.735  14.523  1.00  0.00     0.202 C 
ATOM     14  C   UNL     1      17.432  30.668  15.516  1.00  0.00     0.179 C 
ATOM     15  C   UNL     1      17.157  30.090  16.862  1.00  0.00     0.177 C 
BRANCH  11  16
ATOM     16  O   UNL     1      14.026  30.342  14.169  1.00  0.00    -0.341 OA
BRANCH  16  17
ATOM     17  C   UNL     1      13.352  29.261  13.654  1.00  0.00     0.184 C 
ATOM     18  C   UNL     1      12.403  29.673  12.566  1.00  0.00     0.178 C 
ATOM     19  O   UNL     1      11.382  30.477  13.049  1.00  0.00    -0.341 OA
ATOM     20  C   UNL     1      10.650  29.995  14.090  1.00  0.00     0.281 C 
ATOM     21  C   UNL     1      12.552  28.597  14.794  1.00  0.00     0.180 C 
ATOM     22  C   UNL     1      11.430  29.461  15.241  1.00  0.00     0.202 C 
BRANCH  18  23
ATOM     23  C   UNL     1      11.865  28.474  11.811  1.00  0.00     0.191 C 
BRANCH  23  24
ATOM     24  O   UNL     1      12.770  27.979  10.881  1.00  0.00    -0.394 OA
ATOM     25  H   UNL     1      13.457  28.673  10.696  1.00  0.00     0.210 HD
ENDBRANCH  23  24
ENDBRANCH  18  23
BRANCH  20  26
ATOM     26  O   UNL     1       9.639  29.137  13.740  1.00  0.00    -0.350 OA
BRANCH  26  27
ATOM     27  C   UNL     1       8.556  29.718  13.140  1.00  0.00     0.169 C 
BRANCH  27  28
ATOM     28  C   UNL     1       8.240  29.118  11.796  1.00  0.00     0.119 C 
BRANCH  28  29
ATOM     29  N   UNL     1       8.328  27.673  11.905  1.00  0.00    -0.092 NA
ATOM     30  N   UNL     1       8.255  26.985  10.890  1.00  0.00     0.001 N 
ATOM     31  N   UNL     1       8.382  26.327   9.856  1.00  0.00    -0.003 NA
ENDBRANCH  28  29
ENDBRANCH  27  28
ENDBRANCH  26  27
ENDBRANCH  20  26
BRANCH  21  32
ATOM     32  O   UNL     1      12.157  27.314  14.435  1.00  0.00    -0.387 OA
ATOM     33  H   UNL     1      11.505  26.927  15.067  1.00  0.00     0.211 HD
ENDBRANCH  21  32
BRANCH  22  34
ATOM     34  O   UNL     1      11.848  30.453  16.131  1.00  0.00    -0.385 OA
ATOM     35  H   UNL     1      11.354  31.271  15.867  1.00  0.00     0.211 HD
ENDBRANCH  22  34
ENDBRANCH  16  17
ENDBRANCH  11  16
BRANCH  13  36
ATOM     36  O   UNL     1      16.894  30.335  13.263  1.00  0.00    -0.385 OA
ATOM     37  H   UNL     1      17.453  31.104  12.971  1.00  0.00     0.211 HD
ENDBRANCH  13  36
BRANCH  14  38
ATOM     38  O   UNL     1      17.968  31.980  15.663  1.00  0.00    -0.387 OA
ATOM     39  H   UNL     1      17.299  32.670  15.442  1.00  0.00     0.211 HD
ENDBRANCH  14  38
BRANCH  15  40
ATOM     40  O   UNL     1      17.831  30.847  17.799  1.00  0.00    -0.387 OA
ATOM     41  H   UNL     1      18.704  31.180  17.577  1.00  0.00     0.211 HD
ENDBRANCH  15  40
ENDBRANCH   9  10
ENDBRANCH   8   9
ENDBRANCH   3   8
BRANCH   3  42
ATOM     42  C   UNL     1      16.759  28.235  20.068  1.00  0.00     0.364 C 
ATOM     43  O   UNL     1      16.374  27.230  19.459  1.00  0.00    -0.246 OA
BRANCH  42  44
ATOM     44  O   UNL     1      18.100  28.395  20.337  1.00  0.00    -0.477 OA
ATOM     45  H   UNL     1      18.486  29.327  20.243  1.00  0.00     0.296 HD
ENDBRANCH  42  44
ENDBRANCH   3  42
BRANCH   6  46
ATOM     46  O   UNL     1      12.642  29.016  22.436  1.00  0.00    -0.391 OA
ATOM     47  H   UNL     1      12.222  29.764  22.978  1.00  0.00     0.211 HD
ENDBRANCH   6  46
BRANCH   7  48
ATOM     48  N   UNL     1      13.740  31.476  23.333  1.00  0.00    -0.348 N 
ATOM     49  C   UNL     1      12.663  32.401  23.272  1.00  0.00     0.217 C 
ATOM     50  H   UNL     1      14.177  31.295  24.254  1.00  0.00     0.163 HD
ATOM     51  C   UNL     1      12.151  33.106  24.449  1.00  0.00     0.114 C 
ATOM     52  O   UNL     1      12.118  32.630  22.137  1.00  0.00    -0.275 OA
ENDBRANCH   7  48
ENDBRANCH   1   2
BRANCH   1  53
ATOM     53  O   UNL     1      15.410  32.903  20.887  1.00  0.00    -0.388 OA
ATOM     54  H   UNL     1      15.921  33.718  20.592  1.00  0.00     0.211 HD
ENDBRANCH   1  53
BRANCH   1  55
ATOM     55  C   UNL     1      17.647  32.463  21.403  1.00  0.00     0.165 C 
BRANCH  55  56
ATOM     56  O   UNL     1      18.035  31.648  20.391  1.00  0.00    -0.388 OA
ATOM     57  H   UNL     1      18.416  32.183  19.655  1.00  0.00     0.211 HD
ENDBRANCH  55  56
BRANCH  55  58
ATOM     58  C   UNL     1      18.531  32.224  22.637  1.00  0.00     0.154 C 
BRANCH  58  59
ATOM     59  N   UNL     1      19.328  31.031  22.463  1.00  0.00    -0.319 N 
ATOM     60  C   UNL     1      19.483  29.992  23.407  1.00  0.00     0.407 C 
ATOM     61  H   UNL     1      19.859  30.875  21.550  1.00  0.00     0.167 HD
ATOM     62  O   UNL     1      18.872  30.016  24.493  1.00  0.00    -0.225 OA
BRANCH  60  63
ATOM     63  O   UNL     1      20.333  28.895  23.158  1.00  0.00    -0.443 OA
BRANCH  63  64
ATOM     64  C   UNL     1      21.334  29.028  22.125  1.00  0.00     0.294 C 
BRANCH  64  65
ATOM     65  C   UNL     1      21.559  27.606  21.671  1.00  0.00     0.120 A 
ATOM     66  C   UNL     1      22.843  27.073  21.444  1.00  0.00     0.138 A 
ATOM     67  N   UNL     1      20.717  26.640  21.359  1.00  0.00    -0.132 NA
ATOM     68  N   UNL     1      22.715  25.813  21.002  1.00  0.00    -0.249 N 
ATOM     69  N   UNL     1      21.429  25.566  20.957  1.00  0.00    -0.067 NA
BRANCH  68  70
ATOM     70  C   UNL     1      23.850  24.961  20.638  1.00  0.00     0.114 C 
ATOM     71  C   UNL     1      25.038  25.829  20.368  1.00  0.00     0.034 C 
BRANCH  70  72
ATOM     72  C   UNL     1      24.049  23.886  21.656  1.00  0.00     0.108 C 
BRANCH  72  73
ATOM     73  C   UNL     1      24.706  24.498  22.842  1.00  0.00     0.164 C 
ATOM     74  O   UNL     1      25.862  24.925  22.789  1.00  0.00    -0.294 OA
BRANCH  73  75
ATOM     75  C   UNL     1      23.922  24.575  24.084  1.00  0.00     0.018 A 
ATOM     76  C   UNL     1      22.576  24.602  24.096  1.00  0.00     0.012 A 
ATOM     77  C   UNL     1      24.646  24.614  25.286  1.00  0.00     0.012 A 
ATOM     78  C   UNL     1      21.879  24.667  25.315  1.00  0.00     0.001 A 
ATOM     79  C   UNL     1      23.951  24.677  26.459  1.00  0.00     0.001 A 
ATOM     80  C   UNL     1      22.582  24.704  26.496  1.00  0.00     0.000 A 
ENDBRANCH  73  75
ENDBRANCH  72  73
ENDBRANCH  70  72
ENDBRANCH  68  70
ENDBRANCH  64  65
ENDBRANCH  63  64
ENDBRANCH  60  63
ENDBRANCH  58  59
ENDBRANCH  55  58
ENDBRANCH   1  55
TORSDOF 33
