REMARK VINA RESULT:    -6.270     13.896     18.238
REMARK INTER + INTRA:         -22.166
REMARK INTER:                 -13.102
REMARK INTRA:                  -9.064
REMARK UNBOUND:                -5.634
REMARK SMILES CC(=O)N[C@@H]1[C@@H](O)C[C@](OC[C@H]2O[C@@H](O[C@H]3[C@H](O)[C@@H](O)[C@H](OCCN=[N+]=[N-])O[C@@H]3CO)[C@H](O)[C@@H](O)[C@H]2O)(C(=O)O)O[C@H]1C(O)[C@H](O)CNC(=O)OCc1cn(Cc2ccccc2OC(C)=O)nn1
REMARK SMILES IDX 43 1 42 2 9 3 8 4 41 5 6 6 5 7 10 8 11 9 12 10 14 11 13 12
REMARK SMILES IDX 32 13 34 14 36 15 15 16 16 17 29 18 28 19 21 20 17 21 19 22
REMARK SMILES IDX 30 23 31 24 22 26 23 27 24 28 25 29 26 30 27 31 18 32 20 34
REMARK SMILES IDX 33 36 35 38 37 40 38 42 39 43 40 44 7 46 4 48 2 49 1 51 3 52
REMARK SMILES IDX 44 53 45 55 46 56 47 58 48 59 49 60 50 62 51 63 52 64 53 65
REMARK SMILES IDX 54 66 68 67 55 68 67 69 56 70 57 71 62 72 58 73 61 74 59 75
REMARK SMILES IDX 60 76 63 77 64 78 66 79 65 80
REMARK H PARENT 31 25 18 33 20 35 33 37 35 39 37 41 40 45 7 47 4 50 44 54
REMARK H PARENT 46 57 48 61
REMARK Flexibility Score: inf
ROOT
ATOM      1  C   UNL     1       6.979  24.928  34.448  1.00  0.00     0.176 C 
ENDROOT
BRANCH   1   2
ATOM      2  C   UNL     1       5.772  24.004  34.469  1.00  0.00     0.178 C 
ATOM      3  C   UNL     1       4.268  22.956  33.029  1.00  0.00     0.272 C 
ATOM      4  C   UNL     1       3.539  22.837  34.362  1.00  0.00     0.113 C 
ATOM      5  O   UNL     1       5.312  23.900  33.176  1.00  0.00    -0.332 OA
ATOM      6  C   UNL     1       3.400  24.253  34.897  1.00  0.00     0.145 C 
ATOM      7  C   UNL     1       4.735  24.693  35.358  1.00  0.00     0.142 C 
BRANCH   3   8
ATOM      8  O   UNL     1       3.479  23.429  32.023  1.00  0.00    -0.338 OA
BRANCH   8   9
ATOM      9  C   UNL     1       2.421  22.681  31.613  1.00  0.00     0.199 C 
BRANCH   9  10
ATOM     10  C   UNL     1       2.033  23.154  30.201  1.00  0.00     0.179 C 
ATOM     11  C   UNL     1       2.481  24.813  28.674  1.00  0.00     0.282 C 
ATOM     12  O   UNL     1       2.872  24.241  29.932  1.00  0.00    -0.341 OA
ATOM     13  C   UNL     1       2.975  23.856  27.647  1.00  0.00     0.202 C 
ATOM     14  C   UNL     1       2.142  22.573  27.820  1.00  0.00     0.179 C 
ATOM     15  C   UNL     1       2.216  22.047  29.214  1.00  0.00     0.177 C 
BRANCH  11  16
ATOM     16  O   UNL     1       3.032  26.071  28.696  1.00  0.00    -0.341 OA
BRANCH  16  17
ATOM     17  C   UNL     1       3.195  26.533  30.015  1.00  0.00     0.184 C 
ATOM     18  C   UNL     1       2.401  27.746  30.333  1.00  0.00     0.178 C 
ATOM     19  O   UNL     1       3.138  28.720  31.014  1.00  0.00    -0.341 OA
ATOM     20  C   UNL     1       3.891  28.227  32.072  1.00  0.00     0.281 C 
ATOM     21  C   UNL     1       4.689  27.020  30.113  1.00  0.00     0.180 C 
ATOM     22  C   UNL     1       4.931  27.219  31.584  1.00  0.00     0.202 C 
BRANCH  18  23
ATOM     23  C   UNL     1       1.065  27.513  30.965  1.00  0.00     0.191 C 
BRANCH  23  24
ATOM     24  O   UNL     1       1.055  26.264  31.567  1.00  0.00    -0.394 OA
ATOM     25  H   UNL     1       0.487  25.645  31.063  1.00  0.00     0.210 HD
ENDBRANCH  23  24
ENDBRANCH  18  23
BRANCH  20  26
ATOM     26  O   UNL     1       3.117  27.608  32.987  1.00  0.00    -0.350 OA
BRANCH  26  27
ATOM     27  C   UNL     1       2.864  28.165  34.186  1.00  0.00     0.169 C 
BRANCH  27  28
ATOM     28  C   UNL     1       1.454  28.276  34.644  1.00  0.00     0.119 C 
BRANCH  28  29
ATOM     29  N   UNL     1       1.052  27.114  35.361  1.00  0.00    -0.092 NA
ATOM     30  N   UNL     1       0.347  26.253  34.882  1.00  0.00     0.001 N 
ATOM     31  N   UNL     1      -0.141  25.336  34.215  1.00  0.00    -0.003 NA
ENDBRANCH  28  29
ENDBRANCH  27  28
ENDBRANCH  26  27
ENDBRANCH  20  26
BRANCH  21  32
ATOM     32  O   UNL     1       5.511  26.089  29.528  1.00  0.00    -0.387 OA
ATOM     33  H   UNL     1       4.957  25.357  29.107  1.00  0.00     0.211 HD
ENDBRANCH  21  32
BRANCH  22  34
ATOM     34  O   UNL     1       6.225  27.598  31.864  1.00  0.00    -0.385 OA
ATOM     35  H   UNL     1       6.515  27.083  32.670  1.00  0.00     0.211 HD
ENDBRANCH  22  34
ENDBRANCH  16  17
ENDBRANCH  11  16
BRANCH  13  36
ATOM     36  O   UNL     1       2.735  24.262  26.344  1.00  0.00    -0.385 OA
ATOM     37  H   UNL     1       2.447  25.195  26.254  1.00  0.00     0.211 HD
ENDBRANCH  13  36
BRANCH  14  38
ATOM     38  O   UNL     1       2.529  21.623  26.873  1.00  0.00    -0.387 OA
ATOM     39  H   UNL     1       3.294  21.123  27.279  1.00  0.00     0.211 HD
ENDBRANCH  14  38
BRANCH  15  40
ATOM     40  O   UNL     1       3.431  21.383  29.365  1.00  0.00    -0.387 OA
ATOM     41  H   UNL     1       3.977  21.729  30.095  1.00  0.00     0.211 HD
ENDBRANCH  15  40
ENDBRANCH   9  10
ENDBRANCH   8   9
ENDBRANCH   3   8
BRANCH   3  42
ATOM     42  C   UNL     1       4.862  21.626  32.772  1.00  0.00     0.364 C 
ATOM     43  O   UNL     1       4.712  20.675  33.536  1.00  0.00    -0.246 OA
BRANCH  42  44
ATOM     44  O   UNL     1       5.623  21.448  31.613  1.00  0.00    -0.477 OA
ATOM     45  H   UNL     1       5.190  21.467  30.678  1.00  0.00     0.296 HD
ENDBRANCH  42  44
ENDBRANCH   3  42
BRANCH   6  46
ATOM     46  O   UNL     1       3.036  25.038  33.798  1.00  0.00    -0.391 OA
ATOM     47  H   UNL     1       3.268  25.991  33.900  1.00  0.00     0.211 HD
ENDBRANCH   6  46
BRANCH   7  48
ATOM     48  N   UNL     1       5.053  24.522  36.714  1.00  0.00    -0.348 N 
ATOM     49  C   UNL     1       5.248  25.592  37.632  1.00  0.00     0.217 C 
ATOM     50  H   UNL     1       5.155  23.530  37.075  1.00  0.00     0.163 HD
ATOM     51  C   UNL     1       5.581  25.372  39.049  1.00  0.00     0.114 C 
ATOM     52  O   UNL     1       5.121  26.739  37.183  1.00  0.00    -0.275 OA
ENDBRANCH   7  48
ENDBRANCH   1   2
BRANCH   1  53
ATOM     53  O   UNL     1       6.494  26.216  34.582  1.00  0.00    -0.388 OA
ATOM     54  H   UNL     1       5.518  26.281  34.653  1.00  0.00     0.211 HD
ENDBRANCH   1  53
BRANCH   1  55
ATOM     55  C   UNL     1       8.045  24.548  35.421  1.00  0.00     0.165 C 
BRANCH  55  56
ATOM     56  O   UNL     1       8.797  25.693  35.698  1.00  0.00    -0.388 OA
ATOM     57  H   UNL     1       8.623  26.409  35.067  1.00  0.00     0.211 HD
ENDBRANCH  55  56
BRANCH  55  58
ATOM     58  C   UNL     1       8.927  23.428  34.925  1.00  0.00     0.154 C 
BRANCH  58  59
ATOM     59  N   UNL     1      10.297  23.537  35.306  1.00  0.00    -0.319 N 
ATOM     60  C   UNL     1      10.844  22.982  36.492  1.00  0.00     0.407 C 
ATOM     61  H   UNL     1      10.966  24.060  34.678  1.00  0.00     0.167 HD
ATOM     62  O   UNL     1      10.068  22.359  37.258  1.00  0.00    -0.225 OA
BRANCH  60  63
ATOM     63  O   UNL     1      12.166  23.094  36.847  1.00  0.00    -0.443 OA
BRANCH  63  64
ATOM     64  C   UNL     1      12.665  24.182  37.624  1.00  0.00     0.294 C 
BRANCH  64  65
ATOM     65  C   UNL     1      12.997  25.339  36.779  1.00  0.00     0.120 A 
ATOM     66  C   UNL     1      12.568  26.621  37.029  1.00  0.00     0.138 A 
ATOM     67  N   UNL     1      13.736  25.410  35.666  1.00  0.00    -0.132 NA
ATOM     68  N   UNL     1      13.045  27.428  36.080  1.00  0.00    -0.248 N 
ATOM     69  N   UNL     1      13.764  26.646  35.253  1.00  0.00    -0.067 NA
BRANCH  68  70
ATOM     70  C   UNL     1      12.871  28.856  35.890  1.00  0.00     0.185 C 
BRANCH  70  71
ATOM     71  C   UNL     1      12.569  29.187  34.494  1.00  0.00     0.016 A 
ATOM     72  C   UNL     1      11.377  28.896  33.926  1.00  0.00     0.135 A 
ATOM     73  C   UNL     1      13.571  29.837  33.768  1.00  0.00     0.009 A 
ATOM     74  C   UNL     1      11.158  29.257  32.595  1.00  0.00     0.047 A 
ATOM     75  C   UNL     1      13.345  30.186  32.462  1.00  0.00     0.001 A 
ATOM     76  C   UNL     1      12.139  29.900  31.865  1.00  0.00     0.004 A 
BRANCH  72  77
ATOM     77  O   UNL     1      10.358  28.254  34.600  1.00  0.00    -0.426 OA
BRANCH  77  78
ATOM     78  C   UNL     1       9.110  28.883  34.651  1.00  0.00     0.308 C 
ATOM     79  O   UNL     1       8.132  28.321  34.110  1.00  0.00    -0.252 OA
ATOM     80  C   UNL     1       8.969  30.174  35.329  1.00  0.00     0.139 C 
ENDBRANCH  77  78
ENDBRANCH  72  77
ENDBRANCH  70  71
ENDBRANCH  68  70
ENDBRANCH  64  65
ENDBRANCH  63  64
ENDBRANCH  60  63
ENDBRANCH  58  59
ENDBRANCH  55  58
ENDBRANCH   1  55
TORSDOF 33
