REMARK VINA RESULT:    -5.640      2.005      7.124
REMARK INTER + INTRA:         -24.513
REMARK INTER:                 -16.958
REMARK INTRA:                  -7.554
REMARK UNBOUND:                -7.166
REMARK SMILES CC(=O)N[C@@H]1[C@@H](O)C[C@](OC[C@H]2O[C@@H](O[C@H]3[C@H](O)[C@@H](O)[C@H](OCCN=[N+]=[N-])O[C@@H]3CO)[C@H](O)[C@@H](O)[C@H]2O)(C(=O)O)O[C@H]1C(O)[C@H](O)CNC(=O)OCc1cn(CCCCCCCCCCC(=O)O)nn1
REMARK SMILES IDX 51 1 49 2 48 3 50 5 47 6 45 7 43 8 42 9 9 10 8 11 41 12 6 13
REMARK SMILES IDX 5 14 10 15 11 16 12 17 14 18 13 19 32 20 34 21 36 22 15 23
REMARK SMILES IDX 16 24 29 25 28 26 21 27 17 28 19 29 30 30 31 31 22 33 23 34
REMARK SMILES IDX 24 35 25 36 26 37 27 38 18 39 20 41 33 43 35 45 37 47 38 49
REMARK SMILES IDX 39 50 40 51 7 53 4 55 2 56 1 58 3 59 44 60 46 62 52 64 53 65
REMARK SMILES IDX 54 66 70 67 55 68 69 69 56 70 57 71 58 72 59 73 60 74 61 75
REMARK SMILES IDX 62 76 63 77 64 78 65 79 66 80 67 81 68 82
REMARK H PARENT 48 4 31 32 18 40 20 42 33 44 35 46 37 48 40 52 7 54 4 57 44 61
REMARK H PARENT 46 63 68 83
REMARK Flexibility Score: inf
ROOT
ATOM      1  O   UNL     1      21.636  29.535  19.665  1.00  0.00    -0.443 OA
ENDROOT
BRANCH   1   2
ATOM      2  C   UNL     1      20.443  30.267  19.855  1.00  0.00     0.407 C 
ATOM      3  N   UNL     1      19.841  30.354  21.135  1.00  0.00    -0.319 N 
ATOM      4  H   UNL     1      20.300  29.851  21.940  1.00  0.00     0.167 HD
ATOM      5  O   UNL     1      19.891  30.860  18.901  1.00  0.00    -0.225 OA
BRANCH   3   6
ATOM      6  C   UNL     1      18.639  31.092  21.375  1.00  0.00     0.154 C 
BRANCH   6   7
ATOM      7  C   UNL     1      18.042  30.889  22.764  1.00  0.00     0.165 C 
BRANCH   7   8
ATOM      8  C   UNL     1      16.985  29.851  22.609  1.00  0.00     0.176 C 
BRANCH   8   9
ATOM      9  C   UNL     1      15.880  30.168  21.629  1.00  0.00     0.178 C 
ATOM     10  C   UNL     1      13.965  31.480  21.479  1.00  0.00     0.272 C 
ATOM     11  C   UNL     1      13.361  30.348  20.674  1.00  0.00     0.113 C 
ATOM     12  O   UNL     1      14.953  30.936  22.278  1.00  0.00    -0.332 OA
ATOM     13  C   UNL     1      13.842  28.993  21.083  1.00  0.00     0.145 C 
ATOM     14  C   UNL     1      15.350  28.951  20.938  1.00  0.00     0.142 C 
BRANCH  10  15
ATOM     15  O   UNL     1      12.986  32.103  22.270  1.00  0.00    -0.338 OA
BRANCH  15  16
ATOM     16  C   UNL     1      11.695  31.858  21.948  1.00  0.00     0.199 C 
BRANCH  16  17
ATOM     17  C   UNL     1      11.021  31.327  23.231  1.00  0.00     0.179 C 
ATOM     18  C   UNL     1      11.787  32.643  25.042  1.00  0.00     0.282 C 
ATOM     19  O   UNL     1      11.764  31.489  24.332  1.00  0.00    -0.341 OA
ATOM     20  C   UNL     1      10.678  33.572  24.725  1.00  0.00     0.202 C 
ATOM     21  C   UNL     1       9.410  32.763  24.482  1.00  0.00     0.179 C 
ATOM     22  C   UNL     1       9.594  31.825  23.307  1.00  0.00     0.177 C 
BRANCH  18  23
ATOM     23  O   UNL     1      13.075  33.206  24.856  1.00  0.00    -0.341 OA
BRANCH  23  24
ATOM     24  C   UNL     1      13.820  32.915  25.991  1.00  0.00     0.184 C 
ATOM     25  C   UNL     1      14.603  34.058  26.548  1.00  0.00     0.178 C 
ATOM     26  O   UNL     1      15.431  33.636  27.547  1.00  0.00    -0.341 OA
ATOM     27  C   UNL     1      15.347  32.387  28.038  1.00  0.00     0.281 C 
ATOM     28  C   UNL     1      14.844  31.815  25.665  1.00  0.00     0.180 C 
ATOM     29  C   UNL     1      15.328  31.292  26.998  1.00  0.00     0.202 C 
BRANCH  25  30
ATOM     30  C   UNL     1      13.739  35.202  27.045  1.00  0.00     0.191 C 
BRANCH  30  31
ATOM     31  O   UNL     1      12.599  34.796  27.688  1.00  0.00    -0.394 OA
ATOM     32  H   UNL     1      12.797  34.716  28.658  1.00  0.00     0.210 HD
ENDBRANCH  30  31
ENDBRANCH  25  30
BRANCH  27  33
ATOM     33  O   UNL     1      14.211  32.255  28.824  1.00  0.00    -0.350 OA
BRANCH  33  34
ATOM     34  C   UNL     1      13.921  30.921  29.110  1.00  0.00     0.169 C 
BRANCH  34  35
ATOM     35  C   UNL     1      13.099  30.776  30.360  1.00  0.00     0.119 C 
BRANCH  35  36
ATOM     36  N   UNL     1      13.425  31.882  31.263  1.00  0.00    -0.092 NA
ATOM     37  N   UNL     1      12.663  32.869  31.361  1.00  0.00     0.001 N 
ATOM     38  N   UNL     1      11.750  33.715  31.245  1.00  0.00    -0.003 NA
ENDBRANCH  35  36
ENDBRANCH  34  35
ENDBRANCH  33  34
ENDBRANCH  27  33
BRANCH  28  39
ATOM     39  O   UNL     1      14.299  30.785  24.929  1.00  0.00    -0.387 OA
ATOM     40  H   UNL     1      13.332  30.895  24.747  1.00  0.00     0.211 HD
ENDBRANCH  28  39
BRANCH  29  41
ATOM     41  O   UNL     1      16.638  30.856  26.823  1.00  0.00    -0.385 OA
ATOM     42  H   UNL     1      16.685  30.410  25.921  1.00  0.00     0.211 HD
ENDBRANCH  29  41
ENDBRANCH  23  24
ENDBRANCH  18  23
BRANCH  20  43
ATOM     43  O   UNL     1      10.359  34.420  25.796  1.00  0.00    -0.385 OA
ATOM     44  H   UNL     1       9.547  34.928  25.502  1.00  0.00     0.211 HD
ENDBRANCH  20  43
BRANCH  21  45
ATOM     45  O   UNL     1       8.328  33.606  24.238  1.00  0.00    -0.387 OA
ATOM     46  H   UNL     1       7.512  33.061  24.377  1.00  0.00     0.211 HD
ENDBRANCH  21  45
BRANCH  22  47
ATOM     47  O   UNL     1       9.265  32.511  22.163  1.00  0.00    -0.387 OA
ATOM     48  H   UNL     1       8.405  32.157  21.821  1.00  0.00     0.211 HD
ENDBRANCH  22  47
ENDBRANCH  16  17
ENDBRANCH  15  16
ENDBRANCH  10  15
BRANCH  10  49
ATOM     49  C   UNL     1      14.491  32.546  20.623  1.00  0.00     0.364 C 
ATOM     50  O   UNL     1      15.382  33.329  20.990  1.00  0.00    -0.246 OA
BRANCH  49  51
ATOM     51  O   UNL     1      13.999  32.724  19.340  1.00  0.00    -0.477 OA
ATOM     52  H   UNL     1      14.367  33.439  18.708  1.00  0.00     0.296 HD
ENDBRANCH  49  51
ENDBRANCH  10  49
BRANCH  13  53
ATOM     53  O   UNL     1      13.417  28.555  22.318  1.00  0.00    -0.391 OA
ATOM     54  H   UNL     1      14.101  28.657  23.040  1.00  0.00     0.211 HD
ENDBRANCH  13  53
BRANCH  14  55
ATOM     55  N   UNL     1      15.642  28.867  19.546  1.00  0.00    -0.348 N 
ATOM     56  C   UNL     1      16.878  28.404  19.011  1.00  0.00     0.217 C 
ATOM     57  H   UNL     1      14.928  29.155  18.834  1.00  0.00     0.163 HD
ATOM     58  C   UNL     1      17.106  28.345  17.556  1.00  0.00     0.114 C 
ATOM     59  O   UNL     1      17.759  28.049  19.814  1.00  0.00    -0.275 OA
ENDBRANCH  14  55
ENDBRANCH   8   9
BRANCH   8  60
ATOM     60  O   UNL     1      16.552  29.466  23.849  1.00  0.00    -0.388 OA
ATOM     61  H   UNL     1      16.554  30.160  24.527  1.00  0.00     0.211 HD
ENDBRANCH   8  60
ENDBRANCH   7   8
BRANCH   7  62
ATOM     62  O   UNL     1      17.582  32.128  23.192  1.00  0.00    -0.388 OA
ATOM     63  H   UNL     1      17.210  32.093  24.106  1.00  0.00     0.211 HD
ENDBRANCH   7  62
ENDBRANCH   6   7
ENDBRANCH   3   6
ENDBRANCH   1   2
BRANCH   1  64
ATOM     64  C   UNL     1      21.500  28.245  19.053  1.00  0.00     0.294 C 
BRANCH  64  65
ATOM     65  C   UNL     1      21.418  27.253  20.145  1.00  0.00     0.120 A 
ATOM     66  C   UNL     1      22.290  26.193  20.321  1.00  0.00     0.138 A 
ATOM     67  N   UNL     1      20.526  27.193  21.143  1.00  0.00    -0.132 NA
ATOM     68  N   UNL     1      21.878  25.541  21.425  1.00  0.00    -0.252 N 
ATOM     69  N   UNL     1      20.793  26.174  21.912  1.00  0.00    -0.067 NA
BRANCH  68  70
ATOM     70  C   UNL     1      22.437  24.379  22.042  1.00  0.00     0.146 C 
BRANCH  70  71
ATOM     71  C   UNL     1      23.015  24.577  23.399  1.00  0.00     0.024 C 
BRANCH  71  72
ATOM     72  C   UNL     1      22.052  24.571  24.534  1.00  0.00     0.002 C 
BRANCH  72  73
ATOM     73  C   UNL     1      22.653  24.553  25.896  1.00  0.00     0.000 C 
BRANCH  73  74
ATOM     74  C   UNL     1      24.142  24.554  25.945  1.00  0.00     0.000 C 
BRANCH  74  75
ATOM     75  C   UNL     1      24.647  25.902  26.378  1.00  0.00     0.000 C 
BRANCH  75  76
ATOM     76  C   UNL     1      25.313  26.676  25.261  1.00  0.00     0.000 C 
BRANCH  76  77
ATOM     77  C   UNL     1      24.559  27.898  24.853  1.00  0.00     0.001 C 
BRANCH  77  78
ATOM     78  C   UNL     1      23.250  28.093  25.555  1.00  0.00     0.012 C 
BRANCH  78  79
ATOM     79  C   UNL     1      22.178  28.335  24.506  1.00  0.00     0.122 C 
BRANCH  79  80
ATOM     80  C   UNL     1      20.859  28.335  25.161  1.00  0.00     0.303 C 
ATOM     81  O   UNL     1      20.060  27.393  24.983  1.00  0.00    -0.252 OA
BRANCH  80  82
ATOM     82  O   UNL     1      20.463  29.375  25.990  1.00  0.00    -0.481 OA
ATOM     83  H   UNL     1      20.582  30.339  25.735  1.00  0.00     0.296 HD
ENDBRANCH  80  82
ENDBRANCH  79  80
ENDBRANCH  78  79
ENDBRANCH  77  78
ENDBRANCH  76  77
ENDBRANCH  75  76
ENDBRANCH  74  75
ENDBRANCH  73  74
ENDBRANCH  72  73
ENDBRANCH  71  72
ENDBRANCH  70  71
ENDBRANCH  68  70
ENDBRANCH  64  65
ENDBRANCH   1  64
TORSDOF 41
