REMARK VINA RESULT:    -6.111     14.693     21.540
REMARK INTER + INTRA:         -22.999
REMARK INTER:                 -18.005
REMARK INTRA:                  -4.994
REMARK UNBOUND:                -6.885
REMARK SMILES CCOC(=O)c1cccc(-n2cc(COC(=O)NC[C@@H](O)C(O)[C@@H]3O[C@@](OC[C@H]4O[C@@H](O[C@H]5[C@H](O)[C@@H](O)[C@H](OCCN=[N+]=[N-])O[C@@H]5CO)[C@H](O)[C@@H](O)[C@H]4O)(C(=O)O)C[C@H](O)[C@H]3NC(C)=O)nn2)c1
REMARK SMILES IDX 22 1 24 2 26 3 58 4 25 5 59 6 61 7 27 8 28 9 29 10 31 11
REMARK SMILES IDX 30 12 49 13 51 14 53 15 32 16 33 17 46 18 45 19 38 20 34 21
REMARK SMILES IDX 36 22 47 23 48 24 39 26 40 27 41 28 42 29 43 30 44 31 35 32
REMARK SMILES IDX 37 34 50 36 52 38 54 40 55 42 56 43 57 44 60 46 62 48 63 49
REMARK SMILES IDX 64 51 65 52 23 53 20 55 21 56 19 58 18 59 16 60 17 62 15 63
REMARK SMILES IDX 14 64 13 65 12 66 66 67 11 68 67 69 10 70 68 71 9 72 6 73
REMARK SMILES IDX 8 74 7 75 4 76 5 77 3 78 2 79 1 80
REMARK H PARENT 48 25 35 33 37 35 50 37 52 39 54 41 57 45 60 47 62 50 23 54
REMARK H PARENT 21 57 18 61
REMARK Flexibility Score: inf
ROOT
ATOM      1  C   UNL     1      21.208  29.003  21.599  1.00  0.00     0.176 C 
ENDROOT
BRANCH   1   2
ATOM      2  C   UNL     1      21.949  27.733  21.634  1.00  0.00     0.178 C 
ATOM      3  C   UNL     1      22.987  26.348  20.023  1.00  0.00     0.272 C 
ATOM      4  C   UNL     1      23.288  25.614  21.290  1.00  0.00     0.113 C 
ATOM      5  O   UNL     1      21.832  27.135  20.377  1.00  0.00    -0.332 OA
ATOM      6  C   UNL     1      22.058  25.346  22.142  1.00  0.00     0.145 C 
ATOM      7  C   UNL     1      21.551  26.733  22.661  1.00  0.00     0.142 C 
BRANCH   3   8
ATOM      8  O   UNL     1      22.548  25.488  19.065  1.00  0.00    -0.338 OA
BRANCH   8   9
ATOM      9  C   UNL     1      23.254  24.581  18.438  1.00  0.00     0.199 C 
BRANCH   9  10
ATOM     10  C   UNL     1      23.854  24.671  17.100  1.00  0.00     0.179 C 
ATOM     11  C   UNL     1      24.290  23.475  15.137  1.00  0.00     0.282 C 
ATOM     12  O   UNL     1      24.109  23.471  16.540  1.00  0.00    -0.341 OA
ATOM     13  C   UNL     1      24.554  24.858  14.626  1.00  0.00     0.202 C 
ATOM     14  C   UNL     1      23.497  25.845  15.004  1.00  0.00     0.179 C 
ATOM     15  C   UNL     1      22.771  25.365  16.213  1.00  0.00     0.177 C 
BRANCH  11  16
ATOM     16  O   UNL     1      23.195  22.838  14.633  1.00  0.00    -0.341 OA
BRANCH  16  17
ATOM     17  C   UNL     1      23.354  21.879  13.694  1.00  0.00     0.184 C 
ATOM     18  C   UNL     1      22.026  21.638  13.025  1.00  0.00     0.178 C 
ATOM     19  O   UNL     1      22.134  20.691  12.005  1.00  0.00    -0.341 OA
ATOM     20  C   UNL     1      22.392  19.433  12.616  1.00  0.00     0.281 C 
ATOM     21  C   UNL     1      23.793  20.531  14.293  1.00  0.00     0.180 C 
ATOM     22  C   UNL     1      23.799  19.531  13.139  1.00  0.00     0.202 C 
BRANCH  18  23
ATOM     23  C   UNL     1      21.478  22.906  12.436  1.00  0.00     0.191 C 
BRANCH  23  24
ATOM     24  O   UNL     1      22.540  23.770  12.059  1.00  0.00    -0.394 OA
ATOM     25  H   UNL     1      22.624  23.799  11.073  1.00  0.00     0.210 HD
ENDBRANCH  23  24
ENDBRANCH  18  23
BRANCH  20  26
ATOM     26  O   UNL     1      22.203  18.464  11.673  1.00  0.00    -0.350 OA
BRANCH  26  27
ATOM     27  C   UNL     1      21.470  18.917  10.586  1.00  0.00     0.169 C 
BRANCH  27  28
ATOM     28  C   UNL     1      20.563  17.878   9.998  1.00  0.00     0.119 C 
BRANCH  28  29
ATOM     29  N   UNL     1      19.239  17.989  10.623  1.00  0.00    -0.092 NA
ATOM     30  N   UNL     1      19.020  18.986  11.324  1.00  0.00     0.001 N 
ATOM     31  N   UNL     1      18.571  20.028  11.842  1.00  0.00    -0.003 NA
ENDBRANCH  28  29
ENDBRANCH  27  28
ENDBRANCH  26  27
ENDBRANCH  20  26
BRANCH  21  32
ATOM     32  O   UNL     1      25.107  20.585  14.735  1.00  0.00    -0.387 OA
ATOM     33  H   UNL     1      25.082  20.673  15.718  1.00  0.00     0.211 HD
ENDBRANCH  21  32
BRANCH  22  34
ATOM     34  O   UNL     1      24.293  18.298  13.553  1.00  0.00    -0.385 OA
ATOM     35  H   UNL     1      24.795  18.348  14.422  1.00  0.00     0.211 HD
ENDBRANCH  22  34
ENDBRANCH  16  17
ENDBRANCH  11  16
BRANCH  13  36
ATOM     36  O   UNL     1      25.839  25.262  15.037  1.00  0.00    -0.385 OA
ATOM     37  H   UNL     1      26.064  24.929  15.936  1.00  0.00     0.211 HD
ENDBRANCH  13  36
BRANCH  14  38
ATOM     38  O   UNL     1      22.705  26.240  13.950  1.00  0.00    -0.387 OA
ATOM     39  H   UNL     1      23.314  26.549  13.227  1.00  0.00     0.211 HD
ENDBRANCH  14  38
BRANCH  15  40
ATOM     40  O   UNL     1      21.738  24.531  15.924  1.00  0.00    -0.387 OA
ATOM     41  H   UNL     1      21.290  24.830  15.093  1.00  0.00     0.211 HD
ENDBRANCH  15  40
ENDBRANCH   9  10
ENDBRANCH   8   9
ENDBRANCH   3   8
BRANCH   3  42
ATOM     42  C   UNL     1      24.006  27.279  19.562  1.00  0.00     0.364 C 
ATOM     43  O   UNL     1      23.810  28.080  18.635  1.00  0.00    -0.246 OA
BRANCH  42  44
ATOM     44  O   UNL     1      25.267  27.302  20.161  1.00  0.00    -0.477 OA
ATOM     45  H   UNL     1      26.052  26.786  19.823  1.00  0.00     0.296 HD
ENDBRANCH  42  44
ENDBRANCH   3  42
BRANCH   6  46
ATOM     46  O   UNL     1      21.063  24.859  21.332  1.00  0.00    -0.391 OA
ATOM     47  H   UNL     1      20.841  23.936  21.602  1.00  0.00     0.211 HD
ENDBRANCH   6  46
BRANCH   7  48
ATOM     48  N   UNL     1      22.194  26.934  23.939  1.00  0.00    -0.348 N 
ATOM     49  C   UNL     1      21.484  27.177  25.160  1.00  0.00     0.217 C 
ATOM     50  H   UNL     1      23.252  26.910  24.046  1.00  0.00     0.163 HD
ATOM     51  C   UNL     1      22.179  27.381  26.458  1.00  0.00     0.114 C 
ATOM     52  O   UNL     1      20.237  27.224  25.150  1.00  0.00    -0.275 OA
ENDBRANCH   7  48
ENDBRANCH   1   2
BRANCH   1  53
ATOM     53  O   UNL     1      21.952  30.150  21.671  1.00  0.00    -0.388 OA
ATOM     54  H   UNL     1      22.898  29.979  21.888  1.00  0.00     0.211 HD
ENDBRANCH   1  53
BRANCH   1  55
ATOM     55  C   UNL     1      20.109  29.124  20.574  1.00  0.00     0.165 C 
BRANCH  55  56
ATOM     56  O   UNL     1      19.251  28.022  20.641  1.00  0.00    -0.388 OA
ATOM     57  H   UNL     1      19.038  27.810  21.586  1.00  0.00     0.211 HD
ENDBRANCH  55  56
BRANCH  55  58
ATOM     58  C   UNL     1      20.572  29.482  19.195  1.00  0.00     0.154 C 
BRANCH  58  59
ATOM     59  N   UNL     1      19.665  29.010  18.173  1.00  0.00    -0.319 N 
ATOM     60  C   UNL     1      18.727  29.873  17.565  1.00  0.00     0.407 C 
ATOM     61  H   UNL     1      19.691  27.992  17.857  1.00  0.00     0.167 HD
ATOM     62  O   UNL     1      18.588  31.089  17.826  1.00  0.00    -0.225 OA
BRANCH  60  63
ATOM     63  O   UNL     1      17.843  29.378  16.585  1.00  0.00    -0.443 OA
BRANCH  63  64
ATOM     64  C   UNL     1      16.655  28.699  16.852  1.00  0.00     0.294 C 
BRANCH  64  65
ATOM     65  C   UNL     1      16.356  28.457  18.269  1.00  0.00     0.121 A 
ATOM     66  C   UNL     1      15.509  29.216  19.071  1.00  0.00     0.144 A 
ATOM     67  N   UNL     1      16.826  27.487  19.044  1.00  0.00    -0.131 NA
ATOM     68  N   UNL     1      15.510  28.671  20.287  1.00  0.00    -0.220 N 
ATOM     69  N   UNL     1      16.307  27.627  20.263  1.00  0.00    -0.062 NA
BRANCH  68  70
ATOM     70  C   UNL     1      14.776  29.138  21.398  1.00  0.00     0.067 A 
ATOM     71  C   UNL     1      15.391  29.824  22.443  1.00  0.00     0.044 A 
ATOM     72  C   UNL     1      13.424  28.952  21.502  1.00  0.00     0.028 A 
ATOM     73  C   UNL     1      14.721  30.306  23.534  1.00  0.00     0.062 A 
ATOM     74  C   UNL     1      12.708  29.425  22.592  1.00  0.00     0.003 A 
ATOM     75  C   UNL     1      13.348  30.098  23.606  1.00  0.00     0.016 A 
BRANCH  73  76
ATOM     76  C   UNL     1      15.423  31.009  24.587  1.00  0.00     0.338 C 
ATOM     77  O   UNL     1      15.843  32.164  24.380  1.00  0.00    -0.246 OA
BRANCH  76  78
ATOM     78  O   UNL     1      15.622  30.408  25.804  1.00  0.00    -0.462 OA
BRANCH  78  79
ATOM     79  C   UNL     1      15.715  31.104  27.025  1.00  0.00     0.230 C 
ATOM     80  C   UNL     1      14.351  31.619  27.430  1.00  0.00     0.049 C 
ENDBRANCH  78  79
ENDBRANCH  76  78
ENDBRANCH  73  76
ENDBRANCH  68  70
ENDBRANCH  64  65
ENDBRANCH  63  64
ENDBRANCH  60  63
ENDBRANCH  58  59
ENDBRANCH  55  58
ENDBRANCH   1  55
TORSDOF 33
