REMARK VINA RESULT:    -5.667     15.903     20.193
REMARK INTER + INTRA:         -21.811
REMARK INTER:                 -15.336
REMARK INTRA:                  -6.475
REMARK UNBOUND:                -7.364
REMARK SMILES CC(=O)N[C@@H]1[C@@H](O)C[C@](OC[C@H]2O[C@@H](O[C@H]3[C@H](O)[C@@H](O)[C@H](OCCN=[N+]=[N-])O[C@@H]3CO)[C@H](O)[C@@H](O)[C@H]2O)(C(=O)O)O[C@H]1C(O)[C@H](O)CNC(=O)OCc1cn([C@@H](C)C(=O)O)nn1
REMARK SMILES IDX 9 1 8 2 6 3 5 4 42 5 41 6 10 7 11 8 12 9 14 10 13 11 32 12
REMARK SMILES IDX 34 13 36 14 15 15 16 16 29 17 28 18 21 19 17 20 19 21 30 22
REMARK SMILES IDX 31 23 22 25 23 26 24 27 25 28 26 29 27 30 18 31 20 33 33 35
REMARK SMILES IDX 35 37 37 39 38 41 39 42 40 43 7 45 43 47 44 48 45 50 46 51
REMARK SMILES IDX 47 53 48 54 49 55 50 57 51 58 52 59 53 60 54 61 62 62 55 63
REMARK SMILES IDX 61 64 56 65 57 66 58 67 59 68 60 69 4 71 2 72 1 74 3 75
REMARK H PARENT 31 24 18 32 20 34 33 36 35 38 37 40 40 44 7 46 44 49 46 52
REMARK H PARENT 48 56 60 70 4 73
REMARK Flexibility Score: inf
ROOT
ATOM      1  C   UNL     1      23.730  27.817  21.631  1.00  0.00     0.272 C 
ATOM      2  C   UNL     1      24.095  27.835  20.197  1.00  0.00     0.113 C 
ATOM      3  C   UNL     1      22.908  27.301  19.430  1.00  0.00     0.145 C 
ATOM      4  C   UNL     1      22.950  25.766  19.759  1.00  0.00     0.142 C 
ATOM      5  C   UNL     1      23.221  25.551  21.169  1.00  0.00     0.178 C 
ATOM      6  O   UNL     1      23.113  26.622  22.016  1.00  0.00    -0.332 OA
ENDROOT
BRANCH   1   7
ATOM      7  O   UNL     1      22.985  28.893  22.002  1.00  0.00    -0.338 OA
BRANCH   7   8
ATOM      8  C   UNL     1      22.169  28.800  23.067  1.00  0.00     0.199 C 
BRANCH   8   9
ATOM      9  C   UNL     1      20.899  29.666  22.872  1.00  0.00     0.179 C 
ATOM     10  C   UNL     1      19.137  29.896  21.399  1.00  0.00     0.282 C 
ATOM     11  O   UNL     1      20.221  29.127  21.811  1.00  0.00    -0.341 OA
ATOM     12  C   UNL     1      18.824  31.014  22.350  1.00  0.00     0.202 C 
ATOM     13  C   UNL     1      18.827  30.518  23.783  1.00  0.00     0.179 C 
ATOM     14  C   UNL     1      20.058  29.686  24.102  1.00  0.00     0.177 C 
BRANCH  10  15
ATOM     15  O   UNL     1      17.964  29.145  21.246  1.00  0.00    -0.341 OA
BRANCH  15  16
ATOM     16  C   UNL     1      17.756  28.780  19.924  1.00  0.00     0.184 C 
ATOM     17  C   UNL     1      17.561  29.998  19.078  1.00  0.00     0.178 C 
ATOM     18  O   UNL     1      16.250  30.116  18.612  1.00  0.00    -0.341 OA
ATOM     19  C   UNL     1      15.331  30.017  19.661  1.00  0.00     0.281 C 
ATOM     20  C   UNL     1      16.531  27.899  19.876  1.00  0.00     0.180 C 
ATOM     21  C   UNL     1      15.255  28.620  20.208  1.00  0.00     0.202 C 
BRANCH  17  22
ATOM     22  C   UNL     1      18.478  30.007  17.877  1.00  0.00     0.191 C 
BRANCH  22  23
ATOM     23  O   UNL     1      18.792  28.719  17.449  1.00  0.00    -0.394 OA
ATOM     24  H   UNL     1      18.056  28.110  17.661  1.00  0.00     0.210 HD
ENDBRANCH  22  23
ENDBRANCH  17  22
BRANCH  19  25
ATOM     25  O   UNL     1      14.099  30.356  19.131  1.00  0.00    -0.350 OA
BRANCH  25  26
ATOM     26  C   UNL     1      13.679  31.551  19.678  1.00  0.00     0.169 C 
BRANCH  26  27
ATOM     27  C   UNL     1      12.808  31.304  20.893  1.00  0.00     0.119 C 
BRANCH  27  28
ATOM     28  N   UNL     1      13.332  32.099  22.002  1.00  0.00    -0.092 NA
ATOM     29  N   UNL     1      14.186  31.664  22.775  1.00  0.00     0.001 N 
ATOM     30  N   UNL     1      15.188  31.244  23.326  1.00  0.00    -0.003 NA
ENDBRANCH  27  28
ENDBRANCH  26  27
ENDBRANCH  25  26
ENDBRANCH  19  25
BRANCH  20  31
ATOM     31  O   UNL     1      16.393  27.259  18.645  1.00  0.00    -0.387 OA
ATOM     32  H   UNL     1      15.970  27.814  17.955  1.00  0.00     0.211 HD
ENDBRANCH  20  31
BRANCH  21  33
ATOM     33  O   UNL     1      15.092  28.699  21.590  1.00  0.00    -0.385 OA
ATOM     34  H   UNL     1      15.741  28.126  22.061  1.00  0.00     0.211 HD
ENDBRANCH  21  33
ENDBRANCH  15  16
ENDBRANCH  10  15
BRANCH  12  35
ATOM     35  O   UNL     1      19.580  32.147  22.166  1.00  0.00    -0.385 OA
ATOM     36  H   UNL     1      20.488  31.900  21.805  1.00  0.00     0.211 HD
ENDBRANCH  12  35
BRANCH  13  37
ATOM     37  O   UNL     1      17.682  29.706  23.931  1.00  0.00    -0.387 OA
ATOM     38  H   UNL     1      17.841  28.990  24.601  1.00  0.00     0.211 HD
ENDBRANCH  13  37
BRANCH  14  39
ATOM     39  O   UNL     1      19.699  28.397  24.496  1.00  0.00    -0.387 OA
ATOM     40  H   UNL     1      19.984  27.747  23.804  1.00  0.00     0.211 HD
ENDBRANCH  14  39
ENDBRANCH   8   9
ENDBRANCH   7   8
ENDBRANCH   1   7
BRANCH   1  41
ATOM     41  C   UNL     1      24.994  27.802  22.413  1.00  0.00     0.364 C 
ATOM     42  O   UNL     1      25.132  27.013  23.359  1.00  0.00    -0.246 OA
BRANCH  41  43
ATOM     43  O   UNL     1      26.039  28.663  22.109  1.00  0.00    -0.477 OA
ATOM     44  H   UNL     1      26.476  28.653  21.175  1.00  0.00     0.296 HD
ENDBRANCH  41  43
ENDBRANCH   1  41
BRANCH   3  45
ATOM     45  O   UNL     1      21.754  27.764  20.050  1.00  0.00    -0.391 OA
ATOM     46  H   UNL     1      21.087  27.074  20.199  1.00  0.00     0.211 HD
ENDBRANCH   3  45
BRANCH   5  47
ATOM     47  C   UNL     1      22.490  24.396  21.834  1.00  0.00     0.176 C 
BRANCH  47  48
ATOM     48  O   UNL     1      22.110  23.493  20.777  1.00  0.00    -0.388 OA
ATOM     49  H   UNL     1      22.900  23.244  20.270  1.00  0.00     0.211 HD
ENDBRANCH  47  48
BRANCH  47  50
ATOM     50  C   UNL     1      21.154  24.780  22.438  1.00  0.00     0.165 C 
BRANCH  50  51
ATOM     51  O   UNL     1      20.564  25.890  21.919  1.00  0.00    -0.388 OA
ATOM     52  H   UNL     1      20.764  26.751  22.348  1.00  0.00     0.211 HD
ENDBRANCH  50  51
BRANCH  50  53
ATOM     53  C   UNL     1      21.151  24.669  23.925  1.00  0.00     0.154 C 
BRANCH  53  54
ATOM     54  N   UNL     1      22.281  25.165  24.618  1.00  0.00    -0.319 N 
ATOM     55  C   UNL     1      22.307  26.181  25.609  1.00  0.00     0.407 C 
ATOM     56  H   UNL     1      23.219  24.723  24.365  1.00  0.00     0.167 HD
ATOM     57  O   UNL     1      21.247  26.721  25.948  1.00  0.00    -0.225 OA
BRANCH  55  58
ATOM     58  O   UNL     1      23.530  26.559  26.187  1.00  0.00    -0.443 OA
BRANCH  58  59
ATOM     59  C   UNL     1      24.468  25.592  26.579  1.00  0.00     0.294 C 
BRANCH  59  60
ATOM     60  C   UNL     1      24.921  25.746  27.967  1.00  0.00     0.120 A 
ATOM     61  C   UNL     1      26.133  26.191  28.445  1.00  0.00     0.139 A 
ATOM     62  N   UNL     1      24.143  25.449  29.041  1.00  0.00    -0.132 NA
ATOM     63  N   UNL     1      26.060  26.154  29.776  1.00  0.00    -0.238 N 
ATOM     64  N   UNL     1      24.864  25.708  30.141  1.00  0.00    -0.066 NA
BRANCH  63  65
ATOM     65  C   UNL     1      27.116  26.536  30.692  1.00  0.00     0.215 C 
ATOM     66  C   UNL     1      26.520  27.091  31.948  1.00  0.00     0.046 C 
BRANCH  65  67
ATOM     67  C   UNL     1      27.997  25.387  31.007  1.00  0.00     0.328 C 
ATOM     68  O   UNL     1      28.747  24.942  30.105  1.00  0.00    -0.250 OA
BRANCH  67  69
ATOM     69  O   UNL     1      28.021  24.790  32.259  1.00  0.00    -0.480 OA
ATOM     70  H   UNL     1      28.600  23.982  32.454  1.00  0.00     0.296 HD
ENDBRANCH  67  69
ENDBRANCH  65  67
ENDBRANCH  63  65
ENDBRANCH  59  60
ENDBRANCH  58  59
ENDBRANCH  55  58
ENDBRANCH  53  54
ENDBRANCH  50  53
ENDBRANCH  47  50
ENDBRANCH   5  47
BRANCH   4  71
ATOM     71  N   UNL     1      23.875  25.154  18.824  1.00  0.00    -0.348 N 
ATOM     72  C   UNL     1      23.576  24.638  17.564  1.00  0.00     0.217 C 
ATOM     73  H   UNL     1      24.883  25.100  19.148  1.00  0.00     0.163 HD
ATOM     74  C   UNL     1      24.616  24.030  16.698  1.00  0.00     0.114 C 
ATOM     75  O   UNL     1      22.402  24.686  17.152  1.00  0.00    -0.275 OA
ENDBRANCH   4  71
TORSDOF 32
