REMARK VINA RESULT:    -6.028     18.347     22.781
REMARK INTER + INTRA:         -20.880
REMARK INTER:                 -13.964
REMARK INTRA:                  -6.916
REMARK UNBOUND:                -6.043
REMARK SMILES CC(=O)N[C@@H]1[C@@H](O)C[C@](OC[C@H]2O[C@@H](O[C@H]3[C@H](O)[C@@H](O)[C@H](OCCN=[N+]=[N-])O[C@@H]3CO)[C@H](O)[C@@H](O)[C@H]2O)(C(=O)O)O[C@H]1C(O)[C@H](O)CNC(=O)OCc1cn(-c2ccccc2I)nn1
REMARK SMILES IDX 9 1 8 2 6 3 5 4 42 5 41 6 10 7 11 8 12 9 14 10 13 11 32 12
REMARK SMILES IDX 34 13 36 14 15 15 16 16 29 17 28 18 21 19 17 20 19 21 30 22
REMARK SMILES IDX 31 23 22 25 23 26 24 27 25 28 26 29 27 30 18 31 20 33 33 35
REMARK SMILES IDX 35 37 37 39 38 41 39 42 40 43 7 45 43 47 44 48 45 50 46 51
REMARK SMILES IDX 47 53 48 54 49 55 50 57 51 58 52 59 53 60 54 61 64 62 55 63
REMARK SMILES IDX 63 64 56 65 57 66 61 67 58 68 60 69 62 70 59 71 4 72 2 73
REMARK SMILES IDX 1 75 3 76
REMARK H PARENT 31 24 18 32 20 34 33 36 35 38 37 40 40 44 7 46 44 49 46 52
REMARK H PARENT 48 56 4 74
REMARK Flexibility Score: inf
ROOT
ATOM      1  C   UNL     1       1.326  19.988  34.386  1.00  0.00     0.272 C 
ATOM      2  C   UNL     1       0.678  19.066  33.392  1.00  0.00     0.113 C 
ATOM      3  C   UNL     1       1.703  18.535  32.375  1.00  0.00     0.145 C 
ATOM      4  C   UNL     1       2.177  19.795  31.596  1.00  0.00     0.142 C 
ATOM      5  C   UNL     1       2.596  20.840  32.592  1.00  0.00     0.178 C 
ATOM      6  O   UNL     1       2.637  20.238  33.856  1.00  0.00    -0.332 OA
ENDROOT
BRANCH   1   7
ATOM      7  O   UNL     1       1.589  19.506  35.629  1.00  0.00    -0.338 OA
BRANCH   7   8
ATOM      8  C   UNL     1       1.530  18.280  36.057  1.00  0.00     0.199 C 
BRANCH   8   9
ATOM      9  C   UNL     1       2.740  17.447  36.206  1.00  0.00     0.179 C 
ATOM     10  C   UNL     1       4.208  18.390  37.679  1.00  0.00     0.282 C 
ATOM     11  O   UNL     1       3.933  18.065  36.379  1.00  0.00    -0.341 OA
ATOM     12  C   UNL     1       4.625  17.155  38.468  1.00  0.00     0.202 C 
ATOM     13  C   UNL     1       3.888  15.938  37.861  1.00  0.00     0.179 C 
ATOM     14  C   UNL     1       2.540  16.423  37.364  1.00  0.00     0.177 C 
BRANCH  10  15
ATOM     15  O   UNL     1       3.379  19.254  38.320  1.00  0.00    -0.341 OA
BRANCH  15  16
ATOM     16  C   UNL     1       3.972  20.367  38.872  1.00  0.00     0.184 C 
ATOM     17  C   UNL     1       3.552  20.705  40.277  1.00  0.00     0.178 C 
ATOM     18  O   UNL     1       3.759  22.058  40.532  1.00  0.00    -0.341 OA
ATOM     19  C   UNL     1       4.809  22.616  39.792  1.00  0.00     0.281 C 
ATOM     20  C   UNL     1       3.464  21.574  38.053  1.00  0.00     0.180 C 
ATOM     21  C   UNL     1       4.485  22.671  38.322  1.00  0.00     0.202 C 
BRANCH  17  22
ATOM     22  C   UNL     1       4.124  19.825  41.340  1.00  0.00     0.191 C 
BRANCH  22  23
ATOM     23  O   UNL     1       5.363  19.372  40.871  1.00  0.00    -0.394 OA
ATOM     24  H   UNL     1       6.023  19.474  41.610  1.00  0.00     0.210 HD
ENDBRANCH  22  23
ENDBRANCH  17  22
BRANCH  19  25
ATOM     25  O   UNL     1       6.016  22.059  40.080  1.00  0.00    -0.350 OA
BRANCH  25  26
ATOM     26  C   UNL     1       6.865  22.920  40.703  1.00  0.00     0.169 C 
BRANCH  26  27
ATOM     27  C   UNL     1       8.176  23.192  40.036  1.00  0.00     0.119 C 
BRANCH  27  28
ATOM     28  N   UNL     1       8.817  22.073  39.407  1.00  0.00    -0.092 NA
ATOM     29  N   UNL     1       9.644  22.334  38.514  1.00  0.00     0.001 N 
ATOM     30  N   UNL     1      10.430  22.358  37.566  1.00  0.00    -0.003 NA
ENDBRANCH  27  28
ENDBRANCH  26  27
ENDBRANCH  25  26
ENDBRANCH  19  25
BRANCH  20  31
ATOM     31  O   UNL     1       3.398  21.261  36.709  1.00  0.00    -0.387 OA
ATOM     32  H   UNL     1       3.594  22.097  36.209  1.00  0.00     0.211 HD
ENDBRANCH  20  31
BRANCH  21  33
ATOM     33  O   UNL     1       4.006  23.912  37.909  1.00  0.00    -0.385 OA
ATOM     34  H   UNL     1       4.625  24.622  38.279  1.00  0.00     0.211 HD
ENDBRANCH  21  33
ENDBRANCH  15  16
ENDBRANCH  10  15
BRANCH  12  35
ATOM     35  O   UNL     1       5.977  16.867  38.344  1.00  0.00    -0.385 OA
ATOM     36  H   UNL     1       6.415  17.190  39.174  1.00  0.00     0.211 HD
ENDBRANCH  12  35
BRANCH  13  37
ATOM     37  O   UNL     1       3.774  14.887  38.714  1.00  0.00    -0.387 OA
ATOM     38  H   UNL     1       2.836  14.624  38.960  1.00  0.00     0.211 HD
ENDBRANCH  13  37
BRANCH  14  39
ATOM     39  O   UNL     1       1.911  17.121  38.380  1.00  0.00    -0.387 OA
ATOM     40  H   UNL     1       0.946  17.280  38.132  1.00  0.00     0.211 HD
ENDBRANCH  14  39
ENDBRANCH   8   9
ENDBRANCH   7   8
ENDBRANCH   1   7
BRANCH   1  41
ATOM     41  C   UNL     1       0.610  21.276  34.423  1.00  0.00     0.364 C 
ATOM     42  O   UNL     1      -0.356  21.577  33.700  1.00  0.00    -0.246 OA
BRANCH  41  43
ATOM     43  O   UNL     1       1.003  22.289  35.325  1.00  0.00    -0.477 OA
ATOM     44  H   UNL     1       0.334  23.037  35.557  1.00  0.00     0.296 HD
ENDBRANCH  41  43
ENDBRANCH   1  41
BRANCH   3  45
ATOM     45  O   UNL     1       2.769  17.907  32.983  1.00  0.00    -0.391 OA
ATOM     46  H   UNL     1       2.862  18.213  33.916  1.00  0.00     0.211 HD
ENDBRANCH   3  45
BRANCH   5  47
ATOM     47  C   UNL     1       4.082  21.214  32.346  1.00  0.00     0.176 C 
BRANCH  47  48
ATOM     48  O   UNL     1       4.786  20.732  33.516  1.00  0.00    -0.388 OA
ATOM     49  H   UNL     1       4.883  21.542  34.104  1.00  0.00     0.211 HD
ENDBRANCH  47  48
BRANCH  47  50
ATOM     50  C   UNL     1       4.307  22.694  32.435  1.00  0.00     0.165 C 
BRANCH  50  51
ATOM     51  O   UNL     1       5.701  22.953  32.354  1.00  0.00    -0.388 OA
ATOM     52  H   UNL     1       6.176  22.196  31.929  1.00  0.00     0.211 HD
ENDBRANCH  50  51
BRANCH  50  53
ATOM     53  C   UNL     1       3.766  23.426  33.587  1.00  0.00     0.154 C 
BRANCH  53  54
ATOM     54  N   UNL     1       4.614  23.465  34.764  1.00  0.00    -0.319 N 
ATOM     55  C   UNL     1       5.417  24.621  34.998  1.00  0.00     0.407 C 
ATOM     56  H   UNL     1       4.679  22.697  35.461  1.00  0.00     0.167 HD
ATOM     57  O   UNL     1       5.376  25.583  34.163  1.00  0.00    -0.225 OA
BRANCH  55  58
ATOM     58  O   UNL     1       6.258  24.795  36.078  1.00  0.00    -0.443 OA
BRANCH  58  59
ATOM     59  C   UNL     1       7.417  23.991  36.243  1.00  0.00     0.294 C 
BRANCH  59  60
ATOM     60  C   UNL     1       8.496  24.550  35.351  1.00  0.00     0.121 A 
ATOM     61  C   UNL     1       9.053  25.808  35.376  1.00  0.00     0.144 A 
ATOM     62  N   UNL     1       9.104  23.889  34.351  1.00  0.00    -0.131 NA
ATOM     63  N   UNL     1       9.965  25.825  34.385  1.00  0.00    -0.219 N 
ATOM     64  N   UNL     1       9.991  24.660  33.768  1.00  0.00    -0.062 NA
BRANCH  63  65
ATOM     65  C   UNL     1      10.795  26.921  34.015  1.00  0.00     0.080 A 
ATOM     66  C   UNL     1      10.337  27.894  33.135  1.00  0.00     0.029 A 
ATOM     67  C   UNL     1      12.072  27.042  34.511  1.00  0.00     0.039 A 
ATOM     68  C   UNL     1      11.190  28.950  32.795  1.00  0.00     0.002 A 
ATOM     69  C   UNL     1      12.912  28.107  34.158  1.00  0.00     0.017 A 
ATOM     70  I   UNL     1      12.797  25.575  35.849  1.00  0.00    -0.042 I 
ATOM     71  C   UNL     1      12.466  29.071  33.291  1.00  0.00     0.001 A 
ENDBRANCH  63  65
ENDBRANCH  59  60
ENDBRANCH  58  59
ENDBRANCH  55  58
ENDBRANCH  53  54
ENDBRANCH  50  53
ENDBRANCH  47  50
ENDBRANCH   5  47
BRANCH   4  72
ATOM     72  N   UNL     1       1.102  20.139  30.738  1.00  0.00    -0.348 N 
ATOM     73  C   UNL     1       1.290  20.497  29.356  1.00  0.00     0.217 C 
ATOM     74  H   UNL     1       0.114  20.153  31.048  1.00  0.00     0.163 HD
ATOM     75  C   UNL     1       0.178  20.856  28.455  1.00  0.00     0.114 C 
ATOM     76  O   UNL     1       2.478  20.491  28.939  1.00  0.00    -0.275 OA
ENDBRANCH   4  72
TORSDOF 30
