REMARK VINA RESULT:    -6.030     11.155     17.053
REMARK INTER + INTRA:         -20.886
REMARK INTER:                 -13.482
REMARK INTRA:                  -7.405
REMARK UNBOUND:                -6.043
REMARK SMILES CC(=O)N[C@@H]1[C@@H](O)C[C@](OC[C@H]2O[C@@H](O[C@H]3[C@H](O)[C@@H](O)[C@H](OCCN=[N+]=[N-])O[C@@H]3CO)[C@H](O)[C@@H](O)[C@H]2O)(C(=O)O)O[C@H]1C(O)[C@H](O)CNC(=O)OCc1cn(-c2ccccc2I)nn1
REMARK SMILES IDX 9 1 8 2 6 3 5 4 42 5 41 6 10 7 11 8 12 9 14 10 13 11 32 12
REMARK SMILES IDX 34 13 36 14 15 15 16 16 29 17 28 18 21 19 17 20 19 21 30 22
REMARK SMILES IDX 31 23 22 25 23 26 24 27 25 28 26 29 27 30 18 31 20 33 33 35
REMARK SMILES IDX 35 37 37 39 38 41 39 42 40 43 7 45 43 47 44 48 45 50 46 51
REMARK SMILES IDX 47 53 48 54 49 55 50 57 51 58 52 59 53 60 54 61 64 62 55 63
REMARK SMILES IDX 63 64 56 65 57 66 61 67 58 68 60 69 62 70 59 71 4 72 2 73
REMARK SMILES IDX 1 75 3 76
REMARK H PARENT 31 24 18 32 20 34 33 36 35 38 37 40 40 44 7 46 44 49 46 52
REMARK H PARENT 48 56 4 74
REMARK Flexibility Score: inf
ROOT
ATOM      1  C   UNL     1      31.483  19.935  23.490  1.00  0.00     0.272 C 
ATOM      2  C   UNL     1      30.675  18.966  22.673  1.00  0.00     0.113 C 
ATOM      3  C   UNL     1      31.415  18.573  21.383  1.00  0.00     0.145 C 
ATOM      4  C   UNL     1      31.516  19.894  20.567  1.00  0.00     0.142 C 
ATOM      5  C   UNL     1      32.094  20.959  21.457  1.00  0.00     0.178 C 
ATOM      6  O   UNL     1      32.555  20.340  22.625  1.00  0.00    -0.332 OA
ENDROOT
BRANCH   1   7
ATOM      7  O   UNL     1      32.137  19.460  24.583  1.00  0.00    -0.338 OA
BRANCH   7   8
ATOM      8  C   UNL     1      31.691  18.684  25.526  1.00  0.00     0.199 C 
BRANCH   8   9
ATOM      9  C   UNL     1      32.535  18.282  26.669  1.00  0.00     0.179 C 
ATOM     10  C   UNL     1      33.524  20.099  27.636  1.00  0.00     0.282 C 
ATOM     11  O   UNL     1      33.685  18.961  26.893  1.00  0.00    -0.341 OA
ATOM     12  C   UNL     1      33.326  19.759  29.108  1.00  0.00     0.202 C 
ATOM     13  C   UNL     1      32.611  18.389  29.182  1.00  0.00     0.179 C 
ATOM     14  C   UNL     1      31.692  18.289  27.980  1.00  0.00     0.177 C 
BRANCH  10  15
ATOM     15  O   UNL     1      32.737  21.089  27.143  1.00  0.00    -0.341 OA
BRANCH  15  16
ATOM     16  C   UNL     1      33.369  22.275  26.847  1.00  0.00     0.184 C 
ATOM     17  C   UNL     1      34.864  22.198  26.684  1.00  0.00     0.178 C 
ATOM     18  O   UNL     1      35.442  23.442  26.925  1.00  0.00    -0.341 OA
ATOM     19  C   UNL     1      34.600  24.521  26.628  1.00  0.00     0.281 C 
ATOM     20  C   UNL     1      33.197  23.174  28.091  1.00  0.00     0.180 C 
ATOM     21  C   UNL     1      33.427  24.587  27.571  1.00  0.00     0.202 C 
BRANCH  17  22
ATOM     22  C   UNL     1      35.333  21.584  25.405  1.00  0.00     0.191 C 
BRANCH  22  23
ATOM     23  O   UNL     1      34.238  21.574  24.533  1.00  0.00    -0.394 OA
ATOM     24  H   UNL     1      34.291  20.742  23.989  1.00  0.00     0.210 HD
ENDBRANCH  22  23
ENDBRANCH  17  22
BRANCH  19  25
ATOM     25  O   UNL     1      34.265  24.586  25.311  1.00  0.00    -0.350 OA
BRANCH  25  26
ATOM     26  C   UNL     1      34.516  25.803  24.758  1.00  0.00     0.169 C 
BRANCH  26  27
ATOM     27  C   UNL     1      35.507  25.854  23.638  1.00  0.00     0.119 C 
BRANCH  27  28
ATOM     28  N   UNL     1      34.974  26.078  22.324  1.00  0.00    -0.092 NA
ATOM     29  N   UNL     1      33.904  26.711  22.258  1.00  0.00     0.001 N 
ATOM     30  N   UNL     1      32.832  27.242  21.967  1.00  0.00    -0.003 NA
ENDBRANCH  27  28
ENDBRANCH  26  27
ENDBRANCH  25  26
ENDBRANCH  19  25
BRANCH  20  31
ATOM     31  O   UNL     1      31.932  23.031  28.627  1.00  0.00    -0.387 OA
ATOM     32  H   UNL     1      31.832  22.074  28.875  1.00  0.00     0.211 HD
ENDBRANCH  20  31
BRANCH  21  33
ATOM     33  O   UNL     1      33.615  25.482  28.623  1.00  0.00    -0.385 OA
ATOM     34  H   UNL     1      32.903  25.297  29.318  1.00  0.00     0.211 HD
ENDBRANCH  21  33
ENDBRANCH  15  16
ENDBRANCH  10  15
BRANCH  12  35
ATOM     35  O   UNL     1      34.523  19.586  29.789  1.00  0.00    -0.385 OA
ATOM     36  H   UNL     1      35.069  20.397  29.617  1.00  0.00     0.211 HD
ENDBRANCH  12  35
BRANCH  13  37
ATOM     37  O   UNL     1      31.952  18.178  30.352  1.00  0.00    -0.387 OA
ATOM     38  H   UNL     1      31.097  18.693  30.470  1.00  0.00     0.211 HD
ENDBRANCH  13  37
BRANCH  14  39
ATOM     39  O   UNL     1      30.907  19.428  27.917  1.00  0.00    -0.387 OA
ATOM     40  H   UNL     1      30.591  19.670  28.844  1.00  0.00     0.211 HD
ENDBRANCH  14  39
ENDBRANCH   8   9
ENDBRANCH   7   8
ENDBRANCH   1   7
BRANCH   1  41
ATOM     41  C   UNL     1      30.679  21.133  23.793  1.00  0.00     0.364 C 
ATOM     42  O   UNL     1      31.109  22.159  24.348  1.00  0.00    -0.246 OA
BRANCH  41  43
ATOM     43  O   UNL     1      29.309  21.180  23.456  1.00  0.00    -0.477 OA
ATOM     44  H   UNL     1      28.757  22.006  23.728  1.00  0.00     0.296 HD
ENDBRANCH  41  43
ENDBRANCH   1  41
BRANCH   3  45
ATOM     45  O   UNL     1      32.668  18.056  21.633  1.00  0.00    -0.391 OA
ATOM     46  H   UNL     1      33.236  18.730  22.078  1.00  0.00     0.211 HD
ENDBRANCH   3  45
BRANCH   5  47
ATOM     47  C   UNL     1      33.402  21.501  20.822  1.00  0.00     0.176 C 
BRANCH  47  48
ATOM     48  O   UNL     1      34.469  20.912  21.605  1.00  0.00    -0.388 OA
ATOM     49  H   UNL     1      35.077  20.490  20.924  1.00  0.00     0.211 HD
ENDBRANCH  47  48
BRANCH  47  50
ATOM     50  C   UNL     1      33.589  22.964  21.093  1.00  0.00     0.165 C 
BRANCH  50  51
ATOM     51  O   UNL     1      33.503  23.188  22.492  1.00  0.00    -0.388 OA
ATOM     52  H   UNL     1      33.576  22.336  22.991  1.00  0.00     0.211 HD
ENDBRANCH  50  51
BRANCH  50  53
ATOM     53  C   UNL     1      32.714  23.928  20.415  1.00  0.00     0.154 C 
BRANCH  53  54
ATOM     54  N   UNL     1      31.545  24.353  21.162  1.00  0.00    -0.319 N 
ATOM     55  C   UNL     1      30.256  23.912  20.735  1.00  0.00     0.407 C 
ATOM     56  H   UNL     1      31.579  24.966  22.000  1.00  0.00     0.167 HD
ATOM     57  O   UNL     1      30.166  23.166  19.705  1.00  0.00    -0.225 OA
BRANCH  55  58
ATOM     58  O   UNL     1      29.066  24.230  21.357  1.00  0.00    -0.443 OA
BRANCH  58  59
ATOM     59  C   UNL     1      27.862  24.362  20.614  1.00  0.00     0.294 C 
BRANCH  59  60
ATOM     60  C   UNL     1      26.812  24.929  21.535  1.00  0.00     0.121 A 
ATOM     61  C   UNL     1      26.098  24.277  22.514  1.00  0.00     0.144 A 
ATOM     62  N   UNL     1      26.386  26.204  21.544  1.00  0.00    -0.131 NA
ATOM     63  N   UNL     1      25.283  25.204  23.053  1.00  0.00    -0.219 N 
ATOM     64  N   UNL     1      25.463  26.369  22.461  1.00  0.00    -0.062 NA
BRANCH  63  65
ATOM     65  C   UNL     1      24.343  25.001  24.102  1.00  0.00     0.080 A 
ATOM     66  C   UNL     1      24.748  25.012  25.431  1.00  0.00     0.029 A 
ATOM     67  C   UNL     1      23.013  24.780  23.829  1.00  0.00     0.039 A 
ATOM     68  C   UNL     1      23.789  24.800  26.429  1.00  0.00     0.002 A 
ATOM     69  C   UNL     1      22.068  24.570  24.841  1.00  0.00     0.017 A 
ATOM     70  I   UNL     1      22.369  24.755  21.816  1.00  0.00    -0.042 I 
ATOM     71  C   UNL     1      22.460  24.581  26.156  1.00  0.00     0.001 A 
ENDBRANCH  63  65
ENDBRANCH  59  60
ENDBRANCH  58  59
ENDBRANCH  55  58
ENDBRANCH  53  54
ENDBRANCH  50  53
ENDBRANCH  47  50
ENDBRANCH   5  47
BRANCH   4  72
ATOM     72  N   UNL     1      30.212  20.132  20.066  1.00  0.00    -0.348 N 
ATOM     73  C   UNL     1      29.818  19.790  18.723  1.00  0.00     0.217 C 
ATOM     74  H   UNL     1      29.460  20.564  20.630  1.00  0.00     0.163 HD
ATOM     75  C   UNL     1      28.463  20.034  18.191  1.00  0.00     0.114 C 
ATOM     76  O   UNL     1      30.705  19.260  18.003  1.00  0.00    -0.275 OA
ENDBRANCH   4  72
TORSDOF 30
