REMARK VINA RESULT:    -8.286      1.892      2.429
REMARK INTER + INTRA:         -20.226
REMARK INTER:                 -15.580
REMARK INTRA:                  -4.645
REMARK UNBOUND:                 3.076
REMARK SMILES CC(=O)N[C@@H]1[C@@H](O)C[C@](OC[C@H]2O[C@@H](O[C@H]3[C@H](O)[C@@H](O)[C@H](OCCN=[N+]=[N-])O[C@@H]3CO)[C@H](O)[C@@H](O)[C@H]2O)(C(=O)O)O[C@H]1C(O)[C@H](O)CNC(=O)OCc1cn(C2CC(O)C=C[C@@H](O)C2)nn1
REMARK SMILES IDX 43 1 42 2 9 3 8 4 41 5 6 6 5 7 10 8 11 9 12 10 14 11 13 12
REMARK SMILES IDX 32 13 34 14 36 15 15 16 16 17 29 18 28 19 21 20 17 21 19 22
REMARK SMILES IDX 30 23 31 24 22 26 23 27 24 28 25 29 26 30 27 31 18 32 20 34
REMARK SMILES IDX 33 36 35 38 37 40 38 42 39 43 40 44 7 46 4 48 2 49 1 51 3 52
REMARK SMILES IDX 44 53 45 55 46 56 47 58 48 59 49 60 50 62 51 63 52 64 53 65
REMARK SMILES IDX 54 66 66 67 55 68 65 69 56 70 57 71 58 72 59 74 64 76 62 77
REMARK SMILES IDX 61 78 60 79 63 81
REMARK H PARENT 31 25 18 33 20 35 33 37 35 39 37 41 40 45 7 47 4 50 44 54
REMARK H PARENT 46 57 48 61 59 75 63 82
REMARK Flexibility Score: 90.00
ROOT
ATOM      1  C   UNL     1      16.839  31.838  21.369  1.00  0.00     0.176 C 
ENDROOT
BRANCH   1   2
ATOM      2  C   UNL     1      15.932  30.620  21.375  1.00  0.00     0.178 C 
ATOM      3  C   UNL     1      14.815  29.321  19.761  1.00  0.00     0.272 C 
ATOM      4  C   UNL     1      13.905  28.752  20.787  1.00  0.00     0.113 C 
ATOM      5  O   UNL     1      15.493  30.450  20.031  1.00  0.00    -0.332 OA
ATOM      6  C   UNL     1      14.168  29.206  22.177  1.00  0.00     0.145 C 
ATOM      7  C   UNL     1      14.703  30.672  22.175  1.00  0.00     0.142 C 
BRANCH   3   8
ATOM      8  O   UNL     1      14.096  29.423  18.553  1.00  0.00    -0.338 OA
BRANCH   8   9
ATOM      9  C   UNL     1      13.707  30.687  18.220  1.00  0.00     0.199 C 
BRANCH   9  10
ATOM     10  C   UNL     1      14.142  31.037  16.797  1.00  0.00     0.179 C 
ATOM     11  C   UNL     1      15.385  29.886  15.227  1.00  0.00     0.282 C 
ATOM     12  O   UNL     1      15.294  30.366  16.535  1.00  0.00    -0.341 OA
ATOM     13  C   UNL     1      14.287  28.843  15.130  1.00  0.00     0.202 C 
ATOM     14  C   UNL     1      12.986  29.611  15.066  1.00  0.00     0.179 C 
ATOM     15  C   UNL     1      13.027  30.902  15.818  1.00  0.00     0.177 C 
BRANCH  11  16
ATOM     16  O   UNL     1      16.648  29.387  15.020  1.00  0.00    -0.341 OA
BRANCH  16  17
ATOM     17  C   UNL     1      17.583  30.180  15.691  1.00  0.00     0.184 C 
ATOM     18  C   UNL     1      17.882  31.422  14.890  1.00  0.00     0.178 C 
ATOM     19  O   UNL     1      18.696  31.222  13.805  1.00  0.00    -0.341 OA
ATOM     20  C   UNL     1      19.223  29.936  13.716  1.00  0.00     0.281 C 
ATOM     21  C   UNL     1      18.826  29.421  16.067  1.00  0.00     0.180 C 
ATOM     22  C   UNL     1      19.906  29.568  15.029  1.00  0.00     0.202 C 
BRANCH  18  23
ATOM     23  C   UNL     1      18.463  32.511  15.782  1.00  0.00     0.191 C 
BRANCH  23  24
ATOM     24  O   UNL     1      18.009  32.417  17.084  1.00  0.00    -0.394 OA
ATOM     25  H   UNL     1      17.821  31.505  17.359  1.00  0.00     0.210 HD
ENDBRANCH  23  24
ENDBRANCH  18  23
BRANCH  20  26
ATOM     26  O   UNL     1      20.155  29.972  12.684  1.00  0.00    -0.350 OA
BRANCH  26  27
ATOM     27  C   UNL     1      19.486  30.224  11.492  1.00  0.00     0.169 C 
BRANCH  27  28
ATOM     28  C   UNL     1      18.397  29.195  11.242  1.00  0.00     0.119 C 
BRANCH  28  29
ATOM     29  N   UNL     1      17.301  29.776  10.494  1.00  0.00    -0.092 NA
ATOM     30  N   UNL     1      16.197  29.905  11.048  1.00  0.00     0.001 N 
ATOM     31  N   UNL     1      15.130  29.883  11.676  1.00  0.00    -0.003 NA
ENDBRANCH  28  29
ENDBRANCH  27  28
ENDBRANCH  26  27
ENDBRANCH  20  26
BRANCH  21  32
ATOM     32  O   UNL     1      19.300  29.853  17.306  1.00  0.00    -0.387 OA
ATOM     33  H   UNL     1      19.547  29.097  17.891  1.00  0.00     0.211 HD
ENDBRANCH  21  32
BRANCH  22  34
ATOM     34  O   UNL     1      20.611  28.380  14.868  1.00  0.00    -0.385 OA
ATOM     35  H   UNL     1      20.149  27.780  14.226  1.00  0.00     0.211 HD
ENDBRANCH  22  34
ENDBRANCH  16  17
ENDBRANCH  11  16
BRANCH  13  36
ATOM     36  O   UNL     1      14.399  28.003  14.055  1.00  0.00    -0.385 OA
ATOM     37  H   UNL     1      13.616  27.951  13.484  1.00  0.00     0.211 HD
ENDBRANCH  13  36
BRANCH  14  38
ATOM     38  O   UNL     1      11.990  28.749  15.522  1.00  0.00    -0.387 OA
ATOM     39  H   UNL     1      12.125  27.827  15.165  1.00  0.00     0.211 HD
ENDBRANCH  14  38
BRANCH  15  40
ATOM     40  O   UNL     1      11.827  31.079  16.535  1.00  0.00    -0.387 OA
ATOM     41  H   UNL     1      11.055  30.687  16.102  1.00  0.00     0.211 HD
ENDBRANCH  15  40
ENDBRANCH   9  10
ENDBRANCH   8   9
ENDBRANCH   3   8
BRANCH   3  42
ATOM     42  C   UNL     1      15.857  28.255  19.501  1.00  0.00     0.364 C 
ATOM     43  O   UNL     1      16.422  27.621  20.431  1.00  0.00    -0.246 OA
BRANCH  42  44
ATOM     44  O   UNL     1      16.183  27.987  18.181  1.00  0.00    -0.477 OA
ATOM     45  H   UNL     1      16.080  28.698  17.458  1.00  0.00     0.296 HD
ENDBRANCH  42  44
ENDBRANCH   3  42
BRANCH   6  46
ATOM     46  O   UNL     1      13.048  29.115  22.965  1.00  0.00    -0.391 OA
ATOM     47  H   UNL     1      13.242  29.440  23.870  1.00  0.00     0.211 HD
ENDBRANCH   6  46
BRANCH   7  48
ATOM     48  N   UNL     1      14.703  31.154  23.501  1.00  0.00    -0.348 N 
ATOM     49  C   UNL     1      15.531  30.549  24.481  1.00  0.00     0.217 C 
ATOM     50  H   UNL     1      14.129  31.972  23.777  1.00  0.00     0.163 HD
ATOM     51  C   UNL     1      15.548  31.040  25.884  1.00  0.00     0.114 C 
ATOM     52  O   UNL     1      16.263  29.582  24.162  1.00  0.00    -0.275 OA
ENDBRANCH   7  48
ENDBRANCH   1   2
BRANCH   1  53
ATOM     53  O   UNL     1      17.031  32.014  19.928  1.00  0.00    -0.388 OA
ATOM     54  H   UNL     1      16.291  31.508  19.468  1.00  0.00     0.211 HD
ENDBRANCH   1  53
BRANCH   1  55
ATOM     55  C   UNL     1      18.245  31.561  21.820  1.00  0.00     0.165 C 
BRANCH  55  56
ATOM     56  O   UNL     1      18.864  32.683  22.316  1.00  0.00    -0.388 OA
ATOM     57  H   UNL     1      19.834  32.583  22.442  1.00  0.00     0.211 HD
ENDBRANCH  55  56
BRANCH  55  58
ATOM     58  C   UNL     1      19.099  31.074  20.655  1.00  0.00     0.154 C 
BRANCH  58  59
ATOM     59  N   UNL     1      19.241  29.655  20.587  1.00  0.00    -0.319 N 
ATOM     60  C   UNL     1      20.387  29.016  20.039  1.00  0.00     0.407 C 
ATOM     61  H   UNL     1      18.463  29.031  20.957  1.00  0.00     0.167 HD
ATOM     62  O   UNL     1      21.303  29.768  19.598  1.00  0.00    -0.225 OA
BRANCH  60  63
ATOM     63  O   UNL     1      20.469  27.643  20.002  1.00  0.00    -0.443 OA
BRANCH  63  64
ATOM     64  C   UNL     1      21.671  26.977  20.378  1.00  0.00     0.294 C 
BRANCH  64  65
ATOM     65  C   UNL     1      21.452  26.364  21.707  1.00  0.00     0.120 A 
ATOM     66  C   UNL     1      21.843  26.832  22.935  1.00  0.00     0.138 A 
ATOM     67  N   UNL     1      20.816  25.201  21.932  1.00  0.00    -0.132 NA
ATOM     68  N   UNL     1      21.431  25.933  23.865  1.00  0.00    -0.249 N 
ATOM     69  N   UNL     1      20.814  24.961  23.226  1.00  0.00    -0.067 NA
BRANCH  68  70
ATOM     70  C   UNL     1      21.637  26.021  25.317  1.00  0.00     0.115 C 
BRANCH  70  71
ATOM     71  C   UNL     1      22.910  25.323  25.660  1.00  0.00     0.063 C 
BRANCH  71  72
ATOM     72  C   UNL     1      22.827  24.817  27.103  1.00  0.00     0.139 CG0
ATOM     73  G   UNL     1      22.946  25.962  28.021  1.00  0.00     0.000 G0
BRANCH  72  74
ATOM     74  O   UNL     1      23.826  23.874  27.334  1.00  0.00    -0.389 OA
ATOM     75  H   UNL     1      24.620  24.356  27.704  1.00  0.00     0.211 HD
ENDBRANCH  72  74
ENDBRANCH  71  72
ENDBRANCH  70  71
BRANCH  70  76
ATOM     76  C   UNL     1      21.685  27.466  25.703  1.00  0.00     0.063 C 
BRANCH  76  77
ATOM     77  C   UNL     1      21.192  27.549  27.152  1.00  0.00     0.139 C 
BRANCH  77  78
ATOM     78  C   UNL     1      22.285  27.137  28.074  1.00  0.00     0.002 C 
ATOM     79  C   UNL     1      22.949  25.990  28.035  1.00  0.00     0.002 CG0
ATOM     80  G   UNL     1      22.806  24.851  27.114  1.00  0.00     0.000 G0
ENDBRANCH  77  78
BRANCH  77  81
ATOM     81  O   UNL     1      20.717  28.814  27.460  1.00  0.00    -0.389 OA
ATOM     82  H   UNL     1      21.471  29.323  27.871  1.00  0.00     0.211 HD
ENDBRANCH  77  81
ENDBRANCH  76  77
ENDBRANCH  70  76
ENDBRANCH  68  70
ENDBRANCH  64  65
ENDBRANCH  63  64
ENDBRANCH  60  63
ENDBRANCH  58  59
ENDBRANCH  55  58
ENDBRANCH   1  55
TORSDOF 32
