REMARK VINA RESULT:    -5.609      4.740     11.413
REMARK INTER + INTRA:         -21.354
REMARK INTER:                 -14.777
REMARK INTRA:                  -6.576
REMARK UNBOUND:                -7.546
REMARK SMILES CC(=O)N[C@@H]1[C@@H](O)C[C@](OC[C@H]2O[C@@H](O[C@H]3[C@H](O)[C@@H](O)[C@H](OCCN=[N+]=[N-])O[C@@H]3CO)[C@H](O)[C@@H](O)[C@H]2O)(C(=O)O)O[C@H]1C(O)[C@H](O)CNC(=O)OCc1cn(-c2ccc3[nH]ncc3c2)nn1
REMARK SMILES IDX 9 1 8 2 6 3 5 4 42 5 41 6 10 7 11 8 12 9 14 10 13 11 32 12
REMARK SMILES IDX 34 13 36 14 15 15 16 16 29 17 28 18 21 19 17 20 19 21 30 22
REMARK SMILES IDX 31 23 22 25 23 26 24 27 25 28 26 29 27 30 18 31 20 33 33 35
REMARK SMILES IDX 35 37 37 39 38 41 39 42 40 43 7 45 43 47 44 48 45 50 46 51
REMARK SMILES IDX 47 53 48 54 49 55 50 57 51 58 52 59 53 60 54 61 66 62 55 63
REMARK SMILES IDX 65 64 56 65 57 66 64 67 58 68 63 69 59 70 62 71 60 72 61 73
REMARK SMILES IDX 4 75 2 76 1 78 3 79
REMARK H PARENT 31 24 18 32 20 34 33 36 35 38 37 40 40 44 7 46 44 49 46 52
REMARK H PARENT 48 56 60 74 4 77
REMARK Flexibility Score: inf
ROOT
ATOM      1  C   UNL     1      22.738  25.772  23.412  1.00  0.00     0.272 C 
ATOM      2  C   UNL     1      23.938  24.945  23.128  1.00  0.00     0.113 C 
ATOM      3  C   UNL     1      23.996  24.336  21.751  1.00  0.00     0.145 C 
ATOM      4  C   UNL     1      23.935  25.549  20.786  1.00  0.00     0.142 C 
ATOM      5  C   UNL     1      22.699  26.273  21.157  1.00  0.00     0.178 C 
ATOM      6  O   UNL     1      22.565  26.734  22.420  1.00  0.00    -0.332 OA
ENDROOT
BRANCH   1   7
ATOM      7  O   UNL     1      22.942  26.439  24.640  1.00  0.00    -0.338 OA
BRANCH   7   8
ATOM      8  C   UNL     1      24.169  26.277  25.194  1.00  0.00     0.199 C 
BRANCH   8   9
ATOM      9  C   UNL     1      24.325  27.093  26.497  1.00  0.00     0.179 C 
ATOM     10  C   UNL     1      22.629  28.115  27.698  1.00  0.00     0.282 C 
ATOM     11  O   UNL     1      23.433  28.122  26.546  1.00  0.00    -0.341 OA
ATOM     12  C   UNL     1      21.828  26.855  27.644  1.00  0.00     0.202 C 
ATOM     13  C   UNL     1      22.809  25.706  27.922  1.00  0.00     0.179 C 
ATOM     14  C   UNL     1      24.226  26.155  27.685  1.00  0.00     0.177 C 
BRANCH  10  15
ATOM     15  O   UNL     1      21.894  29.286  27.754  1.00  0.00    -0.341 OA
BRANCH  15  16
ATOM     16  C   UNL     1      22.204  30.083  26.660  1.00  0.00     0.184 C 
ATOM     17  C   UNL     1      22.685  31.460  27.004  1.00  0.00     0.178 C 
ATOM     18  O   UNL     1      23.050  32.141  25.905  1.00  0.00    -0.341 OA
ATOM     19  C   UNL     1      22.632  31.771  24.667  1.00  0.00     0.281 C 
ATOM     20  C   UNL     1      20.922  30.352  25.848  1.00  0.00     0.180 C 
ATOM     21  C   UNL     1      21.340  31.032  24.589  1.00  0.00     0.202 C 
BRANCH  17  22
ATOM     22  C   UNL     1      23.815  31.491  28.014  1.00  0.00     0.191 C 
BRANCH  22  23
ATOM     23  O   UNL     1      24.818  30.593  27.699  1.00  0.00    -0.394 OA
ATOM     24  H   UNL     1      24.375  29.691  27.679  1.00  0.00     0.210 HD
ENDBRANCH  22  23
ENDBRANCH  17  22
BRANCH  19  25
ATOM     25  O   UNL     1      23.643  31.046  24.086  1.00  0.00    -0.350 OA
BRANCH  25  26
ATOM     26  C   UNL     1      23.302  30.175  23.111  1.00  0.00     0.169 C 
BRANCH  26  27
ATOM     27  C   UNL     1      23.986  30.410  21.802  1.00  0.00     0.119 C 
BRANCH  27  28
ATOM     28  N   UNL     1      23.449  31.471  21.004  1.00  0.00    -0.092 NA
ATOM     29  N   UNL     1      22.370  31.992  21.206  1.00  0.00     0.001 N 
ATOM     30  N   UNL     1      21.152  32.279  21.176  1.00  0.00    -0.003 NA
ENDBRANCH  27  28
ENDBRANCH  26  27
ENDBRANCH  25  26
ENDBRANCH  19  25
BRANCH  20  31
ATOM     31  O   UNL     1      20.212  29.205  25.620  1.00  0.00    -0.387 OA
ATOM     32  H   UNL     1      20.776  28.394  25.528  1.00  0.00     0.211 HD
ENDBRANCH  20  31
BRANCH  21  33
ATOM     33  O   UNL     1      20.287  31.882  24.206  1.00  0.00    -0.385 OA
ATOM     34  H   UNL     1      19.428  31.602  24.613  1.00  0.00     0.211 HD
ENDBRANCH  21  33
ENDBRANCH  15  16
ENDBRANCH  10  15
BRANCH  12  35
ATOM     35  O   UNL     1      20.746  26.792  28.484  1.00  0.00    -0.385 OA
ATOM     36  H   UNL     1      19.888  27.022  28.012  1.00  0.00     0.211 HD
ENDBRANCH  12  35
BRANCH  13  37
ATOM     37  O   UNL     1      22.454  24.552  27.256  1.00  0.00    -0.387 OA
ATOM     38  H   UNL     1      23.298  24.167  26.870  1.00  0.00     0.211 HD
ENDBRANCH  13  37
BRANCH  14  39
ATOM     39  O   UNL     1      24.962  24.990  27.352  1.00  0.00    -0.387 OA
ATOM     40  H   UNL     1      25.836  24.967  27.771  1.00  0.00     0.211 HD
ENDBRANCH  14  39
ENDBRANCH   8   9
ENDBRANCH   7   8
ENDBRANCH   1   7
BRANCH   1  41
ATOM     41  C   UNL     1      21.459  25.012  23.452  1.00  0.00     0.364 C 
ATOM     42  O   UNL     1      21.251  24.296  24.488  1.00  0.00    -0.246 OA
BRANCH  41  43
ATOM     43  O   UNL     1      20.482  24.989  22.506  1.00  0.00    -0.477 OA
ATOM     44  H   UNL     1      20.609  25.333  21.554  1.00  0.00     0.296 HD
ENDBRANCH  41  43
ENDBRANCH   1  41
BRANCH   3  45
ATOM     45  O   UNL     1      25.205  23.682  21.614  1.00  0.00    -0.391 OA
ATOM     46  H   UNL     1      25.117  22.695  21.782  1.00  0.00     0.211 HD
ENDBRANCH   3  45
BRANCH   5  47
ATOM     47  C   UNL     1      22.292  27.255  20.099  1.00  0.00     0.176 C 
BRANCH  47  48
ATOM     48  O   UNL     1      21.582  26.444  19.140  1.00  0.00    -0.388 OA
ATOM     49  H   UNL     1      22.045  25.593  19.005  1.00  0.00     0.211 HD
ENDBRANCH  47  48
BRANCH  47  50
ATOM     50  C   UNL     1      21.288  28.297  20.525  1.00  0.00     0.165 C 
BRANCH  50  51
ATOM     51  O   UNL     1      20.180  27.558  21.027  1.00  0.00    -0.388 OA
ATOM     52  H   UNL     1      19.349  27.790  20.577  1.00  0.00     0.211 HD
ENDBRANCH  50  51
BRANCH  50  53
ATOM     53  C   UNL     1      20.808  29.209  19.460  1.00  0.00     0.154 C 
BRANCH  53  54
ATOM     54  N   UNL     1      19.625  28.853  18.761  1.00  0.00    -0.319 N 
ATOM     55  C   UNL     1      19.464  28.706  17.363  1.00  0.00     0.407 C 
ATOM     56  H   UNL     1      18.735  28.664  19.324  1.00  0.00     0.167 HD
ATOM     57  O   UNL     1      20.407  28.875  16.585  1.00  0.00    -0.225 OA
BRANCH  55  58
ATOM     58  O   UNL     1      18.221  28.364  16.839  1.00  0.00    -0.443 OA
BRANCH  58  59
ATOM     59  C   UNL     1      16.998  28.932  17.196  1.00  0.00     0.294 C 
BRANCH  59  60
ATOM     60  C   UNL     1      16.538  28.614  18.555  1.00  0.00     0.121 A 
ATOM     61  C   UNL     1      15.715  29.387  19.343  1.00  0.00     0.144 A 
ATOM     62  N   UNL     1      16.856  27.514  19.268  1.00  0.00    -0.131 NA
ATOM     63  N   UNL     1      15.577  28.716  20.488  1.00  0.00    -0.220 N 
ATOM     64  N   UNL     1      16.269  27.594  20.423  1.00  0.00    -0.062 NA
BRANCH  63  65
ATOM     65  C   UNL     1      14.800  29.159  21.601  1.00  0.00     0.067 A 
ATOM     66  C   UNL     1      13.424  29.184  21.543  1.00  0.00     0.030 A 
ATOM     67  C   UNL     1      15.419  29.575  22.758  1.00  0.00     0.040 A 
ATOM     68  C   UNL     1      12.680  29.614  22.613  1.00  0.00     0.030 A 
ATOM     69  C   UNL     1      14.648  30.008  23.834  1.00  0.00     0.022 A 
ATOM     70  C   UNL     1      13.265  30.039  23.790  1.00  0.00     0.065 A 
ATOM     71  C   UNL     1      15.027  30.463  25.076  1.00  0.00     0.143 A 
ATOM     72  N   UNL     1      12.828  30.500  24.975  1.00  0.00    -0.278 N 
ATOM     73  N   UNL     1      13.881  30.743  25.720  1.00  0.00    -0.183 NA
ATOM     74  H   UNL     1      11.817  30.629  25.226  1.00  0.00     0.190 HD
ENDBRANCH  63  65
ENDBRANCH  59  60
ENDBRANCH  58  59
ENDBRANCH  55  58
ENDBRANCH  53  54
ENDBRANCH  50  53
ENDBRANCH  47  50
ENDBRANCH   5  47
BRANCH   4  75
ATOM     75  N   UNL     1      23.742  24.903  19.483  1.00  0.00    -0.348 N 
ATOM     76  C   UNL     1      24.820  24.826  18.598  1.00  0.00     0.217 C 
ATOM     77  H   UNL     1      22.832  24.505  19.200  1.00  0.00     0.163 HD
ATOM     78  C   UNL     1      24.704  24.187  17.246  1.00  0.00     0.114 C 
ATOM     79  O   UNL     1      25.948  25.309  18.942  1.00  0.00    -0.275 OA
ENDBRANCH   4  75
TORSDOF 30
