REMARK VINA RESULT:    -5.330      8.104     13.227
REMARK INTER + INTRA:         -21.016
REMARK INTER:                 -14.577
REMARK INTRA:                  -6.439
REMARK UNBOUND:                -7.585
REMARK SMILES COc1ccc(-n2cc(COC(=O)NC[C@@H](O)C(O)[C@@H]3O[C@@](OC[C@H]4O[C@@H](O[C@H]5[C@H](O)[C@@H](O)[C@H](OCCN=[N+]=[N-])O[C@@H]5CO)[C@H](O)[C@@H](O)[C@H]4O)(C(=O)O)C[C@H](O)[C@H]3NC(C)=O)nn2)cc1
REMARK SMILES IDX 22 1 54 2 55 3 57 4 20 5 21 6 23 7 24 8 25 9 27 10 26 11
REMARK SMILES IDX 45 12 47 13 49 14 28 15 29 16 42 17 41 18 34 19 30 20 32 21
REMARK SMILES IDX 43 22 44 23 35 25 36 26 37 27 38 28 39 29 40 30 31 31 33 33
REMARK SMILES IDX 46 35 48 37 50 39 51 41 52 42 53 43 56 45 18 47 19 48 16 50
REMARK SMILES IDX 17 51 15 53 14 54 12 55 13 57 11 58 10 59 9 60 8 61 62 62
REMARK SMILES IDX 7 63 63 64 6 65 5 66 64 67 4 68 65 69 3 70 2 71 1 72 58 73
REMARK SMILES IDX 59 74 60 76 61 77
REMARK H PARENT 44 24 31 32 33 34 46 36 48 38 50 40 53 44 56 46 19 49 17 52
REMARK H PARENT 14 56 58 75
REMARK Flexibility Score: inf
ROOT
ATOM      1  C   UNL     1      15.379  29.712  16.889  1.00  0.00     0.272 C 
ATOM      2  C   UNL     1      14.284  29.606  15.895  1.00  0.00     0.113 C 
ATOM      3  C   UNL     1      14.665  29.279  14.505  1.00  0.00     0.145 C 
ATOM      4  C   UNL     1      16.141  29.680  14.309  1.00  0.00     0.142 C 
ATOM      5  C   UNL     1      16.360  30.925  15.093  1.00  0.00     0.178 C 
ATOM      6  O   UNL     1      16.405  30.563  16.438  1.00  0.00    -0.332 OA
ENDROOT
BRANCH   1   7
ATOM      7  O   UNL     1      15.914  28.713  17.518  1.00  0.00    -0.338 OA
BRANCH   7   8
ATOM      8  C   UNL     1      16.935  28.392  18.220  1.00  0.00     0.199 C 
BRANCH   8   9
ATOM      9  C   UNL     1      17.484  29.215  19.350  1.00  0.00     0.179 C 
ATOM     10  C   UNL     1      17.273  29.882  21.525  1.00  0.00     0.282 C 
ATOM     11  O   UNL     1      16.849  28.992  20.524  1.00  0.00    -0.341 OA
ATOM     12  C   UNL     1      18.735  29.801  21.828  1.00  0.00     0.202 C 
ATOM     13  C   UNL     1      19.576  29.164  20.786  1.00  0.00     0.179 C 
ATOM     14  C   UNL     1      18.989  29.132  19.433  1.00  0.00     0.177 C 
BRANCH  10  15
ATOM     15  O   UNL     1      16.550  29.575  22.674  1.00  0.00    -0.341 OA
BRANCH  15  16
ATOM     16  C   UNL     1      15.545  30.466  22.932  1.00  0.00     0.184 C 
ATOM     17  C   UNL     1      14.450  30.408  21.931  1.00  0.00     0.178 C 
ATOM     18  O   UNL     1      13.483  31.418  22.184  1.00  0.00    -0.341 OA
ATOM     19  C   UNL     1      14.124  32.638  21.843  1.00  0.00     0.281 C 
ATOM     20  C   UNL     1      16.155  31.879  22.941  1.00  0.00     0.180 C 
ATOM     21  C   UNL     1      15.053  32.900  23.032  1.00  0.00     0.202 C 
BRANCH  17  22
ATOM     22  C   UNL     1      13.764  29.068  21.919  1.00  0.00     0.191 C 
BRANCH  22  23
ATOM     23  O   UNL     1      14.185  28.354  20.811  1.00  0.00    -0.394 OA
ATOM     24  H   UNL     1      15.086  28.608  20.510  1.00  0.00     0.210 HD
ENDBRANCH  22  23
ENDBRANCH  17  22
BRANCH  19  25
ATOM     25  O   UNL     1      13.230  33.635  21.662  1.00  0.00    -0.350 OA
BRANCH  25  26
ATOM     26  C   UNL     1      12.921  34.050  20.405  1.00  0.00     0.169 C 
BRANCH  26  27
ATOM     27  C   UNL     1      13.991  34.733  19.621  1.00  0.00     0.119 C 
BRANCH  27  28
ATOM     28  N   UNL     1      14.114  34.334  18.251  1.00  0.00    -0.092 NA
ATOM     29  N   UNL     1      13.143  34.320  17.502  1.00  0.00     0.001 N 
ATOM     30  N   UNL     1      12.070  34.237  16.897  1.00  0.00    -0.003 NA
ENDBRANCH  27  28
ENDBRANCH  26  27
ENDBRANCH  25  26
ENDBRANCH  19  25
BRANCH  20  31
ATOM     31  O   UNL     1      17.041  31.973  23.998  1.00  0.00    -0.387 OA
ATOM     32  H   UNL     1      17.964  31.835  23.618  1.00  0.00     0.211 HD
ENDBRANCH  20  31
BRANCH  21  33
ATOM     33  O   UNL     1      15.561  34.172  22.900  1.00  0.00    -0.385 OA
ATOM     34  H   UNL     1      16.099  34.264  22.075  1.00  0.00     0.211 HD
ENDBRANCH  21  33
ENDBRANCH  15  16
ENDBRANCH  10  15
BRANCH  12  35
ATOM     35  O   UNL     1      19.282  31.073  22.068  1.00  0.00    -0.385 OA
ATOM     36  H   UNL     1      19.374  31.587  21.235  1.00  0.00     0.211 HD
ENDBRANCH  12  35
BRANCH  13  37
ATOM     37  O   UNL     1      20.030  27.917  21.229  1.00  0.00    -0.387 OA
ATOM     38  H   UNL     1      20.973  27.918  21.490  1.00  0.00     0.211 HD
ENDBRANCH  13  37
BRANCH  14  39
ATOM     39  O   UNL     1      19.482  28.014  18.756  1.00  0.00    -0.387 OA
ATOM     40  H   UNL     1      20.278  27.704  19.256  1.00  0.00     0.211 HD
ENDBRANCH  14  39
ENDBRANCH   8   9
ENDBRANCH   7   8
ENDBRANCH   1   7
BRANCH   1  41
ATOM     41  C   UNL     1      14.741  30.617  17.992  1.00  0.00     0.364 C 
ATOM     42  O   UNL     1      13.684  30.287  18.533  1.00  0.00    -0.246 OA
BRANCH  41  43
ATOM     43  O   UNL     1      15.425  31.766  18.302  1.00  0.00    -0.477 OA
ATOM     44  H   UNL     1      15.763  32.409  17.571  1.00  0.00     0.296 HD
ENDBRANCH  41  43
ENDBRANCH   1  41
BRANCH   3  45
ATOM     45  O   UNL     1      14.410  28.009  14.073  1.00  0.00    -0.391 OA
ATOM     46  H   UNL     1      13.884  27.931  13.246  1.00  0.00     0.211 HD
ENDBRANCH   3  45
BRANCH   5  47
ATOM     47  C   UNL     1      17.731  31.587  14.820  1.00  0.00     0.176 C 
BRANCH  47  48
ATOM     48  O   UNL     1      17.574  32.857  14.356  1.00  0.00    -0.388 OA
ATOM     49  H   UNL     1      18.323  33.084  13.757  1.00  0.00     0.211 HD
ENDBRANCH  47  48
BRANCH  47  50
ATOM     50  C   UNL     1      18.723  31.239  15.807  1.00  0.00     0.165 C 
BRANCH  50  51
ATOM     51  O   UNL     1      19.099  32.273  16.708  1.00  0.00    -0.388 OA
ATOM     52  H   UNL     1      19.666  32.877  16.189  1.00  0.00     0.211 HD
ENDBRANCH  50  51
BRANCH  50  53
ATOM     53  C   UNL     1      19.981  30.532  15.517  1.00  0.00     0.154 C 
BRANCH  53  54
ATOM     54  N   UNL     1      20.279  29.355  16.198  1.00  0.00    -0.319 N 
ATOM     55  C   UNL     1      21.051  28.283  15.729  1.00  0.00     0.407 C 
ATOM     56  H   UNL     1      19.881  29.238  17.193  1.00  0.00     0.167 HD
ATOM     57  O   UNL     1      21.585  28.296  14.608  1.00  0.00    -0.225 OA
BRANCH  55  58
ATOM     58  O   UNL     1      21.231  27.149  16.555  1.00  0.00    -0.443 OA
BRANCH  58  59
ATOM     59  C   UNL     1      22.546  26.826  16.928  1.00  0.00     0.294 C 
BRANCH  59  60
ATOM     60  C   UNL     1      22.529  25.980  18.145  1.00  0.00     0.121 A 
ATOM     61  C   UNL     1      22.497  26.345  19.477  1.00  0.00     0.144 A 
ATOM     62  N   UNL     1      22.525  24.633  18.127  1.00  0.00    -0.131 NA
ATOM     63  N   UNL     1      22.476  25.221  20.203  1.00  0.00    -0.220 N 
ATOM     64  N   UNL     1      22.494  24.188  19.354  1.00  0.00    -0.062 NA
BRANCH  63  65
ATOM     65  C   UNL     1      22.432  25.001  21.604  1.00  0.00     0.067 A 
ATOM     66  C   UNL     1      21.280  24.979  22.343  1.00  0.00     0.032 A 
ATOM     67  C   UNL     1      23.631  24.805  22.288  1.00  0.00     0.032 A 
ATOM     68  C   UNL     1      21.310  24.770  23.715  1.00  0.00     0.048 A 
ATOM     69  C   UNL     1      23.661  24.596  23.653  1.00  0.00     0.048 A 
ATOM     70  C   UNL     1      22.499  24.575  24.395  1.00  0.00     0.119 A 
BRANCH  70  71
ATOM     71  O   UNL     1      22.515  24.364  25.788  1.00  0.00    -0.497 OA
ATOM     72  C   UNL     1      22.350  25.521  26.621  1.00  0.00     0.278 C 
ENDBRANCH  70  71
ENDBRANCH  63  65
ENDBRANCH  59  60
ENDBRANCH  58  59
ENDBRANCH  55  58
ENDBRANCH  53  54
ENDBRANCH  50  53
ENDBRANCH  47  50
ENDBRANCH   5  47
BRANCH   4  73
ATOM     73  N   UNL     1      16.423  29.711  12.902  1.00  0.00    -0.348 N 
ATOM     74  C   UNL     1      17.650  29.219  12.385  1.00  0.00     0.217 C 
ATOM     75  H   UNL     1      15.707  30.071  12.247  1.00  0.00     0.163 HD
ATOM     76  C   UNL     1      17.918  29.264  10.924  1.00  0.00     0.114 C 
ATOM     77  O   UNL     1      18.551  28.733  13.119  1.00  0.00    -0.275 OA
ENDBRANCH   4  73
TORSDOF 31
