REMARK VINA RESULT:    -6.855      3.866      8.992
REMARK INTER + INTRA:         -22.466
REMARK INTER:                 -15.268
REMARK INTRA:                  -7.198
REMARK UNBOUND:                -5.593
REMARK SMILES CC(=O)N[C@@H]1[C@@H](O)C[C@](OC[C@H]2O[C@@H](O[C@H]3[C@H](O)[C@@H](O)[C@H](OCCN=[N+]=[N-])O[C@@H]3CO)[C@H](O)[C@@H](O)[C@H]2O)(C(=O)O)O[C@H]1C(O)[C@H](O)CNC(=O)OCc1cn(C2c3ccccc3-c3ccccc32)nn1
REMARK SMILES IDX 9 1 8 2 6 3 5 4 42 5 41 6 10 7 11 8 12 9 14 10 13 11 32 12
REMARK SMILES IDX 34 13 36 14 15 15 16 16 29 17 28 18 21 19 17 20 19 21 30 22
REMARK SMILES IDX 31 23 22 25 23 26 24 27 25 28 26 29 27 30 18 31 20 33 33 35
REMARK SMILES IDX 35 37 37 39 38 41 39 42 40 43 7 45 43 47 44 48 45 50 46 51
REMARK SMILES IDX 47 53 48 54 49 55 50 57 51 58 52 59 53 60 54 61 70 62 55 63
REMARK SMILES IDX 69 64 56 65 57 66 68 67 58 68 62 69 63 70 67 71 59 72 61 73
REMARK SMILES IDX 64 74 66 75 60 76 65 77 4 78 2 79 1 81 3 82
REMARK H PARENT 31 24 18 32 20 34 33 36 35 38 37 40 40 44 7 46 44 49 46 52
REMARK H PARENT 48 56 4 80
REMARK Flexibility Score: inf
ROOT
ATOM      1  C   UNL     1      20.365  28.472  20.900  1.00  0.00     0.272 C 
ATOM      2  C   UNL     1      21.310  29.035  19.918  1.00  0.00     0.113 C 
ATOM      3  C   UNL     1      21.934  28.006  19.054  1.00  0.00     0.145 C 
ATOM      4  C   UNL     1      21.898  26.618  19.631  1.00  0.00     0.142 C 
ATOM      5  C   UNL     1      21.896  26.712  21.117  1.00  0.00     0.178 C 
ATOM      6  O   UNL     1      20.912  27.451  21.692  1.00  0.00    -0.332 OA
ENDROOT
BRANCH   1   7
ATOM      7  O   UNL     1      19.208  28.001  20.338  1.00  0.00    -0.338 OA
BRANCH   7   8
ATOM      8  C   UNL     1      18.300  28.934  19.918  1.00  0.00     0.199 C 
BRANCH   8   9
ATOM      9  C   UNL     1      16.947  28.287  19.722  1.00  0.00     0.179 C 
ATOM     10  C   UNL     1      15.791  30.092  20.672  1.00  0.00     0.282 C 
ATOM     11  O   UNL     1      16.100  28.761  20.697  1.00  0.00    -0.341 OA
ATOM     12  C   UNL     1      15.460  30.545  19.302  1.00  0.00     0.202 C 
ATOM     13  C   UNL     1      15.042  29.275  18.535  1.00  0.00     0.179 C 
ATOM     14  C   UNL     1      16.382  28.530  18.349  1.00  0.00     0.177 C 
BRANCH  10  15
ATOM     15  O   UNL     1      16.678  30.840  21.398  1.00  0.00    -0.341 OA
BRANCH  15  16
ATOM     16  C   UNL     1      16.216  31.390  22.563  1.00  0.00     0.184 C 
ATOM     17  C   UNL     1      16.392  32.862  22.565  1.00  0.00     0.178 C 
ATOM     18  O   UNL     1      16.783  33.372  23.798  1.00  0.00    -0.341 OA
ATOM     19  C   UNL     1      16.279  32.696  24.861  1.00  0.00     0.281 C 
ATOM     20  C   UNL     1      17.023  30.700  23.660  1.00  0.00     0.180 C 
ATOM     21  C   UNL     1      17.027  31.372  24.969  1.00  0.00     0.202 C 
BRANCH  17  22
ATOM     22  C   UNL     1      15.124  33.587  22.168  1.00  0.00     0.191 C 
BRANCH  22  23
ATOM     23  O   UNL     1      14.063  32.667  21.991  1.00  0.00    -0.394 OA
ATOM     24  H   UNL     1      13.451  32.998  21.266  1.00  0.00     0.210 HD
ENDBRANCH  22  23
ENDBRANCH  17  22
BRANCH  19  25
ATOM     25  O   UNL     1      14.933  32.386  24.820  1.00  0.00    -0.350 OA
BRANCH  25  26
ATOM     26  C   UNL     1      14.507  31.580  25.837  1.00  0.00     0.169 C 
BRANCH  26  27
ATOM     27  C   UNL     1      13.300  30.748  25.571  1.00  0.00     0.119 C 
BRANCH  27  28
ATOM     28  N   UNL     1      13.546  29.659  24.647  1.00  0.00    -0.092 NA
ATOM     29  N   UNL     1      13.130  29.815  23.492  1.00  0.00     0.001 N 
ATOM     30  N   UNL     1      12.654  29.851  22.351  1.00  0.00    -0.003 NA
ENDBRANCH  27  28
ENDBRANCH  26  27
ENDBRANCH  25  26
ENDBRANCH  19  25
BRANCH  20  31
ATOM     31  O   UNL     1      16.513  29.387  23.845  1.00  0.00    -0.387 OA
ATOM     32  H   UNL     1      17.171  28.717  23.529  1.00  0.00     0.211 HD
ENDBRANCH  20  31
BRANCH  21  33
ATOM     33  O   UNL     1      18.338  31.682  25.355  1.00  0.00    -0.385 OA
ATOM     34  H   UNL     1      18.704  31.038  26.015  1.00  0.00     0.211 HD
ENDBRANCH  21  33
ENDBRANCH  15  16
ENDBRANCH  10  15
BRANCH  12  35
ATOM     35  O   UNL     1      14.346  31.380  19.244  1.00  0.00    -0.385 OA
ATOM     36  H   UNL     1      13.652  30.939  18.699  1.00  0.00     0.211 HD
ENDBRANCH  12  35
BRANCH  13  37
ATOM     37  O   UNL     1      14.572  29.573  17.278  1.00  0.00    -0.387 OA
ATOM     38  H   UNL     1      14.186  28.753  16.884  1.00  0.00     0.211 HD
ENDBRANCH  13  37
BRANCH  14  39
ATOM     39  O   UNL     1      17.202  29.407  17.664  1.00  0.00    -0.387 OA
ATOM     40  H   UNL     1      17.006  30.355  17.866  1.00  0.00     0.211 HD
ENDBRANCH  14  39
ENDBRANCH   8   9
ENDBRANCH   7   8
ENDBRANCH   1   7
BRANCH   1  41
ATOM     41  C   UNL     1      20.017  29.525  21.952  1.00  0.00     0.364 C 
ATOM     42  O   UNL     1      19.586  29.128  23.039  1.00  0.00    -0.246 OA
BRANCH  41  43
ATOM     43  O   UNL     1      20.173  30.867  21.708  1.00  0.00    -0.477 OA
ATOM     44  H   UNL     1      20.790  31.449  22.288  1.00  0.00     0.296 HD
ENDBRANCH  41  43
ENDBRANCH   1  41
BRANCH   3  45
ATOM     45  O   UNL     1      21.451  27.964  17.746  1.00  0.00    -0.391 OA
ATOM     46  H   UNL     1      20.582  27.544  17.670  1.00  0.00     0.211 HD
ENDBRANCH   3  45
BRANCH   5  47
ATOM     47  C   UNL     1      21.844  25.299  21.693  1.00  0.00     0.176 C 
BRANCH  47  48
ATOM     48  O   UNL     1      20.653  25.115  22.346  1.00  0.00    -0.388 OA
ATOM     49  H   UNL     1      20.793  24.962  23.328  1.00  0.00     0.211 HD
ENDBRANCH  47  48
BRANCH  47  50
ATOM     50  C   UNL     1      23.022  25.120  22.603  1.00  0.00     0.165 C 
BRANCH  50  51
ATOM     51  O   UNL     1      23.680  23.918  22.291  1.00  0.00    -0.388 OA
ATOM     52  H   UNL     1      23.601  23.277  23.032  1.00  0.00     0.211 HD
ENDBRANCH  50  51
BRANCH  50  53
ATOM     53  C   UNL     1      22.462  24.911  24.015  1.00  0.00     0.154 C 
BRANCH  53  54
ATOM     54  N   UNL     1      22.676  26.115  24.758  1.00  0.00    -0.319 N 
ATOM     55  C   UNL     1      21.587  26.906  25.179  1.00  0.00     0.407 C 
ATOM     56  H   UNL     1      23.653  26.413  24.994  1.00  0.00     0.167 HD
ATOM     57  O   UNL     1      20.402  26.583  24.906  1.00  0.00    -0.225 OA
BRANCH  55  58
ATOM     58  O   UNL     1      21.764  28.064  25.908  1.00  0.00    -0.443 OA
BRANCH  58  59
ATOM     59  C   UNL     1      21.882  28.076  27.323  1.00  0.00     0.294 C 
BRANCH  59  60
ATOM     60  C   UNL     1      20.863  29.022  27.844  1.00  0.00     0.120 A 
ATOM     61  C   UNL     1      20.420  29.171  29.152  1.00  0.00     0.139 A 
ATOM     62  N   UNL     1      20.173  29.926  27.132  1.00  0.00    -0.132 NA
ATOM     63  N   UNL     1      19.494  30.142  29.193  1.00  0.00    -0.240 N 
ATOM     64  N   UNL     1      19.367  30.580  27.951  1.00  0.00    -0.066 NA
BRANCH  63  65
ATOM     65  C   UNL     1      18.775  30.618  30.376  1.00  0.00     0.170 C 
ATOM     66  C   UNL     1      19.098  29.729  31.496  1.00  0.00    -0.011 A 
ATOM     67  C   UNL     1      17.321  30.452  30.196  1.00  0.00    -0.011 A 
ATOM     68  C   UNL     1      20.295  29.444  32.140  1.00  0.00     0.007 A 
ATOM     69  C   UNL     1      17.976  29.089  31.950  1.00  0.00    -0.012 A 
ATOM     70  C   UNL     1      16.861  29.550  31.126  1.00  0.00    -0.012 A 
ATOM     71  C   UNL     1      16.415  31.014  29.317  1.00  0.00     0.007 A 
ATOM     72  C   UNL     1      20.337  28.554  33.189  1.00  0.00     0.000 A 
ATOM     73  C   UNL     1      18.020  28.192  33.007  1.00  0.00     0.009 A 
ATOM     74  C   UNL     1      15.529  29.208  31.186  1.00  0.00     0.009 A 
ATOM     75  C   UNL     1      15.079  30.685  29.360  1.00  0.00     0.000 A 
ATOM     76  C   UNL     1      19.201  27.905  33.650  1.00  0.00     0.001 A 
ATOM     77  C   UNL     1      14.634  29.779  30.299  1.00  0.00     0.001 A 
ENDBRANCH  63  65
ENDBRANCH  59  60
ENDBRANCH  58  59
ENDBRANCH  55  58
ENDBRANCH  53  54
ENDBRANCH  50  53
ENDBRANCH  47  50
ENDBRANCH   5  47
BRANCH   4  78
ATOM     78  N   UNL     1      23.181  25.987  19.263  1.00  0.00    -0.348 N 
ATOM     79  C   UNL     1      23.297  25.143  18.130  1.00  0.00     0.217 C 
ATOM     80  H   UNL     1      23.996  26.179  19.862  1.00  0.00     0.163 HD
ATOM     81  C   UNL     1      24.605  24.510  17.770  1.00  0.00     0.114 C 
ATOM     82  O   UNL     1      22.264  24.942  17.432  1.00  0.00    -0.275 OA
ENDBRANCH   4  78
TORSDOF 30
