REMARK VINA RESULT:    -5.504     13.374     19.880
REMARK INTER + INTRA:         -20.316
REMARK INTER:                 -13.554
REMARK INTRA:                  -6.762
REMARK UNBOUND:                -6.769
REMARK SMILES CC(=O)N[C@@H]1[C@@H](O)C[C@](OC[C@H]2O[C@@H](O[C@H]3[C@H](O)[C@@H](O)[C@H](OCCN=[N+]=[N-])O[C@@H]3CO)[C@H](O)[C@@H](O)[C@H]2O)(C(=O)O)O[C@H]1C(O)[C@H](O)CNC(=O)OCc1cn(-c2cccnc2)nn1
REMARK SMILES IDX 9 1 8 2 6 3 5 4 42 5 41 6 10 7 11 8 12 9 14 10 13 11 32 12
REMARK SMILES IDX 34 13 36 14 15 15 16 16 29 17 28 18 21 19 17 20 19 21 30 22
REMARK SMILES IDX 31 23 22 25 23 26 24 27 25 28 26 29 27 30 18 31 20 33 33 35
REMARK SMILES IDX 35 37 37 39 38 41 39 42 40 43 7 45 43 47 44 48 45 50 46 51
REMARK SMILES IDX 47 53 48 54 49 55 50 57 51 58 52 59 53 60 54 61 63 62 55 63
REMARK SMILES IDX 62 64 56 65 57 66 61 67 58 68 60 69 59 70 4 71 2 72 1 74
REMARK SMILES IDX 3 75
REMARK H PARENT 31 24 18 32 20 34 33 36 35 38 37 40 40 44 7 46 44 49 46 52
REMARK H PARENT 48 56 4 73
REMARK Flexibility Score: inf
ROOT
ATOM      1  C   UNL     1       2.947  23.193  31.988  1.00  0.00     0.272 C 
ATOM      2  C   UNL     1       4.031  22.485  31.282  1.00  0.00     0.113 C 
ATOM      3  C   UNL     1       3.857  21.007  31.321  1.00  0.00     0.145 C 
ATOM      4  C   UNL     1       2.432  20.548  31.145  1.00  0.00     0.142 C 
ATOM      5  C   UNL     1       1.468  21.665  30.959  1.00  0.00     0.178 C 
ATOM      6  O   UNL     1       1.659  22.704  31.858  1.00  0.00    -0.332 OA
ENDROOT
BRANCH   1   7
ATOM      7  O   UNL     1       2.849  24.530  31.605  1.00  0.00    -0.338 OA
BRANCH   7   8
ATOM      8  C   UNL     1       1.627  25.114  31.710  1.00  0.00     0.199 C 
BRANCH   8   9
ATOM      9  C   UNL     1       1.860  26.636  31.761  1.00  0.00     0.179 C 
ATOM     10  C   UNL     1       1.186  27.067  29.559  1.00  0.00     0.282 C 
ATOM     11  O   UNL     1       2.155  27.105  30.539  1.00  0.00    -0.341 OA
ATOM     12  C   UNL     1      -0.133  27.481  30.116  1.00  0.00     0.202 C 
ATOM     13  C   UNL     1       0.138  28.291  31.393  1.00  0.00     0.179 C 
ATOM     14  C   UNL     1       0.704  27.347  32.442  1.00  0.00     0.177 C 
BRANCH  10  15
ATOM     15  O   UNL     1       1.210  25.777  29.032  1.00  0.00    -0.341 OA
BRANCH  15  16
ATOM     16  C   UNL     1       2.000  25.628  27.940  1.00  0.00     0.184 C 
ATOM     17  C   UNL     1       1.331  25.091  26.712  1.00  0.00     0.178 C 
ATOM     18  O   UNL     1       2.069  25.529  25.612  1.00  0.00    -0.341 OA
ATOM     19  C   UNL     1       3.444  25.403  25.777  1.00  0.00     0.281 C 
ATOM     20  C   UNL     1       3.180  24.688  28.170  1.00  0.00     0.180 C 
ATOM     21  C   UNL     1       3.825  24.372  26.814  1.00  0.00     0.202 C 
BRANCH  17  22
ATOM     22  C   UNL     1      -0.097  25.448  26.524  1.00  0.00     0.191 C 
BRANCH  22  23
ATOM     23  O   UNL     1      -0.939  24.697  27.300  1.00  0.00    -0.394 OA
ATOM     24  H   UNL     1      -1.833  25.123  27.276  1.00  0.00     0.210 HD
ENDBRANCH  22  23
ENDBRANCH  17  22
BRANCH  19  25
ATOM     25  O   UNL     1       4.071  26.580  26.066  1.00  0.00    -0.350 OA
BRANCH  25  26
ATOM     26  C   UNL     1       5.104  26.999  25.307  1.00  0.00     0.169 C 
BRANCH  26  27
ATOM     27  C   UNL     1       6.469  26.996  25.900  1.00  0.00     0.119 C 
BRANCH  27  28
ATOM     28  N   UNL     1       7.472  26.261  25.209  1.00  0.00    -0.092 NA
ATOM     29  N   UNL     1       8.691  26.502  25.334  1.00  0.00     0.001 N 
ATOM     30  N   UNL     1       9.742  27.124  25.102  1.00  0.00    -0.003 NA
ENDBRANCH  27  28
ENDBRANCH  26  27
ENDBRANCH  25  26
ENDBRANCH  19  25
BRANCH  20  31
ATOM     31  O   UNL     1       4.140  25.335  28.935  1.00  0.00    -0.387 OA
ATOM     32  H   UNL     1       3.768  26.089  29.463  1.00  0.00     0.211 HD
ENDBRANCH  20  31
BRANCH  21  33
ATOM     33  O   UNL     1       3.499  23.091  26.375  1.00  0.00    -0.385 OA
ATOM     34  H   UNL     1       4.308  22.526  26.444  1.00  0.00     0.211 HD
ENDBRANCH  21  33
ENDBRANCH  15  16
ENDBRANCH  10  15
BRANCH  12  35
ATOM     35  O   UNL     1      -0.736  28.413  29.251  1.00  0.00    -0.385 OA
ATOM     36  H   UNL     1      -0.166  29.241  29.239  1.00  0.00     0.211 HD
ENDBRANCH  12  35
BRANCH  13  37
ATOM     37  O   UNL     1      -0.966  28.974  31.834  1.00  0.00    -0.387 OA
ATOM     38  H   UNL     1      -1.419  29.411  31.070  1.00  0.00     0.211 HD
ENDBRANCH  13  37
BRANCH  14  39
ATOM     39  O   UNL     1      -0.261  26.482  32.916  1.00  0.00    -0.387 OA
ATOM     40  H   UNL     1       0.011  26.199  33.829  1.00  0.00     0.211 HD
ENDBRANCH  14  39
ENDBRANCH   8   9
ENDBRANCH   7   8
ENDBRANCH   1   7
BRANCH   1  41
ATOM     41  C   UNL     1       3.308  23.192  33.460  1.00  0.00     0.364 C 
ATOM     42  O   UNL     1       2.464  22.786  34.276  1.00  0.00    -0.246 OA
BRANCH  41  43
ATOM     43  O   UNL     1       4.524  23.621  33.930  1.00  0.00    -0.477 OA
ATOM     44  H   UNL     1       5.387  23.093  33.885  1.00  0.00     0.296 HD
ENDBRANCH  41  43
ENDBRANCH   1  41
BRANCH   3  45
ATOM     45  O   UNL     1       4.667  20.486  30.285  1.00  0.00    -0.391 OA
ATOM     46  H   UNL     1       4.463  19.551  30.091  1.00  0.00     0.211 HD
ENDBRANCH   3  45
BRANCH   5  47
ATOM     47  C   UNL     1       1.304  22.153  29.559  1.00  0.00     0.176 C 
BRANCH  47  48
ATOM     48  O   UNL     1       0.121  22.936  29.514  1.00  0.00    -0.388 OA
ATOM     49  H   UNL     1      -0.538  22.547  30.153  1.00  0.00     0.211 HD
ENDBRANCH  47  48
BRANCH  47  50
ATOM     50  C   UNL     1       1.147  21.115  28.494  1.00  0.00     0.165 C 
BRANCH  50  51
ATOM     51  O   UNL     1       2.479  21.100  27.894  1.00  0.00    -0.388 OA
ATOM     52  H   UNL     1       2.884  20.259  28.216  1.00  0.00     0.211 HD
ENDBRANCH  50  51
BRANCH  50  53
ATOM     53  C   UNL     1       0.286  21.497  27.334  1.00  0.00     0.154 C 
BRANCH  53  54
ATOM     54  N   UNL     1       0.830  21.301  26.029  1.00  0.00    -0.319 N 
ATOM     55  C   UNL     1       0.089  21.825  24.905  1.00  0.00     0.407 C 
ATOM     56  H   UNL     1       1.705  20.841  25.797  1.00  0.00     0.167 HD
ATOM     57  O   UNL     1      -0.982  22.422  25.136  1.00  0.00    -0.225 OA
BRANCH  55  58
ATOM     58  O   UNL     1       0.536  21.679  23.616  1.00  0.00    -0.443 OA
BRANCH  58  59
ATOM     59  C   UNL     1      -0.178  20.872  22.712  1.00  0.00     0.294 C 
BRANCH  59  60
ATOM     60  C   UNL     1       0.430  19.525  22.691  1.00  0.00     0.121 A 
ATOM     61  C   UNL     1       0.622  18.671  21.629  1.00  0.00     0.144 A 
ATOM     62  N   UNL     1       0.932  18.859  23.774  1.00  0.00    -0.131 NA
ATOM     63  N   UNL     1       1.215  17.548  22.066  1.00  0.00    -0.219 N 
ATOM     64  N   UNL     1       1.387  17.693  23.367  1.00  0.00    -0.062 NA
BRANCH  63  65
ATOM     65  C   UNL     1       1.623  16.377  21.367  1.00  0.00     0.085 A 
ATOM     66  C   UNL     1       2.335  16.425  20.187  1.00  0.00     0.031 A 
ATOM     67  C   UNL     1       1.311  15.118  21.846  1.00  0.00     0.139 A 
ATOM     68  C   UNL     1       2.712  15.278  19.525  1.00  0.00     0.022 A 
ATOM     69  N   UNL     1       1.688  13.996  21.184  1.00  0.00    -0.262 NA
ATOM     70  C   UNL     1       2.382  14.043  20.033  1.00  0.00     0.111 A 
ENDBRANCH  63  65
ENDBRANCH  59  60
ENDBRANCH  58  59
ENDBRANCH  55  58
ENDBRANCH  53  54
ENDBRANCH  50  53
ENDBRANCH  47  50
ENDBRANCH   5  47
BRANCH   4  71
ATOM     71  N   UNL     1       2.016  19.718  32.272  1.00  0.00    -0.348 N 
ATOM     72  C   UNL     1       2.087  18.304  32.282  1.00  0.00     0.217 C 
ATOM     73  H   UNL     1       1.634  20.166  33.150  1.00  0.00     0.163 HD
ATOM     74  C   UNL     1       1.642  17.495  33.461  1.00  0.00     0.114 C 
ATOM     75  O   UNL     1       2.535  17.685  31.280  1.00  0.00    -0.275 OA
ENDBRANCH   4  71
TORSDOF 30
