REMARK VINA RESULT:    -5.193      5.076      7.862
REMARK INTER + INTRA:         -20.083
REMARK INTER:                 -14.371
REMARK INTRA:                  -5.713
REMARK UNBOUND:                -6.390
REMARK SMILES CCOC(=O)Cn1cc(COC(=O)NC[C@@H](O)C(O)[C@@H]2O[C@@](OC[C@H]3O[C@@H](O[C@H]4[C@H](O)[C@@H](O)[C@H](OCCN=[N+]=[N-])O[C@@H]4CO)[C@H](O)[C@@H](O)[C@H]3O)(C(=O)O)C[C@H](O)[C@H]2NC(C)=O)nn1
REMARK SMILES IDX 18 1 20 2 22 3 54 4 21 5 55 6 57 7 23 8 24 9 25 10 27 11
REMARK SMILES IDX 26 12 45 13 47 14 49 15 28 16 29 17 42 18 41 19 34 20 30 21
REMARK SMILES IDX 32 22 43 23 44 24 35 26 36 27 37 28 38 29 39 30 40 31 31 32
REMARK SMILES IDX 33 34 46 36 48 38 50 40 51 42 52 43 53 44 56 46 58 48 59 49
REMARK SMILES IDX 60 51 61 52 19 53 16 55 17 56 15 58 14 59 12 60 13 62 11 63
REMARK SMILES IDX 10 64 9 65 8 66 62 67 7 68 63 69 6 70 4 71 5 72 3 73 2 74
REMARK SMILES IDX 1 75
REMARK H PARENT 44 25 31 33 33 35 46 37 48 39 50 41 53 45 56 47 58 50 19 54
REMARK H PARENT 17 57 14 61
REMARK Flexibility Score: inf
ROOT
ATOM      1  C   UNL     1      21.083  26.885  24.895  1.00  0.00     0.176 C 
ENDROOT
BRANCH   1   2
ATOM      2  C   UNL     1      21.575  26.190  26.134  1.00  0.00     0.178 C 
ATOM      3  C   UNL     1      22.665  26.624  28.157  1.00  0.00     0.272 C 
ATOM      4  C   UNL     1      22.787  25.139  28.178  1.00  0.00     0.113 C 
ATOM      5  O   UNL     1      21.756  27.066  27.172  1.00  0.00    -0.332 OA
ATOM      6  C   UNL     1      23.203  24.540  26.874  1.00  0.00     0.145 C 
ATOM      7  C   UNL     1      22.902  25.545  25.774  1.00  0.00     0.142 C 
BRANCH   3   8
ATOM      8  O   UNL     1      23.847  27.315  28.007  1.00  0.00    -0.338 OA
BRANCH   8   9
ATOM      9  C   UNL     1      23.795  28.597  27.577  1.00  0.00     0.199 C 
BRANCH   9  10
ATOM     10  C   UNL     1      25.238  29.127  27.468  1.00  0.00     0.179 C 
ATOM     11  C   UNL     1      27.407  28.753  28.201  1.00  0.00     0.282 C 
ATOM     12  O   UNL     1      26.058  28.541  28.379  1.00  0.00    -0.341 OA
ATOM     13  C   UNL     1      27.891  28.453  26.815  1.00  0.00     0.202 C 
ATOM     14  C   UNL     1      27.158  29.384  25.883  1.00  0.00     0.179 C 
ATOM     15  C   UNL     1      25.701  29.110  26.042  1.00  0.00     0.177 C 
BRANCH  11  16
ATOM     16  O   UNL     1      28.190  28.046  29.097  1.00  0.00    -0.341 OA
BRANCH  16  17
ATOM     17  C   UNL     1      27.532  27.558  30.196  1.00  0.00     0.184 C 
ATOM     18  C   UNL     1      27.465  28.543  31.344  1.00  0.00     0.178 C 
ATOM     19  O   UNL     1      28.262  28.144  32.408  1.00  0.00    -0.341 OA
ATOM     20  C   UNL     1      27.792  26.951  33.003  1.00  0.00     0.281 C 
ATOM     21  C   UNL     1      28.236  26.294  30.689  1.00  0.00     0.180 C 
ATOM     22  C   UNL     1      27.535  25.892  31.978  1.00  0.00     0.202 C 
BRANCH  18  23
ATOM     23  C   UNL     1      26.029  28.798  31.724  1.00  0.00     0.191 C 
BRANCH  23  24
ATOM     24  O   UNL     1      25.154  28.086  30.883  1.00  0.00    -0.394 OA
ATOM     25  H   UNL     1      24.220  28.250  31.120  1.00  0.00     0.210 HD
ENDBRANCH  23  24
ENDBRANCH  18  23
BRANCH  20  26
ATOM     26  O   UNL     1      26.700  27.200  33.791  1.00  0.00    -0.350 OA
BRANCH  26  27
ATOM     27  C   UNL     1      26.368  26.344  34.786  1.00  0.00     0.169 C 
BRANCH  27  28
ATOM     28  C   UNL     1      27.335  26.081  35.879  1.00  0.00     0.119 C 
BRANCH  28  29
ATOM     29  N   UNL     1      27.651  24.723  36.166  1.00  0.00    -0.092 NA
ATOM     30  N   UNL     1      28.769  24.245  35.881  1.00  0.00     0.001 N 
ATOM     31  N   UNL     1      29.981  24.033  35.703  1.00  0.00    -0.003 NA
ENDBRANCH  28  29
ENDBRANCH  27  28
ENDBRANCH  26  27
ENDBRANCH  20  26
BRANCH  21  32
ATOM     32  O   UNL     1      28.086  25.284  29.735  1.00  0.00    -0.387 OA
ATOM     33  H   UNL     1      27.167  24.896  29.870  1.00  0.00     0.211 HD
ENDBRANCH  21  32
BRANCH  22  34
ATOM     34  O   UNL     1      27.984  24.628  32.372  1.00  0.00    -0.385 OA
ATOM     35  H   UNL     1      28.847  24.371  31.962  1.00  0.00     0.211 HD
ENDBRANCH  22  34
ENDBRANCH  16  17
ENDBRANCH  11  16
BRANCH  13  36
ATOM     36  O   UNL     1      29.258  28.692  26.759  1.00  0.00    -0.385 OA
ATOM     37  H   UNL     1      29.643  29.104  27.547  1.00  0.00     0.211 HD
ENDBRANCH  13  36
BRANCH  14  38
ATOM     38  O   UNL     1      27.548  29.064  24.563  1.00  0.00    -0.387 OA
ATOM     39  H   UNL     1      27.619  28.083  24.456  1.00  0.00     0.211 HD
ENDBRANCH  14  38
BRANCH  15  40
ATOM     40  O   UNL     1      25.438  27.861  25.431  1.00  0.00    -0.387 OA
ATOM     41  H   UNL     1      25.759  27.191  26.096  1.00  0.00     0.211 HD
ENDBRANCH  15  40
ENDBRANCH   9  10
ENDBRANCH   8   9
ENDBRANCH   3   8
BRANCH   3  42
ATOM     42  C   UNL     1      22.022  27.036  29.428  1.00  0.00     0.364 C 
ATOM     43  O   UNL     1      22.615  26.838  30.512  1.00  0.00    -0.246 OA
BRANCH  42  44
ATOM     44  O   UNL     1      20.790  27.627  29.431  1.00  0.00    -0.477 OA
ATOM     45  H   UNL     1      20.063  27.367  30.093  1.00  0.00     0.296 HD
ENDBRANCH  42  44
ENDBRANCH   3  42
BRANCH   6  46
ATOM     46  O   UNL     1      24.501  24.091  26.826  1.00  0.00    -0.391 OA
ATOM     47  H   UNL     1      24.895  24.157  27.741  1.00  0.00     0.211 HD
ENDBRANCH   6  46
BRANCH   7  48
ATOM     48  N   UNL     1      22.835  24.885  24.477  1.00  0.00    -0.348 N 
ATOM     49  C   UNL     1      23.948  24.823  23.605  1.00  0.00     0.217 C 
ATOM     50  H   UNL     1      21.945  24.445  24.189  1.00  0.00     0.163 HD
ATOM     51  C   UNL     1      23.892  24.150  22.273  1.00  0.00     0.114 C 
ATOM     52  O   UNL     1      25.025  25.362  23.979  1.00  0.00    -0.275 OA
ENDBRANCH   7  48
ENDBRANCH   1   2
BRANCH   1  53
ATOM     53  O   UNL     1      19.705  26.971  24.898  1.00  0.00    -0.388 OA
ATOM     54  H   UNL     1      19.338  27.498  24.131  1.00  0.00     0.211 HD
ENDBRANCH   1  53
BRANCH   1  55
ATOM     55  C   UNL     1      21.658  28.280  24.727  1.00  0.00     0.165 C 
BRANCH  55  56
ATOM     56  O   UNL     1      20.796  29.270  25.135  1.00  0.00    -0.388 OA
ATOM     57  H   UNL     1      19.843  29.049  25.015  1.00  0.00     0.211 HD
ENDBRANCH  55  56
BRANCH  55  58
ATOM     58  C   UNL     1      22.064  28.456  23.302  1.00  0.00     0.154 C 
BRANCH  58  59
ATOM     59  N   UNL     1      20.986  28.586  22.387  1.00  0.00    -0.319 N 
ATOM     60  C   UNL     1      20.779  27.777  21.237  1.00  0.00     0.407 C 
ATOM     61  H   UNL     1      20.239  29.350  22.539  1.00  0.00     0.167 HD
ATOM     62  O   UNL     1      21.552  26.853  20.934  1.00  0.00    -0.225 OA
BRANCH  60  63
ATOM     63  O   UNL     1      19.664  28.025  20.418  1.00  0.00    -0.443 OA
BRANCH  63  64
ATOM     64  C   UNL     1      18.924  29.193  20.554  1.00  0.00     0.294 C 
BRANCH  64  65
ATOM     65  C   UNL     1      17.464  28.996  20.476  1.00  0.00     0.120 A 
ATOM     66  C   UNL     1      16.500  29.986  20.495  1.00  0.00     0.139 A 
ATOM     67  N   UNL     1      16.788  27.843  20.384  1.00  0.00    -0.132 NA
ATOM     68  N   UNL     1      15.273  29.417  20.417  1.00  0.00    -0.241 N 
ATOM     69  N   UNL     1      15.487  28.121  20.349  1.00  0.00    -0.066 NA
BRANCH  68  70
ATOM     70  C   UNL     1      14.016  30.155  20.417  1.00  0.00     0.268 C 
BRANCH  70  71
ATOM     71  C   UNL     1      13.653  30.416  21.856  1.00  0.00     0.327 C 
ATOM     72  O   UNL     1      14.390  31.072  22.617  1.00  0.00    -0.250 OA
BRANCH  71  73
ATOM     73  O   UNL     1      12.474  29.931  22.394  1.00  0.00    -0.465 OA
BRANCH  73  74
ATOM     74  C   UNL     1      11.924  30.343  23.612  1.00  0.00     0.229 C 
ATOM     75  C   UNL     1      11.126  29.259  24.294  1.00  0.00     0.049 C 
ENDBRANCH  73  74
ENDBRANCH  71  73
ENDBRANCH  70  71
ENDBRANCH  68  70
ENDBRANCH  64  65
ENDBRANCH  63  64
ENDBRANCH  60  63
ENDBRANCH  58  59
ENDBRANCH  55  58
ENDBRANCH   1  55
TORSDOF 33
