REMARK VINA RESULT:    -6.935      9.342     15.525
REMARK INTER + INTRA:         -22.297
REMARK INTER:                 -17.268
REMARK INTRA:                  -5.030
REMARK UNBOUND:                -4.822
REMARK SMILES CC(=O)N[C@@H]1[C@@H](O)C[C@](OC[C@H]2O[C@@H](O[C@H]3[C@H](O)[C@@H](O)[C@H](OCCN=[N+]=[N-])O[C@@H]3CO)[C@H](O)[C@@H](O)[C@H]2O)(C(=O)O)O[C@H]1C(O)[C@H](O)CNC(=O)OCc1cn(Cc2ccccc2Br)nn1
REMARK SMILES IDX 9 1 8 2 6 3 5 4 42 5 41 6 10 7 11 8 12 9 14 10 13 11 32 12
REMARK SMILES IDX 34 13 36 14 15 15 16 16 29 17 28 18 21 19 17 20 19 21 30 22
REMARK SMILES IDX 31 23 22 25 23 26 24 27 25 28 26 29 27 30 18 31 20 33 33 35
REMARK SMILES IDX 35 37 37 39 38 41 39 42 40 43 7 45 43 47 44 48 45 50 46 51
REMARK SMILES IDX 47 53 48 54 49 55 50 57 51 58 52 59 53 60 54 61 65 62 55 63
REMARK SMILES IDX 64 64 56 65 57 66 58 67 62 68 59 69 61 70 63 71 60 72 4 73
REMARK SMILES IDX 2 74 1 76 3 77
REMARK H PARENT 31 24 18 32 20 34 33 36 35 38 37 40 40 44 7 46 44 49 46 52
REMARK H PARENT 48 56 4 75
REMARK Flexibility Score: inf
ROOT
ATOM      1  C   UNL     1      13.054  31.397  23.511  1.00  0.00     0.272 C 
ATOM      2  C   UNL     1      12.718  32.700  24.120  1.00  0.00     0.113 C 
ATOM      3  C   UNL     1      12.553  32.590  25.594  1.00  0.00     0.145 C 
ATOM      4  C   UNL     1      13.808  32.022  26.193  1.00  0.00     0.142 C 
ATOM      5  C   UNL     1      14.489  31.020  25.344  1.00  0.00     0.178 C 
ATOM      6  O   UNL     1      14.422  31.153  24.002  1.00  0.00    -0.332 OA
ENDROOT
BRANCH   1   7
ATOM      7  O   UNL     1      13.195  31.393  22.173  1.00  0.00    -0.338 OA
BRANCH   7   8
ATOM      8  C   UNL     1      12.898  30.492  21.293  1.00  0.00     0.199 C 
BRANCH   8   9
ATOM      9  C   UNL     1      13.757  29.716  20.396  1.00  0.00     0.179 C 
ATOM     10  C   UNL     1      14.810  29.442  18.377  1.00  0.00     0.282 C 
ATOM     11  O   UNL     1      14.338  30.390  19.317  1.00  0.00    -0.341 OA
ATOM     12  C   UNL     1      16.102  28.909  18.933  1.00  0.00     0.202 C 
ATOM     13  C   UNL     1      15.947  28.461  20.345  1.00  0.00     0.179 C 
ATOM     14  C   UNL     1      14.583  28.616  20.956  1.00  0.00     0.177 C 
BRANCH  10  15
ATOM     15  O   UNL     1      14.959  30.107  17.197  1.00  0.00    -0.341 OA
BRANCH  15  16
ATOM     16  C   UNL     1      14.263  29.661  16.115  1.00  0.00     0.184 C 
ATOM     17  C   UNL     1      14.613  30.276  14.805  1.00  0.00     0.178 C 
ATOM     18  O   UNL     1      13.435  30.675  14.181  1.00  0.00    -0.341 OA
ATOM     19  C   UNL     1      12.892  31.699  14.998  1.00  0.00     0.281 C 
ATOM     20  C   UNL     1      12.757  29.678  16.325  1.00  0.00     0.180 C 
ATOM     21  C   UNL     1      12.204  31.083  16.187  1.00  0.00     0.202 C 
BRANCH  17  22
ATOM     22  C   UNL     1      15.283  29.282  13.859  1.00  0.00     0.191 C 
BRANCH  22  23
ATOM     23  O   UNL     1      14.765  28.000  14.050  1.00  0.00    -0.394 OA
ATOM     24  H   UNL     1      13.848  27.909  13.703  1.00  0.00     0.210 HD
ENDBRANCH  22  23
ENDBRANCH  17  22
BRANCH  19  25
ATOM     25  O   UNL     1      12.032  32.422  14.177  1.00  0.00    -0.350 OA
BRANCH  25  26
ATOM     26  C   UNL     1      11.691  31.708  13.028  1.00  0.00     0.169 C 
BRANCH  26  27
ATOM     27  C   UNL     1      10.186  31.508  13.037  1.00  0.00     0.119 C 
BRANCH  27  28
ATOM     28  N   UNL     1       9.907  30.243  13.668  1.00  0.00    -0.092 NA
ATOM     29  N   UNL     1       9.499  29.272  13.023  1.00  0.00     0.001 N 
ATOM     30  N   UNL     1       8.710  28.548  12.381  1.00  0.00    -0.003 NA
ENDBRANCH  27  28
ENDBRANCH  26  27
ENDBRANCH  25  26
ENDBRANCH  19  25
BRANCH  20  31
ATOM     31  O   UNL     1      12.112  28.910  15.353  1.00  0.00    -0.387 OA
ATOM     32  H   UNL     1      12.599  28.040  15.316  1.00  0.00     0.211 HD
ENDBRANCH  20  31
BRANCH  21  33
ATOM     33  O   UNL     1      12.302  31.819  17.339  1.00  0.00    -0.385 OA
ATOM     34  H   UNL     1      11.741  32.626  17.265  1.00  0.00     0.211 HD
ENDBRANCH  21  33
ENDBRANCH  15  16
ENDBRANCH  10  15
BRANCH  12  35
ATOM     35  O   UNL     1      16.543  27.790  18.209  1.00  0.00    -0.385 OA
ATOM     36  H   UNL     1      16.061  27.802  17.352  1.00  0.00     0.211 HD
ENDBRANCH  12  35
BRANCH  13  37
ATOM     37  O   UNL     1      16.862  29.159  21.146  1.00  0.00    -0.387 OA
ATOM     38  H   UNL     1      17.717  29.305  20.693  1.00  0.00     0.211 HD
ENDBRANCH  13  37
BRANCH  14  39
ATOM     39  O   UNL     1      14.771  28.719  22.326  1.00  0.00    -0.387 OA
ATOM     40  H   UNL     1      14.101  28.298  22.884  1.00  0.00     0.211 HD
ENDBRANCH  14  39
ENDBRANCH   8   9
ENDBRANCH   7   8
ENDBRANCH   1   7
BRANCH   1  41
ATOM     41  C   UNL     1      12.373  30.194  24.033  1.00  0.00     0.364 C 
ATOM     42  O   UNL     1      11.140  30.049  24.197  1.00  0.00    -0.246 OA
BRANCH  41  43
ATOM     43  O   UNL     1      13.143  29.101  24.394  1.00  0.00    -0.477 OA
ATOM     44  H   UNL     1      13.355  28.889  25.369  1.00  0.00     0.296 HD
ENDBRANCH  41  43
ENDBRANCH   1  41
BRANCH   3  45
ATOM     45  O   UNL     1      12.415  33.939  26.057  1.00  0.00    -0.391 OA
ATOM     46  H   UNL     1      12.892  34.063  26.901  1.00  0.00     0.211 HD
ENDBRANCH   3  45
BRANCH   5  47
ATOM     47  C   UNL     1      15.978  30.977  25.702  1.00  0.00     0.176 C 
BRANCH  47  48
ATOM     48  O   UNL     1      16.270  32.147  26.387  1.00  0.00    -0.388 OA
ATOM     49  H   UNL     1      15.776  32.247  27.220  1.00  0.00     0.211 HD
ENDBRANCH  47  48
BRANCH  47  50
ATOM     50  C   UNL     1      16.855  30.870  24.505  1.00  0.00     0.165 C 
BRANCH  50  51
ATOM     51  O   UNL     1      16.889  29.561  23.992  1.00  0.00    -0.388 OA
ATOM     52  H   UNL     1      16.184  29.009  24.416  1.00  0.00     0.211 HD
ENDBRANCH  50  51
BRANCH  50  53
ATOM     53  C   UNL     1      18.281  31.201  24.861  1.00  0.00     0.154 C 
BRANCH  53  54
ATOM     54  N   UNL     1      19.147  30.953  23.763  1.00  0.00    -0.319 N 
ATOM     55  C   UNL     1      19.941  29.796  23.624  1.00  0.00     0.407 C 
ATOM     56  H   UNL     1      19.195  31.691  23.001  1.00  0.00     0.167 HD
ATOM     57  O   UNL     1      19.929  28.884  24.489  1.00  0.00    -0.225 OA
BRANCH  55  58
ATOM     58  O   UNL     1      20.777  29.614  22.515  1.00  0.00    -0.443 OA
BRANCH  58  59
ATOM     59  C   UNL     1      20.306  29.054  21.318  1.00  0.00     0.294 C 
BRANCH  59  60
ATOM     60  C   UNL     1      20.899  27.739  20.986  1.00  0.00     0.120 A 
ATOM     61  C   UNL     1      21.188  26.749  21.939  1.00  0.00     0.138 A 
ATOM     62  N   UNL     1      21.271  27.224  19.811  1.00  0.00    -0.132 NA
ATOM     63  N   UNL     1      21.709  25.706  21.304  1.00  0.00    -0.248 N 
ATOM     64  N   UNL     1      21.752  26.015  20.004  1.00  0.00    -0.067 NA
BRANCH  63  65
ATOM     65  C   UNL     1      22.159  24.423  21.844  1.00  0.00     0.182 C 
BRANCH  65  66
ATOM     66  C   UNL     1      22.681  24.514  23.224  1.00  0.00    -0.012 A 
ATOM     67  C   UNL     1      21.736  24.574  24.262  1.00  0.00     0.007 A 
ATOM     68  C   UNL     1      24.009  24.570  23.547  1.00  0.00     0.023 A 
ATOM     69  C   UNL     1      22.173  24.688  25.546  1.00  0.00     0.000 A 
ATOM     70  C   UNL     1      24.438  24.687  24.859  1.00  0.00     0.016 A 
ATOM     71  Br  UNL     1      25.337  24.432  22.196  1.00  0.00    -0.050 Br
ATOM     72  C   UNL     1      23.504  24.746  25.860  1.00  0.00     0.001 A 
ENDBRANCH  65  66
ENDBRANCH  63  65
ENDBRANCH  59  60
ENDBRANCH  58  59
ENDBRANCH  55  58
ENDBRANCH  53  54
ENDBRANCH  50  53
ENDBRANCH  47  50
ENDBRANCH   5  47
BRANCH   4  73
ATOM     73  N   UNL     1      13.498  31.458  27.481  1.00  0.00    -0.348 N 
ATOM     74  C   UNL     1      13.895  32.053  28.716  1.00  0.00     0.217 C 
ATOM     75  H   UNL     1      12.960  30.571  27.579  1.00  0.00     0.163 HD
ATOM     76  C   UNL     1      13.539  31.410  30.020  1.00  0.00     0.114 C 
ATOM     77  O   UNL     1      14.539  33.110  28.675  1.00  0.00    -0.275 OA
ENDBRANCH   4  73
TORSDOF 31
