REMARK VINA RESULT:    -4.954      5.907     13.100
REMARK INTER + INTRA:         -21.565
REMARK INTER:                 -15.072
REMARK INTRA:                  -6.493
REMARK UNBOUND:                -8.936
REMARK SMILES CC(=O)N[C@@H]1[C@@H](O)C[C@](OC[C@H]2O[C@@H](O[C@H]3[C@H](O)[C@@H](O)[C@H](OCCN=[N+]=[N-])O[C@@H]3CO)[C@H](O)[C@@H](O)[C@H]2O)(C(=O)O)O[C@H]1C(O)[C@H](O)CNC(=O)OCc1cn(-c2ccc(S(N)(=O)=O)cc2)nn1
REMARK SMILES IDX 9 1 8 2 6 3 5 4 42 5 41 6 10 7 11 8 12 9 14 10 13 11 32 12
REMARK SMILES IDX 34 13 36 14 15 15 16 16 29 17 28 18 21 19 17 20 19 21 30 22
REMARK SMILES IDX 31 23 22 25 23 26 24 27 25 28 26 29 27 30 18 31 20 33 33 35
REMARK SMILES IDX 35 37 37 39 38 41 39 42 40 43 7 45 43 47 44 48 45 50 46 51
REMARK SMILES IDX 47 53 48 54 49 55 50 57 51 58 52 59 53 60 54 61 67 62 55 63
REMARK SMILES IDX 66 64 56 65 57 66 65 67 58 68 64 69 59 70 60 71 62 72 63 73
REMARK SMILES IDX 61 74 4 77 2 78 1 80 3 81
REMARK H PARENT 31 24 18 32 20 34 33 36 35 38 37 40 40 44 7 46 44 49 46 52
REMARK H PARENT 48 56 61 75 61 76 4 79
REMARK Flexibility Score: inf
ROOT
ATOM      1  C   UNL     1      22.869  25.385  19.810  1.00  0.00     0.272 C 
ATOM      2  C   UNL     1      22.304  24.305  20.747  1.00  0.00     0.113 C 
ATOM      3  C   UNL     1      21.882  24.866  22.059  1.00  0.00     0.145 C 
ATOM      4  C   UNL     1      22.882  25.905  22.497  1.00  0.00     0.142 C 
ATOM      5  C   UNL     1      24.165  25.580  21.723  1.00  0.00     0.178 C 
ATOM      6  O   UNL     1      23.931  26.010  20.418  1.00  0.00    -0.332 OA
ENDROOT
BRANCH   1   7
ATOM      7  O   UNL     1      21.798  26.220  19.519  1.00  0.00    -0.338 OA
BRANCH   7   8
ATOM      8  C   UNL     1      22.082  27.218  18.629  1.00  0.00     0.199 C 
BRANCH   8   9
ATOM      9  C   UNL     1      21.161  28.406  18.960  1.00  0.00     0.179 C 
ATOM     10  C   UNL     1      19.232  28.748  20.238  1.00  0.00     0.282 C 
ATOM     11  O   UNL     1      19.983  27.880  19.386  1.00  0.00    -0.341 OA
ATOM     12  C   UNL     1      20.082  28.846  21.472  1.00  0.00     0.202 C 
ATOM     13  C   UNL     1      21.342  29.646  21.166  1.00  0.00     0.179 C 
ATOM     14  C   UNL     1      21.820  29.443  19.775  1.00  0.00     0.177 C 
BRANCH  10  15
ATOM     15  O   UNL     1      18.052  28.138  20.486  1.00  0.00    -0.341 OA
BRANCH  15  16
ATOM     16  C   UNL     1      16.912  28.795  19.953  1.00  0.00     0.184 C 
ATOM     17  C   UNL     1      17.360  29.693  18.892  1.00  0.00     0.178 C 
ATOM     18  O   UNL     1      16.754  30.931  18.819  1.00  0.00    -0.341 OA
ATOM     19  C   UNL     1      15.499  31.034  19.349  1.00  0.00     0.281 C 
ATOM     20  C   UNL     1      16.137  29.436  21.079  1.00  0.00     0.180 C 
ATOM     21  C   UNL     1      15.610  30.795  20.831  1.00  0.00     0.202 C 
BRANCH  17  22
ATOM     22  C   UNL     1      17.283  29.100  17.500  1.00  0.00     0.191 C 
BRANCH  22  23
ATOM     23  O   UNL     1      17.816  27.819  17.484  1.00  0.00    -0.394 OA
ATOM     24  H   UNL     1      18.685  27.772  17.956  1.00  0.00     0.210 HD
ENDBRANCH  22  23
ENDBRANCH  17  22
BRANCH  19  25
ATOM     25  O   UNL     1      14.526  30.266  18.757  1.00  0.00    -0.350 OA
BRANCH  25  26
ATOM     26  C   UNL     1      13.811  31.021  17.836  1.00  0.00     0.169 C 
BRANCH  26  27
ATOM     27  C   UNL     1      13.639  30.181  16.574  1.00  0.00     0.119 C 
BRANCH  27  28
ATOM     28  N   UNL     1      12.553  30.731  15.811  1.00  0.00    -0.092 NA
ATOM     29  N   UNL     1      11.501  30.089  15.595  1.00  0.00     0.001 N 
ATOM     30  N   UNL     1      10.764  29.384  14.884  1.00  0.00    -0.003 NA
ENDBRANCH  27  28
ENDBRANCH  26  27
ENDBRANCH  25  26
ENDBRANCH  19  25
BRANCH  20  31
ATOM     31  O   UNL     1      15.067  28.629  21.476  1.00  0.00    -0.387 OA
ATOM     32  H   UNL     1      14.312  28.768  20.858  1.00  0.00     0.211 HD
ENDBRANCH  20  31
BRANCH  21  33
ATOM     33  O   UNL     1      16.355  31.813  21.416  1.00  0.00    -0.385 OA
ATOM     34  H   UNL     1      16.173  31.721  22.406  1.00  0.00     0.211 HD
ENDBRANCH  21  33
ENDBRANCH  15  16
ENDBRANCH  10  15
BRANCH  12  35
ATOM     35  O   UNL     1      19.439  29.267  22.598  1.00  0.00    -0.385 OA
ATOM     36  H   UNL     1      19.749  30.116  22.969  1.00  0.00     0.211 HD
ENDBRANCH  12  35
BRANCH  13  37
ATOM     37  O   UNL     1      22.301  29.477  22.151  1.00  0.00    -0.387 OA
ATOM     38  H   UNL     1      22.564  30.292  22.625  1.00  0.00     0.211 HD
ENDBRANCH  13  37
BRANCH  14  39
ATOM     39  O   UNL     1      23.194  29.110  19.853  1.00  0.00    -0.387 OA
ATOM     40  H   UNL     1      23.230  28.126  19.671  1.00  0.00     0.211 HD
ENDBRANCH  14  39
ENDBRANCH   8   9
ENDBRANCH   7   8
ENDBRANCH   1   7
BRANCH   1  41
ATOM     41  C   UNL     1      23.286  24.612  18.581  1.00  0.00     0.364 C 
ATOM     42  O   UNL     1      24.473  24.634  18.175  1.00  0.00    -0.246 OA
BRANCH  41  43
ATOM     43  O   UNL     1      22.377  23.856  17.867  1.00  0.00    -0.477 OA
ATOM     44  H   UNL     1      22.641  22.919  17.603  1.00  0.00     0.296 HD
ENDBRANCH  41  43
ENDBRANCH   1  41
BRANCH   3  45
ATOM     45  O   UNL     1      20.587  25.362  21.937  1.00  0.00    -0.391 OA
ATOM     46  H   UNL     1      20.394  25.532  20.985  1.00  0.00     0.211 HD
ENDBRANCH   3  45
BRANCH   5  47
ATOM     47  C   UNL     1      25.339  26.334  22.286  1.00  0.00     0.176 C 
BRANCH  47  48
ATOM     48  O   UNL     1      26.050  25.641  23.244  1.00  0.00    -0.388 OA
ATOM     49  H   UNL     1      25.756  24.700  23.339  1.00  0.00     0.211 HD
ENDBRANCH  47  48
BRANCH  47  50
ATOM     50  C   UNL     1      26.267  26.767  21.175  1.00  0.00     0.165 C 
BRANCH  50  51
ATOM     51  O   UNL     1      27.465  26.023  21.223  1.00  0.00    -0.388 OA
ATOM     52  H   UNL     1      28.242  26.633  21.381  1.00  0.00     0.211 HD
ENDBRANCH  50  51
BRANCH  50  53
ATOM     53  C   UNL     1      26.579  28.241  21.242  1.00  0.00     0.154 C 
BRANCH  53  54
ATOM     54  N   UNL     1      25.470  29.004  21.764  1.00  0.00    -0.319 N 
ATOM     55  C   UNL     1      25.671  30.348  22.173  1.00  0.00     0.407 C 
ATOM     56  H   UNL     1      24.515  28.607  21.855  1.00  0.00     0.167 HD
ATOM     57  O   UNL     1      26.831  30.846  22.072  1.00  0.00    -0.225 OA
BRANCH  55  58
ATOM     58  O   UNL     1      24.675  31.164  22.681  1.00  0.00    -0.443 OA
BRANCH  58  59
ATOM     59  C   UNL     1      24.490  31.365  24.062  1.00  0.00     0.294 C 
BRANCH  59  60
ATOM     60  C   UNL     1      24.666  30.068  24.768  1.00  0.00     0.121 A 
ATOM     61  C   UNL     1      25.642  29.783  25.730  1.00  0.00     0.144 A 
ATOM     62  N   UNL     1      23.972  28.923  24.654  1.00  0.00    -0.131 NA
ATOM     63  N   UNL     1      25.495  28.501  26.146  1.00  0.00    -0.220 N 
ATOM     64  N   UNL     1      24.489  28.008  25.488  1.00  0.00    -0.062 NA
BRANCH  63  65
ATOM     65  C   UNL     1      26.295  27.820  27.120  1.00  0.00     0.066 A 
ATOM     66  C   UNL     1      27.595  28.198  27.364  1.00  0.00     0.030 A 
ATOM     67  C   UNL     1      25.786  26.766  27.845  1.00  0.00     0.030 A 
ATOM     68  C   UNL     1      28.370  27.535  28.313  1.00  0.00     0.024 A 
ATOM     69  C   UNL     1      26.552  26.097  28.797  1.00  0.00     0.024 A 
ATOM     70  C   UNL     1      27.856  26.479  29.039  1.00  0.00     0.082 A 
BRANCH  70  71
ATOM     71  S   UNL     1      28.863  25.662  30.234  1.00  0.00     0.238 S 
ATOM     72  O   UNL     1      29.695  24.580  29.591  1.00  0.00    -0.207 OA
ATOM     73  O   UNL     1      29.811  26.632  30.869  1.00  0.00    -0.207 OA
BRANCH  71  74
ATOM     74  N   UNL     1      27.888  24.954  31.484  1.00  0.00    -0.225 NA
ATOM     75  H   UNL     1      27.533  25.745  32.092  1.00  0.00     0.137 HD
ATOM     76  H   UNL     1      28.423  24.263  32.060  1.00  0.00     0.137 HD
ENDBRANCH  71  74
ENDBRANCH  70  71
ENDBRANCH  63  65
ENDBRANCH  59  60
ENDBRANCH  58  59
ENDBRANCH  55  58
ENDBRANCH  53  54
ENDBRANCH  50  53
ENDBRANCH  47  50
ENDBRANCH   5  47
BRANCH   4  77
ATOM     77  N   UNL     1      23.131  25.932  23.913  1.00  0.00    -0.348 N 
ATOM     78  C   UNL     1      22.411  25.081  24.778  1.00  0.00     0.217 C 
ATOM     79  H   UNL     1      23.840  26.571  24.319  1.00  0.00     0.163 HD
ATOM     80  C   UNL     1      22.696  25.139  26.233  1.00  0.00     0.114 C 
ATOM     81  O   UNL     1      21.541  24.277  24.372  1.00  0.00    -0.275 OA
ENDBRANCH   4  77
TORSDOF 32
