REMARK VINA RESULT:    -5.368     11.968     15.919
REMARK INTER + INTRA:         -20.866
REMARK INTER:                 -14.965
REMARK INTRA:                  -5.900
REMARK UNBOUND:                -7.652
REMARK SMILES CC(=O)N[C@@H]1[C@@H](O)C[C@](OC[C@H]2O[C@@H](O[C@H]3[C@H](O)[C@@H](O)[C@H](OCCN=[N+]=[N-])O[C@@H]3CO)[C@H](O)[C@@H](O)[C@H]2O)(C(=O)O)O[C@H]1C(O)[C@H](O)CNC(=O)OCc1cn(-c2ccc(Br)cc2)nn1
REMARK SMILES IDX 9 1 8 2 6 3 5 4 42 5 41 6 10 7 11 8 12 9 14 10 13 11 32 12
REMARK SMILES IDX 34 13 36 14 15 15 16 16 29 17 28 18 21 19 17 20 19 21 30 22
REMARK SMILES IDX 31 23 22 25 23 26 24 27 25 28 26 29 27 30 18 31 20 33 33 35
REMARK SMILES IDX 35 37 37 39 38 41 39 42 40 43 7 45 43 47 44 48 45 50 46 51
REMARK SMILES IDX 47 53 48 54 49 55 50 57 51 58 52 59 53 60 54 61 64 62 55 63
REMARK SMILES IDX 63 64 56 65 57 66 62 67 58 68 61 69 59 70 60 71 4 72 2 73
REMARK SMILES IDX 1 75 3 76
REMARK H PARENT 31 24 18 32 20 34 33 36 35 38 37 40 40 44 7 46 44 49 46 52
REMARK H PARENT 48 56 4 74
REMARK Flexibility Score: inf
ROOT
ATOM      1  C   UNL     1      13.592  31.107  17.109  1.00  0.00     0.272 C 
ATOM      2  C   UNL     1      12.116  30.851  16.700  1.00  0.00     0.113 C 
ATOM      3  C   UNL     1      12.048  30.846  15.218  1.00  0.00     0.145 C 
ATOM      4  C   UNL     1      13.016  29.749  14.730  1.00  0.00     0.142 C 
ATOM      5  C   UNL     1      14.390  30.270  15.080  1.00  0.00     0.178 C 
ATOM      6  O   UNL     1      14.451  30.272  16.455  1.00  0.00    -0.332 OA
ENDROOT
BRANCH   1   7
ATOM      7  O   UNL     1      13.588  30.766  18.466  1.00  0.00    -0.338 OA
BRANCH   7   8
ATOM      8  C   UNL     1      14.306  29.659  18.802  1.00  0.00     0.199 C 
BRANCH   8   9
ATOM      9  C   UNL     1      15.625  30.161  19.424  1.00  0.00     0.179 C 
ATOM     10  C   UNL     1      16.435  30.645  21.549  1.00  0.00     0.282 C 
ATOM     11  O   UNL     1      15.411  30.744  20.639  1.00  0.00    -0.341 OA
ATOM     12  C   UNL     1      17.768  30.435  20.953  1.00  0.00     0.202 C 
ATOM     13  C   UNL     1      17.869  29.351  19.927  1.00  0.00     0.179 C 
ATOM     14  C   UNL     1      16.499  28.920  19.517  1.00  0.00     0.177 C 
BRANCH  10  15
ATOM     15  O   UNL     1      16.025  29.717  22.506  1.00  0.00    -0.341 OA
BRANCH  15  16
ATOM     16  C   UNL     1      14.944  30.170  23.239  1.00  0.00     0.184 C 
ATOM     17  C   UNL     1      15.298  30.405  24.673  1.00  0.00     0.178 C 
ATOM     18  O   UNL     1      14.252  30.998  25.321  1.00  0.00    -0.341 OA
ATOM     19  C   UNL     1      13.013  30.938  24.761  1.00  0.00     0.281 C 
ATOM     20  C   UNL     1      13.838  29.102  23.277  1.00  0.00     0.180 C 
ATOM     21  C   UNL     1      12.666  29.638  24.071  1.00  0.00     0.202 C 
BRANCH  17  22
ATOM     22  C   UNL     1      16.490  31.340  24.751  1.00  0.00     0.191 C 
BRANCH  22  23
ATOM     23  O   UNL     1      17.664  30.629  24.823  1.00  0.00    -0.394 OA
ATOM     24  H   UNL     1      17.505  29.671  24.755  1.00  0.00     0.210 HD
ENDBRANCH  22  23
ENDBRANCH  17  22
BRANCH  19  25
ATOM     25  O   UNL     1      12.714  32.042  23.970  1.00  0.00    -0.350 OA
BRANCH  25  26
ATOM     26  C   UNL     1      11.597  31.883  23.172  1.00  0.00     0.169 C 
BRANCH  26  27
ATOM     27  C   UNL     1      11.344  33.010  22.228  1.00  0.00     0.119 C 
BRANCH  27  28
ATOM     28  N   UNL     1      11.880  32.685  20.917  1.00  0.00    -0.092 NA
ATOM     29  N   UNL     1      12.839  33.351  20.521  1.00  0.00     0.001 N 
ATOM     30  N   UNL     1      13.883  33.888  20.092  1.00  0.00    -0.003 NA
ENDBRANCH  27  28
ENDBRANCH  26  27
ENDBRANCH  25  26
ENDBRANCH  19  25
BRANCH  20  31
ATOM     31  O   UNL     1      13.506  28.708  21.993  1.00  0.00    -0.387 OA
ATOM     32  H   UNL     1      14.260  28.234  21.550  1.00  0.00     0.211 HD
ENDBRANCH  20  31
BRANCH  21  33
ATOM     33  O   UNL     1      12.147  28.737  24.974  1.00  0.00    -0.385 OA
ATOM     34  H   UNL     1      12.393  29.031  25.884  1.00  0.00     0.211 HD
ENDBRANCH  21  33
ENDBRANCH  15  16
ENDBRANCH  10  15
BRANCH  12  35
ATOM     35  O   UNL     1      18.171  31.685  20.407  1.00  0.00    -0.385 OA
ATOM     36  H   UNL     1      17.839  31.753  19.465  1.00  0.00     0.211 HD
ENDBRANCH  12  35
BRANCH  13  37
ATOM     37  O   UNL     1      18.555  28.231  20.454  1.00  0.00    -0.387 OA
ATOM     38  H   UNL     1      17.925  27.818  21.096  1.00  0.00     0.211 HD
ENDBRANCH  13  37
BRANCH  14  39
ATOM     39  O   UNL     1      15.958  27.972  20.381  1.00  0.00    -0.387 OA
ATOM     40  H   UNL     1      15.757  28.372  21.264  1.00  0.00     0.211 HD
ENDBRANCH  14  39
ENDBRANCH   8   9
ENDBRANCH   7   8
ENDBRANCH   1   7
BRANCH   1  41
ATOM     41  C   UNL     1      13.814  32.546  16.979  1.00  0.00     0.364 C 
ATOM     42  O   UNL     1      14.927  33.055  16.704  1.00  0.00    -0.246 OA
BRANCH  41  43
ATOM     43  O   UNL     1      12.770  33.433  17.157  1.00  0.00    -0.477 OA
ATOM     44  H   UNL     1      12.799  34.226  17.795  1.00  0.00     0.296 HD
ENDBRANCH  41  43
ENDBRANCH   1  41
BRANCH   3  45
ATOM     45  O   UNL     1      10.799  30.461  14.754  1.00  0.00    -0.391 OA
ATOM     46  H   UNL     1      10.167  30.434  15.502  1.00  0.00     0.211 HD
ENDBRANCH   3  45
BRANCH   5  47
ATOM     47  C   UNL     1      15.525  29.442  14.582  1.00  0.00     0.176 C 
BRANCH  47  48
ATOM     48  O   UNL     1      15.061  28.097  14.647  1.00  0.00    -0.388 OA
ATOM     49  H   UNL     1      14.273  28.015  14.052  1.00  0.00     0.211 HD
ENDBRANCH  47  48
BRANCH  47  50
ATOM     50  C   UNL     1      16.749  29.436  15.487  1.00  0.00     0.165 C 
BRANCH  50  51
ATOM     51  O   UNL     1      16.987  30.819  15.718  1.00  0.00    -0.388 OA
ATOM     52  H   UNL     1      17.629  30.914  16.491  1.00  0.00     0.211 HD
ENDBRANCH  50  51
BRANCH  50  53
ATOM     53  C   UNL     1      17.955  28.912  14.788  1.00  0.00     0.154 C 
BRANCH  53  54
ATOM     54  N   UNL     1      19.157  29.210  15.499  1.00  0.00    -0.319 N 
ATOM     55  C   UNL     1      19.560  28.594  16.726  1.00  0.00     0.407 C 
ATOM     56  H   UNL     1      19.839  29.943  15.123  1.00  0.00     0.167 HD
ATOM     57  O   UNL     1      18.812  27.728  17.237  1.00  0.00    -0.225 OA
BRANCH  55  58
ATOM     58  O   UNL     1      20.738  28.920  17.354  1.00  0.00    -0.443 OA
BRANCH  58  59
ATOM     59  C   UNL     1      21.931  28.265  17.005  1.00  0.00     0.294 C 
BRANCH  59  60
ATOM     60  C   UNL     1      22.162  27.155  17.957  1.00  0.00     0.121 A 
ATOM     61  C   UNL     1      22.170  27.300  19.349  1.00  0.00     0.144 A 
ATOM     62  N   UNL     1      22.405  25.853  17.744  1.00  0.00    -0.131 NA
ATOM     63  N   UNL     1      22.415  26.100  19.904  1.00  0.00    -0.220 N 
ATOM     64  N   UNL     1      22.551  25.248  18.908  1.00  0.00    -0.062 NA
BRANCH  63  65
ATOM     65  C   UNL     1      22.498  25.886  21.307  1.00  0.00     0.066 A 
ATOM     66  C   UNL     1      23.326  26.554  22.150  1.00  0.00     0.029 A 
ATOM     67  C   UNL     1      21.646  24.918  21.829  1.00  0.00     0.029 A 
ATOM     68  C   UNL     1      23.301  26.256  23.497  1.00  0.00     0.018 A 
ATOM     69  C   UNL     1      21.632  24.632  23.176  1.00  0.00     0.018 A 
ATOM     70  C   UNL     1      22.471  25.306  24.039  1.00  0.00     0.018 A 
ATOM     71  Br  UNL     1      22.465  24.927  25.908  1.00  0.00    -0.051 Br
ENDBRANCH  63  65
ENDBRANCH  59  60
ENDBRANCH  58  59
ENDBRANCH  55  58
ENDBRANCH  53  54
ENDBRANCH  50  53
ENDBRANCH  47  50
ENDBRANCH   5  47
BRANCH   4  72
ATOM     72  N   UNL     1      12.764  29.583  13.331  1.00  0.00    -0.348 N 
ATOM     73  C   UNL     1      12.347  28.342  12.776  1.00  0.00     0.217 C 
ATOM     74  H   UNL     1      12.888  30.388  12.693  1.00  0.00     0.163 HD
ATOM     75  C   UNL     1      12.081  28.140  11.332  1.00  0.00     0.114 C 
ATOM     76  O   UNL     1      12.187  27.336  13.540  1.00  0.00    -0.275 OA
ENDBRANCH   4  72
TORSDOF 30
