REMARK VINA RESULT:    -5.041      2.771      7.374
REMARK INTER + INTRA:         -21.614
REMARK INTER:                 -14.655
REMARK INTRA:                  -6.960
REMARK UNBOUND:                -8.028
REMARK SMILES CCN(CC)CCn1cc(COC(=O)NC[C@@H](O)C(O)[C@@H]2O[C@@](OC[C@H]3O[C@@H](O[C@H]4[C@H](O)[C@@H](O)[C@H](OCCN=[N+]=[N-])O[C@@H]4CO)[C@H](O)[C@@H](O)[C@H]3O)(C(=O)O)C[C@H](O)[C@H]2NC(C)=O)nn1
REMARK SMILES IDX 19 1 21 2 23 3 55 4 22 5 56 6 58 7 24 8 25 9 26 10 28 11
REMARK SMILES IDX 27 12 46 13 48 14 50 15 29 16 30 17 43 18 42 19 35 20 31 21
REMARK SMILES IDX 33 22 44 23 45 24 36 26 37 27 38 28 39 29 40 30 41 31 32 32
REMARK SMILES IDX 34 34 47 36 49 38 51 40 52 42 53 43 54 44 57 46 59 48 60 49
REMARK SMILES IDX 61 51 62 52 20 53 17 55 18 56 16 58 15 59 13 60 14 62 12 63
REMARK SMILES IDX 11 64 10 65 9 66 63 67 8 68 64 69 7 70 6 71 3 72 2 73 1 74
REMARK SMILES IDX 4 75 5 76
REMARK H PARENT 45 25 32 33 34 35 47 37 49 39 51 41 54 45 57 47 59 50 20 54
REMARK H PARENT 18 57 15 61
REMARK Flexibility Score: inf
ROOT
ATOM      1  C   UNL     1      17.042  30.305  22.071  1.00  0.00     0.176 C 
ENDROOT
BRANCH   1   2
ATOM      2  C   UNL     1      16.705  29.546  20.815  1.00  0.00     0.178 C 
ATOM      3  C   UNL     1      17.356  29.170  18.639  1.00  0.00     0.272 C 
ATOM      4  C   UNL     1      16.244  28.125  18.815  1.00  0.00     0.113 C 
ATOM      5  O   UNL     1      17.634  29.797  19.833  1.00  0.00    -0.332 OA
ATOM      6  C   UNL     1      14.975  28.690  19.366  1.00  0.00     0.145 C 
ATOM      7  C   UNL     1      15.351  29.898  20.238  1.00  0.00     0.142 C 
BRANCH   3   8
ATOM      8  O   UNL     1      16.949  30.008  17.630  1.00  0.00    -0.338 OA
BRANCH   8   9
ATOM      9  C   UNL     1      17.665  31.170  17.481  1.00  0.00     0.199 C 
BRANCH   9  10
ATOM     10  C   UNL     1      17.064  32.055  16.374  1.00  0.00     0.179 C 
ATOM     11  C   UNL     1      15.547  31.549  14.649  1.00  0.00     0.282 C 
ATOM     12  O   UNL     1      16.670  31.218  15.392  1.00  0.00    -0.341 OA
ATOM     13  C   UNL     1      15.307  33.004  14.604  1.00  0.00     0.202 C 
ATOM     14  C   UNL     1      15.212  33.653  15.956  1.00  0.00     0.179 C 
ATOM     15  C   UNL     1      15.908  32.788  16.984  1.00  0.00     0.177 C 
BRANCH  11  16
ATOM     16  O   UNL     1      14.540  30.736  15.148  1.00  0.00    -0.341 OA
BRANCH  16  17
ATOM     17  C   UNL     1      13.530  30.488  14.286  1.00  0.00     0.184 C 
ATOM     18  C   UNL     1      12.179  30.459  14.952  1.00  0.00     0.178 C 
ATOM     19  O   UNL     1      11.196  30.303  13.933  1.00  0.00    -0.341 OA
ATOM     20  C   UNL     1      11.145  28.969  13.593  1.00  0.00     0.281 C 
ATOM     21  C   UNL     1      13.677  29.163  13.545  1.00  0.00     0.180 C 
ATOM     22  C   UNL     1      12.453  28.307  13.625  1.00  0.00     0.202 C 
BRANCH  18  23
ATOM     23  C   UNL     1      11.865  31.612  15.835  1.00  0.00     0.191 C 
BRANCH  23  24
ATOM     24  O   UNL     1      12.362  31.330  17.102  1.00  0.00    -0.394 OA
ATOM     25  H   UNL     1      11.662  31.109  17.765  1.00  0.00     0.210 HD
ENDBRANCH  23  24
ENDBRANCH  18  23
BRANCH  20  26
ATOM     26  O   UNL     1      10.412  28.757  12.428  1.00  0.00    -0.350 OA
BRANCH  26  27
ATOM     27  C   UNL     1      10.919  27.806  11.595  1.00  0.00     0.169 C 
BRANCH  27  28
ATOM     28  C   UNL     1      11.298  28.353  10.231  1.00  0.00     0.119 C 
BRANCH  28  29
ATOM     29  N   UNL     1      12.502  27.722   9.728  1.00  0.00    -0.092 NA
ATOM     30  N   UNL     1      12.505  26.979   8.737  1.00  0.00     0.001 N 
ATOM     31  N   UNL     1      12.429  25.932   8.093  1.00  0.00    -0.003 NA
ENDBRANCH  28  29
ENDBRANCH  27  28
ENDBRANCH  26  27
ENDBRANCH  20  26
BRANCH  21  32
ATOM     32  O   UNL     1      13.961  29.434  12.220  1.00  0.00    -0.387 OA
ATOM     33  H   UNL     1      14.854  29.807  12.068  1.00  0.00     0.211 HD
ENDBRANCH  21  32
BRANCH  22  34
ATOM     34  O   UNL     1      12.511  27.435  14.741  1.00  0.00    -0.385 OA
ATOM     35  H   UNL     1      12.172  26.561  14.417  1.00  0.00     0.211 HD
ENDBRANCH  22  34
ENDBRANCH  16  17
ENDBRANCH  11  16
BRANCH  13  36
ATOM     36  O   UNL     1      16.411  33.616  13.940  1.00  0.00    -0.385 OA
ATOM     37  H   UNL     1      16.269  33.643  12.977  1.00  0.00     0.211 HD
ENDBRANCH  13  36
BRANCH  14  38
ATOM     38  O   UNL     1      13.920  33.971  16.342  1.00  0.00    -0.387 OA
ATOM     39  H   UNL     1      13.869  34.745  16.926  1.00  0.00     0.211 HD
ENDBRANCH  14  38
BRANCH  15  40
ATOM     40  O   UNL     1      14.988  31.859  17.451  1.00  0.00    -0.387 OA
ATOM     41  H   UNL     1      14.355  31.603  16.720  1.00  0.00     0.211 HD
ENDBRANCH  15  40
ENDBRANCH   9  10
ENDBRANCH   8   9
ENDBRANCH   3   8
BRANCH   3  42
ATOM     42  C   UNL     1      18.541  28.376  18.226  1.00  0.00     0.364 C 
ATOM     43  O   UNL     1      19.453  28.080  19.071  1.00  0.00    -0.246 OA
BRANCH  42  44
ATOM     44  O   UNL     1      18.761  27.905  16.947  1.00  0.00    -0.477 OA
ATOM     45  H   UNL     1      18.934  26.917  16.794  1.00  0.00     0.296 HD
ENDBRANCH  42  44
ENDBRANCH   3  42
BRANCH   6  46
ATOM     46  O   UNL     1      14.009  28.982  18.434  1.00  0.00    -0.391 OA
ATOM     47  H   UNL     1      13.726  29.919  18.586  1.00  0.00     0.211 HD
ENDBRANCH   6  46
BRANCH   7  48
ATOM     48  N   UNL     1      14.345  30.181  21.204  1.00  0.00    -0.348 N 
ATOM     49  C   UNL     1      13.318  31.134  20.860  1.00  0.00     0.217 C 
ATOM     50  H   UNL     1      14.272  29.759  22.148  1.00  0.00     0.163 HD
ATOM     51  C   UNL     1      12.238  31.480  21.817  1.00  0.00     0.114 C 
ATOM     52  O   UNL     1      13.304  31.705  19.737  1.00  0.00    -0.275 OA
ENDBRANCH   7  48
ENDBRANCH   1   2
BRANCH   1  53
ATOM     53  O   UNL     1      16.696  29.518  23.162  1.00  0.00    -0.388 OA
ATOM     54  H   UNL     1      16.007  30.006  23.714  1.00  0.00     0.211 HD
ENDBRANCH   1  53
BRANCH   1  55
ATOM     55  C   UNL     1      18.534  30.511  22.068  1.00  0.00     0.165 C 
BRANCH  55  56
ATOM     56  O   UNL     1      19.169  29.266  21.987  1.00  0.00    -0.388 OA
ATOM     57  H   UNL     1      20.144  29.421  21.970  1.00  0.00     0.211 HD
ENDBRANCH  55  56
BRANCH  55  58
ATOM     58  C   UNL     1      19.079  31.272  23.220  1.00  0.00     0.154 C 
BRANCH  58  59
ATOM     59  N   UNL     1      19.108  30.547  24.443  1.00  0.00    -0.319 N 
ATOM     60  C   UNL     1      20.226  30.710  25.330  1.00  0.00     0.407 C 
ATOM     61  H   UNL     1      18.360  29.905  24.708  1.00  0.00     0.167 HD
ATOM     62  O   UNL     1      21.170  31.470  25.040  1.00  0.00    -0.225 OA
BRANCH  60  63
ATOM     63  O   UNL     1      20.229  29.997  26.518  1.00  0.00    -0.443 OA
BRANCH  63  64
ATOM     64  C   UNL     1      21.326  29.105  26.775  1.00  0.00     0.294 C 
BRANCH  64  65
ATOM     65  C   UNL     1      21.141  27.920  25.927  1.00  0.00     0.120 A 
ATOM     66  C   UNL     1      21.974  26.797  25.970  1.00  0.00     0.138 A 
ATOM     67  N   UNL     1      20.228  27.642  24.999  1.00  0.00    -0.132 NA
ATOM     68  N   UNL     1      21.530  25.897  25.075  1.00  0.00    -0.251 N 
ATOM     69  N   UNL     1      20.482  26.428  24.505  1.00  0.00    -0.067 NA
BRANCH  68  70
ATOM     70  C   UNL     1      22.091  24.591  24.784  1.00  0.00     0.161 C 
BRANCH  70  71
ATOM     71  C   UNL     1      23.558  24.782  24.464  1.00  0.00     0.108 C 
BRANCH  71  72
ATOM     72  N   UNL     1      23.906  24.392  23.129  1.00  0.00    -0.302 NA
BRANCH  72  73
ATOM     73  C   UNL     1      25.313  24.537  22.868  1.00  0.00     0.081 C 
ATOM     74  C   UNL     1      25.691  26.001  23.060  1.00  0.00     0.021 C 
ENDBRANCH  72  73
BRANCH  72  75
ATOM     75  C   UNL     1      23.078  24.994  22.131  1.00  0.00     0.081 C 
ATOM     76  C   UNL     1      22.652  23.977  21.092  1.00  0.00     0.021 C 
ENDBRANCH  72  75
ENDBRANCH  71  72
ENDBRANCH  70  71
ENDBRANCH  68  70
ENDBRANCH  64  65
ENDBRANCH  63  64
ENDBRANCH  60  63
ENDBRANCH  58  59
ENDBRANCH  55  58
ENDBRANCH   1  55
TORSDOF 34
