REMARK VINA RESULT:    -5.821      0.000      0.000
REMARK INTER + INTRA:         -22.306
REMARK INTER:                 -14.724
REMARK INTRA:                  -7.582
REMARK UNBOUND:                -7.468
REMARK SMILES CC(=O)N[C@@H]1[C@@H](O)C[C@](OC[C@H]2O[C@@H](O[C@H]3[C@H](O)[C@@H](O)[C@H](OCCN=[N+]=[N-])O[C@@H]3CO)[C@H](O)[C@@H](O)[C@H]2O)(C(=O)O)O[C@H]1C(O)[C@H](O)CNC(=O)OCc1cn(CC(=O)O)nn1
REMARK SMILES IDX 9 1 8 2 6 3 5 4 42 5 41 6 10 7 11 8 12 9 14 10 13 11 32 12
REMARK SMILES IDX 34 13 36 14 15 15 16 16 29 17 28 18 21 19 17 20 19 21 30 22
REMARK SMILES IDX 31 23 22 25 23 26 24 27 25 28 26 29 27 30 18 31 20 33 33 35
REMARK SMILES IDX 35 37 37 39 38 41 39 42 40 43 7 45 43 47 44 48 45 50 46 51
REMARK SMILES IDX 47 53 48 54 49 55 50 57 51 58 52 59 53 60 54 61 61 62 55 63
REMARK SMILES IDX 60 64 56 65 57 66 58 67 59 68 4 70 2 71 1 73 3 74
REMARK H PARENT 31 24 18 32 20 34 33 36 35 38 37 40 40 44 7 46 44 49 46 52
REMARK H PARENT 48 56 59 69 4 72
REMARK Flexibility Score: inf
ROOT
ATOM      1  C   UNL     1       2.890  21.650  30.978  1.00  0.00     0.272 C 
ATOM      2  C   UNL     1       1.848  21.283  31.996  1.00  0.00     0.113 C 
ATOM      3  C   UNL     1       1.736  22.156  33.174  1.00  0.00     0.145 C 
ATOM      4  C   UNL     1       2.919  23.080  33.440  1.00  0.00     0.142 C 
ATOM      5  C   UNL     1       4.100  22.454  32.764  1.00  0.00     0.178 C 
ATOM      6  O   UNL     1       3.780  22.593  31.387  1.00  0.00    -0.332 OA
ENDROOT
BRANCH   1   7
ATOM      7  O   UNL     1       2.305  22.083  29.768  1.00  0.00    -0.338 OA
BRANCH   7   8
ATOM      8  C   UNL     1       1.498  23.173  29.881  1.00  0.00     0.199 C 
BRANCH   8   9
ATOM      9  C   UNL     1       2.273  24.430  29.455  1.00  0.00     0.179 C 
ATOM     10  C   UNL     1       1.934  25.912  27.719  1.00  0.00     0.282 C 
ATOM     11  O   UNL     1       2.320  24.585  28.093  1.00  0.00    -0.341 OA
ATOM     12  C   UNL     1       0.501  26.004  28.094  1.00  0.00     0.202 C 
ATOM     13  C   UNL     1       0.476  26.190  29.621  1.00  0.00     0.179 C 
ATOM     14  C   UNL     1       1.748  25.639  30.204  1.00  0.00     0.177 C 
BRANCH  10  15
ATOM     15  O   UNL     1       2.257  26.079  26.405  1.00  0.00    -0.341 OA
BRANCH  15  16
ATOM     16  C   UNL     1       3.495  26.688  26.199  1.00  0.00     0.184 C 
ATOM     17  C   UNL     1       3.315  27.796  25.204  1.00  0.00     0.178 C 
ATOM     18  O   UNL     1       4.456  27.999  24.475  1.00  0.00    -0.341 OA
ATOM     19  C   UNL     1       5.650  27.854  25.132  1.00  0.00     0.281 C 
ATOM     20  C   UNL     1       4.504  25.706  25.642  1.00  0.00     0.180 C 
ATOM     21  C   UNL     1       5.852  26.431  25.623  1.00  0.00     0.202 C 
BRANCH  17  22
ATOM     22  C   UNL     1       2.947  29.072  25.938  1.00  0.00     0.191 C 
BRANCH  22  23
ATOM     23  O   UNL     1       1.571  29.000  26.170  1.00  0.00    -0.394 OA
ATOM     24  H   UNL     1       1.168  29.896  26.167  1.00  0.00     0.210 HD
ENDBRANCH  22  23
ENDBRANCH  17  22
BRANCH  19  25
ATOM     25  O   UNL     1       5.778  28.779  26.132  1.00  0.00    -0.350 OA
BRANCH  25  26
ATOM     26  C   UNL     1       6.736  29.735  25.906  1.00  0.00     0.169 C 
BRANCH  26  27
ATOM     27  C   UNL     1       7.383  29.670  24.548  1.00  0.00     0.119 C 
BRANCH  27  28
ATOM     28  N   UNL     1       8.819  29.407  24.660  1.00  0.00    -0.092 NA
ATOM     29  N   UNL     1       9.143  28.202  24.678  1.00  0.00     0.001 N 
ATOM     30  N   UNL     1       9.759  27.195  25.078  1.00  0.00    -0.003 NA
ENDBRANCH  27  28
ENDBRANCH  26  27
ENDBRANCH  25  26
ENDBRANCH  19  25
BRANCH  20  31
ATOM     31  O   UNL     1       4.660  24.581  26.413  1.00  0.00    -0.387 OA
ATOM     32  H   UNL     1       4.264  23.769  26.059  1.00  0.00     0.211 HD
ENDBRANCH  20  31
BRANCH  21  33
ATOM     33  O   UNL     1       6.757  25.783  24.804  1.00  0.00    -0.385 OA
ATOM     34  H   UNL     1       7.667  25.771  25.199  1.00  0.00     0.211 HD
ENDBRANCH  21  33
ENDBRANCH  15  16
ENDBRANCH  10  15
BRANCH  12  35
ATOM     35  O   UNL     1      -0.260  26.929  27.440  1.00  0.00    -0.385 OA
ATOM     36  H   UNL     1       0.046  27.828  27.640  1.00  0.00     0.211 HD
ENDBRANCH  12  35
BRANCH  13  37
ATOM     37  O   UNL     1      -0.628  25.496  30.093  1.00  0.00    -0.387 OA
ATOM     38  H   UNL     1      -0.394  24.835  30.802  1.00  0.00     0.211 HD
ENDBRANCH  13  37
BRANCH  14  39
ATOM     39  O   UNL     1       1.443  25.236  31.504  1.00  0.00    -0.387 OA
ATOM     40  H   UNL     1       0.516  25.455  31.759  1.00  0.00     0.211 HD
ENDBRANCH  14  39
ENDBRANCH   8   9
ENDBRANCH   7   8
ENDBRANCH   1   7
BRANCH   1  41
ATOM     41  C   UNL     1       3.635  20.421  30.621  1.00  0.00     0.364 C 
ATOM     42  O   UNL     1       3.114  19.293  30.701  1.00  0.00    -0.246 OA
BRANCH  41  43
ATOM     43  O   UNL     1       4.947  20.468  30.180  1.00  0.00    -0.477 OA
ATOM     44  H   UNL     1       5.583  21.243  30.403  1.00  0.00     0.296 HD
ENDBRANCH  41  43
ENDBRANCH   1  41
BRANCH   3  45
ATOM     45  O   UNL     1       0.518  22.837  33.275  1.00  0.00    -0.391 OA
ATOM     46  H   UNL     1       0.255  23.043  34.187  1.00  0.00     0.211 HD
ENDBRANCH   3  45
BRANCH   5  47
ATOM     47  C   UNL     1       5.436  23.068  33.008  1.00  0.00     0.176 C 
BRANCH  47  48
ATOM     48  O   UNL     1       5.524  24.123  32.041  1.00  0.00    -0.388 OA
ATOM     49  H   UNL     1       4.603  24.374  31.746  1.00  0.00     0.211 HD
ENDBRANCH  47  48
BRANCH  47  50
ATOM     50  C   UNL     1       6.603  22.133  32.777  1.00  0.00     0.165 C 
BRANCH  50  51
ATOM     51  O   UNL     1       6.175  20.802  33.018  1.00  0.00    -0.388 OA
ATOM     52  H   UNL     1       6.407  20.277  32.221  1.00  0.00     0.211 HD
ENDBRANCH  50  51
BRANCH  50  53
ATOM     53  C   UNL     1       7.776  22.430  33.627  1.00  0.00     0.154 C 
BRANCH  53  54
ATOM     54  N   UNL     1       8.077  23.830  33.687  1.00  0.00    -0.319 N 
ATOM     55  C   UNL     1       9.069  24.459  34.473  1.00  0.00     0.407 C 
ATOM     56  H   UNL     1       7.516  24.534  33.084  1.00  0.00     0.167 HD
ATOM     57  O   UNL     1       9.800  23.816  35.229  1.00  0.00    -0.225 OA
BRANCH  55  58
ATOM     58  O   UNL     1       9.277  25.843  34.439  1.00  0.00    -0.443 OA
BRANCH  58  59
ATOM     59  C   UNL     1       8.347  26.735  35.029  1.00  0.00     0.294 C 
BRANCH  59  60
ATOM     60  C   UNL     1       7.222  27.021  34.085  1.00  0.00     0.120 A 
ATOM     61  C   UNL     1       7.203  27.986  33.088  1.00  0.00     0.139 A 
ATOM     62  N   UNL     1       6.029  26.411  34.017  1.00  0.00    -0.132 NA
ATOM     63  N   UNL     1       6.012  27.921  32.466  1.00  0.00    -0.241 N 
ATOM     64  N   UNL     1       5.316  26.957  33.048  1.00  0.00    -0.066 NA
BRANCH  63  65
ATOM     65  C   UNL     1       5.539  28.744  31.348  1.00  0.00     0.268 C 
BRANCH  65  66
ATOM     66  C   UNL     1       4.962  27.845  30.333  1.00  0.00     0.325 C 
ATOM     67  O   UNL     1       4.042  28.237  29.600  1.00  0.00    -0.250 OA
BRANCH  66  68
ATOM     68  O   UNL     1       5.449  26.561  30.200  1.00  0.00    -0.480 OA
ATOM     69  H   UNL     1       4.974  25.756  30.551  1.00  0.00     0.296 HD
ENDBRANCH  66  68
ENDBRANCH  65  66
ENDBRANCH  63  65
ENDBRANCH  59  60
ENDBRANCH  58  59
ENDBRANCH  55  58
ENDBRANCH  53  54
ENDBRANCH  50  53
ENDBRANCH  47  50
ENDBRANCH   5  47
BRANCH   4  70
ATOM     70  N   UNL     1       3.033  23.390  34.823  1.00  0.00    -0.348 N 
ATOM     71  C   UNL     1       2.769  24.705  35.342  1.00  0.00     0.217 C 
ATOM     72  H   UNL     1       3.299  22.663  35.516  1.00  0.00     0.163 HD
ATOM     73  C   UNL     1       2.912  24.938  36.798  1.00  0.00     0.114 C 
ATOM     74  O   UNL     1       2.425  25.641  34.583  1.00  0.00    -0.275 OA
ENDBRANCH   4  70
TORSDOF 32
