REMARK VINA RESULT:    -6.822      3.249      8.029
REMARK INTER + INTRA:         -23.788
REMARK INTER:                 -15.299
REMARK INTRA:                  -8.489
REMARK UNBOUND:                -6.197
REMARK SMILES CC(=O)N[C@@H]1[C@@H](O)C[C@](OC[C@H]2O[C@@H](O[C@H]3[C@H](O)[C@@H](O)[C@H](OCCN=[N+]=[N-])O[C@@H]3CO)[C@H](O)[C@@H](O)[C@H]2O)(C(=O)O)O[C@H]1C(O)[C@H](O)CNC(=O)OCc1cn(Cc2cccc(C#N)c2)nn1
REMARK SMILES IDX 9 1 8 2 6 3 5 4 42 5 41 6 10 7 11 8 12 9 14 10 13 11 32 12
REMARK SMILES IDX 34 13 36 14 15 15 16 16 29 17 28 18 21 19 17 20 19 21 30 22
REMARK SMILES IDX 31 23 22 25 23 26 24 27 25 28 26 29 27 30 18 31 20 33 33 35
REMARK SMILES IDX 35 37 37 39 38 41 39 42 40 43 7 45 43 47 44 48 45 50 46 51
REMARK SMILES IDX 47 53 48 54 49 55 50 57 51 58 52 59 53 60 54 61 66 62 55 63
REMARK SMILES IDX 65 64 56 65 57 66 58 67 64 68 59 69 61 70 60 71 62 72 63 73
REMARK SMILES IDX 4 74 2 75 1 77 3 78
REMARK H PARENT 31 24 18 32 20 34 33 36 35 38 37 40 40 44 7 46 44 49 46 52
REMARK H PARENT 48 56 4 76
REMARK Flexibility Score: inf
ROOT
ATOM      1  C   UNL     1      15.359  30.201  20.975  1.00  0.00     0.272 C 
ATOM      2  C   UNL     1      14.069  30.966  21.149  1.00  0.00     0.113 C 
ATOM      3  C   UNL     1      13.766  31.487  22.489  1.00  0.00     0.145 C 
ATOM      4  C   UNL     1      14.332  30.591  23.596  1.00  0.00     0.142 C 
ATOM      5  C   UNL     1      15.716  30.184  23.355  1.00  0.00     0.178 C 
ATOM      6  O   UNL     1      16.145  30.064  22.073  1.00  0.00    -0.332 OA
ENDROOT
BRANCH   1   7
ATOM      7  O   UNL     1      16.069  30.778  20.024  1.00  0.00    -0.338 OA
BRANCH   7   8
ATOM      8  C   UNL     1      16.227  31.051  18.818  1.00  0.00     0.199 C 
BRANCH   8   9
ATOM      9  C   UNL     1      17.222  30.464  17.857  1.00  0.00     0.179 C 
ATOM     10  C   UNL     1      18.877  28.940  17.730  1.00  0.00     0.282 C 
ATOM     11  O   UNL     1      17.691  29.218  18.421  1.00  0.00    -0.341 OA
ATOM     12  C   UNL     1      18.614  28.563  16.312  1.00  0.00     0.202 C 
ATOM     13  C   UNL     1      17.562  29.442  15.662  1.00  0.00     0.179 C 
ATOM     14  C   UNL     1      16.509  29.922  16.602  1.00  0.00     0.177 C 
BRANCH  10  15
ATOM     15  O   UNL     1      19.549  27.907  18.379  1.00  0.00    -0.341 OA
BRANCH  15  16
ATOM     16  C   UNL     1      20.552  28.356  19.197  1.00  0.00     0.184 C 
ATOM     17  C   UNL     1      21.805  27.570  19.063  1.00  0.00     0.178 C 
ATOM     18  O   UNL     1      22.799  27.951  19.934  1.00  0.00    -0.341 OA
ATOM     19  C   UNL     1      22.437  28.038  21.261  1.00  0.00     0.281 C 
ATOM     20  C   UNL     1      20.058  28.045  20.647  1.00  0.00     0.180 C 
ATOM     21  C   UNL     1      21.114  28.681  21.527  1.00  0.00     0.202 C 
BRANCH  17  22
ATOM     22  C   UNL     1      22.372  27.706  17.668  1.00  0.00     0.191 C 
BRANCH  22  23
ATOM     23  O   UNL     1      22.232  29.025  17.227  1.00  0.00    -0.394 OA
ATOM     24  H   UNL     1      21.414  29.448  17.536  1.00  0.00     0.210 HD
ENDBRANCH  22  23
ENDBRANCH  17  22
BRANCH  19  25
ATOM     25  O   UNL     1      23.402  28.857  21.883  1.00  0.00    -0.350 OA
BRANCH  25  26
ATOM     26  C   UNL     1      23.903  28.228  22.993  1.00  0.00     0.169 C 
BRANCH  26  27
ATOM     27  C   UNL     1      24.702  29.147  23.873  1.00  0.00     0.119 C 
BRANCH  27  28
ATOM     28  N   UNL     1      24.607  30.534  23.481  1.00  0.00    -0.092 NA
ATOM     29  N   UNL     1      23.781  31.257  24.054  1.00  0.00     0.001 N 
ATOM     30  N   UNL     1      22.930  32.066  24.490  1.00  0.00    -0.003 NA
ENDBRANCH  27  28
ENDBRANCH  26  27
ENDBRANCH  25  26
ENDBRANCH  19  25
BRANCH  20  31
ATOM     31  O   UNL     1      18.811  28.594  20.784  1.00  0.00    -0.387 OA
ATOM     32  H   UNL     1      18.411  28.843  19.903  1.00  0.00     0.211 HD
ENDBRANCH  20  31
BRANCH  21  33
ATOM     33  O   UNL     1      20.756  28.435  22.850  1.00  0.00    -0.385 OA
ATOM     34  H   UNL     1      21.515  27.928  23.262  1.00  0.00     0.211 HD
ENDBRANCH  21  33
ENDBRANCH  15  16
ENDBRANCH  10  15
BRANCH  12  35
ATOM     35  O   UNL     1      19.793  28.811  15.572  1.00  0.00    -0.385 OA
ATOM     36  H   UNL     1      20.538  28.732  16.218  1.00  0.00     0.211 HD
ENDBRANCH  12  35
BRANCH  13  37
ATOM     37  O   UNL     1      16.928  28.635  14.705  1.00  0.00    -0.387 OA
ATOM     38  H   UNL     1      16.289  29.123  14.151  1.00  0.00     0.211 HD
ENDBRANCH  13  37
BRANCH  14  39
ATOM     39  O   UNL     1      15.769  28.797  16.998  1.00  0.00    -0.387 OA
ATOM     40  H   UNL     1      16.217  27.959  16.770  1.00  0.00     0.211 HD
ENDBRANCH  14  39
ENDBRANCH   8   9
ENDBRANCH   7   8
ENDBRANCH   1   7
BRANCH   1  41
ATOM     41  C   UNL     1      14.955  28.796  20.609  1.00  0.00     0.364 C 
ATOM     42  O   UNL     1      13.781  28.367  20.871  1.00  0.00    -0.246 OA
BRANCH  41  43
ATOM     43  O   UNL     1      15.818  27.935  19.988  1.00  0.00    -0.477 OA
ATOM     44  H   UNL     1      15.438  27.368  19.211  1.00  0.00     0.296 HD
ENDBRANCH  41  43
ENDBRANCH   1  41
BRANCH   3  45
ATOM     45  O   UNL     1      14.288  32.764  22.637  1.00  0.00    -0.391 OA
ATOM     46  H   UNL     1      14.414  33.236  21.781  1.00  0.00     0.211 HD
ENDBRANCH   3  45
BRANCH   5  47
ATOM     47  C   UNL     1      16.768  31.075  23.982  1.00  0.00     0.176 C 
BRANCH  47  48
ATOM     48  O   UNL     1      16.807  30.648  25.352  1.00  0.00    -0.388 OA
ATOM     49  H   UNL     1      17.756  30.539  25.587  1.00  0.00     0.211 HD
ENDBRANCH  47  48
BRANCH  47  50
ATOM     50  C   UNL     1      18.159  30.973  23.511  1.00  0.00     0.165 C 
BRANCH  50  51
ATOM     51  O   UNL     1      18.461  29.562  23.748  1.00  0.00    -0.388 OA
ATOM     52  H   UNL     1      19.344  29.533  24.225  1.00  0.00     0.211 HD
ENDBRANCH  50  51
BRANCH  50  53
ATOM     53  C   UNL     1      19.223  31.675  24.272  1.00  0.00     0.154 C 
BRANCH  53  54
ATOM     54  N   UNL     1      20.108  30.869  25.049  1.00  0.00    -0.319 N 
ATOM     55  C   UNL     1      20.051  30.925  26.481  1.00  0.00     0.407 C 
ATOM     56  H   UNL     1      20.801  30.231  24.639  1.00  0.00     0.167 HD
ATOM     57  O   UNL     1      19.203  31.696  26.988  1.00  0.00    -0.225 OA
BRANCH  55  58
ATOM     58  O   UNL     1      20.861  30.186  27.294  1.00  0.00    -0.443 OA
BRANCH  58  59
ATOM     59  C   UNL     1      22.016  29.488  26.784  1.00  0.00     0.294 C 
BRANCH  59  60
ATOM     60  C   UNL     1      21.574  28.194  26.190  1.00  0.00     0.120 A 
ATOM     61  C   UNL     1      22.288  27.018  26.142  1.00  0.00     0.138 A 
ATOM     62  N   UNL     1      20.407  27.936  25.592  1.00  0.00    -0.132 NA
ATOM     63  N   UNL     1      21.543  26.065  25.515  1.00  0.00    -0.248 N 
ATOM     64  N   UNL     1      20.403  26.656  25.193  1.00  0.00    -0.067 NA
BRANCH  63  65
ATOM     65  C   UNL     1      21.939  24.711  25.259  1.00  0.00     0.181 C 
BRANCH  65  66
ATOM     66  C   UNL     1      22.418  24.596  23.862  1.00  0.00    -0.025 A 
ATOM     67  C   UNL     1      21.579  24.593  22.778  1.00  0.00     0.006 A 
ATOM     68  C   UNL     1      23.782  24.481  23.620  1.00  0.00     0.025 A 
ATOM     69  C   UNL     1      22.030  24.481  21.490  1.00  0.00     0.002 A 
ATOM     70  C   UNL     1      24.234  24.369  22.328  1.00  0.00     0.052 A 
ATOM     71  C   UNL     1      23.386  24.364  21.221  1.00  0.00     0.019 A 
BRANCH  70  72
ATOM     72  C   UNL     1      25.649  24.255  22.087  1.00  0.00     0.099 C 
ATOM     73  N   UNL     1      26.800  24.178  21.896  1.00  0.00    -0.192 NA
ENDBRANCH  70  72
ENDBRANCH  65  66
ENDBRANCH  63  65
ENDBRANCH  59  60
ENDBRANCH  58  59
ENDBRANCH  55  58
ENDBRANCH  53  54
ENDBRANCH  50  53
ENDBRANCH  47  50
ENDBRANCH   5  47
BRANCH   4  74
ATOM     74  N   UNL     1      13.377  29.514  23.852  1.00  0.00    -0.348 N 
ATOM     75  C   UNL     1      12.106  29.828  24.378  1.00  0.00     0.217 C 
ATOM     76  H   UNL     1      13.563  28.509  23.670  1.00  0.00     0.163 HD
ATOM     77  C   UNL     1      11.072  28.796  24.670  1.00  0.00     0.114 C 
ATOM     78  O   UNL     1      11.835  31.017  24.610  1.00  0.00    -0.275 OA
ENDBRANCH   4  74
TORSDOF 32
