REMARK VINA RESULT:    -6.114     13.925     18.405
REMARK INTER + INTRA:         -20.496
REMARK INTER:                 -13.229
REMARK INTRA:                  -7.267
REMARK UNBOUND:                -4.909
REMARK SMILES CC(=O)N[C@@H]1[C@@H](O)C[C@](OC[C@H]2O[C@@H](O[C@H]3[C@H](O)[C@@H](O)[C@H](OCCN=[N+]=[N-])O[C@@H]3CO)[C@H](O)[C@@H](O)[C@H]2O)(C(=O)O)O[C@H]1C(O)[C@H](O)CNC(=O)OCc1cn(CCO)nn1
REMARK SMILES IDX 9 1 8 2 6 3 5 4 42 5 41 6 10 7 11 8 12 9 14 10 13 11 32 12
REMARK SMILES IDX 34 13 36 14 15 15 16 16 29 17 28 18 21 19 17 20 19 21 30 22
REMARK SMILES IDX 31 23 22 25 23 26 24 27 25 28 26 29 27 30 18 31 20 33 33 35
REMARK SMILES IDX 35 37 37 39 38 41 39 42 40 43 7 45 43 47 44 48 45 50 46 51
REMARK SMILES IDX 47 53 48 54 49 55 50 57 51 58 52 59 53 60 54 61 60 62 55 63
REMARK SMILES IDX 59 64 56 65 57 66 58 67 4 69 2 70 1 72 3 73
REMARK H PARENT 31 24 18 32 20 34 33 36 35 38 37 40 40 44 7 46 44 49 46 52
REMARK H PARENT 48 56 58 68 4 71
REMARK Flexibility Score: inf
ROOT
ATOM      1  C   UNL     1      19.351  28.615  19.961  1.00  0.00     0.272 C 
ATOM      2  C   UNL     1      19.687  28.362  18.528  1.00  0.00     0.113 C 
ATOM      3  C   UNL     1      21.173  28.472  18.318  1.00  0.00     0.145 C 
ATOM      4  C   UNL     1      21.808  27.474  19.286  1.00  0.00     0.142 C 
ATOM      5  C   UNL     1      21.502  27.996  20.685  1.00  0.00     0.178 C 
ATOM      6  O   UNL     1      20.101  27.837  20.792  1.00  0.00    -0.332 OA
ENDROOT
BRANCH   1   7
ATOM      7  O   UNL     1      17.991  28.329  20.222  1.00  0.00    -0.338 OA
BRANCH   7   8
ATOM      8  C   UNL     1      17.247  27.970  19.148  1.00  0.00     0.199 C 
BRANCH   8   9
ATOM      9  C   UNL     1      15.801  28.475  19.282  1.00  0.00     0.179 C 
ATOM     10  C   UNL     1      14.183  29.046  20.844  1.00  0.00     0.282 C 
ATOM     11  O   UNL     1      15.416  28.439  20.605  1.00  0.00    -0.341 OA
ATOM     12  C   UNL     1      14.199  30.517  20.519  1.00  0.00     0.202 C 
ATOM     13  C   UNL     1      15.297  30.915  19.566  1.00  0.00     0.179 C 
ATOM     14  C   UNL     1      15.575  29.787  18.613  1.00  0.00     0.177 C 
BRANCH  10  15
ATOM     15  O   UNL     1      13.927  28.884  22.152  1.00  0.00    -0.341 OA
BRANCH  15  16
ATOM     16  C   UNL     1      14.221  29.839  23.048  1.00  0.00     0.184 C 
ATOM     17  C   UNL     1      15.210  29.644  24.107  1.00  0.00     0.178 C 
ATOM     18  O   UNL     1      14.827  30.302  25.263  1.00  0.00    -0.341 OA
ATOM     19  C   UNL     1      14.292  31.545  25.143  1.00  0.00     0.281 C 
ATOM     20  C   UNL     1      12.874  30.144  23.756  1.00  0.00     0.180 C 
ATOM     21  C   UNL     1      13.029  31.560  24.268  1.00  0.00     0.202 C 
BRANCH  17  22
ATOM     22  C   UNL     1      16.604  30.148  23.740  1.00  0.00     0.191 C 
BRANCH  22  23
ATOM     23  O   UNL     1      17.071  29.567  22.560  1.00  0.00    -0.394 OA
ATOM     24  H   UNL     1      16.691  30.059  21.807  1.00  0.00     0.210 HD
ENDBRANCH  22  23
ENDBRANCH  17  22
BRANCH  19  25
ATOM     25  O   UNL     1      15.143  32.561  24.814  1.00  0.00    -0.350 OA
BRANCH  25  26
ATOM     26  C   UNL     1      15.134  33.665  25.611  1.00  0.00     0.169 C 
BRANCH  26  27
ATOM     27  C   UNL     1      15.354  33.305  27.041  1.00  0.00     0.119 C 
BRANCH  27  28
ATOM     28  N   UNL     1      16.716  32.768  27.199  1.00  0.00    -0.092 NA
ATOM     29  N   UNL     1      16.831  31.893  28.077  1.00  0.00     0.001 N 
ATOM     30  N   UNL     1      16.961  30.716  28.457  1.00  0.00    -0.003 NA
ENDBRANCH  27  28
ENDBRANCH  26  27
ENDBRANCH  25  26
ENDBRANCH  19  25
BRANCH  20  31
ATOM     31  O   UNL     1      11.821  29.989  22.894  1.00  0.00    -0.387 OA
ATOM     32  H   UNL     1      11.303  30.823  22.765  1.00  0.00     0.211 HD
ENDBRANCH  20  31
BRANCH  21  33
ATOM     33  O   UNL     1      11.908  31.971  24.937  1.00  0.00    -0.385 OA
ATOM     34  H   UNL     1      11.856  31.615  25.858  1.00  0.00     0.211 HD
ENDBRANCH  21  33
ENDBRANCH  15  16
ENDBRANCH  10  15
BRANCH  12  35
ATOM     35  O   UNL     1      12.997  30.820  19.860  1.00  0.00    -0.385 OA
ATOM     36  H   UNL     1      12.213  30.765  20.441  1.00  0.00     0.211 HD
ENDBRANCH  12  35
BRANCH  13  37
ATOM     37  O   UNL     1      16.396  31.324  20.275  1.00  0.00    -0.387 OA
ATOM     38  H   UNL     1      16.210  32.158  20.812  1.00  0.00     0.211 HD
ENDBRANCH  13  37
BRANCH  14  39
ATOM     39  O   UNL     1      16.762  30.116  17.921  1.00  0.00    -0.387 OA
ATOM     40  H   UNL     1      17.254  30.836  18.389  1.00  0.00     0.211 HD
ENDBRANCH  14  39
ENDBRANCH   8   9
ENDBRANCH   7   8
ENDBRANCH   1   7
BRANCH   1  41
ATOM     41  C   UNL     1      19.472  30.064  20.230  1.00  0.00     0.364 C 
ATOM     42  O   UNL     1      19.297  30.932  19.355  1.00  0.00    -0.246 OA
BRANCH  41  43
ATOM     43  O   UNL     1      19.791  30.523  21.496  1.00  0.00    -0.477 OA
ATOM     44  H   UNL     1      20.645  30.227  22.000  1.00  0.00     0.296 HD
ENDBRANCH  41  43
ENDBRANCH   1  41
BRANCH   3  45
ATOM     45  O   UNL     1      21.524  28.036  17.021  1.00  0.00    -0.391 OA
ATOM     46  H   UNL     1      22.464  28.308  16.837  1.00  0.00     0.211 HD
ENDBRANCH   3  45
BRANCH   5  47
ATOM     47  C   UNL     1      22.063  27.044  21.691  1.00  0.00     0.176 C 
BRANCH  47  48
ATOM     48  O   UNL     1      21.821  27.469  22.999  1.00  0.00    -0.388 OA
ATOM     49  H   UNL     1      20.849  27.559  23.187  1.00  0.00     0.211 HD
ENDBRANCH  47  48
BRANCH  47  50
ATOM     50  C   UNL     1      21.764  25.602  21.556  1.00  0.00     0.165 C 
BRANCH  50  51
ATOM     51  O   UNL     1      20.417  25.513  22.120  1.00  0.00    -0.388 OA
ATOM     52  H   UNL     1      20.503  25.416  23.096  1.00  0.00     0.211 HD
ENDBRANCH  50  51
BRANCH  50  53
ATOM     53  C   UNL     1      22.532  24.709  22.513  1.00  0.00     0.154 C 
BRANCH  53  54
ATOM     54  N   UNL     1      21.961  24.635  23.819  1.00  0.00    -0.319 N 
ATOM     55  C   UNL     1      22.780  24.694  24.975  1.00  0.00     0.407 C 
ATOM     56  H   UNL     1      20.918  24.523  23.965  1.00  0.00     0.167 HD
ATOM     57  O   UNL     1      24.036  24.806  24.770  1.00  0.00    -0.225 OA
BRANCH  55  58
ATOM     58  O   UNL     1      22.351  24.644  26.274  1.00  0.00    -0.443 OA
BRANCH  58  59
ATOM     59  C   UNL     1      22.434  25.809  27.073  1.00  0.00     0.294 C 
BRANCH  59  60
ATOM     60  C   UNL     1      21.747  26.960  26.480  1.00  0.00     0.120 A 
ATOM     61  C   UNL     1      22.150  28.268  26.585  1.00  0.00     0.138 A 
ATOM     62  N   UNL     1      20.627  26.986  25.741  1.00  0.00    -0.132 NA
ATOM     63  N   UNL     1      21.281  29.053  25.918  1.00  0.00    -0.250 N 
ATOM     64  N   UNL     1      20.366  28.258  25.413  1.00  0.00    -0.067 NA
BRANCH  63  65
ATOM     65  C   UNL     1      21.370  30.516  25.796  1.00  0.00     0.174 C 
BRANCH  65  66
ATOM     66  C   UNL     1      20.300  31.126  26.667  1.00  0.00     0.179 C 
BRANCH  66  67
ATOM     67  O   UNL     1      19.057  30.744  26.135  1.00  0.00    -0.394 OA
ATOM     68  H   UNL     1      18.719  29.910  26.502  1.00  0.00     0.210 HD
ENDBRANCH  66  67
ENDBRANCH  65  66
ENDBRANCH  63  65
ENDBRANCH  59  60
ENDBRANCH  58  59
ENDBRANCH  55  58
ENDBRANCH  53  54
ENDBRANCH  50  53
ENDBRANCH  47  50
ENDBRANCH   5  47
BRANCH   4  69
ATOM     69  N   UNL     1      23.157  27.187  18.995  1.00  0.00    -0.348 N 
ATOM     70  C   UNL     1      24.181  28.144  18.812  1.00  0.00     0.217 C 
ATOM     71  H   UNL     1      23.465  26.184  18.919  1.00  0.00     0.163 HD
ATOM     72  C   UNL     1      25.556  27.697  18.507  1.00  0.00     0.114 C 
ATOM     73  O   UNL     1      23.943  29.358  18.901  1.00  0.00    -0.275 OA
ENDBRANCH   4  69
TORSDOF 32
