REMARK VINA RESULT:    -5.668     13.006     18.975
REMARK INTER + INTRA:         -21.487
REMARK INTER:                 -12.288
REMARK INTRA:                  -9.199
REMARK UNBOUND:                -7.203
REMARK SMILES CC(=O)N[C@@H]1[C@@H](O)C[C@](OC[C@H]2O[C@@H](O[C@H]3[C@H](O)[C@@H](O)[C@H](OCCN=[N+]=[N-])O[C@@H]3CO)[C@H](O)[C@@H](O)[C@H]2O)(C(=O)O)O[C@H]1C(O)[C@H](O)CNC(=O)OCc1cn(CC2=CC[C@H]3C[C@@H]2C3(C)C)nn1
REMARK SMILES IDX 9 1 8 2 6 3 5 4 42 5 41 6 10 7 11 8 12 9 14 10 13 11 32 12
REMARK SMILES IDX 34 13 36 14 15 15 16 16 29 17 28 18 21 19 17 20 19 21 30 22
REMARK SMILES IDX 31 23 22 25 23 26 24 27 25 28 26 29 27 30 18 31 20 33 33 35
REMARK SMILES IDX 35 37 37 39 38 41 39 42 40 43 7 45 43 47 44 48 45 50 46 51
REMARK SMILES IDX 47 53 48 54 49 55 50 57 51 58 52 59 53 60 54 61 67 62 55 63
REMARK SMILES IDX 66 64 56 65 57 66 58 67 62 68 59 69 61 70 63 71 60 72 64 73
REMARK SMILES IDX 65 74 4 75 2 76 1 78 3 79
REMARK H PARENT 31 24 18 32 20 34 33 36 35 38 37 40 40 44 7 46 44 49 46 52
REMARK H PARENT 48 56 4 77
REMARK Flexibility Score: inf
ROOT
ATOM      1  C   UNL     1      11.732  24.843  35.712  1.00  0.00     0.272 C 
ATOM      2  C   UNL     1      12.099  23.477  36.193  1.00  0.00     0.113 C 
ATOM      3  C   UNL     1      10.842  22.731  36.677  1.00  0.00     0.145 C 
ATOM      4  C   UNL     1      10.228  23.436  37.832  1.00  0.00     0.142 C 
ATOM      5  C   UNL     1      10.843  24.819  37.882  1.00  0.00     0.178 C 
ATOM      6  O   UNL     1      10.842  25.424  36.678  1.00  0.00    -0.332 OA
ENDROOT
BRANCH   1   7
ATOM      7  O   UNL     1      11.068  24.924  34.570  1.00  0.00    -0.338 OA
BRANCH   7   8
ATOM      8  C   UNL     1      10.964  25.919  33.727  1.00  0.00     0.199 C 
BRANCH   8   9
ATOM      9  C   UNL     1       9.871  26.899  33.649  1.00  0.00     0.179 C 
ATOM     10  C   UNL     1       7.654  27.084  34.281  1.00  0.00     0.282 C 
ATOM     11  O   UNL     1       8.853  26.429  34.535  1.00  0.00    -0.341 OA
ATOM     12  C   UNL     1       7.751  28.523  34.037  1.00  0.00     0.202 C 
ATOM     13  C   UNL     1       9.081  29.156  33.929  1.00  0.00     0.179 C 
ATOM     14  C   UNL     1      10.216  28.243  34.320  1.00  0.00     0.177 C 
BRANCH  10  15
ATOM     15  O   UNL     1       6.882  26.850  35.436  1.00  0.00    -0.341 OA
BRANCH  15  16
ATOM     16  C   UNL     1       5.971  25.823  35.268  1.00  0.00     0.184 C 
ATOM     17  C   UNL     1       4.573  26.333  35.467  1.00  0.00     0.178 C 
ATOM     18  O   UNL     1       3.632  25.340  35.679  1.00  0.00    -0.341 OA
ATOM     19  C   UNL     1       4.043  24.058  35.462  1.00  0.00     0.281 C 
ATOM     20  C   UNL     1       6.231  24.816  36.393  1.00  0.00     0.180 C 
ATOM     21  C   UNL     1       5.273  23.673  36.248  1.00  0.00     0.202 C 
BRANCH  17  22
ATOM     22  C   UNL     1       4.179  27.126  34.216  1.00  0.00     0.191 C 
BRANCH  22  23
ATOM     23  O   UNL     1       4.399  28.471  34.477  1.00  0.00    -0.394 OA
ATOM     24  H   UNL     1       3.518  28.884  34.729  1.00  0.00     0.210 HD
ENDBRANCH  22  23
ENDBRANCH  17  22
BRANCH  19  25
ATOM     25  O   UNL     1       4.281  23.806  34.104  1.00  0.00    -0.350 OA
BRANCH  25  26
ATOM     26  C   UNL     1       4.035  22.473  33.771  1.00  0.00     0.169 C 
BRANCH  26  27
ATOM     27  C   UNL     1       4.970  22.165  32.599  1.00  0.00     0.119 C 
BRANCH  27  28
ATOM     28  N   UNL     1       6.236  21.684  33.110  1.00  0.00    -0.092 NA
ATOM     29  N   UNL     1       7.154  22.433  33.388  1.00  0.00     0.001 N 
ATOM     30  N   UNL     1       8.105  23.212  33.524  1.00  0.00    -0.003 NA
ENDBRANCH  27  28
ENDBRANCH  26  27
ENDBRANCH  25  26
ENDBRANCH  19  25
BRANCH  20  31
ATOM     31  O   UNL     1       7.539  24.310  36.282  1.00  0.00    -0.387 OA
ATOM     32  H   UNL     1       8.180  24.927  36.697  1.00  0.00     0.211 HD
ENDBRANCH  20  31
BRANCH  21  33
ATOM     33  O   UNL     1       4.912  23.116  37.473  1.00  0.00    -0.385 OA
ATOM     34  H   UNL     1       3.920  22.992  37.474  1.00  0.00     0.211 HD
ENDBRANCH  21  33
ENDBRANCH  15  16
ENDBRANCH  10  15
BRANCH  12  35
ATOM     35  O   UNL     1       7.051  28.794  32.831  1.00  0.00    -0.385 OA
ATOM     36  H   UNL     1       7.184  28.070  32.168  1.00  0.00     0.211 HD
ENDBRANCH  12  35
BRANCH  13  37
ATOM     37  O   UNL     1       9.136  30.388  34.591  1.00  0.00    -0.387 OA
ATOM     38  H   UNL     1       9.870  30.945  34.214  1.00  0.00     0.211 HD
ENDBRANCH  13  37
BRANCH  14  39
ATOM     39  O   UNL     1      10.131  28.039  35.712  1.00  0.00    -0.387 OA
ATOM     40  H   UNL     1       9.215  27.757  35.958  1.00  0.00     0.211 HD
ENDBRANCH  14  39
ENDBRANCH   8   9
ENDBRANCH   7   8
ENDBRANCH   1   7
BRANCH   1  41
ATOM     41  C   UNL     1      12.900  25.756  35.821  1.00  0.00     0.364 C 
ATOM     42  O   UNL     1      14.079  25.313  35.586  1.00  0.00    -0.246 OA
BRANCH  41  43
ATOM     43  O   UNL     1      12.805  27.061  36.167  1.00  0.00    -0.477 OA
ATOM     44  H   UNL     1      13.532  27.758  36.172  1.00  0.00     0.296 HD
ENDBRANCH  41  43
ENDBRANCH   1  41
BRANCH   3  45
ATOM     45  O   UNL     1       9.951  22.854  35.600  1.00  0.00    -0.391 OA
ATOM     46  H   UNL     1      10.411  22.521  34.790  1.00  0.00     0.211 HD
ENDBRANCH   3  45
BRANCH   5  47
ATOM     47  C   UNL     1      10.063  25.714  38.850  1.00  0.00     0.176 C 
BRANCH  47  48
ATOM     48  O   UNL     1       9.110  26.435  38.179  1.00  0.00    -0.388 OA
ATOM     49  H   UNL     1       8.224  26.483  38.634  1.00  0.00     0.211 HD
ENDBRANCH  47  48
BRANCH  47  50
ATOM     50  C   UNL     1      10.994  26.611  39.609  1.00  0.00     0.165 C 
BRANCH  50  51
ATOM     51  O   UNL     1      10.621  26.473  40.977  1.00  0.00    -0.388 OA
ATOM     52  H   UNL     1       9.788  25.907  40.926  1.00  0.00     0.211 HD
ENDBRANCH  50  51
BRANCH  50  53
ATOM     53  C   UNL     1      10.783  28.054  39.275  1.00  0.00     0.154 C 
BRANCH  53  54
ATOM     54  N   UNL     1      11.577  28.548  38.198  1.00  0.00    -0.319 N 
ATOM     55  C   UNL     1      12.656  29.429  38.450  1.00  0.00     0.407 C 
ATOM     56  H   UNL     1      11.356  28.245  37.217  1.00  0.00     0.167 HD
ATOM     57  O   UNL     1      12.920  29.777  39.608  1.00  0.00    -0.225 OA
BRANCH  55  58
ATOM     58  O   UNL     1      13.433  29.911  37.414  1.00  0.00    -0.443 OA
BRANCH  58  59
ATOM     59  C   UNL     1      13.055  30.836  36.450  1.00  0.00     0.294 C 
BRANCH  59  60
ATOM     60  C   UNL     1      13.114  30.330  35.048  1.00  0.00     0.120 A 
ATOM     61  C   UNL     1      12.483  30.836  33.937  1.00  0.00     0.138 A 
ATOM     62  N   UNL     1      13.827  29.256  34.609  1.00  0.00    -0.132 NA
ATOM     63  N   UNL     1      12.811  30.089  32.880  1.00  0.00    -0.248 N 
ATOM     64  N   UNL     1      13.622  29.144  33.313  1.00  0.00    -0.067 NA
BRANCH  63  65
ATOM     65  C   UNL     1      12.365  30.275  31.487  1.00  0.00     0.177 C 
BRANCH  65  66
ATOM     66  C   UNL     1      13.342  31.245  30.890  1.00  0.00    -0.049 C 
ATOM     67  C   UNL     1      13.038  32.555  30.792  1.00  0.00    -0.025 C 
ATOM     68  C   UNL     1      14.661  30.831  30.392  1.00  0.00     0.023 C 
ATOM     69  C   UNL     1      13.958  33.451  30.057  1.00  0.00     0.031 C 
ATOM     70  C   UNL     1      15.663  31.888  30.875  1.00  0.00     0.013 C 
ATOM     71  C   UNL     1      14.867  31.367  29.008  1.00  0.00    -0.026 C 
ATOM     72  C   UNL     1      15.206  32.712  29.665  1.00  0.00    -0.000 C 
ATOM     73  C   UNL     1      16.092  30.838  28.301  1.00  0.00     0.012 C 
ATOM     74  C   UNL     1      13.688  31.387  28.095  1.00  0.00     0.012 C 
ENDBRANCH  65  66
ENDBRANCH  63  65
ENDBRANCH  59  60
ENDBRANCH  58  59
ENDBRANCH  55  58
ENDBRANCH  53  54
ENDBRANCH  50  53
ENDBRANCH  47  50
ENDBRANCH   5  47
BRANCH   4  75
ATOM     75  N   UNL     1      10.388  22.840  39.112  1.00  0.00    -0.348 N 
ATOM     76  C   UNL     1       9.377  22.305  39.923  1.00  0.00     0.217 C 
ATOM     77  H   UNL     1      11.383  22.804  39.479  1.00  0.00     0.163 HD
ATOM     78  C   UNL     1       9.686  21.708  41.248  1.00  0.00     0.114 C 
ATOM     79  O   UNL     1       8.216  22.354  39.480  1.00  0.00    -0.275 OA
ENDBRANCH   4  75
TORSDOF 31
