REMARK VINA RESULT:    -6.056     13.412     16.137
REMARK INTER + INTRA:         -22.854
REMARK INTER:                 -15.361
REMARK INTRA:                  -7.493
REMARK UNBOUND:                -6.885
REMARK SMILES CCOC(=O)c1cccc(-n2cc(COC(=O)NC[C@@H](O)C(O)[C@@H]3O[C@@](OC[C@H]4O[C@@H](O[C@H]5[C@H](O)[C@@H](O)[C@H](OCCN=[N+]=[N-])O[C@@H]5CO)[C@H](O)[C@@H](O)[C@H]4O)(C(=O)O)C[C@H](O)[C@H]3NC(C)=O)nn2)c1
REMARK SMILES IDX 22 1 24 2 26 3 58 4 25 5 59 6 61 7 27 8 28 9 29 10 31 11
REMARK SMILES IDX 30 12 49 13 51 14 53 15 32 16 33 17 46 18 45 19 38 20 34 21
REMARK SMILES IDX 36 22 47 23 48 24 39 26 40 27 41 28 42 29 43 30 44 31 35 32
REMARK SMILES IDX 37 34 50 36 52 38 54 40 55 42 56 43 57 44 60 46 62 48 63 49
REMARK SMILES IDX 64 51 65 52 23 53 20 55 21 56 19 58 18 59 16 60 17 62 15 63
REMARK SMILES IDX 14 64 13 65 12 66 66 67 11 68 67 69 10 70 68 71 9 72 6 73
REMARK SMILES IDX 8 74 7 75 4 76 5 77 3 78 2 79 1 80
REMARK H PARENT 48 25 35 33 37 35 50 37 52 39 54 41 57 45 60 47 62 50 23 54
REMARK H PARENT 21 57 18 61
REMARK Flexibility Score: inf
ROOT
ATOM      1  C   UNL     1      18.279  30.191  23.313  1.00  0.00     0.176 C 
ENDROOT
BRANCH   1   2
ATOM      2  C   UNL     1      18.566  31.038  24.480  1.00  0.00     0.178 C 
ATOM      3  C   UNL     1      20.005  30.890  26.350  1.00  0.00     0.272 C 
ATOM      4  C   UNL     1      19.358  32.219  26.574  1.00  0.00     0.113 C 
ATOM      5  O   UNL     1      19.062  30.215  25.494  1.00  0.00    -0.332 OA
ATOM      6  C   UNL     1      17.839  32.169  26.519  1.00  0.00     0.145 C 
ATOM      7  C   UNL     1      17.445  31.839  25.041  1.00  0.00     0.142 C 
BRANCH   3   8
ATOM      8  O   UNL     1      20.019  30.166  27.501  1.00  0.00    -0.338 OA
BRANCH   8   9
ATOM      9  C   UNL     1      21.071  29.811  28.196  1.00  0.00     0.199 C 
BRANCH   9  10
ATOM     10  C   UNL     1      21.566  28.451  28.450  1.00  0.00     0.179 C 
ATOM     11  C   UNL     1      21.956  26.365  27.467  1.00  0.00     0.282 C 
ATOM     12  O   UNL     1      21.196  27.557  27.511  1.00  0.00    -0.341 OA
ATOM     13  C   UNL     1      22.749  26.177  28.723  1.00  0.00     0.202 C 
ATOM     14  C   UNL     1      23.639  27.334  29.046  1.00  0.00     0.179 C 
ATOM     15  C   UNL     1      23.123  28.565  28.383  1.00  0.00     0.177 C 
BRANCH  11  16
ATOM     16  O   UNL     1      22.666  26.436  26.304  1.00  0.00    -0.341 OA
BRANCH  16  17
ATOM     17  C   UNL     1      22.433  25.533  25.325  1.00  0.00     0.184 C 
ATOM     18  C   UNL     1      23.740  25.213  24.649  1.00  0.00     0.178 C 
ATOM     19  O   UNL     1      23.578  24.243  23.658  1.00  0.00    -0.341 OA
ATOM     20  C   UNL     1      22.832  24.835  22.600  1.00  0.00     0.281 C 
ATOM     21  C   UNL     1      21.496  26.074  24.231  1.00  0.00     0.180 C 
ATOM     22  C   UNL     1      21.440  25.002  23.145  1.00  0.00     0.202 C 
BRANCH  18  23
ATOM     23  C   UNL     1      24.753  24.710  25.637  1.00  0.00     0.191 C 
BRANCH  23  24
ATOM     24  O   UNL     1      24.133  23.849  26.579  1.00  0.00    -0.394 OA
ATOM     25  H   UNL     1      24.270  22.902  26.320  1.00  0.00     0.210 HD
ENDBRANCH  23  24
ENDBRANCH  18  23
BRANCH  20  26
ATOM     26  O   UNL     1      22.922  24.012  21.515  1.00  0.00    -0.350 OA
BRANCH  26  27
ATOM     27  C   UNL     1      23.571  24.613  20.446  1.00  0.00     0.169 C 
BRANCH  27  28
ATOM     28  C   UNL     1      22.826  24.500  19.149  1.00  0.00     0.119 C 
BRANCH  28  29
ATOM     29  N   UNL     1      22.716  25.833  18.544  1.00  0.00    -0.092 NA
ATOM     30  N   UNL     1      22.251  26.742  19.244  1.00  0.00     0.001 N 
ATOM     31  N   UNL     1      22.041  27.792  19.885  1.00  0.00    -0.003 NA
ENDBRANCH  28  29
ENDBRANCH  27  28
ENDBRANCH  26  27
ENDBRANCH  20  26
BRANCH  21  32
ATOM     32  O   UNL     1      20.195  26.188  24.698  1.00  0.00    -0.387 OA
ATOM     33  H   UNL     1      19.858  25.273  24.855  1.00  0.00     0.211 HD
ENDBRANCH  21  32
BRANCH  22  34
ATOM     34  O   UNL     1      20.526  25.346  22.155  1.00  0.00    -0.385 OA
ATOM     35  H   UNL     1      20.843  26.100  21.572  1.00  0.00     0.211 HD
ENDBRANCH  22  34
ENDBRANCH  16  17
ENDBRANCH  11  16
BRANCH  13  36
ATOM     36  O   UNL     1      21.869  25.865  29.778  1.00  0.00    -0.385 OA
ATOM     37  H   UNL     1      21.047  26.405  29.750  1.00  0.00     0.211 HD
ENDBRANCH  13  36
BRANCH  14  38
ATOM     38  O   UNL     1      24.977  27.073  28.860  1.00  0.00    -0.387 OA
ATOM     39  H   UNL     1      25.239  26.395  29.538  1.00  0.00     0.211 HD
ENDBRANCH  14  38
BRANCH  15  40
ATOM     40  O   UNL     1      23.568  28.715  27.107  1.00  0.00    -0.387 OA
ATOM     41  H   UNL     1      23.327  27.916  26.574  1.00  0.00     0.211 HD
ENDBRANCH  15  40
ENDBRANCH   9  10
ENDBRANCH   8   9
ENDBRANCH   3   8
BRANCH   3  42
ATOM     42  C   UNL     1      21.278  30.906  25.645  1.00  0.00     0.364 C 
ATOM     43  O   UNL     1      21.726  29.913  25.051  1.00  0.00    -0.246 OA
BRANCH  42  44
ATOM     44  O   UNL     1      22.056  32.065  25.615  1.00  0.00    -0.477 OA
ATOM     45  H   UNL     1      22.425  32.464  24.778  1.00  0.00     0.296 HD
ENDBRANCH  42  44
ENDBRANCH   3  42
BRANCH   6  46
ATOM     46  O   UNL     1      17.410  31.105  27.272  1.00  0.00    -0.391 OA
ATOM     47  H   UNL     1      16.632  31.379  27.815  1.00  0.00     0.211 HD
ENDBRANCH   6  46
BRANCH   7  48
ATOM     48  N   UNL     1      17.266  33.114  24.387  1.00  0.00    -0.348 N 
ATOM     49  C   UNL     1      16.311  33.349  23.344  1.00  0.00     0.217 C 
ATOM     50  H   UNL     1      17.844  33.968  24.651  1.00  0.00     0.163 HD
ATOM     51  C   UNL     1      16.155  34.676  22.692  1.00  0.00     0.114 C 
ATOM     52  O   UNL     1      15.577  32.417  22.957  1.00  0.00    -0.275 OA
ENDBRANCH   7  48
ENDBRANCH   1   2
BRANCH   1  53
ATOM     53  O   UNL     1      17.049  29.590  23.279  1.00  0.00    -0.388 OA
ATOM     54  H   UNL     1      17.096  28.635  23.040  1.00  0.00     0.211 HD
ENDBRANCH   1  53
BRANCH   1  55
ATOM     55  C   UNL     1      18.660  30.738  21.961  1.00  0.00     0.165 C 
BRANCH  55  56
ATOM     56  O   UNL     1      17.519  31.018  21.203  1.00  0.00    -0.388 OA
ATOM     57  H   UNL     1      17.148  30.181  20.820  1.00  0.00     0.211 HD
ENDBRANCH  55  56
BRANCH  55  58
ATOM     58  C   UNL     1      19.720  29.959  21.243  1.00  0.00     0.154 C 
BRANCH  58  59
ATOM     59  N   UNL     1      19.166  28.899  20.433  1.00  0.00    -0.319 N 
ATOM     60  C   UNL     1      18.810  29.112  19.083  1.00  0.00     0.407 C 
ATOM     61  H   UNL     1      19.017  27.926  20.845  1.00  0.00     0.167 HD
ATOM     62  O   UNL     1      18.936  30.193  18.465  1.00  0.00    -0.225 OA
BRANCH  60  63
ATOM     63  O   UNL     1      18.254  28.063  18.324  1.00  0.00    -0.443 OA
BRANCH  63  64
ATOM     64  C   UNL     1      16.904  27.716  18.310  1.00  0.00     0.294 C 
BRANCH  64  65
ATOM     65  C   UNL     1      16.087  28.266  19.400  1.00  0.00     0.121 A 
ATOM     66  C   UNL     1      15.087  29.224  19.272  1.00  0.00     0.144 A 
ATOM     67  N   UNL     1      16.144  27.962  20.691  1.00  0.00    -0.131 NA
ATOM     68  N   UNL     1      14.591  29.453  20.487  1.00  0.00    -0.220 N 
ATOM     69  N   UNL     1      15.233  28.686  21.339  1.00  0.00    -0.062 NA
BRANCH  68  70
ATOM     70  C   UNL     1      13.553  30.359  20.796  1.00  0.00     0.067 A 
ATOM     71  C   UNL     1      13.118  31.311  19.877  1.00  0.00     0.044 A 
ATOM     72  C   UNL     1      12.914  30.341  22.007  1.00  0.00     0.028 A 
ATOM     73  C   UNL     1      12.109  32.202  20.126  1.00  0.00     0.062 A 
ATOM     74  C   UNL     1      11.887  31.226  22.297  1.00  0.00     0.003 A 
ATOM     75  C   UNL     1      11.483  32.155  21.366  1.00  0.00     0.016 A 
BRANCH  73  76
ATOM     76  C   UNL     1      11.708  33.169  19.126  1.00  0.00     0.338 C 
ATOM     77  O   UNL     1      12.176  34.324  19.166  1.00  0.00    -0.246 OA
BRANCH  76  78
ATOM     78  O   UNL     1      10.823  32.815  18.141  1.00  0.00    -0.462 OA
BRANCH  78  79
ATOM     79  C   UNL     1      11.133  32.793  16.767  1.00  0.00     0.230 C 
ATOM     80  C   UNL     1      11.771  31.469  16.404  1.00  0.00     0.049 C 
ENDBRANCH  78  79
ENDBRANCH  76  78
ENDBRANCH  73  76
ENDBRANCH  68  70
ENDBRANCH  64  65
ENDBRANCH  63  64
ENDBRANCH  60  63
ENDBRANCH  58  59
ENDBRANCH  55  58
ENDBRANCH   1  55
TORSDOF 33
