REMARK VINA RESULT:    -6.097      2.815      6.015
REMARK INTER + INTRA:         -20.451
REMARK INTER:                 -16.140
REMARK INTRA:                  -4.311
REMARK UNBOUND:                -4.909
REMARK SMILES CC(=O)N[C@@H]1[C@@H](O)C[C@](OC[C@H]2O[C@@H](O[C@H]3[C@H](O)[C@@H](O)[C@H](OCCN=[N+]=[N-])O[C@@H]3CO)[C@H](O)[C@@H](O)[C@H]2O)(C(=O)O)O[C@H]1C(O)[C@H](O)CNC(=O)OCc1cn(CCO)nn1
REMARK SMILES IDX 9 1 8 2 6 3 5 4 42 5 41 6 10 7 11 8 12 9 14 10 13 11 32 12
REMARK SMILES IDX 34 13 36 14 15 15 16 16 29 17 28 18 21 19 17 20 19 21 30 22
REMARK SMILES IDX 31 23 22 25 23 26 24 27 25 28 26 29 27 30 18 31 20 33 33 35
REMARK SMILES IDX 35 37 37 39 38 41 39 42 40 43 7 45 43 47 44 48 45 50 46 51
REMARK SMILES IDX 47 53 48 54 49 55 50 57 51 58 52 59 53 60 54 61 60 62 55 63
REMARK SMILES IDX 59 64 56 65 57 66 58 67 4 69 2 70 1 72 3 73
REMARK H PARENT 31 24 18 32 20 34 33 36 35 38 37 40 40 44 7 46 44 49 46 52
REMARK H PARENT 48 56 58 68 4 71
REMARK Flexibility Score: inf
ROOT
ATOM      1  C   UNL     1       5.761  24.030  34.754  1.00  0.00     0.272 C 
ATOM      2  C   UNL     1       5.840  25.325  34.014  1.00  0.00     0.113 C 
ATOM      3  C   UNL     1       6.898  26.204  34.622  1.00  0.00     0.145 C 
ATOM      4  C   UNL     1       8.192  25.391  34.582  1.00  0.00     0.142 C 
ATOM      5  C   UNL     1       7.975  24.215  35.527  1.00  0.00     0.178 C 
ATOM      6  O   UNL     1       6.987  23.446  34.868  1.00  0.00    -0.332 OA
ENDROOT
BRANCH   1   7
ATOM      7  O   UNL     1       4.913  23.116  34.089  1.00  0.00    -0.338 OA
BRANCH   7   8
ATOM      8  C   UNL     1       4.973  23.132  32.735  1.00  0.00     0.199 C 
BRANCH   8   9
ATOM      9  C   UNL     1       3.694  22.546  32.116  1.00  0.00     0.179 C 
ATOM     10  C   UNL     1       2.464  22.464  30.150  1.00  0.00     0.282 C 
ATOM     11  O   UNL     1       3.501  23.072  30.857  1.00  0.00    -0.341 OA
ATOM     12  C   UNL     1       2.732  21.006  29.887  1.00  0.00     0.202 C 
ATOM     13  C   UNL     1       3.742  20.395  30.826  1.00  0.00     0.179 C 
ATOM     14  C   UNL     1       3.647  21.057  32.172  1.00  0.00     0.177 C 
BRANCH  10  15
ATOM     15  O   UNL     1       2.368  23.115  28.981  1.00  0.00    -0.341 OA
BRANCH  15  16
ATOM     16  C   UNL     1       2.718  24.406  28.865  1.00  0.00     0.184 C 
ATOM     17  C   UNL     1       1.750  25.496  28.989  1.00  0.00     0.178 C 
ATOM     18  O   UNL     1       2.070  26.534  28.132  1.00  0.00    -0.341 OA
ATOM     19  C   UNL     1       3.377  26.884  28.012  1.00  0.00     0.281 C 
ATOM     20  C   UNL     1       3.331  24.523  27.445  1.00  0.00     0.180 C 
ATOM     21  C   UNL     1       4.255  25.719  27.531  1.00  0.00     0.202 C 
BRANCH  17  22
ATOM     22  C   UNL     1       1.665  26.079  30.396  1.00  0.00     0.191 C 
BRANCH  22  23
ATOM     23  O   UNL     1       2.822  25.824  31.134  1.00  0.00    -0.394 OA
ATOM     24  H   UNL     1       3.570  26.270  30.694  1.00  0.00     0.210 HD
ENDBRANCH  22  23
ENDBRANCH  17  22
BRANCH  19  25
ATOM     25  O   UNL     1       3.946  27.541  29.065  1.00  0.00    -0.350 OA
BRANCH  25  26
ATOM     26  C   UNL     1       3.871  28.901  29.066  1.00  0.00     0.169 C 
BRANCH  26  27
ATOM     27  C   UNL     1       5.212  29.519  28.854  1.00  0.00     0.119 C 
BRANCH  27  28
ATOM     28  N   UNL     1       5.385  29.816  27.422  1.00  0.00    -0.092 NA
ATOM     29  N   UNL     1       6.286  29.165  26.861  1.00  0.00     0.001 N 
ATOM     30  N   UNL     1       6.698  28.259  26.116  1.00  0.00    -0.003 NA
ENDBRANCH  27  28
ENDBRANCH  26  27
ENDBRANCH  25  26
ENDBRANCH  19  25
BRANCH  20  31
ATOM     31  O   UNL     1       3.972  23.365  27.091  1.00  0.00    -0.387 OA
ATOM     32  H   UNL     1       4.806  23.213  27.604  1.00  0.00     0.211 HD
ENDBRANCH  20  31
BRANCH  21  33
ATOM     33  O   UNL     1       4.870  25.959  26.331  1.00  0.00    -0.385 OA
ATOM     34  H   UNL     1       4.863  25.173  25.731  1.00  0.00     0.211 HD
ENDBRANCH  21  33
ENDBRANCH  15  16
ENDBRANCH  10  15
BRANCH  12  35
ATOM     35  O   UNL     1       1.536  20.306  30.111  1.00  0.00    -0.385 OA
ATOM     36  H   UNL     1       1.269  19.745  29.356  1.00  0.00     0.211 HD
ENDBRANCH  12  35
BRANCH  13  37
ATOM     37  O   UNL     1       4.990  20.460  30.264  1.00  0.00    -0.387 OA
ATOM     38  H   UNL     1       5.610  19.759  30.640  1.00  0.00     0.211 HD
ENDBRANCH  13  37
BRANCH  14  39
ATOM     39  O   UNL     1       4.766  20.629  32.921  1.00  0.00    -0.387 OA
ATOM     40  H   UNL     1       5.501  21.289  32.864  1.00  0.00     0.211 HD
ENDBRANCH  14  39
ENDBRANCH   8   9
ENDBRANCH   7   8
ENDBRANCH   1   7
BRANCH   1  41
ATOM     41  C   UNL     1       5.089  24.264  36.051  1.00  0.00     0.364 C 
ATOM     42  O   UNL     1       5.203  23.493  37.022  1.00  0.00    -0.246 OA
BRANCH  41  43
ATOM     43  O   UNL     1       4.289  25.377  36.241  1.00  0.00    -0.477 OA
ATOM     44  H   UNL     1       3.925  25.653  37.170  1.00  0.00     0.296 HD
ENDBRANCH  41  43
ENDBRANCH   1  41
BRANCH   3  45
ATOM     45  O   UNL     1       7.126  27.339  33.812  1.00  0.00    -0.391 OA
ATOM     46  H   UNL     1       6.393  27.405  33.142  1.00  0.00     0.211 HD
ENDBRANCH   3  45
BRANCH   5  47
ATOM     47  C   UNL     1       9.193  23.348  35.511  1.00  0.00     0.176 C 
BRANCH  47  48
ATOM     48  O   UNL     1       9.974  23.573  34.377  1.00  0.00    -0.388 OA
ATOM     49  H   UNL     1      10.348  22.729  34.009  1.00  0.00     0.211 HD
ENDBRANCH  47  48
BRANCH  47  50
ATOM     50  C   UNL     1      10.044  23.290  36.719  1.00  0.00     0.165 C 
BRANCH  50  51
ATOM     51  O   UNL     1      10.514  21.906  36.698  1.00  0.00    -0.388 OA
ATOM     52  H   UNL     1      10.142  21.470  35.897  1.00  0.00     0.211 HD
ENDBRANCH  50  51
BRANCH  50  53
ATOM     53  C   UNL     1       9.277  23.310  38.029  1.00  0.00     0.154 C 
BRANCH  53  54
ATOM     54  N   UNL     1      10.097  23.123  39.182  1.00  0.00    -0.319 N 
ATOM     55  C   UNL     1       9.991  21.946  39.966  1.00  0.00     0.407 C 
ATOM     56  H   UNL     1      10.796  23.856  39.493  1.00  0.00     0.167 HD
ATOM     57  O   UNL     1       9.125  21.090  39.580  1.00  0.00    -0.225 OA
BRANCH  55  58
ATOM     58  O   UNL     1      10.726  21.648  41.081  1.00  0.00    -0.443 OA
BRANCH  58  59
ATOM     59  C   UNL     1      11.582  22.635  41.626  1.00  0.00     0.294 C 
BRANCH  59  60
ATOM     60  C   UNL     1      13.001  22.286  41.515  1.00  0.00     0.120 A 
ATOM     61  C   UNL     1      13.651  21.343  42.272  1.00  0.00     0.138 A 
ATOM     62  N   UNL     1      13.932  22.789  40.690  1.00  0.00    -0.132 NA
ATOM     63  N   UNL     1      14.945  21.291  41.898  1.00  0.00    -0.250 N 
ATOM     64  N   UNL     1      15.096  22.174  40.938  1.00  0.00    -0.067 NA
BRANCH  63  65
ATOM     65  C   UNL     1      15.966  20.403  42.474  1.00  0.00     0.174 C 
BRANCH  65  66
ATOM     66  C   UNL     1      16.912  19.997  41.371  1.00  0.00     0.179 C 
BRANCH  66  67
ATOM     67  O   UNL     1      16.174  19.249  40.439  1.00  0.00    -0.394 OA
ATOM     68  H   UNL     1      16.730  18.744  39.821  1.00  0.00     0.210 HD
ENDBRANCH  66  67
ENDBRANCH  65  66
ENDBRANCH  63  65
ENDBRANCH  59  60
ENDBRANCH  58  59
ENDBRANCH  55  58
ENDBRANCH  53  54
ENDBRANCH  50  53
ENDBRANCH  47  50
ENDBRANCH   5  47
BRANCH   4  69
ATOM     69  N   UNL     1       9.352  26.165  34.788  1.00  0.00    -0.348 N 
ATOM     70  C   UNL     1       9.676  26.863  35.974  1.00  0.00     0.217 C 
ATOM     71  H   UNL     1      10.066  26.237  34.019  1.00  0.00     0.163 HD
ATOM     72  C   UNL     1      10.929  27.641  36.047  1.00  0.00     0.114 C 
ATOM     73  O   UNL     1       8.921  26.834  36.958  1.00  0.00    -0.275 OA
ENDBRANCH   4  69
TORSDOF 32
