REMARK VINA RESULT:    -5.355      2.695      8.190
REMARK INTER + INTRA:         -19.949
REMARK INTER:                 -12.311
REMARK INTRA:                  -7.638
REMARK UNBOUND:                -6.769
REMARK SMILES CC(=O)N[C@@H]1[C@@H](O)C[C@](OC[C@H]2O[C@@H](O[C@H]3[C@H](O)[C@@H](O)[C@H](OCCN=[N+]=[N-])O[C@@H]3CO)[C@H](O)[C@@H](O)[C@H]2O)(C(=O)O)O[C@H]1C(O)[C@H](O)CNC(=O)OCc1cn(-c2cccnc2)nn1
REMARK SMILES IDX 9 1 8 2 6 3 5 4 42 5 41 6 10 7 11 8 12 9 14 10 13 11 32 12
REMARK SMILES IDX 34 13 36 14 15 15 16 16 29 17 28 18 21 19 17 20 19 21 30 22
REMARK SMILES IDX 31 23 22 25 23 26 24 27 25 28 26 29 27 30 18 31 20 33 33 35
REMARK SMILES IDX 35 37 37 39 38 41 39 42 40 43 7 45 43 47 44 48 45 50 46 51
REMARK SMILES IDX 47 53 48 54 49 55 50 57 51 58 52 59 53 60 54 61 63 62 55 63
REMARK SMILES IDX 62 64 56 65 57 66 61 67 58 68 60 69 59 70 4 71 2 72 1 74
REMARK SMILES IDX 3 75
REMARK H PARENT 31 24 18 32 20 34 33 36 35 38 37 40 40 44 7 46 44 49 46 52
REMARK H PARENT 48 56 4 73
REMARK Flexibility Score: inf
ROOT
ATOM      1  C   UNL     1      17.163  29.591  16.036  1.00  0.00     0.272 C 
ATOM      2  C   UNL     1      17.171  31.061  16.146  1.00  0.00     0.113 C 
ATOM      3  C   UNL     1      16.788  31.725  14.869  1.00  0.00     0.145 C 
ATOM      4  C   UNL     1      15.665  31.041  14.131  1.00  0.00     0.142 C 
ATOM      5  C   UNL     1      15.147  29.834  14.827  1.00  0.00     0.178 C 
ATOM      6  O   UNL     1      16.154  29.001  15.295  1.00  0.00    -0.332 OA
ENDROOT
BRANCH   1   7
ATOM      7  O   UNL     1      17.087  28.967  17.280  1.00  0.00    -0.338 OA
BRANCH   7   8
ATOM      8  C   UNL     1      16.316  29.566  18.225  1.00  0.00     0.199 C 
BRANCH   8   9
ATOM      9  C   UNL     1      15.579  28.444  18.981  1.00  0.00     0.179 C 
ATOM     10  C   UNL     1      16.701  28.733  21.017  1.00  0.00     0.282 C 
ATOM     11  O   UNL     1      16.363  27.936  19.945  1.00  0.00    -0.341 OA
ATOM     12  C   UNL     1      15.518  29.510  21.481  1.00  0.00     0.202 C 
ATOM     13  C   UNL     1      14.261  28.785  20.978  1.00  0.00     0.179 C 
ATOM     14  C   UNL     1      14.216  28.908  19.463  1.00  0.00     0.177 C 
BRANCH  10  15
ATOM     15  O   UNL     1      17.778  29.514  20.602  1.00  0.00    -0.341 OA
BRANCH  15  16
ATOM     16  C   UNL     1      18.996  28.966  20.832  1.00  0.00     0.184 C 
ATOM     17  C   UNL     1      19.860  29.676  21.828  1.00  0.00     0.178 C 
ATOM     18  O   UNL     1      20.748  28.737  22.352  1.00  0.00    -0.341 OA
ATOM     19  C   UNL     1      21.318  27.910  21.389  1.00  0.00     0.281 C 
ATOM     20  C   UNL     1      19.862  28.868  19.580  1.00  0.00     0.180 C 
ATOM     21  C   UNL     1      21.294  28.509  20.003  1.00  0.00     0.202 C 
BRANCH  17  22
ATOM     22  C   UNL     1      19.162  30.369  22.939  1.00  0.00     0.191 C 
BRANCH  22  23
ATOM     23  O   UNL     1      18.466  29.509  23.747  1.00  0.00    -0.394 OA
ATOM     24  H   UNL     1      19.116  28.874  24.143  1.00  0.00     0.210 HD
ENDBRANCH  22  23
ENDBRANCH  17  22
BRANCH  19  25
ATOM     25  O   UNL     1      20.767  26.662  21.346  1.00  0.00    -0.350 OA
BRANCH  25  26
ATOM     26  C   UNL     1      21.493  25.590  21.722  1.00  0.00     0.169 C 
BRANCH  26  27
ATOM     27  C   UNL     1      21.111  24.874  22.971  1.00  0.00     0.119 C 
BRANCH  27  28
ATOM     28  N   UNL     1      21.516  25.462  24.201  1.00  0.00    -0.092 NA
ATOM     29  N   UNL     1      20.771  26.210  24.868  1.00  0.00     0.001 N 
ATOM     30  N   UNL     1      20.225  27.292  25.145  1.00  0.00    -0.003 NA
ENDBRANCH  27  28
ENDBRANCH  26  27
ENDBRANCH  25  26
ENDBRANCH  19  25
BRANCH  20  31
ATOM     31  O   UNL     1      19.403  27.829  18.783  1.00  0.00    -0.387 OA
ATOM     32  H   UNL     1      18.590  27.392  19.150  1.00  0.00     0.211 HD
ENDBRANCH  20  31
BRANCH  21  33
ATOM     33  O   UNL     1      22.143  29.612  19.930  1.00  0.00    -0.385 OA
ATOM     34  H   UNL     1      22.947  29.349  19.419  1.00  0.00     0.211 HD
ENDBRANCH  21  33
ENDBRANCH  15  16
ENDBRANCH  10  15
BRANCH  12  35
ATOM     35  O   UNL     1      15.416  29.420  22.882  1.00  0.00    -0.385 OA
ATOM     36  H   UNL     1      15.501  28.452  23.138  1.00  0.00     0.211 HD
ENDBRANCH  12  35
BRANCH  13  37
ATOM     37  O   UNL     1      13.112  29.227  21.581  1.00  0.00    -0.387 OA
ATOM     38  H   UNL     1      12.370  29.234  20.927  1.00  0.00     0.211 HD
ENDBRANCH  13  37
BRANCH  14  39
ATOM     39  O   UNL     1      13.913  30.197  19.071  1.00  0.00    -0.387 OA
ATOM     40  H   UNL     1      14.757  30.625  18.768  1.00  0.00     0.211 HD
ENDBRANCH  14  39
ENDBRANCH   8   9
ENDBRANCH   7   8
ENDBRANCH   1   7
BRANCH   1  41
ATOM     41  C   UNL     1      18.493  29.188  15.432  1.00  0.00     0.364 C 
ATOM     42  O   UNL     1      19.462  29.024  16.190  1.00  0.00    -0.246 OA
BRANCH  41  43
ATOM     43  O   UNL     1      18.672  28.999  14.084  1.00  0.00    -0.477 OA
ATOM     44  H   UNL     1      19.169  29.629  13.467  1.00  0.00     0.296 HD
ENDBRANCH  41  43
ENDBRANCH   1  41
BRANCH   3  45
ATOM     45  O   UNL     1      16.415  33.047  15.206  1.00  0.00    -0.391 OA
ATOM     46  H   UNL     1      17.074  33.482  15.779  1.00  0.00     0.211 HD
ENDBRANCH   3  45
BRANCH   5  47
ATOM     47  C   UNL     1      14.095  30.078  15.855  1.00  0.00     0.176 C 
BRANCH  47  48
ATOM     48  O   UNL     1      13.106  29.072  15.704  1.00  0.00    -0.388 OA
ATOM     49  H   UNL     1      12.854  28.739  16.610  1.00  0.00     0.211 HD
ENDBRANCH  47  48
BRANCH  47  50
ATOM     50  C   UNL     1      13.365  31.382  15.779  1.00  0.00     0.165 C 
BRANCH  50  51
ATOM     51  O   UNL     1      13.965  32.123  16.885  1.00  0.00    -0.388 OA
ATOM     52  H   UNL     1      14.818  31.657  17.060  1.00  0.00     0.211 HD
ENDBRANCH  50  51
BRANCH  50  53
ATOM     53  C   UNL     1      11.924  31.344  16.172  1.00  0.00     0.154 C 
BRANCH  53  54
ATOM     54  N   UNL     1      11.603  31.754  17.501  1.00  0.00    -0.319 N 
ATOM     55  C   UNL     1      10.497  32.667  17.676  1.00  0.00     0.407 C 
ATOM     56  H   UNL     1      12.061  31.458  18.357  1.00  0.00     0.167 HD
ATOM     57  O   UNL     1       9.882  33.044  16.657  1.00  0.00    -0.225 OA
BRANCH  55  58
ATOM     58  O   UNL     1      10.123  33.117  18.917  1.00  0.00    -0.443 OA
BRANCH  58  59
ATOM     59  C   UNL     1      10.919  34.057  19.594  1.00  0.00     0.294 C 
BRANCH  59  60
ATOM     60  C   UNL     1      11.672  33.365  20.662  1.00  0.00     0.121 A 
ATOM     61  C   UNL     1      11.581  33.510  22.027  1.00  0.00     0.144 A 
ATOM     62  N   UNL     1      12.635  32.415  20.472  1.00  0.00    -0.131 NA
ATOM     63  N   UNL     1      12.453  32.678  22.619  1.00  0.00    -0.219 N 
ATOM     64  N   UNL     1      13.075  32.031  21.651  1.00  0.00    -0.062 NA
BRANCH  63  65
ATOM     65  C   UNL     1      12.737  32.451  23.996  1.00  0.00     0.085 A 
ATOM     66  C   UNL     1      13.136  31.223  24.480  1.00  0.00     0.031 A 
ATOM     67  C   UNL     1      12.616  33.468  24.924  1.00  0.00     0.139 A 
ATOM     68  C   UNL     1      13.398  31.025  25.817  1.00  0.00     0.022 A 
ATOM     69  N   UNL     1      12.877  33.260  26.239  1.00  0.00    -0.262 NA
ATOM     70  C   UNL     1      13.265  32.063  26.711  1.00  0.00     0.111 A 
ENDBRANCH  63  65
ENDBRANCH  59  60
ENDBRANCH  58  59
ENDBRANCH  55  58
ENDBRANCH  53  54
ENDBRANCH  50  53
ENDBRANCH  47  50
ENDBRANCH   5  47
BRANCH   4  71
ATOM     71  N   UNL     1      16.078  30.692  12.775  1.00  0.00    -0.348 N 
ATOM     72  C   UNL     1      15.200  30.655  11.665  1.00  0.00     0.217 C 
ATOM     73  H   UNL     1      17.086  30.446  12.572  1.00  0.00     0.163 HD
ATOM     74  C   UNL     1      15.670  30.284  10.293  1.00  0.00     0.114 C 
ATOM     75  O   UNL     1      13.980  30.939  11.812  1.00  0.00    -0.275 OA
ENDBRANCH   4  71
TORSDOF 30
