REMARK VINA RESULT:    -5.476      3.223      7.518
REMARK INTER + INTRA:         -21.427
REMARK INTER:                 -12.550
REMARK INTRA:                  -8.877
REMARK UNBOUND:                -7.468
REMARK SMILES CC(=O)N[C@@H]1[C@@H](O)C[C@](OC[C@H]2O[C@@H](O[C@H]3[C@H](O)[C@@H](O)[C@H](OCCN=[N+]=[N-])O[C@@H]3CO)[C@H](O)[C@@H](O)[C@H]2O)(C(=O)O)O[C@H]1C(O)[C@H](O)CNC(=O)OCc1cn(CC(=O)O)nn1
REMARK SMILES IDX 9 1 8 2 6 3 5 4 42 5 41 6 10 7 11 8 12 9 14 10 13 11 32 12
REMARK SMILES IDX 34 13 36 14 15 15 16 16 29 17 28 18 21 19 17 20 19 21 30 22
REMARK SMILES IDX 31 23 22 25 23 26 24 27 25 28 26 29 27 30 18 31 20 33 33 35
REMARK SMILES IDX 35 37 37 39 38 41 39 42 40 43 7 45 43 47 44 48 45 50 46 51
REMARK SMILES IDX 47 53 48 54 49 55 50 57 51 58 52 59 53 60 54 61 61 62 55 63
REMARK SMILES IDX 60 64 56 65 57 66 58 67 59 68 4 70 2 71 1 73 3 74
REMARK H PARENT 31 24 18 32 20 34 33 36 35 38 37 40 40 44 7 46 44 49 46 52
REMARK H PARENT 48 56 59 69 4 72
REMARK Flexibility Score: inf
ROOT
ATOM      1  C   UNL     1       9.952  24.546  35.008  1.00  0.00     0.272 C 
ATOM      2  C   UNL     1      11.135  23.670  35.305  1.00  0.00     0.113 C 
ATOM      3  C   UNL     1      11.129  22.963  36.595  1.00  0.00     0.145 C 
ATOM      4  C   UNL     1      10.154  23.488  37.643  1.00  0.00     0.142 C 
ATOM      5  C   UNL     1       9.873  24.913  37.280  1.00  0.00     0.178 C 
ATOM      6  O   UNL     1       9.138  24.786  36.071  1.00  0.00    -0.332 OA
ENDROOT
BRANCH   1   7
ATOM      7  O   UNL     1       9.169  24.022  33.956  1.00  0.00    -0.338 OA
BRANCH   7   8
ATOM      8  C   UNL     1       8.083  23.304  34.354  1.00  0.00     0.199 C 
BRANCH   8   9
ATOM      9  C   UNL     1       6.926  23.538  33.369  1.00  0.00     0.179 C 
ATOM     10  C   UNL     1       4.762  22.740  33.346  1.00  0.00     0.282 C 
ATOM     11  O   UNL     1       6.149  22.422  33.193  1.00  0.00    -0.341 OA
ATOM     12  C   UNL     1       4.621  23.118  34.775  1.00  0.00     0.202 C 
ATOM     13  C   UNL     1       5.187  24.544  34.891  1.00  0.00     0.179 C 
ATOM     14  C   UNL     1       6.155  24.781  33.764  1.00  0.00     0.177 C 
BRANCH  10  15
ATOM     15  O   UNL     1       4.043  21.670  32.901  1.00  0.00    -0.341 OA
BRANCH  15  16
ATOM     16  C   UNL     1       3.253  21.945  31.784  1.00  0.00     0.184 C 
ATOM     17  C   UNL     1       1.815  21.940  32.211  1.00  0.00     0.178 C 
ATOM     18  O   UNL     1       0.993  21.553  31.188  1.00  0.00    -0.341 OA
ATOM     19  C   UNL     1       1.333  21.967  29.925  1.00  0.00     0.281 C 
ATOM     20  C   UNL     1       3.435  20.893  30.710  1.00  0.00     0.180 C 
ATOM     21  C   UNL     1       2.665  21.386  29.483  1.00  0.00     0.202 C 
BRANCH  17  22
ATOM     22  C   UNL     1       1.427  23.331  32.676  1.00  0.00     0.191 C 
BRANCH  22  23
ATOM     23  O   UNL     1       2.395  24.195  32.158  1.00  0.00    -0.394 OA
ATOM     24  H   UNL     1       2.872  24.661  32.880  1.00  0.00     0.210 HD
ENDBRANCH  22  23
ENDBRANCH  17  22
BRANCH  19  25
ATOM     25  O   UNL     1       1.294  23.331  29.826  1.00  0.00    -0.350 OA
BRANCH  25  26
ATOM     26  C   UNL     1       0.352  23.813  28.953  1.00  0.00     0.169 C 
BRANCH  26  27
ATOM     27  C   UNL     1       0.623  23.511  27.503  1.00  0.00     0.119 C 
BRANCH  27  28
ATOM     28  N   UNL     1       1.646  24.407  26.960  1.00  0.00    -0.092 NA
ATOM     29  N   UNL     1       2.709  23.857  26.609  1.00  0.00     0.001 N 
ATOM     30  N   UNL     1       3.945  23.724  26.516  1.00  0.00    -0.003 NA
ENDBRANCH  27  28
ENDBRANCH  26  27
ENDBRANCH  25  26
ENDBRANCH  19  25
BRANCH  20  31
ATOM     31  O   UNL     1       4.741  20.719  30.326  1.00  0.00    -0.387 OA
ATOM     32  H   UNL     1       5.410  21.051  30.945  1.00  0.00     0.211 HD
ENDBRANCH  20  31
BRANCH  21  33
ATOM     33  O   UNL     1       2.447  20.360  28.583  1.00  0.00    -0.385 OA
ATOM     34  H   UNL     1       3.267  19.823  28.431  1.00  0.00     0.211 HD
ENDBRANCH  21  33
ENDBRANCH  15  16
ENDBRANCH  10  15
BRANCH  12  35
ATOM     35  O   UNL     1       3.383  22.998  35.336  1.00  0.00    -0.385 OA
ATOM     36  H   UNL     1       3.037  23.868  35.592  1.00  0.00     0.211 HD
ENDBRANCH  12  35
BRANCH  13  37
ATOM     37  O   UNL     1       5.825  24.624  36.119  1.00  0.00    -0.387 OA
ATOM     38  H   UNL     1       5.197  24.822  36.869  1.00  0.00     0.211 HD
ENDBRANCH  13  37
BRANCH  14  39
ATOM     39  O   UNL     1       7.073  25.724  34.228  1.00  0.00    -0.387 OA
ATOM     40  H   UNL     1       7.497  25.453  35.075  1.00  0.00     0.211 HD
ENDBRANCH  14  39
ENDBRANCH   8   9
ENDBRANCH   7   8
ENDBRANCH   1   7
BRANCH   1  41
ATOM     41  C   UNL     1      10.456  25.841  34.498  1.00  0.00     0.364 C 
ATOM     42  O   UNL     1       9.689  26.789  34.244  1.00  0.00    -0.246 OA
BRANCH  41  43
ATOM     43  O   UNL     1      11.806  26.062  34.279  1.00  0.00    -0.477 OA
ATOM     44  H   UNL     1      12.514  25.322  34.370  1.00  0.00     0.296 HD
ENDBRANCH  41  43
ENDBRANCH   1  41
BRANCH   3  45
ATOM     45  O   UNL     1      11.072  21.569  36.489  1.00  0.00    -0.391 OA
ATOM     46  H   UNL     1      10.190  21.197  36.657  1.00  0.00     0.211 HD
ENDBRANCH   3  45
BRANCH   5  47
ATOM     47  C   UNL     1       9.074  25.723  38.242  1.00  0.00     0.176 C 
BRANCH  47  48
ATOM     48  O   UNL     1       7.720  25.576  37.791  1.00  0.00    -0.388 OA
ATOM     49  H   UNL     1       7.675  24.827  37.131  1.00  0.00     0.211 HD
ENDBRANCH  47  48
BRANCH  47  50
ATOM     50  C   UNL     1       9.403  27.200  38.238  1.00  0.00     0.165 C 
BRANCH  50  51
ATOM     51  O   UNL     1      10.116  27.511  39.425  1.00  0.00    -0.388 OA
ATOM     52  H   UNL     1       9.812  28.397  39.719  1.00  0.00     0.211 HD
ENDBRANCH  50  51
BRANCH  50  53
ATOM     53  C   UNL     1       8.212  28.071  38.141  1.00  0.00     0.154 C 
BRANCH  53  54
ATOM     54  N   UNL     1       7.959  28.519  36.803  1.00  0.00    -0.319 N 
ATOM     55  C   UNL     1       6.821  28.251  36.011  1.00  0.00     0.407 C 
ATOM     56  H   UNL     1       8.686  29.138  36.290  1.00  0.00     0.167 HD
ATOM     57  O   UNL     1       5.892  27.553  36.427  1.00  0.00    -0.225 OA
BRANCH  55  58
ATOM     58  O   UNL     1       6.682  28.756  34.713  1.00  0.00    -0.443 OA
BRANCH  58  59
ATOM     59  C   UNL     1       5.420  29.180  34.226  1.00  0.00     0.294 C 
BRANCH  59  60
ATOM     60  C   UNL     1       4.962  28.293  33.112  1.00  0.00     0.120 A 
ATOM     61  C   UNL     1       5.589  28.111  31.888  1.00  0.00     0.139 A 
ATOM     62  N   UNL     1       3.871  27.513  33.077  1.00  0.00    -0.132 NA
ATOM     63  N   UNL     1       4.860  27.237  31.170  1.00  0.00    -0.241 N 
ATOM     64  N   UNL     1       3.821  26.889  31.913  1.00  0.00    -0.066 NA
BRANCH  63  65
ATOM     65  C   UNL     1       5.133  26.740  29.818  1.00  0.00     0.268 C 
BRANCH  65  66
ATOM     66  C   UNL     1       3.879  26.190  29.273  1.00  0.00     0.325 C 
ATOM     67  O   UNL     1       3.125  26.904  28.596  1.00  0.00    -0.250 OA
BRANCH  66  68
ATOM     68  O   UNL     1       3.545  24.874  29.519  1.00  0.00    -0.480 OA
ATOM     69  H   UNL     1       3.667  24.436  30.408  1.00  0.00     0.296 HD
ENDBRANCH  66  68
ENDBRANCH  65  66
ENDBRANCH  63  65
ENDBRANCH  59  60
ENDBRANCH  58  59
ENDBRANCH  55  58
ENDBRANCH  53  54
ENDBRANCH  50  53
ENDBRANCH  47  50
ENDBRANCH   5  47
BRANCH   4  70
ATOM     70  N   UNL     1      10.615  23.217  38.961  1.00  0.00    -0.348 N 
ATOM     71  C   UNL     1       9.951  22.287  39.834  1.00  0.00     0.217 C 
ATOM     72  H   UNL     1      11.469  23.676  39.335  1.00  0.00     0.163 HD
ATOM     73  C   UNL     1      10.503  22.065  41.191  1.00  0.00     0.114 C 
ATOM     74  O   UNL     1       8.924  21.673  39.462  1.00  0.00    -0.275 OA
ENDBRANCH   4  70
TORSDOF 32
