REMARK VINA RESULT:    -5.218      0.000      0.000
REMARK INTER + INTRA:         -23.963
REMARK INTER:                 -15.197
REMARK INTRA:                  -8.765
REMARK UNBOUND:                -9.744
REMARK SMILES CC(=O)N[C@@H]1[C@@H](O)C[C@](OC[C@H]2O[C@@H](O[C@H]3[C@H](O)[C@@H](O)[C@H](OCCN=[N+]=[N-])O[C@@H]3CO)[C@H](O)[C@@H](O)[C@H]2O)(C(=O)O)O[C@H]1C(O)[C@H](O)CNC(=O)OCc1cn(CC(O)Cn2ccnc2[N+](=O)[O-])nn1
REMARK SMILES IDX 43 1 42 2 9 3 8 4 41 5 6 6 5 7 10 8 11 9 12 10 14 11 13 12
REMARK SMILES IDX 32 13 34 14 36 15 15 16 16 17 29 18 28 19 21 20 17 21 19 22
REMARK SMILES IDX 30 23 31 24 22 26 23 27 24 28 25 29 26 30 27 31 18 32 20 34
REMARK SMILES IDX 33 36 35 38 37 40 38 42 39 43 40 44 7 46 4 48 2 49 1 51 3 52
REMARK SMILES IDX 44 53 45 55 46 56 47 58 48 59 49 60 50 62 51 63 52 64 53 65
REMARK SMILES IDX 54 66 69 67 55 68 68 69 56 70 57 71 58 72 59 74 60 75 61 76
REMARK SMILES IDX 64 77 62 78 63 79 65 80 66 81 67 82
REMARK H PARENT 31 25 18 33 20 35 33 37 35 39 37 41 40 45 7 47 4 50 44 54
REMARK H PARENT 46 57 48 61 58 73
REMARK Flexibility Score: inf
ROOT
ATOM      1  C   UNL     1      17.805  31.481  17.137  1.00  0.00     0.176 C 
ENDROOT
BRANCH   1   2
ATOM      2  C   UNL     1      16.899  30.426  17.841  1.00  0.00     0.178 C 
ATOM      3  C   UNL     1      17.004  29.262  19.837  1.00  0.00     0.272 C 
ATOM      4  C   UNL     1      16.543  28.013  19.146  1.00  0.00     0.113 C 
ATOM      5  O   UNL     1      17.683  30.087  18.946  1.00  0.00    -0.332 OA
ATOM      6  C   UNL     1      17.065  27.942  17.717  1.00  0.00     0.145 C 
ATOM      7  C   UNL     1      16.762  29.240  16.980  1.00  0.00     0.142 C 
BRANCH   3   8
ATOM      8  O   UNL     1      17.942  29.020  20.834  1.00  0.00    -0.338 OA
BRANCH   8   9
ATOM      9  C   UNL     1      19.006  29.831  20.948  1.00  0.00     0.199 C 
BRANCH   9  10
ATOM     10  C   UNL     1      19.129  30.486  22.310  1.00  0.00     0.179 C 
ATOM     11  C   UNL     1      18.010  30.968  24.182  1.00  0.00     0.282 C 
ATOM     12  O   UNL     1      18.202  29.932  23.235  1.00  0.00    -0.341 OA
ATOM     13  C   UNL     1      19.313  31.322  24.854  1.00  0.00     0.202 C 
ATOM     14  C   UNL     1      20.310  30.221  24.496  1.00  0.00     0.179 C 
ATOM     15  C   UNL     1      20.468  30.260  22.973  1.00  0.00     0.177 C 
BRANCH  11  16
ATOM     16  O   UNL     1      17.071  30.627  25.133  1.00  0.00    -0.341 OA
BRANCH  16  17
ATOM     17  C   UNL     1      15.833  30.967  24.636  1.00  0.00     0.184 C 
ATOM     18  C   UNL     1      14.976  31.760  25.610  1.00  0.00     0.178 C 
ATOM     19  O   UNL     1      13.982  32.334  24.811  1.00  0.00    -0.341 OA
ATOM     20  C   UNL     1      13.101  31.436  24.273  1.00  0.00     0.281 C 
ATOM     21  C   UNL     1      14.995  29.743  24.294  1.00  0.00     0.180 C 
ATOM     22  C   UNL     1      13.641  30.126  23.830  1.00  0.00     0.202 C 
BRANCH  18  23
ATOM     23  C   UNL     1      15.719  32.795  26.374  1.00  0.00     0.191 C 
BRANCH  23  24
ATOM     24  O   UNL     1      16.467  32.161  27.359  1.00  0.00    -0.394 OA
ATOM     25  H   UNL     1      16.562  32.704  28.181  1.00  0.00     0.210 HD
ENDBRANCH  23  24
ENDBRANCH  18  23
BRANCH  20  26
ATOM     26  O   UNL     1      12.560  32.066  23.120  1.00  0.00    -0.350 OA
BRANCH  26  27
ATOM     27  C   UNL     1      11.264  31.692  22.870  1.00  0.00     0.169 C 
BRANCH  27  28
ATOM     28  C   UNL     1      10.390  32.540  23.803  1.00  0.00     0.119 C 
BRANCH  28  29
ATOM     29  N   UNL     1       9.237  31.828  24.260  1.00  0.00    -0.092 NA
ATOM     30  N   UNL     1       9.161  30.580  24.178  1.00  0.00     0.001 N 
ATOM     31  N   UNL     1       9.055  29.422  24.545  1.00  0.00    -0.003 NA
ENDBRANCH  28  29
ENDBRANCH  27  28
ENDBRANCH  26  27
ENDBRANCH  20  26
BRANCH  21  32
ATOM     32  O   UNL     1      15.639  29.019  23.270  1.00  0.00    -0.387 OA
ATOM     33  H   UNL     1      14.930  28.634  22.724  1.00  0.00     0.211 HD
ENDBRANCH  21  32
BRANCH  22  34
ATOM     34  O   UNL     1      12.759  29.135  24.333  1.00  0.00    -0.385 OA
ATOM     35  H   UNL     1      12.647  28.398  23.678  1.00  0.00     0.211 HD
ENDBRANCH  22  34
ENDBRANCH  16  17
ENDBRANCH  11  16
BRANCH  13  36
ATOM     36  O   UNL     1      19.744  32.556  24.367  1.00  0.00    -0.385 OA
ATOM     37  H   UNL     1      19.585  33.285  25.030  1.00  0.00     0.211 HD
ENDBRANCH  13  36
BRANCH  14  38
ATOM     38  O   UNL     1      19.707  29.010  24.786  1.00  0.00    -0.387 OA
ATOM     39  H   UNL     1      19.589  28.489  23.973  1.00  0.00     0.211 HD
ENDBRANCH  14  38
BRANCH  15  40
ATOM     40  O   UNL     1      21.039  29.055  22.629  1.00  0.00    -0.387 OA
ATOM     41  H   UNL     1      21.417  29.063  21.713  1.00  0.00     0.211 HD
ENDBRANCH  15  40
ENDBRANCH   9  10
ENDBRANCH   8   9
ENDBRANCH   3   8
BRANCH   3  42
ATOM     42  C   UNL     1      15.871  30.004  20.405  1.00  0.00     0.364 C 
ATOM     43  O   UNL     1      14.666  29.582  20.308  1.00  0.00    -0.246 OA
BRANCH  42  44
ATOM     44  O   UNL     1      15.996  31.203  21.079  1.00  0.00    -0.477 OA
ATOM     45  H   UNL     1      15.860  32.116  20.635  1.00  0.00     0.296 HD
ENDBRANCH  42  44
ENDBRANCH   3  42
BRANCH   6  46
ATOM     46  O   UNL     1      18.409  27.627  17.673  1.00  0.00    -0.391 OA
ATOM     47  H   UNL     1      18.566  26.752  17.236  1.00  0.00     0.211 HD
ENDBRANCH   6  46
BRANCH   7  48
ATOM     48  N   UNL     1      15.578  29.108  16.191  1.00  0.00    -0.348 N 
ATOM     49  C   UNL     1      15.466  28.885  14.823  1.00  0.00     0.217 C 
ATOM     50  H   UNL     1      14.607  29.177  16.718  1.00  0.00     0.163 HD
ATOM     51  C   UNL     1      14.107  28.736  14.159  1.00  0.00     0.114 C 
ATOM     52  O   UNL     1      16.428  28.789  14.058  1.00  0.00    -0.275 OA
ENDBRANCH   7  48
ENDBRANCH   1   2
BRANCH   1  53
ATOM     53  O   UNL     1      17.919  31.076  15.783  1.00  0.00    -0.388 OA
ATOM     54  H   UNL     1      18.745  31.377  15.374  1.00  0.00     0.211 HD
ENDBRANCH   1  53
BRANCH   1  55
ATOM     55  C   UNL     1      19.123  31.669  17.728  1.00  0.00     0.165 C 
BRANCH  55  56
ATOM     56  O   UNL     1      19.460  32.930  18.148  1.00  0.00    -0.388 OA
ATOM     57  H   UNL     1      20.384  33.193  17.937  1.00  0.00     0.211 HD
ENDBRANCH  55  56
BRANCH  55  58
ATOM     58  C   UNL     1      20.267  31.119  16.842  1.00  0.00     0.154 C 
BRANCH  58  59
ATOM     59  N   UNL     1      20.340  29.692  17.138  1.00  0.00    -0.319 N 
ATOM     60  C   UNL     1      21.590  29.040  17.392  1.00  0.00     0.407 C 
ATOM     61  H   UNL     1      19.470  29.114  17.170  1.00  0.00     0.167 HD
ATOM     62  O   UNL     1      22.649  29.703  17.365  1.00  0.00    -0.225 OA
BRANCH  60  63
ATOM     63  O   UNL     1      21.653  27.690  17.664  1.00  0.00    -0.443 OA
BRANCH  63  64
ATOM     64  C   UNL     1      22.580  27.035  18.475  1.00  0.00     0.294 C 
BRANCH  64  65
ATOM     65  C   UNL     1      21.943  26.635  19.754  1.00  0.00     0.120 A 
ATOM     66  C   UNL     1      22.338  25.607  20.590  1.00  0.00     0.138 A 
ATOM     67  N   UNL     1      20.876  27.175  20.364  1.00  0.00    -0.132 NA
ATOM     68  N   UNL     1      21.505  25.570  21.659  1.00  0.00    -0.249 N 
ATOM     69  N   UNL     1      20.631  26.529  21.495  1.00  0.00    -0.067 NA
BRANCH  68  70
ATOM     70  C   UNL     1      21.665  24.625  22.761  1.00  0.00     0.181 C 
BRANCH  70  71
ATOM     71  C   UNL     1      21.842  25.490  24.007  1.00  0.00     0.170 C 
BRANCH  71  72
ATOM     72  O   UNL     1      20.735  26.293  24.143  1.00  0.00    -0.388 OA
ATOM     73  H   UNL     1      20.480  26.675  23.269  1.00  0.00     0.211 HD
ENDBRANCH  71  72
BRANCH  71  74
ATOM     74  C   UNL     1      22.106  24.630  25.205  1.00  0.00     0.239 C 
BRANCH  74  75
ATOM     75  N   UNL     1      23.106  25.263  26.050  1.00  0.00    -0.227 N 
ATOM     76  C   UNL     1      24.448  25.022  25.890  1.00  0.00     0.204 A 
ATOM     77  C   UNL     1      22.928  26.137  27.040  1.00  0.00     0.434 A 
ATOM     78  C   UNL     1      25.108  25.787  26.825  1.00  0.00     0.245 A 
ATOM     79  N   UNL     1      24.165  26.458  27.514  1.00  0.00    -0.074 NA
BRANCH  77  80
ATOM     80  N   UNL     1      21.693  26.634  27.525  1.00  0.00    -0.047 N 
ATOM     81  O   UNL     1      20.949  27.359  26.792  1.00  0.00    -0.390 OA
ATOM     82  O   UNL     1      21.221  26.388  28.785  1.00  0.00    -0.390 OA
ENDBRANCH  77  80
ENDBRANCH  74  75
ENDBRANCH  71  74
ENDBRANCH  70  71
ENDBRANCH  68  70
ENDBRANCH  64  65
ENDBRANCH  63  64
ENDBRANCH  60  63
ENDBRANCH  58  59
ENDBRANCH  55  58
ENDBRANCH   1  55
TORSDOF 35
