REMARK VINA RESULT:    -5.490      5.514     13.864
REMARK INTER + INTRA:         -20.281
REMARK INTER:                 -14.158
REMARK INTRA:                  -6.123
REMARK UNBOUND:                -6.769
REMARK SMILES CC(=O)N[C@@H]1[C@@H](O)C[C@](OC[C@H]2O[C@@H](O[C@H]3[C@H](O)[C@@H](O)[C@H](OCCN=[N+]=[N-])O[C@@H]3CO)[C@H](O)[C@@H](O)[C@H]2O)(C(=O)O)O[C@H]1C(O)[C@H](O)CNC(=O)OCc1cn(-c2cccnc2)nn1
REMARK SMILES IDX 9 1 8 2 6 3 5 4 42 5 41 6 10 7 11 8 12 9 14 10 13 11 32 12
REMARK SMILES IDX 34 13 36 14 15 15 16 16 29 17 28 18 21 19 17 20 19 21 30 22
REMARK SMILES IDX 31 23 22 25 23 26 24 27 25 28 26 29 27 30 18 31 20 33 33 35
REMARK SMILES IDX 35 37 37 39 38 41 39 42 40 43 7 45 43 47 44 48 45 50 46 51
REMARK SMILES IDX 47 53 48 54 49 55 50 57 51 58 52 59 53 60 54 61 63 62 55 63
REMARK SMILES IDX 62 64 56 65 57 66 61 67 58 68 60 69 59 70 4 71 2 72 1 74
REMARK SMILES IDX 3 75
REMARK H PARENT 31 24 18 32 20 34 33 36 35 38 37 40 40 44 7 46 44 49 46 52
REMARK H PARENT 48 56 4 73
REMARK Flexibility Score: inf
ROOT
ATOM      1  C   UNL     1      23.853  25.166  22.356  1.00  0.00     0.272 C 
ATOM      2  C   UNL     1      22.514  24.560  22.229  1.00  0.00     0.113 C 
ATOM      3  C   UNL     1      21.687  24.758  23.451  1.00  0.00     0.145 C 
ATOM      4  C   UNL     1      21.829  26.122  24.079  1.00  0.00     0.142 C 
ATOM      5  C   UNL     1      22.766  27.015  23.349  1.00  0.00     0.178 C 
ATOM      6  O   UNL     1      23.953  26.388  22.997  1.00  0.00    -0.332 OA
ENDROOT
BRANCH   1   7
ATOM      7  O   UNL     1      24.460  25.374  21.120  1.00  0.00    -0.338 OA
BRANCH   7   8
ATOM      8  C   UNL     1      23.889  24.774  20.043  1.00  0.00     0.199 C 
BRANCH   8   9
ATOM      9  C   UNL     1      24.127  25.699  18.834  1.00  0.00     0.179 C 
ATOM     10  C   UNL     1      25.937  24.500  17.953  1.00  0.00     0.282 C 
ATOM     11  O   UNL     1      25.418  25.668  18.469  1.00  0.00    -0.341 OA
ATOM     12  C   UNL     1      24.974  23.881  16.999  1.00  0.00     0.202 C 
ATOM     13  C   UNL     1      24.014  24.984  16.528  1.00  0.00     0.179 C 
ATOM     14  C   UNL     1      23.151  25.398  17.710  1.00  0.00     0.177 C 
BRANCH  10  15
ATOM     15  O   UNL     1      26.263  23.698  19.045  1.00  0.00    -0.341 OA
BRANCH  15  16
ATOM     16  C   UNL     1      27.561  23.767  19.429  1.00  0.00     0.184 C 
ATOM     17  C   UNL     1      28.307  22.469  19.465  1.00  0.00     0.178 C 
ATOM     18  O   UNL     1      29.661  22.764  19.307  1.00  0.00    -0.341 OA
ATOM     19  C   UNL     1      30.091  23.843  20.072  1.00  0.00     0.281 C 
ATOM     20  C   UNL     1      27.749  24.351  20.826  1.00  0.00     0.180 C 
ATOM     21  C   UNL     1      29.202  24.117  21.263  1.00  0.00     0.202 C 
BRANCH  17  22
ATOM     22  C   UNL     1      27.905  21.444  18.470  1.00  0.00     0.191 C 
BRANCH  22  23
ATOM     23  O   UNL     1      27.925  21.916  17.184  1.00  0.00    -0.394 OA
ATOM     24  H   UNL     1      27.242  22.631  17.114  1.00  0.00     0.210 HD
ENDBRANCH  22  23
ENDBRANCH  17  22
BRANCH  19  25
ATOM     25  O   UNL     1      30.244  24.994  19.355  1.00  0.00    -0.350 OA
BRANCH  25  26
ATOM     26  C   UNL     1      31.023  25.987  19.831  1.00  0.00     0.169 C 
BRANCH  26  27
ATOM     27  C   UNL     1      30.498  27.379  19.804  1.00  0.00     0.119 C 
BRANCH  27  28
ATOM     28  N   UNL     1      29.184  27.564  19.291  1.00  0.00    -0.092 NA
ATOM     29  N   UNL     1      28.964  27.908  18.110  1.00  0.00     0.001 N 
ATOM     30  N   UNL     1      28.868  28.725  17.179  1.00  0.00    -0.003 NA
ENDBRANCH  27  28
ENDBRANCH  26  27
ENDBRANCH  25  26
ENDBRANCH  19  25
BRANCH  20  31
ATOM     31  O   UNL     1      27.556  25.724  20.780  1.00  0.00    -0.387 OA
ATOM     32  H   UNL     1      27.887  26.132  19.938  1.00  0.00     0.211 HD
ENDBRANCH  20  31
BRANCH  21  33
ATOM     33  O   UNL     1      29.299  23.086  22.195  1.00  0.00    -0.385 OA
ATOM     34  H   UNL     1      29.990  22.452  21.882  1.00  0.00     0.211 HD
ENDBRANCH  21  33
ENDBRANCH  15  16
ENDBRANCH  10  15
BRANCH  12  35
ATOM     35  O   UNL     1      25.652  23.505  15.824  1.00  0.00    -0.385 OA
ATOM     36  H   UNL     1      26.506  24.035  15.775  1.00  0.00     0.211 HD
ENDBRANCH  12  35
BRANCH  13  37
ATOM     37  O   UNL     1      23.275  24.616  15.434  1.00  0.00    -0.387 OA
ATOM     38  H   UNL     1      22.323  24.846  15.579  1.00  0.00     0.211 HD
ENDBRANCH  13  37
BRANCH  14  39
ATOM     39  O   UNL     1      22.237  24.417  18.035  1.00  0.00    -0.387 OA
ATOM     40  H   UNL     1      22.461  23.608  17.501  1.00  0.00     0.211 HD
ENDBRANCH  14  39
ENDBRANCH   8   9
ENDBRANCH   7   8
ENDBRANCH   1   7
BRANCH   1  41
ATOM     41  C   UNL     1      24.718  24.168  23.100  1.00  0.00     0.364 C 
ATOM     42  O   UNL     1      25.161  23.189  22.477  1.00  0.00    -0.246 OA
BRANCH  41  43
ATOM     43  O   UNL     1      25.030  24.298  24.431  1.00  0.00    -0.477 OA
ATOM     44  H   UNL     1      24.702  23.689  25.170  1.00  0.00     0.296 HD
ENDBRANCH  41  43
ENDBRANCH   1  41
BRANCH   3  45
ATOM     45  O   UNL     1      20.345  24.539  23.061  1.00  0.00    -0.391 OA
ATOM     46  H   UNL     1      19.732  24.560  23.820  1.00  0.00     0.211 HD
ENDBRANCH   3  45
BRANCH   5  47
ATOM     47  C   UNL     1      22.179  27.785  22.215  1.00  0.00     0.176 C 
BRANCH  47  48
ATOM     48  O   UNL     1      23.236  28.119  21.330  1.00  0.00    -0.388 OA
ATOM     49  H   UNL     1      23.853  27.339  21.268  1.00  0.00     0.211 HD
ENDBRANCH  47  48
BRANCH  47  50
ATOM     50  C   UNL     1      21.506  29.077  22.552  1.00  0.00     0.165 C 
BRANCH  50  51
ATOM     51  O   UNL     1      20.095  28.712  22.455  1.00  0.00    -0.388 OA
ATOM     52  H   UNL     1      19.642  29.547  22.183  1.00  0.00     0.211 HD
ENDBRANCH  50  51
BRANCH  50  53
ATOM     53  C   UNL     1      21.621  30.158  21.526  1.00  0.00     0.154 C 
BRANCH  53  54
ATOM     54  N   UNL     1      20.512  30.337  20.645  1.00  0.00    -0.319 N 
ATOM     55  C   UNL     1      20.636  29.837  19.296  1.00  0.00     0.407 C 
ATOM     56  H   UNL     1      19.621  30.770  20.868  1.00  0.00     0.167 HD
ATOM     57  O   UNL     1      21.703  29.274  18.976  1.00  0.00    -0.225 OA
BRANCH  55  58
ATOM     58  O   UNL     1      19.622  29.970  18.381  1.00  0.00    -0.443 OA
BRANCH  58  59
ATOM     59  C   UNL     1      18.978  28.828  17.874  1.00  0.00     0.294 C 
BRANCH  59  60
ATOM     60  C   UNL     1      17.788  28.543  18.702  1.00  0.00     0.121 A 
ATOM     61  C   UNL     1      17.206  29.308  19.687  1.00  0.00     0.144 A 
ATOM     62  N   UNL     1      17.018  27.415  18.631  1.00  0.00    -0.131 NA
ATOM     63  N   UNL     1      16.137  28.661  20.177  1.00  0.00    -0.219 N 
ATOM     64  N   UNL     1      16.051  27.520  19.518  1.00  0.00    -0.062 NA
BRANCH  63  65
ATOM     65  C   UNL     1      15.210  29.028  21.193  1.00  0.00     0.085 A 
ATOM     66  C   UNL     1      13.844  28.982  21.007  1.00  0.00     0.031 A 
ATOM     67  C   UNL     1      15.647  29.461  22.431  1.00  0.00     0.139 A 
ATOM     68  C   UNL     1      12.967  29.349  22.003  1.00  0.00     0.022 A 
ATOM     69  N   UNL     1      14.773  29.821  23.403  1.00  0.00    -0.262 NA
ATOM     70  C   UNL     1      13.442  29.777  23.222  1.00  0.00     0.111 A 
ENDBRANCH  63  65
ENDBRANCH  59  60
ENDBRANCH  58  59
ENDBRANCH  55  58
ENDBRANCH  53  54
ENDBRANCH  50  53
ENDBRANCH  47  50
ENDBRANCH   5  47
BRANCH   4  71
ATOM     71  N   UNL     1      22.241  26.005  25.475  1.00  0.00    -0.348 N 
ATOM     72  C   UNL     1      21.626  26.704  26.542  1.00  0.00     0.217 C 
ATOM     73  H   UNL     1      23.043  25.371  25.742  1.00  0.00     0.163 HD
ATOM     74  C   UNL     1      22.089  26.557  27.958  1.00  0.00     0.114 C 
ATOM     75  O   UNL     1      20.658  27.479  26.317  1.00  0.00    -0.275 OA
ENDBRANCH   4  71
TORSDOF 30
