REMARK VINA RESULT:    -6.020     13.794     18.857
REMARK INTER + INTRA:         -22.634
REMARK INTER:                 -15.910
REMARK INTRA:                  -6.724
REMARK UNBOUND:                -6.761
REMARK SMILES CC(=O)N[C@@H]1[C@@H](O)C[C@](OC[C@H]2O[C@@H](O[C@H]3[C@H](O)[C@@H](O)[C@H](OCCN=[N+]=[N-])O[C@@H]3CO)[C@H](O)[C@@H](O)[C@H]2O)(C(=O)O)O[C@H]1C(O)[C@H](O)CNC(=O)OCc1cn(CCNS(C)(=O)=O)nn1
REMARK SMILES IDX 43 1 42 2 9 3 8 4 41 5 6 6 5 7 10 8 11 9 12 10 14 11 13 12
REMARK SMILES IDX 32 13 34 14 36 15 15 16 16 17 29 18 28 19 21 20 17 21 19 22
REMARK SMILES IDX 30 23 31 24 22 26 23 27 24 28 25 29 26 30 27 31 18 32 20 34
REMARK SMILES IDX 33 36 35 38 37 40 38 42 39 43 40 44 7 46 4 48 2 49 1 51 3 52
REMARK SMILES IDX 44 53 45 55 46 56 47 58 48 59 49 60 50 62 51 63 52 64 53 65
REMARK SMILES IDX 54 66 64 67 55 68 63 69 56 70 57 71 58 72 59 74 61 75 62 76
REMARK SMILES IDX 60 77
REMARK H PARENT 31 25 18 33 20 35 33 37 35 39 37 41 40 45 7 47 4 50 44 54
REMARK H PARENT 46 57 48 61 58 73
REMARK Flexibility Score: inf
ROOT
ATOM      1  C   UNL     1       4.195  21.455  32.083  1.00  0.00     0.176 C 
ENDROOT
BRANCH   1   2
ATOM      2  C   UNL     1       2.873  21.349  32.866  1.00  0.00     0.178 C 
ATOM      3  C   UNL     1       1.180  22.803  33.572  1.00  0.00     0.272 C 
ATOM      4  C   UNL     1       1.410  22.581  35.014  1.00  0.00     0.113 C 
ATOM      5  O   UNL     1       2.325  22.585  32.817  1.00  0.00    -0.332 OA
ATOM      6  C   UNL     1       2.561  21.675  35.354  1.00  0.00     0.145 C 
ATOM      7  C   UNL     1       3.133  20.868  34.240  1.00  0.00     0.142 C 
BRANCH   3   8
ATOM      8  O   UNL     1       0.773  24.090  33.207  1.00  0.00    -0.338 OA
BRANCH   8   9
ATOM      9  C   UNL     1       1.321  25.073  34.012  1.00  0.00     0.199 C 
BRANCH   9  10
ATOM     10  C   UNL     1       2.380  25.816  33.275  1.00  0.00     0.179 C 
ATOM     11  C   UNL     1       4.637  25.987  32.832  1.00  0.00     0.282 C 
ATOM     12  O   UNL     1       3.606  25.174  33.330  1.00  0.00    -0.341 OA
ATOM     13  C   UNL     1       4.443  26.300  31.389  1.00  0.00     0.202 C 
ATOM     14  C   UNL     1       3.150  27.078  31.269  1.00  0.00     0.179 C 
ATOM     15  C   UNL     1       2.036  26.327  31.916  1.00  0.00     0.177 C 
BRANCH  11  16
ATOM     16  O   UNL     1       5.807  25.329  33.064  1.00  0.00    -0.341 OA
BRANCH  16  17
ATOM     17  C   UNL     1       6.253  25.316  34.341  1.00  0.00     0.184 C 
ATOM     18  C   UNL     1       7.468  26.064  34.722  1.00  0.00     0.178 C 
ATOM     19  O   UNL     1       8.021  25.459  35.852  1.00  0.00    -0.341 OA
ATOM     20  C   UNL     1       8.662  24.291  35.556  1.00  0.00     0.281 C 
ATOM     21  C   UNL     1       6.391  23.863  34.872  1.00  0.00     0.180 C 
ATOM     22  C   UNL     1       7.830  23.503  34.565  1.00  0.00     0.202 C 
BRANCH  18  23
ATOM     23  C   UNL     1       7.107  27.471  35.186  1.00  0.00     0.191 C 
BRANCH  23  24
ATOM     24  O   UNL     1       6.628  27.424  36.515  1.00  0.00    -0.394 OA
ATOM     25  H   UNL     1       7.102  26.749  37.049  1.00  0.00     0.210 HD
ENDBRANCH  23  24
ENDBRANCH  18  23
BRANCH  20  26
ATOM     26  O   UNL     1       8.923  23.537  36.710  1.00  0.00    -0.350 OA
BRANCH  26  27
ATOM     27  C   UNL     1      10.193  23.026  36.779  1.00  0.00     0.169 C 
BRANCH  27  28
ATOM     28  C   UNL     1      10.828  23.502  38.047  1.00  0.00     0.119 C 
BRANCH  28  29
ATOM     29  N   UNL     1      12.196  23.960  37.839  1.00  0.00    -0.092 NA
ATOM     30  N   UNL     1      12.439  24.375  36.692  1.00  0.00     0.001 N 
ATOM     31  N   UNL     1      12.985  24.772  35.669  1.00  0.00    -0.003 NA
ENDBRANCH  28  29
ENDBRANCH  27  28
ENDBRANCH  26  27
ENDBRANCH  20  26
BRANCH  21  32
ATOM     32  O   UNL     1       6.239  23.853  36.261  1.00  0.00    -0.387 OA
ATOM     33  H   UNL     1       6.453  24.757  36.614  1.00  0.00     0.211 HD
ENDBRANCH  21  32
BRANCH  22  34
ATOM     34  O   UNL     1       8.199  23.730  33.258  1.00  0.00    -0.385 OA
ATOM     35  H   UNL     1       7.474  24.093  32.688  1.00  0.00     0.211 HD
ENDBRANCH  22  34
ENDBRANCH  16  17
ENDBRANCH  11  16
BRANCH  13  36
ATOM     36  O   UNL     1       5.439  27.172  30.923  1.00  0.00    -0.385 OA
ATOM     37  H   UNL     1       6.222  26.683  30.563  1.00  0.00     0.211 HD
ENDBRANCH  13  36
BRANCH  14  38
ATOM     38  O   UNL     1       2.901  27.485  29.981  1.00  0.00    -0.387 OA
ATOM     39  H   UNL     1       3.494  27.017  29.312  1.00  0.00     0.211 HD
ENDBRANCH  14  38
BRANCH  15  40
ATOM     40  O   UNL     1       1.702  25.244  31.109  1.00  0.00    -0.387 OA
ATOM     41  H   UNL     1       1.406  24.451  31.626  1.00  0.00     0.211 HD
ENDBRANCH  15  40
ENDBRANCH   9  10
ENDBRANCH   8   9
ENDBRANCH   3   8
BRANCH   3  42
ATOM     42  C   UNL     1       0.102  21.923  33.061  1.00  0.00     0.364 C 
ATOM     43  O   UNL     1      -0.310  20.910  33.718  1.00  0.00    -0.246 OA
BRANCH  42  44
ATOM     44  O   UNL     1      -0.543  22.106  31.854  1.00  0.00    -0.477 OA
ATOM     45  H   UNL     1      -0.422  21.490  31.055  1.00  0.00     0.296 HD
ENDBRANCH  42  44
ENDBRANCH   3  42
BRANCH   6  46
ATOM     46  O   UNL     1       3.576  22.373  35.993  1.00  0.00    -0.391 OA
ATOM     47  H   UNL     1       3.294  22.948  36.732  1.00  0.00     0.211 HD
ENDBRANCH   6  46
BRANCH   7  48
ATOM     48  N   UNL     1       2.634  19.490  34.383  1.00  0.00    -0.348 N 
ATOM     49  C   UNL     1       3.115  18.527  35.275  1.00  0.00     0.217 C 
ATOM     50  H   UNL     1       1.797  19.184  33.772  1.00  0.00     0.163 HD
ATOM     51  C   UNL     1       2.529  17.140  35.319  1.00  0.00     0.114 C 
ATOM     52  O   UNL     1       4.056  18.772  36.078  1.00  0.00    -0.275 OA
ENDBRANCH   7  48
ENDBRANCH   1   2
BRANCH   1  53
ATOM     53  O   UNL     1       5.243  21.033  32.920  1.00  0.00    -0.388 OA
ATOM     54  H   UNL     1       5.333  20.070  32.802  1.00  0.00     0.211 HD
ENDBRANCH   1  53
BRANCH   1  55
ATOM     55  C   UNL     1       4.159  20.566  30.894  1.00  0.00     0.165 C 
BRANCH  55  56
ATOM     56  O   UNL     1       5.342  20.424  30.210  1.00  0.00    -0.388 OA
ATOM     57  H   UNL     1       5.231  20.416  29.223  1.00  0.00     0.211 HD
ENDBRANCH  55  56
BRANCH  55  58
ATOM     58  C   UNL     1       3.009  20.779  29.960  1.00  0.00     0.154 C 
BRANCH  58  59
ATOM     59  N   UNL     1       3.216  21.906  29.090  1.00  0.00    -0.319 N 
ATOM     60  C   UNL     1       2.153  22.885  28.998  1.00  0.00     0.407 C 
ATOM     61  H   UNL     1       4.068  22.062  28.528  1.00  0.00     0.167 HD
ATOM     62  O   UNL     1       1.137  22.681  29.710  1.00  0.00    -0.225 OA
BRANCH  60  63
ATOM     63  O   UNL     1       2.267  23.971  28.170  1.00  0.00    -0.443 OA
BRANCH  63  64
ATOM     64  C   UNL     1       3.252  24.000  27.164  1.00  0.00     0.294 C 
BRANCH  64  65
ATOM     65  C   UNL     1       3.872  25.334  27.069  1.00  0.00     0.120 A 
ATOM     66  C   UNL     1       4.027  26.110  25.932  1.00  0.00     0.138 A 
ATOM     67  N   UNL     1       4.367  26.061  28.061  1.00  0.00    -0.132 NA
ATOM     68  N   UNL     1       4.602  27.269  26.258  1.00  0.00    -0.251 N 
ATOM     69  N   UNL     1       4.809  27.228  27.575  1.00  0.00    -0.067 NA
BRANCH  68  70
ATOM     70  C   UNL     1       4.943  28.353  25.353  1.00  0.00     0.162 C 
BRANCH  70  71
ATOM     71  C   UNL     1       6.406  28.230  24.930  1.00  0.00     0.122 C 
BRANCH  71  72
ATOM     72  N   UNL     1       7.189  27.634  25.973  1.00  0.00    -0.214 NA
ATOM     73  H   UNL     1       6.618  26.880  26.442  1.00  0.00     0.141 HD
BRANCH  72  74
ATOM     74  S   UNL     1       8.623  26.883  25.390  1.00  0.00     0.208 S 
ATOM     75  O   UNL     1       9.218  25.993  26.469  1.00  0.00    -0.213 OA
ATOM     76  O   UNL     1       8.199  26.006  24.227  1.00  0.00    -0.213 OA
ATOM     77  C   UNL     1       9.797  28.086  24.849  1.00  0.00     0.176 C 
ENDBRANCH  72  74
ENDBRANCH  71  72
ENDBRANCH  70  71
ENDBRANCH  68  70
ENDBRANCH  64  65
ENDBRANCH  63  64
ENDBRANCH  60  63
ENDBRANCH  58  59
ENDBRANCH  55  58
ENDBRANCH   1  55
TORSDOF 33
