REMARK VINA RESULT:    -5.827      5.257      9.462
REMARK INTER + INTRA:         -20.798
REMARK INTER:                 -16.694
REMARK INTRA:                  -4.104
REMARK UNBOUND:                -5.091
REMARK SMILES C=CCCCCn1cc(COC(=O)NC[C@@H](O)C(O)[C@@H]2O[C@@](OC[C@H]3O[C@@H](O[C@H]4[C@H](O)[C@@H](O)[C@H](OCCN=[N+]=[N-])O[C@@H]4CO)[C@H](O)[C@@H](O)[C@H]3O)(C(=O)O)C[C@H](O)[C@H]2NC(C)=O)nn1
REMARK SMILES IDX 18 1 20 2 22 3 54 4 21 5 55 6 57 7 23 8 24 9 25 10 27 11
REMARK SMILES IDX 26 12 45 13 47 14 49 15 28 16 29 17 42 18 41 19 34 20 30 21
REMARK SMILES IDX 32 22 43 23 44 24 35 26 36 27 37 28 38 29 39 30 40 31 31 32
REMARK SMILES IDX 33 34 46 36 48 38 50 40 51 42 52 43 53 44 56 46 58 48 59 49
REMARK SMILES IDX 60 51 61 52 19 53 16 55 17 56 15 58 14 59 12 60 13 62 11 63
REMARK SMILES IDX 10 64 9 65 8 66 62 67 7 68 63 69 6 70 5 71 4 72 3 73 2 74
REMARK SMILES IDX 1 75
REMARK H PARENT 44 25 31 33 33 35 46 37 48 39 50 41 53 45 56 47 58 50 19 54
REMARK H PARENT 17 57 14 61
REMARK Flexibility Score: inf
ROOT
ATOM      1  C   UNL     1      23.598  28.314  22.516  1.00  0.00     0.176 C 
ENDROOT
BRANCH   1   2
ATOM      2  C   UNL     1      23.393  26.798  22.588  1.00  0.00     0.178 C 
ATOM      3  C   UNL     1      23.909  24.860  21.463  1.00  0.00     0.272 C 
ATOM      4  C   UNL     1      22.568  24.323  21.742  1.00  0.00     0.113 C 
ATOM      5  O   UNL     1      23.768  26.298  21.392  1.00  0.00    -0.332 OA
ATOM      6  C   UNL     1      21.909  24.841  22.946  1.00  0.00     0.145 C 
ATOM      7  C   UNL     1      22.211  26.296  23.266  1.00  0.00     0.142 C 
BRANCH   3   8
ATOM      8  O   UNL     1      24.358  24.615  20.173  1.00  0.00    -0.338 OA
BRANCH   8   9
ATOM      9  C   UNL     1      25.078  25.474  19.479  1.00  0.00     0.199 C 
BRANCH   9  10
ATOM     10  C   UNL     1      24.716  25.865  18.099  1.00  0.00     0.179 C 
ATOM     11  C   UNL     1      24.527  24.919  15.964  1.00  0.00     0.282 C 
ATOM     12  O   UNL     1      25.160  24.889  17.175  1.00  0.00    -0.341 OA
ATOM     13  C   UNL     1      23.805  26.177  15.680  1.00  0.00     0.202 C 
ATOM     14  C   UNL     1      22.843  26.606  16.756  1.00  0.00     0.179 C 
ATOM     15  C   UNL     1      23.194  25.879  18.018  1.00  0.00     0.177 C 
BRANCH  11  16
ATOM     16  O   UNL     1      23.853  23.737  15.812  1.00  0.00    -0.341 OA
BRANCH  16  17
ATOM     17  C   UNL     1      24.497  22.732  15.154  1.00  0.00     0.184 C 
ATOM     18  C   UNL     1      24.976  23.247  13.817  1.00  0.00     0.178 C 
ATOM     19  O   UNL     1      24.817  22.275  12.816  1.00  0.00    -0.341 OA
ATOM     20  C   UNL     1      23.468  22.258  12.475  1.00  0.00     0.281 C 
ATOM     21  C   UNL     1      23.534  21.568  14.826  1.00  0.00     0.180 C 
ATOM     22  C   UNL     1      22.629  21.961  13.681  1.00  0.00     0.202 C 
BRANCH  18  23
ATOM     23  C   UNL     1      26.412  23.744  13.852  1.00  0.00     0.191 C 
BRANCH  23  24
ATOM     24  O   UNL     1      26.555  24.895  13.097  1.00  0.00    -0.394 OA
ATOM     25  H   UNL     1      25.834  25.525  13.336  1.00  0.00     0.210 HD
ENDBRANCH  23  24
ENDBRANCH  18  23
BRANCH  20  26
ATOM     26  O   UNL     1      23.314  21.260  11.511  1.00  0.00    -0.350 OA
BRANCH  26  27
ATOM     27  C   UNL     1      22.131  21.353  10.801  1.00  0.00     0.169 C 
BRANCH  27  28
ATOM     28  C   UNL     1      21.501  19.972  10.787  1.00  0.00     0.119 C 
BRANCH  28  29
ATOM     29  N   UNL     1      20.108  20.022  10.429  1.00  0.00    -0.092 NA
ATOM     30  N   UNL     1      19.254  19.446  11.092  1.00  0.00     0.001 N 
ATOM     31  N   UNL     1      18.487  18.981  11.935  1.00  0.00    -0.003 NA
ENDBRANCH  28  29
ENDBRANCH  27  28
ENDBRANCH  26  27
ENDBRANCH  20  26
BRANCH  21  32
ATOM     32  O   UNL     1      24.342  20.525  14.377  1.00  0.00    -0.387 OA
ATOM     33  H   UNL     1      25.299  20.729  14.377  1.00  0.00     0.211 HD
ENDBRANCH  21  32
BRANCH  22  34
ATOM     34  O   UNL     1      21.799  23.015  14.054  1.00  0.00    -0.385 OA
ATOM     35  H   UNL     1      21.071  22.631  14.613  1.00  0.00     0.211 HD
ENDBRANCH  22  34
ENDBRANCH  16  17
ENDBRANCH  11  16
BRANCH  13  36
ATOM     36  O   UNL     1      24.762  27.192  15.535  1.00  0.00    -0.385 OA
ATOM     37  H   UNL     1      25.478  26.945  14.922  1.00  0.00     0.211 HD
ENDBRANCH  13  36
BRANCH  14  38
ATOM     38  O   UNL     1      21.513  26.388  16.393  1.00  0.00    -0.387 OA
ATOM     39  H   UNL     1      21.383  25.420  16.346  1.00  0.00     0.211 HD
ENDBRANCH  14  38
BRANCH  15  40
ATOM     40  O   UNL     1      22.688  24.573  18.036  1.00  0.00    -0.387 OA
ATOM     41  H   UNL     1      21.908  24.455  17.462  1.00  0.00     0.211 HD
ENDBRANCH  15  40
ENDBRANCH   9  10
ENDBRANCH   8   9
ENDBRANCH   3   8
BRANCH   3  42
ATOM     42  C   UNL     1      24.848  24.637  22.554  1.00  0.00     0.364 C 
ATOM     43  O   UNL     1      25.743  25.470  22.818  1.00  0.00    -0.246 OA
BRANCH  42  44
ATOM     44  O   UNL     1      24.811  23.520  23.334  1.00  0.00    -0.477 OA
ATOM     45  H   UNL     1      25.292  22.674  23.085  1.00  0.00     0.296 HD
ENDBRANCH  42  44
ENDBRANCH   3  42
BRANCH   6  46
ATOM     46  O   UNL     1      20.510  24.662  22.810  1.00  0.00    -0.391 OA
ATOM     47  H   UNL     1      20.038  24.802  23.669  1.00  0.00     0.211 HD
ENDBRANCH   6  46
BRANCH   7  48
ATOM     48  N   UNL     1      22.378  26.432  24.726  1.00  0.00    -0.348 N 
ATOM     49  C   UNL     1      21.312  26.741  25.602  1.00  0.00     0.217 C 
ATOM     50  H   UNL     1      23.319  26.305  25.190  1.00  0.00     0.163 HD
ATOM     51  C   UNL     1      21.549  26.877  27.087  1.00  0.00     0.114 C 
ATOM     52  O   UNL     1      20.161  26.903  25.122  1.00  0.00    -0.275 OA
ENDBRANCH   7  48
ENDBRANCH   1   2
BRANCH   1  53
ATOM     53  O   UNL     1      25.036  28.473  22.885  1.00  0.00    -0.388 OA
ATOM     54  H   UNL     1      25.285  27.499  22.986  1.00  0.00     0.211 HD
ENDBRANCH   1  53
BRANCH   1  55
ATOM     55  C   UNL     1      23.596  28.891  21.173  1.00  0.00     0.165 C 
BRANCH  55  56
ATOM     56  O   UNL     1      24.816  29.471  20.757  1.00  0.00    -0.388 OA
ATOM     57  H   UNL     1      24.560  30.143  20.079  1.00  0.00     0.211 HD
ENDBRANCH  55  56
BRANCH  55  58
ATOM     58  C   UNL     1      22.478  29.745  20.744  1.00  0.00     0.154 C 
BRANCH  58  59
ATOM     59  N   UNL     1      21.686  29.250  19.685  1.00  0.00    -0.319 N 
ATOM     60  C   UNL     1      20.739  28.221  19.632  1.00  0.00     0.407 C 
ATOM     61  H   UNL     1      21.833  29.756  18.731  1.00  0.00     0.167 HD
ATOM     62  O   UNL     1      20.464  27.546  20.638  1.00  0.00    -0.225 OA
BRANCH  60  63
ATOM     63  O   UNL     1      20.061  27.912  18.445  1.00  0.00    -0.443 OA
BRANCH  63  64
ATOM     64  C   UNL     1      18.981  28.759  18.050  1.00  0.00     0.294 C 
BRANCH  64  65
ATOM     65  C   UNL     1      17.752  28.434  18.818  1.00  0.00     0.120 A 
ATOM     66  C   UNL     1      17.236  29.214  19.852  1.00  0.00     0.138 A 
ATOM     67  N   UNL     1      16.922  27.387  18.699  1.00  0.00    -0.132 NA
ATOM     68  N   UNL     1      16.133  28.604  20.300  1.00  0.00    -0.252 N 
ATOM     69  N   UNL     1      15.949  27.510  19.607  1.00  0.00    -0.067 NA
BRANCH  68  70
ATOM     70  C   UNL     1      15.305  29.129  21.394  1.00  0.00     0.146 C 
BRANCH  70  71
ATOM     71  C   UNL     1      13.879  28.700  21.173  1.00  0.00     0.024 C 
BRANCH  71  72
ATOM     72  C   UNL     1      12.981  29.583  22.011  1.00  0.00     0.006 C 
BRANCH  72  73
ATOM     73  C   UNL     1      13.818  30.551  22.816  1.00  0.00     0.027 C 
BRANCH  73  74
ATOM     74  C   UNL     1      13.354  30.629  24.219  1.00  0.00    -0.035 C 
ATOM     75  C   UNL     1      14.210  30.506  25.214  1.00  0.00     0.004 C 
ENDBRANCH  73  74
ENDBRANCH  72  73
ENDBRANCH  71  72
ENDBRANCH  70  71
ENDBRANCH  68  70
ENDBRANCH  64  65
ENDBRANCH  63  64
ENDBRANCH  60  63
ENDBRANCH  58  59
ENDBRANCH  55  58
ENDBRANCH   1  55
TORSDOF 34
