REMARK VINA RESULT:    -6.641     20.107     25.516
REMARK INTER + INTRA:         -21.483
REMARK INTER:                 -13.762
REMARK INTRA:                  -7.721
REMARK UNBOUND:                -4.749
REMARK SMILES CC(=O)N[C@@H]1[C@@H](O)C[C@](OC[C@H]2O[C@@H](O[C@H]3[C@H](O)[C@@H](O)[C@H](OCCN=[N+]=[N-])O[C@@H]3CO)[C@H](O)[C@@H](O)[C@H]2O)(C(=O)O)O[C@H]1C(O)[C@H](O)CNC(=O)OCc1cn(-c2ccccc2C(C)=O)nn1
REMARK SMILES IDX 9 1 8 2 6 3 5 4 42 5 41 6 10 7 11 8 12 9 14 10 13 11 32 12
REMARK SMILES IDX 34 13 36 14 15 15 16 16 29 17 28 18 21 19 17 20 19 21 30 22
REMARK SMILES IDX 31 23 22 25 23 26 24 27 25 28 26 29 27 30 18 31 20 33 33 35
REMARK SMILES IDX 35 37 37 39 38 41 39 42 40 43 7 45 43 47 44 48 45 50 46 51
REMARK SMILES IDX 47 53 48 54 49 55 50 57 51 58 52 59 53 60 54 61 66 62 55 63
REMARK SMILES IDX 65 64 56 65 61 66 57 67 60 68 58 69 59 70 62 71 64 72 63 73
REMARK SMILES IDX 4 74 2 75 1 77 3 78
REMARK H PARENT 31 24 18 32 20 34 33 36 35 38 37 40 40 44 7 46 44 49 46 52
REMARK H PARENT 48 56 4 76
REMARK Flexibility Score: inf
ROOT
ATOM      1  C   UNL     1       3.620  21.203  32.424  1.00  0.00     0.272 C 
ATOM      2  C   UNL     1       5.060  21.283  32.842  1.00  0.00     0.113 C 
ATOM      3  C   UNL     1       5.428  22.737  32.976  1.00  0.00     0.145 C 
ATOM      4  C   UNL     1       4.613  23.230  34.160  1.00  0.00     0.142 C 
ATOM      5  C   UNL     1       3.179  23.153  33.712  1.00  0.00     0.178 C 
ATOM      6  O   UNL     1       2.906  22.406  32.628  1.00  0.00    -0.332 OA
ENDROOT
BRANCH   1   7
ATOM      7  O   UNL     1       2.884  20.244  32.925  1.00  0.00    -0.338 OA
BRANCH   7   8
ATOM      8  C   UNL     1       2.624  19.019  32.591  1.00  0.00     0.199 C 
BRANCH   8   9
ATOM      9  C   UNL     1       2.023  17.981  33.462  1.00  0.00     0.179 C 
ATOM     10  C   UNL     1       2.304  17.047  35.560  1.00  0.00     0.282 C 
ATOM     11  O   UNL     1       2.676  18.089  34.730  1.00  0.00    -0.341 OA
ATOM     12  C   UNL     1       1.118  16.263  35.144  1.00  0.00     0.202 C 
ATOM     13  C   UNL     1       0.033  17.022  34.444  1.00  0.00     0.179 C 
ATOM     14  C   UNL     1       0.555  18.299  33.832  1.00  0.00     0.177 C 
BRANCH  10  15
ATOM     15  O   UNL     1       2.110  17.537  36.852  1.00  0.00    -0.341 OA
BRANCH  15  16
ATOM     16  C   UNL     1       3.057  17.037  37.743  1.00  0.00     0.184 C 
ATOM     17  C   UNL     1       2.318  16.369  38.877  1.00  0.00     0.178 C 
ATOM     18  O   UNL     1       2.541  16.930  40.108  1.00  0.00    -0.341 OA
ATOM     19  C   UNL     1       3.855  17.077  40.477  1.00  0.00     0.281 C 
ATOM     20  C   UNL     1       3.758  18.269  38.334  1.00  0.00     0.180 C 
ATOM     21  C   UNL     1       4.676  17.784  39.410  1.00  0.00     0.202 C 
BRANCH  17  22
ATOM     22  C   UNL     1       2.643  14.887  38.843  1.00  0.00     0.191 C 
BRANCH  22  23
ATOM     23  O   UNL     1       3.489  14.658  37.760  1.00  0.00    -0.394 OA
ATOM     24  H   UNL     1       4.075  13.885  37.858  1.00  0.00     0.210 HD
ENDBRANCH  22  23
ENDBRANCH  17  22
BRANCH  19  25
ATOM     25  O   UNL     1       4.470  15.916  40.906  1.00  0.00    -0.350 OA
BRANCH  25  26
ATOM     26  C   UNL     1       5.785  15.910  40.467  1.00  0.00     0.169 C 
BRANCH  26  27
ATOM     27  C   UNL     1       6.198  14.482  40.146  1.00  0.00     0.119 C 
BRANCH  27  28
ATOM     28  N   UNL     1       6.846  13.872  41.314  1.00  0.00    -0.092 NA
ATOM     29  N   UNL     1       8.013  14.200  41.518  1.00  0.00     0.001 N 
ATOM     30  N   UNL     1       9.196  14.340  41.777  1.00  0.00    -0.003 NA
ENDBRANCH  27  28
ENDBRANCH  26  27
ENDBRANCH  25  26
ENDBRANCH  19  25
BRANCH  20  31
ATOM     31  O   UNL     1       4.399  18.955  37.329  1.00  0.00    -0.387 OA
ATOM     32  H   UNL     1       3.770  19.561  36.827  1.00  0.00     0.211 HD
ENDBRANCH  20  31
BRANCH  21  33
ATOM     33  O   UNL     1       5.456  18.812  39.944  1.00  0.00    -0.385 OA
ATOM     34  H   UNL     1       4.889  19.358  40.571  1.00  0.00     0.211 HD
ENDBRANCH  21  33
ENDBRANCH  15  16
ENDBRANCH  10  15
BRANCH  12  35
ATOM     35  O   UNL     1       1.478  15.097  34.452  1.00  0.00    -0.385 OA
ATOM     36  H   UNL     1       2.230  15.263  33.830  1.00  0.00     0.211 HD
ENDBRANCH  12  35
BRANCH  13  37
ATOM     37  O   UNL     1      -1.006  17.379  35.320  1.00  0.00    -0.387 OA
ATOM     38  H   UNL     1      -1.765  17.663  34.746  1.00  0.00     0.211 HD
ENDBRANCH  13  37
BRANCH  14  39
ATOM     39  O   UNL     1       0.529  19.355  34.750  1.00  0.00    -0.387 OA
ATOM     40  H   UNL     1       1.281  19.316  35.396  1.00  0.00     0.211 HD
ENDBRANCH  14  39
ENDBRANCH   8   9
ENDBRANCH   7   8
ENDBRANCH   1   7
BRANCH   1  41
ATOM     41  C   UNL     1       3.669  21.170  30.934  1.00  0.00     0.364 C 
ATOM     42  O   UNL     1       2.809  21.821  30.247  1.00  0.00    -0.246 OA
BRANCH  41  43
ATOM     43  O   UNL     1       4.579  20.478  30.175  1.00  0.00    -0.477 OA
ATOM     44  H   UNL     1       4.573  20.493  29.165  1.00  0.00     0.296 HD
ENDBRANCH  41  43
ENDBRANCH   1  41
BRANCH   3  45
ATOM     45  O   UNL     1       6.794  22.780  33.244  1.00  0.00    -0.391 OA
ATOM     46  H   UNL     1       6.993  23.372  34.017  1.00  0.00     0.211 HD
ENDBRANCH   3  45
BRANCH   5  47
ATOM     47  C   UNL     1       2.270  22.822  34.941  1.00  0.00     0.176 C 
BRANCH  47  48
ATOM     48  O   UNL     1       2.022  24.127  35.514  1.00  0.00    -0.388 OA
ATOM     49  H   UNL     1       2.956  24.490  35.605  1.00  0.00     0.211 HD
ENDBRANCH  47  48
BRANCH  47  50
ATOM     50  C   UNL     1       3.001  22.053  35.958  1.00  0.00     0.165 C 
BRANCH  50  51
ATOM     51  O   UNL     1       2.799  20.658  35.812  1.00  0.00    -0.388 OA
ATOM     52  H   UNL     1       3.399  20.281  35.132  1.00  0.00     0.211 HD
ENDBRANCH  50  51
BRANCH  50  53
ATOM     53  C   UNL     1       3.213  22.531  37.322  1.00  0.00     0.154 C 
BRANCH  53  54
ATOM     54  N   UNL     1       4.311  21.990  38.034  1.00  0.00    -0.319 N 
ATOM     55  C   UNL     1       4.719  22.264  39.359  1.00  0.00     0.407 C 
ATOM     56  H   UNL     1       4.935  21.274  37.537  1.00  0.00     0.167 HD
ATOM     57  O   UNL     1       4.068  23.103  40.023  1.00  0.00    -0.225 OA
BRANCH  55  58
ATOM     58  O   UNL     1       5.805  21.661  39.978  1.00  0.00    -0.443 OA
BRANCH  58  59
ATOM     59  C   UNL     1       6.757  22.430  40.665  1.00  0.00     0.294 C 
BRANCH  59  60
ATOM     60  C   UNL     1       8.006  22.446  39.827  1.00  0.00     0.121 A 
ATOM     61  C   UNL     1       8.375  23.395  38.903  1.00  0.00     0.144 A 
ATOM     62  N   UNL     1       8.999  21.546  39.808  1.00  0.00    -0.131 NA
ATOM     63  N   UNL     1       9.581  23.024  38.362  1.00  0.00    -0.220 N 
ATOM     64  N   UNL     1       9.923  21.894  38.942  1.00  0.00    -0.062 NA
BRANCH  63  65
ATOM     65  C   UNL     1      10.249  23.753  37.339  1.00  0.00     0.077 A 
ATOM     66  C   UNL     1      11.300  24.581  37.508  1.00  0.00     0.043 A 
ATOM     67  C   UNL     1       9.738  23.559  36.041  1.00  0.00     0.029 A 
ATOM     68  C   UNL     1      11.832  25.213  36.364  1.00  0.00     0.014 A 
ATOM     69  C   UNL     1      10.278  24.190  34.942  1.00  0.00     0.002 A 
ATOM     70  C   UNL     1      11.348  25.035  35.100  1.00  0.00     0.001 A 
BRANCH  66  71
ATOM     71  C   UNL     1      11.885  24.843  38.802  1.00  0.00     0.161 C 
ATOM     72  O   UNL     1      11.183  25.604  39.572  1.00  0.00    -0.294 OA
ATOM     73  C   UNL     1      13.154  24.365  39.353  1.00  0.00     0.093 C 
ENDBRANCH  66  71
ENDBRANCH  63  65
ENDBRANCH  59  60
ENDBRANCH  58  59
ENDBRANCH  55  58
ENDBRANCH  53  54
ENDBRANCH  50  53
ENDBRANCH  47  50
ENDBRANCH   5  47
BRANCH   4  74
ATOM     74  N   UNL     1       5.006  24.540  34.585  1.00  0.00    -0.348 N 
ATOM     75  C   UNL     1       5.873  24.784  35.679  1.00  0.00     0.217 C 
ATOM     76  H   UNL     1       4.615  25.352  34.039  1.00  0.00     0.163 HD
ATOM     77  C   UNL     1       6.220  26.203  36.038  1.00  0.00     0.114 C 
ATOM     78  O   UNL     1       6.316  23.798  36.302  1.00  0.00    -0.275 OA
ENDBRANCH   4  74
TORSDOF 31
