REMARK VINA RESULT:    -5.885      2.575      8.308
REMARK INTER + INTRA:         -22.034
REMARK INTER:                 -13.884
REMARK INTRA:                  -8.149
REMARK UNBOUND:                -7.203
REMARK SMILES CC(=O)N[C@@H]1[C@@H](O)C[C@](OC[C@H]2O[C@@H](O[C@H]3[C@H](O)[C@@H](O)[C@H](OCCN=[N+]=[N-])O[C@@H]3CO)[C@H](O)[C@@H](O)[C@H]2O)(C(=O)O)O[C@H]1C(O)[C@H](O)CNC(=O)OCc1cn(CC2=CC[C@H]3C[C@@H]2C3(C)C)nn1
REMARK SMILES IDX 9 1 8 2 6 3 5 4 42 5 41 6 10 7 11 8 12 9 14 10 13 11 32 12
REMARK SMILES IDX 34 13 36 14 15 15 16 16 29 17 28 18 21 19 17 20 19 21 30 22
REMARK SMILES IDX 31 23 22 25 23 26 24 27 25 28 26 29 27 30 18 31 20 33 33 35
REMARK SMILES IDX 35 37 37 39 38 41 39 42 40 43 7 45 43 47 44 48 45 50 46 51
REMARK SMILES IDX 47 53 48 54 49 55 50 57 51 58 52 59 53 60 54 61 67 62 55 63
REMARK SMILES IDX 66 64 56 65 57 66 58 67 62 68 59 69 61 70 63 71 60 72 64 73
REMARK SMILES IDX 65 74 4 75 2 76 1 78 3 79
REMARK H PARENT 31 24 18 32 20 34 33 36 35 38 37 40 40 44 7 46 44 49 46 52
REMARK H PARENT 48 56 4 77
REMARK Flexibility Score: inf
ROOT
ATOM      1  C   UNL     1      12.408  31.010  22.576  1.00  0.00     0.272 C 
ATOM      2  C   UNL     1      11.697  32.264  22.186  1.00  0.00     0.113 C 
ATOM      3  C   UNL     1      12.575  33.098  21.236  1.00  0.00     0.145 C 
ATOM      4  C   UNL     1      13.829  33.517  21.915  1.00  0.00     0.142 C 
ATOM      5  C   UNL     1      13.957  32.670  23.165  1.00  0.00     0.178 C 
ATOM      6  O   UNL     1      13.758  31.360  22.919  1.00  0.00    -0.332 OA
ENDROOT
BRANCH   1   7
ATOM      7  O   UNL     1      12.542  30.077  21.647  1.00  0.00    -0.338 OA
BRANCH   7   8
ATOM      8  C   UNL     1      13.283  28.999  21.640  1.00  0.00     0.199 C 
BRANCH   8   9
ATOM      9  C   UNL     1      14.390  28.695  20.722  1.00  0.00     0.179 C 
ATOM     10  C   UNL     1      15.104  29.288  18.603  1.00  0.00     0.282 C 
ATOM     11  O   UNL     1      14.331  29.681  19.689  1.00  0.00    -0.341 OA
ATOM     12  C   UNL     1      16.402  28.697  18.924  1.00  0.00     0.202 C 
ATOM     13  C   UNL     1      16.751  28.421  20.333  1.00  0.00     0.179 C 
ATOM     14  C   UNL     1      15.775  29.011  21.320  1.00  0.00     0.177 C 
BRANCH  10  15
ATOM     15  O   UNL     1      15.291  30.474  17.866  1.00  0.00    -0.341 OA
BRANCH  15  16
ATOM     16  C   UNL     1      14.662  30.440  16.635  1.00  0.00     0.184 C 
ATOM     17  C   UNL     1      15.618  30.855  15.553  1.00  0.00     0.178 C 
ATOM     18  O   UNL     1      15.008  31.201  14.360  1.00  0.00    -0.341 OA
ATOM     19  C   UNL     1      13.678  30.915  14.252  1.00  0.00     0.281 C 
ATOM     20  C   UNL     1      13.561  31.506  16.675  1.00  0.00     0.180 C 
ATOM     21  C   UNL     1      12.839  31.501  15.361  1.00  0.00     0.202 C 
BRANCH  17  22
ATOM     22  C   UNL     1      16.573  29.684  15.296  1.00  0.00     0.191 C 
BRANCH  22  23
ATOM     23  O   UNL     1      15.852  28.508  15.434  1.00  0.00    -0.394 OA
ATOM     24  H   UNL     1      16.508  27.747  15.481  1.00  0.00     0.210 HD
ENDBRANCH  22  23
ENDBRANCH  17  22
BRANCH  19  25
ATOM     25  O   UNL     1      13.442  29.535  14.191  1.00  0.00    -0.350 OA
BRANCH  25  26
ATOM     26  C   UNL     1      13.243  29.100  12.880  1.00  0.00     0.169 C 
BRANCH  26  27
ATOM     27  C   UNL     1      12.185  27.998  12.972  1.00  0.00     0.119 C 
BRANCH  27  28
ATOM     28  N   UNL     1      10.894  28.543  12.610  1.00  0.00    -0.092 NA
ATOM     29  N   UNL     1      10.257  29.262  13.357  1.00  0.00     0.001 N 
ATOM     30  N   UNL     1       9.583  29.872  14.196  1.00  0.00    -0.003 NA
ENDBRANCH  27  28
ENDBRANCH  26  27
ENDBRANCH  25  26
ENDBRANCH  19  25
BRANCH  20  31
ATOM     31  O   UNL     1      12.636  31.192  17.687  1.00  0.00    -0.387 OA
ATOM     32  H   UNL     1      12.728  31.816  18.439  1.00  0.00     0.211 HD
ENDBRANCH  20  31
BRANCH  21  33
ATOM     33  O   UNL     1      12.371  32.764  15.002  1.00  0.00    -0.385 OA
ATOM     34  H   UNL     1      12.429  32.842  14.007  1.00  0.00     0.211 HD
ENDBRANCH  21  33
ENDBRANCH  15  16
ENDBRANCH  10  15
BRANCH  12  35
ATOM     35  O   UNL     1      16.494  27.469  18.214  1.00  0.00    -0.385 OA
ATOM     36  H   UNL     1      15.828  27.427  17.482  1.00  0.00     0.211 HD
ENDBRANCH  12  35
BRANCH  13  37
ATOM     37  O   UNL     1      18.076  28.760  20.626  1.00  0.00    -0.387 OA
ATOM     38  H   UNL     1      18.114  29.287  21.470  1.00  0.00     0.211 HD
ENDBRANCH  13  37
BRANCH  14  39
ATOM     39  O   UNL     1      15.928  30.412  21.277  1.00  0.00    -0.387 OA
ATOM     40  H   UNL     1      16.369  30.679  20.433  1.00  0.00     0.211 HD
ENDBRANCH  14  39
ENDBRANCH   8   9
ENDBRANCH   7   8
ENDBRANCH   1   7
BRANCH   1  41
ATOM     41  C   UNL     1      11.903  30.520  23.885  1.00  0.00     0.364 C 
ATOM     42  O   UNL     1      10.666  30.662  24.186  1.00  0.00    -0.246 OA
BRANCH  41  43
ATOM     43  O   UNL     1      12.683  29.919  24.815  1.00  0.00    -0.477 OA
ATOM     44  H   UNL     1      12.710  28.945  25.069  1.00  0.00     0.296 HD
ENDBRANCH  41  43
ENDBRANCH   1  41
BRANCH   3  45
ATOM     45  O   UNL     1      12.936  32.185  20.234  1.00  0.00    -0.391 OA
ATOM     46  H   UNL     1      13.911  32.035  20.301  1.00  0.00     0.211 HD
ENDBRANCH   3  45
BRANCH   5  47
ATOM     47  C   UNL     1      15.356  32.821  23.769  1.00  0.00     0.176 C 
BRANCH  47  48
ATOM     48  O   UNL     1      16.260  33.186  22.806  1.00  0.00    -0.388 OA
ATOM     49  H   UNL     1      15.983  33.963  22.244  1.00  0.00     0.211 HD
ENDBRANCH  47  48
BRANCH  47  50
ATOM     50  C   UNL     1      15.774  31.557  24.460  1.00  0.00     0.165 C 
BRANCH  50  51
ATOM     51  O   UNL     1      15.065  31.550  25.696  1.00  0.00    -0.388 OA
ATOM     52  H   UNL     1      14.961  32.532  25.900  1.00  0.00     0.211 HD
ENDBRANCH  50  51
BRANCH  50  53
ATOM     53  C   UNL     1      17.224  31.568  24.825  1.00  0.00     0.154 C 
BRANCH  53  54
ATOM     54  N   UNL     1      18.035  30.636  24.110  1.00  0.00    -0.319 N 
ATOM     55  C   UNL     1      18.906  31.082  23.087  1.00  0.00     0.407 C 
ATOM     56  H   UNL     1      17.984  29.616  24.359  1.00  0.00     0.167 HD
ATOM     57  O   UNL     1      18.970  32.285  22.804  1.00  0.00    -0.225 OA
BRANCH  55  58
ATOM     58  O   UNL     1      19.697  30.188  22.391  1.00  0.00    -0.443 OA
BRANCH  58  59
ATOM     59  C   UNL     1      20.892  29.625  22.820  1.00  0.00     0.294 C 
BRANCH  59  60
ATOM     60  C   UNL     1      20.993  28.152  22.610  1.00  0.00     0.120 A 
ATOM     61  C   UNL     1      21.568  27.215  23.436  1.00  0.00     0.138 A 
ATOM     62  N   UNL     1      20.516  27.456  21.541  1.00  0.00    -0.132 NA
ATOM     63  N   UNL     1      21.434  26.010  22.875  1.00  0.00    -0.248 N 
ATOM     64  N   UNL     1      20.797  26.184  21.734  1.00  0.00    -0.067 NA
BRANCH  63  65
ATOM     65  C   UNL     1      21.901  24.721  23.418  1.00  0.00     0.177 C 
BRANCH  65  66
ATOM     66  C   UNL     1      23.367  24.672  23.102  1.00  0.00    -0.049 C 
ATOM     67  C   UNL     1      24.273  25.180  23.961  1.00  0.00    -0.025 C 
ATOM     68  C   UNL     1      23.889  24.075  21.864  1.00  0.00     0.023 C 
ATOM     69  C   UNL     1      25.691  25.256  23.546  1.00  0.00     0.031 C 
ATOM     70  C   UNL     1      25.117  23.245  22.262  1.00  0.00     0.013 C 
ATOM     71  C   UNL     1      24.834  25.032  21.204  1.00  0.00    -0.026 C 
ATOM     72  C   UNL     1      25.886  24.572  22.223  1.00  0.00    -0.000 C 
ATOM     73  C   UNL     1      25.276  24.628  19.818  1.00  0.00     0.012 C 
ATOM     74  C   UNL     1      24.492  26.483  21.256  1.00  0.00     0.012 C 
ENDBRANCH  65  66
ENDBRANCH  63  65
ENDBRANCH  59  60
ENDBRANCH  58  59
ENDBRANCH  55  58
ENDBRANCH  53  54
ENDBRANCH  50  53
ENDBRANCH  47  50
ENDBRANCH   5  47
BRANCH   4  75
ATOM     75  N   UNL     1      13.931  34.881  22.300  1.00  0.00    -0.348 N 
ATOM     76  C   UNL     1      14.775  35.851  21.740  1.00  0.00     0.217 C 
ATOM     77  H   UNL     1      13.296  35.181  23.095  1.00  0.00     0.163 HD
ATOM     78  C   UNL     1      14.780  37.250  22.241  1.00  0.00     0.114 C 
ATOM     79  O   UNL     1      15.514  35.485  20.809  1.00  0.00    -0.275 OA
ENDBRANCH   4  75
TORSDOF 31
