REMARK VINA RESULT:    -6.294      4.678     12.224
REMARK INTER + INTRA:         -20.707
REMARK INTER:                 -13.959
REMARK INTRA:                  -6.749
REMARK UNBOUND:                -5.215
REMARK SMILES CC(=O)N[C@@H]1[C@@H](O)C[C@](OC[C@H]2O[C@@H](O[C@H]3[C@H](O)[C@@H](O)[C@H](OCCN=[N+]=[N-])O[C@@H]3CO)[C@H](O)[C@@H](O)[C@H]2O)(C(=O)O)O[C@H]1C(O)[C@H](O)CNC(=O)OCc1cn(C2CCCC2)nn1
REMARK SMILES IDX 9 1 8 2 6 3 5 4 42 5 41 6 10 7 11 8 12 9 14 10 13 11 32 12
REMARK SMILES IDX 34 13 36 14 15 15 16 16 29 17 28 18 21 19 17 20 19 21 30 22
REMARK SMILES IDX 31 23 22 25 23 26 24 27 25 28 26 29 27 30 18 31 20 33 33 35
REMARK SMILES IDX 35 37 37 39 38 41 39 42 40 43 7 45 43 47 44 48 45 50 46 51
REMARK SMILES IDX 47 53 48 54 49 55 50 57 51 58 52 59 53 60 54 61 62 62 55 63
REMARK SMILES IDX 61 64 56 65 57 66 60 67 58 68 59 69 4 70 2 71 1 73 3 74
REMARK H PARENT 31 24 18 32 20 34 33 36 35 38 37 40 40 44 7 46 44 49 46 52
REMARK H PARENT 48 56 4 72
REMARK Flexibility Score: inf
ROOT
ATOM      1  C   UNL     1      13.627  31.691  16.157  1.00  0.00     0.272 C 
ATOM      2  C   UNL     1      12.300  31.744  15.497  1.00  0.00     0.113 C 
ATOM      3  C   UNL     1      11.861  30.462  14.881  1.00  0.00     0.145 C 
ATOM      4  C   UNL     1      12.992  29.878  13.999  1.00  0.00     0.142 C 
ATOM      5  C   UNL     1      14.138  30.826  14.057  1.00  0.00     0.178 C 
ATOM      6  O   UNL     1      14.502  30.836  15.447  1.00  0.00    -0.332 OA
ENDROOT
BRANCH   1   7
ATOM      7  O   UNL     1      13.590  31.265  17.436  1.00  0.00    -0.338 OA
BRANCH   7   8
ATOM      8  C   UNL     1      14.254  30.120  17.792  1.00  0.00     0.199 C 
BRANCH   8   9
ATOM      9  C   UNL     1      15.396  30.528  18.719  1.00  0.00     0.179 C 
ATOM     10  C   UNL     1      14.412  30.446  20.828  1.00  0.00     0.282 C 
ATOM     11  O   UNL     1      14.994  31.208  19.823  1.00  0.00    -0.341 OA
ATOM     12  C   UNL     1      14.957  29.064  20.927  1.00  0.00     0.202 C 
ATOM     13  C   UNL     1      16.333  28.899  20.362  1.00  0.00     0.179 C 
ATOM     14  C   UNL     1      16.306  29.378  18.931  1.00  0.00     0.177 C 
BRANCH  10  15
ATOM     15  O   UNL     1      13.021  30.498  20.774  1.00  0.00    -0.341 OA
BRANCH  15  16
ATOM     16  C   UNL     1      12.507  31.574  21.497  1.00  0.00     0.184 C 
ATOM     17  C   UNL     1      11.613  31.187  22.627  1.00  0.00     0.178 C 
ATOM     18  O   UNL     1      11.103  32.346  23.209  1.00  0.00    -0.341 OA
ATOM     19  C   UNL     1      10.105  32.873  22.410  1.00  0.00     0.281 C 
ATOM     20  C   UNL     1      11.655  32.365  20.512  1.00  0.00     0.180 C 
ATOM     21  C   UNL     1      10.795  33.399  21.164  1.00  0.00     0.202 C 
BRANCH  17  22
ATOM     22  C   UNL     1      12.337  30.463  23.757  1.00  0.00     0.191 C 
BRANCH  22  23
ATOM     23  O   UNL     1      12.203  29.095  23.469  1.00  0.00    -0.394 OA
ATOM     24  H   UNL     1      12.771  28.556  24.045  1.00  0.00     0.210 HD
ENDBRANCH  22  23
ENDBRANCH  17  22
BRANCH  19  25
ATOM     25  O   UNL     1       9.539  33.967  23.057  1.00  0.00    -0.350 OA
BRANCH  25  26
ATOM     26  C   UNL     1       8.443  33.546  23.829  1.00  0.00     0.169 C 
BRANCH  26  27
ATOM     27  C   UNL     1       7.724  32.395  23.148  1.00  0.00     0.119 C 
BRANCH  27  28
ATOM     28  N   UNL     1       7.411  31.356  24.084  1.00  0.00    -0.092 NA
ATOM     29  N   UNL     1       8.272  30.546  24.485  1.00  0.00     0.001 N 
ATOM     30  N   UNL     1       8.992  29.552  24.456  1.00  0.00    -0.003 NA
ENDBRANCH  27  28
ENDBRANCH  26  27
ENDBRANCH  25  26
ENDBRANCH  19  25
BRANCH  20  31
ATOM     31  O   UNL     1      12.548  33.008  19.657  1.00  0.00    -0.387 OA
ATOM     32  H   UNL     1      13.082  32.378  19.113  1.00  0.00     0.211 HD
ENDBRANCH  20  31
BRANCH  21  33
ATOM     33  O   UNL     1       9.780  33.752  20.260  1.00  0.00    -0.385 OA
ATOM     34  H   UNL     1       8.974  33.261  20.562  1.00  0.00     0.211 HD
ENDBRANCH  21  33
ENDBRANCH  15  16
ENDBRANCH  10  15
BRANCH  12  35
ATOM     35  O   UNL     1      15.040  28.643  22.275  1.00  0.00    -0.385 OA
ATOM     36  H   UNL     1      14.779  27.703  22.300  1.00  0.00     0.211 HD
ENDBRANCH  12  35
BRANCH  13  37
ATOM     37  O   UNL     1      16.677  27.560  20.369  1.00  0.00    -0.387 OA
ATOM     38  H   UNL     1      17.407  27.431  19.724  1.00  0.00     0.211 HD
ENDBRANCH  13  37
BRANCH  14  39
ATOM     39  O   UNL     1      16.047  28.287  18.112  1.00  0.00    -0.387 OA
ATOM     40  H   UNL     1      15.323  27.732  18.435  1.00  0.00     0.211 HD
ENDBRANCH  14  39
ENDBRANCH   8   9
ENDBRANCH   7   8
ENDBRANCH   1   7
BRANCH   1  41
ATOM     41  C   UNL     1      14.284  33.046  16.021  1.00  0.00     0.364 C 
ATOM     42  O   UNL     1      15.475  33.244  16.307  1.00  0.00    -0.246 OA
BRANCH  41  43
ATOM     43  O   UNL     1      13.461  34.074  15.552  1.00  0.00    -0.477 OA
ATOM     44  H   UNL     1      13.120  34.778  16.219  1.00  0.00     0.296 HD
ENDBRANCH  41  43
ENDBRANCH   1  41
BRANCH   3  45
ATOM     45  O   UNL     1      11.355  29.524  15.744  1.00  0.00    -0.391 OA
ATOM     46  H   UNL     1      11.707  28.631  15.524  1.00  0.00     0.211 HD
ENDBRANCH   3  45
BRANCH   5  47
ATOM     47  C   UNL     1      15.394  30.362  13.364  1.00  0.00     0.176 C 
BRANCH  47  48
ATOM     48  O   UNL     1      15.255  28.917  13.239  1.00  0.00    -0.388 OA
ATOM     49  H   UNL     1      14.279  28.795  13.272  1.00  0.00     0.211 HD
ENDBRANCH  47  48
BRANCH  47  50
ATOM     50  C   UNL     1      16.665  30.481  14.158  1.00  0.00     0.165 C 
BRANCH  50  51
ATOM     51  O   UNL     1      17.604  31.350  13.731  1.00  0.00    -0.388 OA
ATOM     52  H   UNL     1      18.392  30.951  13.301  1.00  0.00     0.211 HD
ENDBRANCH  50  51
BRANCH  50  53
ATOM     53  C   UNL     1      17.301  29.097  14.222  1.00  0.00     0.154 C 
BRANCH  53  54
ATOM     54  N   UNL     1      17.622  28.808  15.627  1.00  0.00    -0.319 N 
ATOM     55  C   UNL     1      18.962  28.603  16.042  1.00  0.00     0.407 C 
ATOM     56  H   UNL     1      16.869  28.744  16.359  1.00  0.00     0.167 HD
ATOM     57  O   UNL     1      19.884  28.673  15.188  1.00  0.00    -0.225 OA
BRANCH  55  58
ATOM     58  O   UNL     1      19.278  28.331  17.354  1.00  0.00    -0.443 OA
BRANCH  58  59
ATOM     59  C   UNL     1      20.543  28.637  17.908  1.00  0.00     0.294 C 
BRANCH  59  60
ATOM     60  C   UNL     1      20.728  28.090  19.272  1.00  0.00     0.120 A 
ATOM     61  C   UNL     1      21.832  27.526  19.870  1.00  0.00     0.138 A 
ATOM     62  N   UNL     1      19.767  28.056  20.220  1.00  0.00    -0.132 NA
ATOM     63  N   UNL     1      21.518  27.176  21.120  1.00  0.00    -0.249 N 
ATOM     64  N   UNL     1      20.252  27.515  21.299  1.00  0.00    -0.067 NA
BRANCH  63  65
ATOM     65  C   UNL     1      22.365  26.547  22.126  1.00  0.00     0.109 C 
ATOM     66  C   UNL     1      21.592  26.033  23.296  1.00  0.00     0.027 C 
ATOM     67  C   UNL     1      22.996  25.313  21.517  1.00  0.00     0.027 C 
ATOM     68  C   UNL     1      21.278  24.583  23.036  1.00  0.00     0.002 C 
ATOM     69  C   UNL     1      22.089  24.164  21.837  1.00  0.00     0.002 C 
ENDBRANCH  63  65
ENDBRANCH  59  60
ENDBRANCH  58  59
ENDBRANCH  55  58
ENDBRANCH  53  54
ENDBRANCH  50  53
ENDBRANCH  47  50
ENDBRANCH   5  47
BRANCH   4  70
ATOM     70  N   UNL     1      12.451  29.597  12.689  1.00  0.00    -0.348 N 
ATOM     71  C   UNL     1      11.840  28.311  12.421  1.00  0.00     0.217 C 
ATOM     72  H   UNL     1      12.451  30.281  11.906  1.00  0.00     0.163 HD
ATOM     73  C   UNL     1      11.278  28.001  11.084  1.00  0.00     0.114 C 
ATOM     74  O   UNL     1      11.775  27.429  13.319  1.00  0.00    -0.275 OA
ENDBRANCH   4  70
TORSDOF 30
