REMARK VINA RESULT:    -4.773      5.368     10.749
REMARK INTER + INTRA:         -21.138
REMARK INTER:                 -13.791
REMARK INTRA:                  -7.348
REMARK UNBOUND:                -9.390
REMARK SMILES CC(=O)N[C@@H]1[C@@H](O)C[C@](OC[C@H]2O[C@@H](O[C@H]3[C@H](O)[C@@H](O)[C@H](OCCN=[N+]=[N-])O[C@@H]3CO)[C@H](O)[C@@H](O)[C@H]2O)(C(=O)O)O[C@H]1C(O)[C@H](O)CNC(=O)OCc1cn(-c2ccncc2)nn1
REMARK SMILES IDX 9 1 8 2 6 3 5 4 42 5 41 6 10 7 11 8 12 9 14 10 13 11 32 12
REMARK SMILES IDX 34 13 36 14 15 15 16 16 29 17 28 18 21 19 17 20 19 21 30 22
REMARK SMILES IDX 31 23 22 25 23 26 24 27 25 28 26 29 27 30 18 31 20 33 33 35
REMARK SMILES IDX 35 37 37 39 38 41 39 42 40 43 7 45 43 47 44 48 45 50 46 51
REMARK SMILES IDX 47 53 48 54 49 55 50 57 51 58 52 59 53 60 54 61 63 62 55 63
REMARK SMILES IDX 62 64 56 65 57 66 61 67 58 68 60 69 59 70 4 71 2 72 1 74
REMARK SMILES IDX 3 75
REMARK H PARENT 31 24 18 32 20 34 33 36 35 38 37 40 40 44 7 46 44 49 46 52
REMARK H PARENT 48 56 4 73
REMARK Flexibility Score: inf
ROOT
ATOM      1  C   UNL     1      14.729  32.663  18.030  1.00  0.00     0.272 C 
ATOM      2  C   UNL     1      13.210  32.393  18.051  1.00  0.00     0.113 C 
ATOM      3  C   UNL     1      12.943  30.902  18.283  1.00  0.00     0.145 C 
ATOM      4  C   UNL     1      13.429  30.176  16.982  1.00  0.00     0.142 C 
ATOM      5  C   UNL     1      14.833  30.652  16.754  1.00  0.00     0.178 C 
ATOM      6  O   UNL     1      15.251  31.365  17.870  1.00  0.00    -0.332 OA
ENDROOT
BRANCH   1   7
ATOM      7  O   UNL     1      15.147  33.061  19.215  1.00  0.00    -0.338 OA
BRANCH   7   8
ATOM      8  C   UNL     1      16.155  33.123  19.967  1.00  0.00     0.199 C 
BRANCH   8   9
ATOM      9  C   UNL     1      16.183  32.444  21.303  1.00  0.00     0.179 C 
ATOM     10  C   UNL     1      14.736  31.056  22.528  1.00  0.00     0.282 C 
ATOM     11  O   UNL     1      14.928  31.758  21.361  1.00  0.00    -0.341 OA
ATOM     12  C   UNL     1      15.743  29.958  22.668  1.00  0.00     0.202 C 
ATOM     13  C   UNL     1      17.153  30.538  22.543  1.00  0.00     0.179 C 
ATOM     14  C   UNL     1      17.222  31.318  21.264  1.00  0.00     0.177 C 
BRANCH  10  15
ATOM     15  O   UNL     1      13.440  30.499  22.372  1.00  0.00    -0.341 OA
BRANCH  15  16
ATOM     16  C   UNL     1      12.470  31.209  22.995  1.00  0.00     0.184 C 
ATOM     17  C   UNL     1      11.568  30.402  23.840  1.00  0.00     0.178 C 
ATOM     18  O   UNL     1      10.668  31.239  24.534  1.00  0.00    -0.341 OA
ATOM     19  C   UNL     1       9.695  31.541  23.507  1.00  0.00     0.281 C 
ATOM     20  C   UNL     1      11.608  31.899  21.893  1.00  0.00     0.180 C 
ATOM     21  C   UNL     1      10.363  32.460  22.555  1.00  0.00     0.202 C 
BRANCH  17  22
ATOM     22  C   UNL     1      12.275  29.530  24.806  1.00  0.00     0.191 C 
BRANCH  22  23
ATOM     23  O   UNL     1      11.545  28.373  25.120  1.00  0.00    -0.394 OA
ATOM     24  H   UNL     1      11.309  27.942  24.246  1.00  0.00     0.210 HD
ENDBRANCH  22  23
ENDBRANCH  17  22
BRANCH  19  25
ATOM     25  O   UNL     1       8.670  32.154  24.174  1.00  0.00    -0.350 OA
BRANCH  25  26
ATOM     26  C   UNL     1       7.514  31.435  24.157  1.00  0.00     0.169 C 
BRANCH  26  27
ATOM     27  C   UNL     1       7.080  30.837  25.456  1.00  0.00     0.119 C 
BRANCH  27  28
ATOM     28  N   UNL     1       6.945  29.395  25.396  1.00  0.00    -0.092 NA
ATOM     29  N   UNL     1       7.851  28.632  25.092  1.00  0.00     0.001 N 
ATOM     30  N   UNL     1       8.731  27.977  24.525  1.00  0.00    -0.003 NA
ENDBRANCH  27  28
ENDBRANCH  26  27
ENDBRANCH  25  26
ENDBRANCH  19  25
BRANCH  20  31
ATOM     31  O   UNL     1      12.360  32.946  21.417  1.00  0.00    -0.387 OA
ATOM     32  H   UNL     1      13.083  33.206  22.071  1.00  0.00     0.211 HD
ENDBRANCH  20  31
BRANCH  21  33
ATOM     33  O   UNL     1       9.462  32.890  21.592  1.00  0.00    -0.385 OA
ATOM     34  H   UNL     1       9.491  32.264  20.823  1.00  0.00     0.211 HD
ENDBRANCH  21  33
ENDBRANCH  15  16
ENDBRANCH  10  15
BRANCH  12  35
ATOM     35  O   UNL     1      15.667  29.363  23.950  1.00  0.00    -0.385 OA
ATOM     36  H   UNL     1      16.568  29.463  24.339  1.00  0.00     0.211 HD
ENDBRANCH  12  35
BRANCH  13  37
ATOM     37  O   UNL     1      18.131  29.572  22.558  1.00  0.00    -0.387 OA
ATOM     38  H   UNL     1      18.508  29.432  21.633  1.00  0.00     0.211 HD
ENDBRANCH  13  37
BRANCH  14  39
ATOM     39  O   UNL     1      16.870  30.518  20.165  1.00  0.00    -0.387 OA
ATOM     40  H   UNL     1      15.980  30.085  20.343  1.00  0.00     0.211 HD
ENDBRANCH  14  39
ENDBRANCH   8   9
ENDBRANCH   7   8
ENDBRANCH   1   7
BRANCH   1  41
ATOM     41  C   UNL     1      15.088  33.546  16.916  1.00  0.00     0.364 C 
ATOM     42  O   UNL     1      14.220  34.262  16.318  1.00  0.00    -0.246 OA
BRANCH  41  43
ATOM     43  O   UNL     1      16.369  33.670  16.435  1.00  0.00    -0.477 OA
ATOM     44  H   UNL     1      17.212  33.642  16.967  1.00  0.00     0.296 HD
ENDBRANCH  41  43
ENDBRANCH   1  41
BRANCH   3  45
ATOM     45  O   UNL     1      13.721  30.448  19.313  1.00  0.00    -0.391 OA
ATOM     46  H   UNL     1      13.530  30.905  20.155  1.00  0.00     0.211 HD
ENDBRANCH   3  45
BRANCH   5  47
ATOM     47  C   UNL     1      15.861  29.514  16.697  1.00  0.00     0.176 C 
BRANCH  47  48
ATOM     48  O   UNL     1      15.487  28.762  17.896  1.00  0.00    -0.388 OA
ATOM     49  H   UNL     1      15.805  29.307  18.677  1.00  0.00     0.211 HD
ENDBRANCH  47  48
BRANCH  47  50
ATOM     50  C   UNL     1      17.274  29.874  16.843  1.00  0.00     0.165 C 
BRANCH  50  51
ATOM     51  O   UNL     1      17.764  30.916  16.092  1.00  0.00    -0.388 OA
ATOM     52  H   UNL     1      17.591  31.791  16.530  1.00  0.00     0.211 HD
ENDBRANCH  50  51
BRANCH  50  53
ATOM     53  C   UNL     1      18.204  28.762  17.139  1.00  0.00     0.154 C 
BRANCH  53  54
ATOM     54  N   UNL     1      18.359  28.421  18.528  1.00  0.00    -0.319 N 
ATOM     55  C   UNL     1      19.621  28.504  19.164  1.00  0.00     0.407 C 
ATOM     56  H   UNL     1      17.517  28.100  19.038  1.00  0.00     0.167 HD
ATOM     57  O   UNL     1      20.588  28.887  18.468  1.00  0.00    -0.225 OA
BRANCH  55  58
ATOM     58  O   UNL     1      19.844  28.193  20.476  1.00  0.00    -0.443 OA
BRANCH  58  59
ATOM     59  C   UNL     1      21.046  28.393  21.188  1.00  0.00     0.294 C 
BRANCH  59  60
ATOM     60  C   UNL     1      21.348  27.242  22.101  1.00  0.00     0.121 A 
ATOM     61  C   UNL     1      22.162  27.193  23.212  1.00  0.00     0.144 A 
ATOM     62  N   UNL     1      20.845  25.991  21.974  1.00  0.00    -0.131 NA
ATOM     63  N   UNL     1      22.132  25.948  23.718  1.00  0.00    -0.220 N 
ATOM     64  N   UNL     1      21.319  25.229  22.943  1.00  0.00    -0.062 NA
BRANCH  63  65
ATOM     65  C   UNL     1      22.847  25.509  24.865  1.00  0.00     0.069 A 
ATOM     66  C   UNL     1      22.292  24.773  25.889  1.00  0.00     0.048 A 
ATOM     67  C   UNL     1      24.182  25.835  24.958  1.00  0.00     0.048 A 
ATOM     68  C   UNL     1      23.028  24.361  26.988  1.00  0.00     0.113 A 
ATOM     69  C   UNL     1      24.911  25.419  26.060  1.00  0.00     0.113 A 
ATOM     70  N   UNL     1      24.336  24.704  27.035  1.00  0.00    -0.265 NA
ENDBRANCH  63  65
ENDBRANCH  59  60
ENDBRANCH  58  59
ENDBRANCH  55  58
ENDBRANCH  53  54
ENDBRANCH  50  53
ENDBRANCH  47  50
ENDBRANCH   5  47
BRANCH   4  71
ATOM     71  N   UNL     1      12.485  30.638  15.993  1.00  0.00    -0.348 N 
ATOM     72  C   UNL     1      11.557  29.815  15.319  1.00  0.00     0.217 C 
ATOM     73  H   UNL     1      12.475  31.645  15.747  1.00  0.00     0.163 HD
ATOM     74  C   UNL     1      10.642  30.400  14.327  1.00  0.00     0.114 C 
ATOM     75  O   UNL     1      11.510  28.594  15.563  1.00  0.00    -0.275 OA
ENDBRANCH   4  71
TORSDOF 30
