REMARK VINA RESULT:    -6.360      5.531     14.638
REMARK INTER + INTRA:         -23.431
REMARK INTER:                 -15.749
REMARK INTRA:                  -7.682
REMARK UNBOUND:                -7.033
REMARK SMILES CC(=O)N[C@@H]1[C@@H](O)C[C@](OC[C@H]2O[C@@H](O[C@H]3[C@H](O)[C@@H](O)[C@H](OCCN=[N+]=[N-])O[C@@H]3CO)[C@H](O)[C@@H](O)[C@H]2O)(C(=O)O)O[C@H]1C(O)[C@H](O)CNC(=O)OCc1cn(C(C)(C)C(=O)c2c[nH]c3ccccc23)nn1
REMARK SMILES IDX 9 1 8 2 6 3 5 4 42 5 41 6 10 7 11 8 12 9 14 10 13 11 32 12
REMARK SMILES IDX 34 13 36 14 15 15 16 16 29 17 28 18 21 19 17 20 19 21 30 22
REMARK SMILES IDX 31 23 22 25 23 26 24 27 25 28 26 29 27 30 18 31 20 33 33 35
REMARK SMILES IDX 35 37 37 39 38 41 39 42 40 43 7 45 43 47 44 48 45 50 46 51
REMARK SMILES IDX 47 53 48 54 49 55 50 57 51 58 52 59 53 60 54 61 71 62 55 63
REMARK SMILES IDX 70 64 56 65 57 66 58 67 59 68 60 69 61 70 62 71 69 72 63 73
REMARK SMILES IDX 64 74 68 75 65 77 67 78 66 79 4 80 2 81 1 83 3 84
REMARK H PARENT 31 24 18 32 20 34 33 36 35 38 37 40 40 44 7 46 44 49 46 52
REMARK H PARENT 48 56 63 76 4 82
REMARK Flexibility Score: inf
ROOT
ATOM      1  C   UNL     1      22.231  26.137  21.787  1.00  0.00     0.272 C 
ATOM      2  C   UNL     1      22.337  24.854  20.980  1.00  0.00     0.113 C 
ATOM      3  C   UNL     1      23.608  24.104  21.286  1.00  0.00     0.145 C 
ATOM      4  C   UNL     1      24.817  24.943  20.744  1.00  0.00     0.142 C 
ATOM      5  C   UNL     1      24.434  26.367  20.980  1.00  0.00     0.178 C 
ATOM      6  O   UNL     1      23.562  26.475  22.043  1.00  0.00    -0.332 OA
ENDROOT
BRANCH   1   7
ATOM      7  O   UNL     1      21.491  26.103  22.899  1.00  0.00    -0.338 OA
BRANCH   7   8
ATOM      8  C   UNL     1      21.711  26.274  24.159  1.00  0.00     0.199 C 
BRANCH   8   9
ATOM      9  C   UNL     1      20.882  27.379  24.818  1.00  0.00     0.179 C 
ATOM     10  C   UNL     1      21.479  27.070  27.093  1.00  0.00     0.282 C 
ATOM     11  O   UNL     1      20.569  27.063  26.096  1.00  0.00    -0.341 OA
ATOM     12  C   UNL     1      22.395  28.263  27.083  1.00  0.00     0.202 C 
ATOM     13  C   UNL     1      21.906  29.281  26.059  1.00  0.00     0.179 C 
ATOM     14  C   UNL     1      21.649  28.670  24.734  1.00  0.00     0.177 C 
BRANCH  10  15
ATOM     15  O   UNL     1      22.246  25.919  27.062  1.00  0.00    -0.341 OA
BRANCH  15  16
ATOM     16  C   UNL     1      23.320  25.950  27.905  1.00  0.00     0.184 C 
ATOM     17  C   UNL     1      24.623  25.467  27.380  1.00  0.00     0.178 C 
ATOM     18  O   UNL     1      25.617  26.001  28.225  1.00  0.00    -0.341 OA
ATOM     19  C   UNL     1      25.531  25.571  29.518  1.00  0.00     0.281 C 
ATOM     20  C   UNL     1      23.069  25.233  29.217  1.00  0.00     0.180 C 
ATOM     21  C   UNL     1      24.162  25.707  30.150  1.00  0.00     0.202 C 
BRANCH  17  22
ATOM     22  C   UNL     1      24.967  25.966  25.992  1.00  0.00     0.191 C 
BRANCH  22  23
ATOM     23  O   UNL     1      24.713  24.917  25.100  1.00  0.00    -0.394 OA
ATOM     24  H   UNL     1      24.159  24.205  25.498  1.00  0.00     0.210 HD
ENDBRANCH  22  23
ENDBRANCH  17  22
BRANCH  19  25
ATOM     25  O   UNL     1      26.386  26.366  30.288  1.00  0.00    -0.350 OA
BRANCH  25  26
ATOM     26  C   UNL     1      27.521  26.633  29.546  1.00  0.00     0.169 C 
BRANCH  26  27
ATOM     27  C   UNL     1      28.390  27.686  30.178  1.00  0.00     0.119 C 
BRANCH  27  28
ATOM     28  N   UNL     1      29.004  27.259  31.416  1.00  0.00    -0.092 NA
ATOM     29  N   UNL     1      29.813  26.309  31.437  1.00  0.00     0.001 N 
ATOM     30  N   UNL     1      30.904  25.744  31.328  1.00  0.00    -0.003 NA
ENDBRANCH  27  28
ENDBRANCH  26  27
ENDBRANCH  25  26
ENDBRANCH  19  25
BRANCH  20  31
ATOM     31  O   UNL     1      21.838  25.516  29.760  1.00  0.00    -0.387 OA
ATOM     32  H   UNL     1      21.591  26.430  29.504  1.00  0.00     0.211 HD
ENDBRANCH  20  31
BRANCH  21  33
ATOM     33  O   UNL     1      24.146  24.885  31.275  1.00  0.00    -0.385 OA
ATOM     34  H   UNL     1      24.315  25.395  32.113  1.00  0.00     0.211 HD
ENDBRANCH  21  33
ENDBRANCH  15  16
ENDBRANCH  10  15
BRANCH  12  35
ATOM     35  O   UNL     1      22.551  28.864  28.331  1.00  0.00    -0.385 OA
ATOM     36  H   UNL     1      21.733  29.354  28.560  1.00  0.00     0.211 HD
ENDBRANCH  12  35
BRANCH  13  37
ATOM     37  O   UNL     1      22.937  30.247  25.988  1.00  0.00    -0.387 OA
ATOM     38  H   UNL     1      23.377  30.227  25.104  1.00  0.00     0.211 HD
ENDBRANCH  13  37
BRANCH  14  39
ATOM     39  O   UNL     1      22.871  28.381  24.076  1.00  0.00    -0.387 OA
ATOM     40  H   UNL     1      23.262  29.225  23.729  1.00  0.00     0.211 HD
ENDBRANCH  14  39
ENDBRANCH   8   9
ENDBRANCH   7   8
ENDBRANCH   1   7
BRANCH   1  41
ATOM     41  C   UNL     1      21.630  27.166  20.910  1.00  0.00     0.364 C 
ATOM     42  O   UNL     1      21.677  28.370  21.270  1.00  0.00    -0.246 OA
BRANCH  41  43
ATOM     43  O   UNL     1      21.019  26.892  19.728  1.00  0.00    -0.477 OA
ATOM     44  H   UNL     1      21.375  27.085  18.795  1.00  0.00     0.296 HD
ENDBRANCH  41  43
ENDBRANCH   1  41
BRANCH   3  45
ATOM     45  O   UNL     1      23.902  23.949  22.621  1.00  0.00    -0.391 OA
ATOM     46  H   UNL     1      23.652  23.051  22.981  1.00  0.00     0.211 HD
ENDBRANCH   3  45
BRANCH   5  47
ATOM     47  C   UNL     1      25.527  27.340  21.226  1.00  0.00     0.176 C 
BRANCH  47  48
ATOM     48  O   UNL     1      26.759  26.911  20.787  1.00  0.00    -0.388 OA
ATOM     49  H   UNL     1      26.873  25.919  20.764  1.00  0.00     0.211 HD
ENDBRANCH  47  48
BRANCH  47  50
ATOM     50  C   UNL     1      25.231  28.792  20.919  1.00  0.00     0.165 C 
BRANCH  50  51
ATOM     51  O   UNL     1      24.191  29.296  21.629  1.00  0.00    -0.388 OA
ATOM     52  H   UNL     1      24.303  29.206  22.586  1.00  0.00     0.211 HD
ENDBRANCH  50  51
BRANCH  50  53
ATOM     53  C   UNL     1      25.194  28.960  19.435  1.00  0.00     0.154 C 
BRANCH  53  54
ATOM     54  N   UNL     1      23.927  29.112  18.824  1.00  0.00    -0.319 N 
ATOM     55  C   UNL     1      23.383  28.186  17.867  1.00  0.00     0.407 C 
ATOM     56  H   UNL     1      23.312  29.948  19.062  1.00  0.00     0.167 HD
ATOM     57  O   UNL     1      24.022  27.181  17.495  1.00  0.00    -0.225 OA
BRANCH  55  58
ATOM     58  O   UNL     1      22.127  28.385  17.326  1.00  0.00    -0.443 OA
BRANCH  58  59
ATOM     59  C   UNL     1      21.360  29.518  17.618  1.00  0.00     0.294 C 
BRANCH  59  60
ATOM     60  C   UNL     1      19.944  29.080  17.821  1.00  0.00     0.120 A 
ATOM     61  C   UNL     1      18.960  29.816  18.508  1.00  0.00     0.139 A 
ATOM     62  N   UNL     1      19.314  27.957  17.455  1.00  0.00    -0.132 NA
ATOM     63  N   UNL     1      17.814  29.124  18.527  1.00  0.00    -0.239 N 
ATOM     64  N   UNL     1      18.040  28.003  17.887  1.00  0.00    -0.066 NA
BRANCH  63  65
ATOM     65  C   UNL     1      16.584  29.571  19.147  1.00  0.00     0.122 C 
ATOM     66  C   UNL     1      15.432  29.185  18.154  1.00  0.00     0.046 C 
ATOM     67  C   UNL     1      16.468  31.074  19.246  1.00  0.00     0.046 C 
BRANCH  65  68
ATOM     68  C   UNL     1      16.306  28.877  20.389  1.00  0.00     0.192 C 
ATOM     69  O   UNL     1      16.357  27.574  20.296  1.00  0.00    -0.291 OA
BRANCH  68  70
ATOM     70  C   UNL     1      15.984  29.373  21.691  1.00  0.00     0.045 A 
ATOM     71  C   UNL     1      16.946  29.796  22.618  1.00  0.00     0.095 A 
ATOM     72  C   UNL     1      14.758  29.519  22.309  1.00  0.00     0.010 A 
ATOM     73  N   UNL     1      16.316  30.168  23.715  1.00  0.00    -0.360 N 
ATOM     74  C   UNL     1      14.996  30.023  23.590  1.00  0.00     0.046 A 
ATOM     75  C   UNL     1      13.460  29.286  21.946  1.00  0.00     0.011 A 
ATOM     76  H   UNL     1      16.821  30.531  24.573  1.00  0.00     0.166 HD
ATOM     77  C   UNL     1      13.955  30.279  24.466  1.00  0.00     0.027 A 
ATOM     78  C   UNL     1      12.415  29.544  22.832  1.00  0.00     0.001 A 
ATOM     79  C   UNL     1      12.670  30.036  24.078  1.00  0.00     0.002 A 
ENDBRANCH  68  70
ENDBRANCH  65  68
ENDBRANCH  63  65
ENDBRANCH  59  60
ENDBRANCH  58  59
ENDBRANCH  55  58
ENDBRANCH  53  54
ENDBRANCH  50  53
ENDBRANCH  47  50
ENDBRANCH   5  47
BRANCH   4  80
ATOM     80  N   UNL     1      24.802  24.631  19.318  1.00  0.00    -0.348 N 
ATOM     81  C   UNL     1      25.962  24.333  18.559  1.00  0.00     0.217 C 
ATOM     82  H   UNL     1      23.876  24.627  18.810  1.00  0.00     0.163 HD
ATOM     83  C   UNL     1      25.942  24.019  17.106  1.00  0.00     0.114 C 
ATOM     84  O   UNL     1      27.071  24.344  19.195  1.00  0.00    -0.275 OA
ENDBRANCH   4  80
TORSDOF 32
