REMARK VINA RESULT:    -6.372      3.479     14.993
REMARK INTER + INTRA:         -23.463
REMARK INTER:                 -17.328
REMARK INTRA:                  -6.135
REMARK UNBOUND:                -7.033
REMARK SMILES CC(=O)N[C@@H]1[C@@H](O)C[C@](OC[C@H]2O[C@@H](O[C@H]3[C@H](O)[C@@H](O)[C@H](OCCN=[N+]=[N-])O[C@@H]3CO)[C@H](O)[C@@H](O)[C@H]2O)(C(=O)O)O[C@H]1C(O)[C@H](O)CNC(=O)OCc1cn(C(C)(C)C(=O)c2c[nH]c3ccccc23)nn1
REMARK SMILES IDX 9 1 8 2 6 3 5 4 42 5 41 6 10 7 11 8 12 9 14 10 13 11 32 12
REMARK SMILES IDX 34 13 36 14 15 15 16 16 29 17 28 18 21 19 17 20 19 21 30 22
REMARK SMILES IDX 31 23 22 25 23 26 24 27 25 28 26 29 27 30 18 31 20 33 33 35
REMARK SMILES IDX 35 37 37 39 38 41 39 42 40 43 7 45 43 47 44 48 45 50 46 51
REMARK SMILES IDX 47 53 48 54 49 55 50 57 51 58 52 59 53 60 54 61 71 62 55 63
REMARK SMILES IDX 70 64 56 65 57 66 58 67 59 68 60 69 61 70 62 71 69 72 63 73
REMARK SMILES IDX 64 74 68 75 65 77 67 78 66 79 4 80 2 81 1 83 3 84
REMARK H PARENT 31 24 18 32 20 34 33 36 35 38 37 40 40 44 7 46 44 49 46 52
REMARK H PARENT 48 56 63 76 4 82
REMARK Flexibility Score: inf
ROOT
ATOM      1  C   UNL     1      18.633  30.432  21.564  1.00  0.00     0.272 C 
ATOM      2  C   UNL     1      17.644  31.329  22.288  1.00  0.00     0.113 C 
ATOM      3  C   UNL     1      16.567  30.531  22.980  1.00  0.00     0.145 C 
ATOM      4  C   UNL     1      15.670  29.860  21.882  1.00  0.00     0.142 C 
ATOM      5  C   UNL     1      16.615  29.493  20.785  1.00  0.00     0.178 C 
ATOM      6  O   UNL     1      17.887  29.286  21.275  1.00  0.00    -0.332 OA
ENDROOT
BRANCH   1   7
ATOM      7  O   UNL     1      19.778  30.150  22.189  1.00  0.00    -0.338 OA
BRANCH   7   8
ATOM      8  C   UNL     1      20.321  29.090  22.687  1.00  0.00     0.199 C 
BRANCH   8   9
ATOM      9  C   UNL     1      21.689  28.727  22.104  1.00  0.00     0.179 C 
ATOM     10  C   UNL     1      22.282  26.899  23.496  1.00  0.00     0.282 C 
ATOM     11  O   UNL     1      22.484  28.153  23.037  1.00  0.00    -0.341 OA
ATOM     12  C   UNL     1      21.961  25.895  22.423  1.00  0.00     0.202 C 
ATOM     13  C   UNL     1      22.168  26.522  21.049  1.00  0.00     0.179 C 
ATOM     14  C   UNL     1      21.482  27.827  20.916  1.00  0.00     0.177 C 
BRANCH  10  15
ATOM     15  O   UNL     1      21.270  26.882  24.439  1.00  0.00    -0.341 OA
BRANCH  15  16
ATOM     16  C   UNL     1      21.705  26.634  25.709  1.00  0.00     0.184 C 
ATOM     17  C   UNL     1      22.474  27.702  26.396  1.00  0.00     0.178 C 
ATOM     18  O   UNL     1      22.414  27.414  27.776  1.00  0.00    -0.341 OA
ATOM     19  C   UNL     1      22.997  26.228  28.117  1.00  0.00     0.281 C 
ATOM     20  C   UNL     1      22.510  25.354  25.824  1.00  0.00     0.180 C 
ATOM     21  C   UNL     1      22.550  25.034  27.302  1.00  0.00     0.202 C 
BRANCH  17  22
ATOM     22  C   UNL     1      21.890  29.092  26.251  1.00  0.00     0.191 C 
BRANCH  22  23
ATOM     23  O   UNL     1      20.503  28.948  26.131  1.00  0.00    -0.394 OA
ATOM     24  H   UNL     1      20.005  29.646  26.615  1.00  0.00     0.210 HD
ENDBRANCH  22  23
ENDBRANCH  17  22
BRANCH  19  25
ATOM     25  O   UNL     1      22.637  25.943  29.438  1.00  0.00    -0.350 OA
BRANCH  25  26
ATOM     26  C   UNL     1      23.662  26.355  30.270  1.00  0.00     0.169 C 
BRANCH  26  27
ATOM     27  C   UNL     1      24.887  25.490  30.149  1.00  0.00     0.119 C 
BRANCH  27  28
ATOM     28  N   UNL     1      26.075  26.093  30.712  1.00  0.00    -0.092 NA
ATOM     29  N   UNL     1      27.162  25.480  30.722  1.00  0.00     0.001 N 
ATOM     30  N   UNL     1      28.236  25.066  30.279  1.00  0.00    -0.003 NA
ENDBRANCH  27  28
ENDBRANCH  26  27
ENDBRANCH  25  26
ENDBRANCH  19  25
BRANCH  20  31
ATOM     31  O   UNL     1      21.953  24.303  25.134  1.00  0.00    -0.387 OA
ATOM     32  H   UNL     1      22.677  23.803  24.698  1.00  0.00     0.211 HD
ENDBRANCH  20  31
BRANCH  21  33
ATOM     33  O   UNL     1      23.496  24.029  27.493  1.00  0.00    -0.385 OA
ATOM     34  H   UNL     1      23.411  23.601  28.388  1.00  0.00     0.211 HD
ENDBRANCH  21  33
ENDBRANCH  15  16
ENDBRANCH  10  15
BRANCH  12  35
ATOM     35  O   UNL     1      22.685  24.707  22.530  1.00  0.00    -0.385 OA
ATOM     36  H   UNL     1      22.535  24.163  21.728  1.00  0.00     0.211 HD
ENDBRANCH  12  35
BRANCH  13  37
ATOM     37  O   UNL     1      21.649  25.573  20.137  1.00  0.00    -0.387 OA
ATOM     38  H   UNL     1      20.788  25.210  20.460  1.00  0.00     0.211 HD
ENDBRANCH  13  37
BRANCH  14  39
ATOM     39  O   UNL     1      20.083  27.641  20.781  1.00  0.00    -0.387 OA
ATOM     40  H   UNL     1      19.649  27.776  21.664  1.00  0.00     0.211 HD
ENDBRANCH  14  39
ENDBRANCH   8   9
ENDBRANCH   7   8
ENDBRANCH   1   7
BRANCH   1  41
ATOM     41  C   UNL     1      18.997  31.103  20.297  1.00  0.00     0.364 C 
ATOM     42  O   UNL     1      19.676  30.469  19.449  1.00  0.00    -0.246 OA
BRANCH  41  43
ATOM     43  O   UNL     1      18.647  32.379  19.987  1.00  0.00    -0.477 OA
ATOM     44  H   UNL     1      18.736  32.836  19.082  1.00  0.00     0.296 HD
ENDBRANCH  41  43
ENDBRANCH   1  41
BRANCH   3  45
ATOM     45  O   UNL     1      17.005  29.465  23.729  1.00  0.00    -0.391 OA
ATOM     46  H   UNL     1      17.210  28.653  23.183  1.00  0.00     0.211 HD
ENDBRANCH   3  45
BRANCH   5  47
ATOM     47  C   UNL     1      16.279  28.308  19.958  1.00  0.00     0.176 C 
BRANCH  47  48
ATOM     48  O   UNL     1      14.940  27.992  19.963  1.00  0.00    -0.388 OA
ATOM     49  H   UNL     1      14.352  28.664  20.409  1.00  0.00     0.211 HD
ENDBRANCH  47  48
BRANCH  47  50
ATOM     50  C   UNL     1      16.932  28.218  18.595  1.00  0.00     0.165 C 
BRANCH  50  51
ATOM     51  O   UNL     1      18.264  27.971  18.647  1.00  0.00    -0.388 OA
ATOM     52  H   UNL     1      18.517  27.393  19.381  1.00  0.00     0.211 HD
ENDBRANCH  50  51
BRANCH  50  53
ATOM     53  C   UNL     1      16.483  29.388  17.781  1.00  0.00     0.154 C 
BRANCH  53  54
ATOM     54  N   UNL     1      15.304  29.239  17.014  1.00  0.00    -0.319 N 
ATOM     55  C   UNL     1      15.261  29.354  15.581  1.00  0.00     0.407 C 
ATOM     56  H   UNL     1      14.375  29.029  17.490  1.00  0.00     0.167 HD
ATOM     57  O   UNL     1      16.283  29.619  14.916  1.00  0.00    -0.225 OA
BRANCH  55  58
ATOM     58  O   UNL     1      14.077  29.174  14.892  1.00  0.00    -0.443 OA
BRANCH  58  59
ATOM     59  C   UNL     1      14.042  28.979  13.507  1.00  0.00     0.294 C 
BRANCH  59  60
ATOM     60  C   UNL     1      12.612  28.810  13.098  1.00  0.00     0.120 A 
ATOM     61  C   UNL     1      11.649  29.836  13.079  1.00  0.00     0.139 A 
ATOM     62  N   UNL     1      11.937  27.722  12.705  1.00  0.00    -0.132 NA
ATOM     63  N   UNL     1      10.469  29.337  12.690  1.00  0.00    -0.239 N 
ATOM     64  N   UNL     1      10.656  28.059  12.466  1.00  0.00    -0.066 NA
BRANCH  63  65
ATOM     65  C   UNL     1       9.248  30.102  12.553  1.00  0.00     0.122 C 
ATOM     66  C   UNL     1       8.520  29.537  11.283  1.00  0.00     0.046 C 
ATOM     67  C   UNL     1       9.479  31.553  12.204  1.00  0.00     0.046 C 
BRANCH  65  68
ATOM     68  C   UNL     1       8.342  29.903  13.668  1.00  0.00     0.192 C 
ATOM     69  O   UNL     1       7.599  28.832  13.569  1.00  0.00    -0.291 OA
BRANCH  68  70
ATOM     70  C   UNL     1       8.125  30.676  14.852  1.00  0.00     0.045 A 
ATOM     71  C   UNL     1       6.854  31.021  15.329  1.00  0.00     0.095 A 
ATOM     72  C   UNL     1       9.034  31.243  15.721  1.00  0.00     0.010 A 
ATOM     73  N   UNL     1       7.013  31.750  16.416  1.00  0.00    -0.360 N 
ATOM     74  C   UNL     1       8.304  31.919  16.703  1.00  0.00     0.046 A 
ATOM     75  C   UNL     1      10.399  31.275  15.807  1.00  0.00     0.011 A 
ATOM     76  H   UNL     1       6.199  32.139  16.971  1.00  0.00     0.166 HD
ATOM     77  C   UNL     1       8.938  32.598  17.729  1.00  0.00     0.027 A 
ATOM     78  C   UNL     1      11.033  31.962  16.842  1.00  0.00     0.001 A 
ATOM     79  C   UNL     1      10.301  32.614  17.789  1.00  0.00     0.002 A 
ENDBRANCH  68  70
ENDBRANCH  65  68
ENDBRANCH  63  65
ENDBRANCH  59  60
ENDBRANCH  58  59
ENDBRANCH  55  58
ENDBRANCH  53  54
ENDBRANCH  50  53
ENDBRANCH  47  50
ENDBRANCH   5  47
BRANCH   4  80
ATOM     80  N   UNL     1      14.800  30.958  21.473  1.00  0.00    -0.348 N 
ATOM     81  C   UNL     1      13.416  30.814  21.200  1.00  0.00     0.217 C 
ATOM     82  H   UNL     1      15.216  31.923  21.367  1.00  0.00     0.163 HD
ATOM     83  C   UNL     1      12.534  31.934  20.779  1.00  0.00     0.114 C 
ATOM     84  O   UNL     1      12.934  29.637  21.333  1.00  0.00    -0.275 OA
ENDBRANCH   4  80
TORSDOF 32
