REMARK VINA RESULT:    -6.218      1.794      2.443
REMARK INTER + INTRA:         -22.694
REMARK INTER:                 -15.115
REMARK INTRA:                  -7.579
REMARK UNBOUND:                -7.387
REMARK SMILES CC(=O)N[C@@H]1[C@@H](O)C[C@](OC[C@H]2O[C@@H](O[C@H]3[C@H](O)[C@@H](O)[C@H](OCCN=[N+]=[N-])O[C@@H]3CO)[C@H](O)[C@@H](O)[C@H]2O)(C(=O)O)O[C@H]1C(O)[C@H](O)CNC(=O)OCc1cn(C23CC4CC(CC(C4)C2)C3)nn1
REMARK SMILES IDX 9 1 8 2 6 3 5 4 42 5 41 6 10 7 11 8 12 9 14 10 13 11 32 12
REMARK SMILES IDX 34 13 36 14 15 15 16 16 29 17 28 18 21 19 17 20 19 21 30 22
REMARK SMILES IDX 31 23 22 25 23 26 24 27 25 28 26 29 27 30 18 31 20 33 33 35
REMARK SMILES IDX 35 37 37 39 38 41 39 42 40 43 7 45 43 47 44 48 45 50 46 51
REMARK SMILES IDX 47 53 48 54 49 55 50 57 51 58 52 59 53 60 54 61 67 62 55 63
REMARK SMILES IDX 66 64 56 65 65 66 64 67 57 68 60 69 62 70 58 71 59 72 61 73
REMARK SMILES IDX 63 74 4 75 2 76 1 78 3 79
REMARK H PARENT 31 24 18 32 20 34 33 36 35 38 37 40 40 44 7 46 44 49 46 52
REMARK H PARENT 48 56 4 77
REMARK Flexibility Score: inf
ROOT
ATOM      1  C   UNL     1      22.472  24.808  23.471  1.00  0.00     0.272 C 
ATOM      2  C   UNL     1      22.904  23.964  22.321  1.00  0.00     0.113 C 
ATOM      3  C   UNL     1      24.407  24.032  22.142  1.00  0.00     0.145 C 
ATOM      4  C   UNL     1      24.674  25.422  21.548  1.00  0.00     0.142 C 
ATOM      5  C   UNL     1      23.860  26.372  22.375  1.00  0.00     0.178 C 
ATOM      6  O   UNL     1      23.426  25.883  23.581  1.00  0.00    -0.332 OA
ENDROOT
BRANCH   1   7
ATOM      7  O   UNL     1      22.470  24.256  24.677  1.00  0.00    -0.338 OA
BRANCH   7   8
ATOM      8  C   UNL     1      22.129  24.756  25.838  1.00  0.00     0.199 C 
BRANCH   8   9
ATOM      9  C   UNL     1      22.816  25.913  26.482  1.00  0.00     0.179 C 
ATOM     10  C   UNL     1      22.749  27.471  28.100  1.00  0.00     0.282 C 
ATOM     11  O   UNL     1      22.015  26.383  27.585  1.00  0.00    -0.341 OA
ATOM     12  C   UNL     1      23.680  26.885  29.112  1.00  0.00     0.202 C 
ATOM     13  C   UNL     1      24.147  25.545  28.577  1.00  0.00     0.179 C 
ATOM     14  C   UNL     1      24.170  25.524  27.067  1.00  0.00     0.177 C 
BRANCH  10  15
ATOM     15  O   UNL     1      21.902  28.456  28.594  1.00  0.00    -0.341 OA
BRANCH  15  16
ATOM     16  C   UNL     1      22.015  29.580  27.831  1.00  0.00     0.184 C 
ATOM     17  C   UNL     1      22.143  30.879  28.540  1.00  0.00     0.178 C 
ATOM     18  O   UNL     1      22.673  31.788  27.595  1.00  0.00    -0.341 OA
ATOM     19  C   UNL     1      21.706  32.115  26.617  1.00  0.00     0.281 C 
ATOM     20  C   UNL     1      20.822  29.757  26.885  1.00  0.00     0.180 C 
ATOM     21  C   UNL     1      21.130  30.896  25.977  1.00  0.00     0.202 C 
BRANCH  17  22
ATOM     22  C   UNL     1      22.928  30.882  29.797  1.00  0.00     0.191 C 
BRANCH  22  23
ATOM     23  O   UNL     1      22.171  30.212  30.771  1.00  0.00    -0.394 OA
ATOM     24  H   UNL     1      21.772  30.845  31.423  1.00  0.00     0.210 HD
ENDBRANCH  22  23
ENDBRANCH  17  22
BRANCH  19  25
ATOM     25  O   UNL     1      22.396  32.829  25.664  1.00  0.00    -0.350 OA
BRANCH  25  26
ATOM     26  C   UNL     1      23.261  32.144  24.894  1.00  0.00     0.169 C 
BRANCH  26  27
ATOM     27  C   UNL     1      24.672  32.618  25.035  1.00  0.00     0.119 C 
BRANCH  27  28
ATOM     28  N   UNL     1      25.600  31.481  25.007  1.00  0.00    -0.092 NA
ATOM     29  N   UNL     1      25.246  30.452  25.567  1.00  0.00     0.001 N 
ATOM     30  N   UNL     1      25.180  29.433  26.288  1.00  0.00    -0.003 NA
ENDBRANCH  27  28
ENDBRANCH  26  27
ENDBRANCH  25  26
ENDBRANCH  19  25
BRANCH  20  31
ATOM     31  O   UNL     1      20.612  28.614  26.115  1.00  0.00    -0.387 OA
ATOM     32  H   UNL     1      21.188  27.893  26.451  1.00  0.00     0.211 HD
ENDBRANCH  20  31
BRANCH  21  33
ATOM     33  O   UNL     1      19.943  31.238  25.334  1.00  0.00    -0.385 OA
ATOM     34  H   UNL     1      19.540  32.028  25.744  1.00  0.00     0.211 HD
ENDBRANCH  21  33
ENDBRANCH  15  16
ENDBRANCH  10  15
BRANCH  12  35
ATOM     35  O   UNL     1      24.730  27.685  29.488  1.00  0.00    -0.385 OA
ATOM     36  H   UNL     1      25.304  27.215  30.138  1.00  0.00     0.211 HD
ENDBRANCH  12  35
BRANCH  13  37
ATOM     37  O   UNL     1      23.415  24.481  29.089  1.00  0.00    -0.387 OA
ATOM     38  H   UNL     1      23.431  23.723  28.420  1.00  0.00     0.211 HD
ENDBRANCH  13  37
BRANCH  14  39
ATOM     39  O   UNL     1      24.446  24.226  26.663  1.00  0.00    -0.387 OA
ATOM     40  H   UNL     1      23.701  23.606  26.881  1.00  0.00     0.211 HD
ENDBRANCH  14  39
ENDBRANCH   8   9
ENDBRANCH   7   8
ENDBRANCH   1   7
BRANCH   1  41
ATOM     41  C   UNL     1      21.236  25.530  23.130  1.00  0.00     0.364 C 
ATOM     42  O   UNL     1      20.831  26.580  23.646  1.00  0.00    -0.246 OA
BRANCH  41  43
ATOM     43  O   UNL     1      20.453  24.929  22.100  1.00  0.00    -0.477 OA
ATOM     44  H   UNL     1      20.820  24.917  21.173  1.00  0.00     0.296 HD
ENDBRANCH  41  43
ENDBRANCH   1  41
BRANCH   3  45
ATOM     45  O   UNL     1      25.023  23.991  23.386  1.00  0.00    -0.391 OA
ATOM     46  H   UNL     1      26.002  23.997  23.228  1.00  0.00     0.211 HD
ENDBRANCH   3  45
BRANCH   5  47
ATOM     47  C   UNL     1      24.721  27.627  22.785  1.00  0.00     0.176 C 
BRANCH  47  48
ATOM     48  O   UNL     1      25.245  27.192  24.020  1.00  0.00    -0.388 OA
ATOM     49  H   UNL     1      24.777  27.731  24.704  1.00  0.00     0.211 HD
ENDBRANCH  47  48
BRANCH  47  50
ATOM     50  C   UNL     1      23.856  28.788  22.990  1.00  0.00     0.165 C 
BRANCH  50  51
ATOM     51  O   UNL     1      22.902  28.661  24.016  1.00  0.00    -0.388 OA
ATOM     52  H   UNL     1      23.377  28.655  24.900  1.00  0.00     0.211 HD
ENDBRANCH  50  51
BRANCH  50  53
ATOM     53  C   UNL     1      23.200  29.382  21.803  1.00  0.00     0.154 C 
BRANCH  53  54
ATOM     54  N   UNL     1      21.822  29.080  21.666  1.00  0.00    -0.319 N 
ATOM     55  C   UNL     1      21.211  28.220  20.743  1.00  0.00     0.407 C 
ATOM     56  H   UNL     1      21.163  29.592  22.377  1.00  0.00     0.167 HD
ATOM     57  O   UNL     1      21.880  27.616  19.889  1.00  0.00    -0.225 OA
BRANCH  55  58
ATOM     58  O   UNL     1      19.807  28.050  20.804  1.00  0.00    -0.443 OA
BRANCH  58  59
ATOM     59  C   UNL     1      19.006  28.940  20.067  1.00  0.00     0.294 C 
BRANCH  59  60
ATOM     60  C   UNL     1      17.599  28.785  20.467  1.00  0.00     0.120 A 
ATOM     61  C   UNL     1      16.921  29.615  21.323  1.00  0.00     0.138 A 
ATOM     62  N   UNL     1      16.724  27.835  20.090  1.00  0.00    -0.132 NA
ATOM     63  N   UNL     1      15.674  29.148  21.433  1.00  0.00    -0.246 N 
ATOM     64  N   UNL     1      15.585  28.071  20.677  1.00  0.00    -0.066 NA
BRANCH  63  65
ATOM     65  C   UNL     1      14.659  29.773  22.258  1.00  0.00     0.065 C 
ATOM     66  C   UNL     1      14.687  31.249  22.017  1.00  0.00     0.034 C 
ATOM     67  C   UNL     1      13.307  29.148  21.982  1.00  0.00     0.034 C 
ATOM     68  C   UNL     1      14.972  29.529  23.724  1.00  0.00     0.034 C 
ATOM     69  C   UNL     1      13.622  31.938  22.832  1.00  0.00    -0.008 C 
ATOM     70  C   UNL     1      12.255  29.890  22.752  1.00  0.00    -0.008 C 
ATOM     71  C   UNL     1      13.886  30.195  24.536  1.00  0.00    -0.008 C 
ATOM     72  C   UNL     1      13.883  31.678  24.295  1.00  0.00     0.007 C 
ATOM     73  C   UNL     1      12.286  31.353  22.434  1.00  0.00     0.007 C 
ATOM     74  C   UNL     1      12.515  29.658  24.233  1.00  0.00     0.007 C 
ENDBRANCH  63  65
ENDBRANCH  59  60
ENDBRANCH  58  59
ENDBRANCH  55  58
ENDBRANCH  53  54
ENDBRANCH  50  53
ENDBRANCH  47  50
ENDBRANCH   5  47
BRANCH   4  75
ATOM     75  N   UNL     1      24.189  25.417  20.163  1.00  0.00    -0.348 N 
ATOM     76  C   UNL     1      25.031  25.018  19.089  1.00  0.00     0.217 C 
ATOM     77  H   UNL     1      23.205  25.716  19.949  1.00  0.00     0.163 HD
ATOM     78  C   UNL     1      24.516  25.026  17.672  1.00  0.00     0.114 C 
ATOM     79  O   UNL     1      26.200  24.663  19.353  1.00  0.00    -0.275 OA
ENDBRANCH   4  75
TORSDOF 30
