REMARK VINA RESULT:    -6.551      4.014      6.298
REMARK INTER + INTRA:         -23.924
REMARK INTER:                 -16.695
REMARK INTRA:                  -7.230
REMARK UNBOUND:                -7.033
REMARK SMILES CC(=O)N[C@@H]1[C@@H](O)C[C@](OC[C@H]2O[C@@H](O[C@H]3[C@H](O)[C@@H](O)[C@H](OCCN=[N+]=[N-])O[C@@H]3CO)[C@H](O)[C@@H](O)[C@H]2O)(C(=O)O)O[C@H]1C(O)[C@H](O)CNC(=O)OCc1cn(C(C)(C)C(=O)c2c[nH]c3ccccc23)nn1
REMARK SMILES IDX 9 1 8 2 6 3 5 4 42 5 41 6 10 7 11 8 12 9 14 10 13 11 32 12
REMARK SMILES IDX 34 13 36 14 15 15 16 16 29 17 28 18 21 19 17 20 19 21 30 22
REMARK SMILES IDX 31 23 22 25 23 26 24 27 25 28 26 29 27 30 18 31 20 33 33 35
REMARK SMILES IDX 35 37 37 39 38 41 39 42 40 43 7 45 43 47 44 48 45 50 46 51
REMARK SMILES IDX 47 53 48 54 49 55 50 57 51 58 52 59 53 60 54 61 71 62 55 63
REMARK SMILES IDX 70 64 56 65 57 66 58 67 59 68 60 69 61 70 62 71 69 72 63 73
REMARK SMILES IDX 64 74 68 75 65 77 67 78 66 79 4 80 2 81 1 83 3 84
REMARK H PARENT 31 24 18 32 20 34 33 36 35 38 37 40 40 44 7 46 44 49 46 52
REMARK H PARENT 48 56 63 76 4 82
REMARK Flexibility Score: inf
ROOT
ATOM      1  C   UNL     1      18.721  30.786  17.852  1.00  0.00     0.272 C 
ATOM      2  C   UNL     1      19.908  29.848  17.708  1.00  0.00     0.113 C 
ATOM      3  C   UNL     1      19.677  28.540  18.423  1.00  0.00     0.145 C 
ATOM      4  C   UNL     1      19.655  28.819  19.966  1.00  0.00     0.142 C 
ATOM      5  C   UNL     1      18.988  30.149  20.106  1.00  0.00     0.178 C 
ATOM      6  O   UNL     1      18.130  30.386  19.053  1.00  0.00    -0.332 OA
ENDROOT
BRANCH   1   7
ATOM      7  O   UNL     1      17.847  30.829  16.843  1.00  0.00    -0.338 OA
BRANCH   7   8
ATOM      8  C   UNL     1      17.879  30.557  15.582  1.00  0.00     0.199 C 
BRANCH   8   9
ATOM      9  C   UNL     1      17.373  29.162  15.206  1.00  0.00     0.179 C 
ATOM     10  C   UNL     1      15.291  29.137  16.343  1.00  0.00     0.282 C 
ATOM     11  O   UNL     1      16.543  28.669  16.155  1.00  0.00    -0.341 OA
ATOM     12  C   UNL     1      14.520  29.363  15.072  1.00  0.00     0.202 C 
ATOM     13  C   UNL     1      15.292  28.787  13.890  1.00  0.00     0.179 C 
ATOM     14  C   UNL     1      16.702  29.240  13.863  1.00  0.00     0.177 C 
BRANCH  10  15
ATOM     15  O   UNL     1      15.314  30.317  17.066  1.00  0.00    -0.341 OA
BRANCH  15  16
ATOM     16  C   UNL     1      14.676  30.237  18.270  1.00  0.00     0.184 C 
ATOM     17  C   UNL     1      14.368  31.508  18.974  1.00  0.00     0.178 C 
ATOM     18  O   UNL     1      13.355  31.213  19.909  1.00  0.00    -0.341 OA
ATOM     19  C   UNL     1      13.733  30.316  20.866  1.00  0.00     0.281 C 
ATOM     20  C   UNL     1      15.383  29.334  19.261  1.00  0.00     0.180 C 
ATOM     21  C   UNL     1      14.363  29.044  20.342  1.00  0.00     0.202 C 
BRANCH  17  22
ATOM     22  C   UNL     1      13.792  32.595  18.089  1.00  0.00     0.191 C 
BRANCH  22  23
ATOM     23  O   UNL     1      14.786  33.568  17.929  1.00  0.00    -0.394 OA
ATOM     24  H   UNL     1      15.435  33.336  17.226  1.00  0.00     0.210 HD
ENDBRANCH  22  23
ENDBRANCH  17  22
BRANCH  19  25
ATOM     25  O   UNL     1      12.581  29.915  21.551  1.00  0.00    -0.350 OA
BRANCH  25  26
ATOM     26  C   UNL     1      12.344  30.815  22.574  1.00  0.00     0.169 C 
BRANCH  26  27
ATOM     27  C   UNL     1      13.612  31.287  23.232  1.00  0.00     0.119 C 
BRANCH  27  28
ATOM     28  N   UNL     1      14.041  30.445  24.327  1.00  0.00    -0.092 NA
ATOM     29  N   UNL     1      15.032  29.696  24.210  1.00  0.00     0.001 N 
ATOM     30  N   UNL     1      16.225  29.383  24.211  1.00  0.00    -0.003 NA
ENDBRANCH  27  28
ENDBRANCH  26  27
ENDBRANCH  25  26
ENDBRANCH  19  25
BRANCH  20  31
ATOM     31  O   UNL     1      15.818  28.155  18.703  1.00  0.00    -0.387 OA
ATOM     32  H   UNL     1      16.770  28.250  18.485  1.00  0.00     0.211 HD
ENDBRANCH  20  31
BRANCH  21  33
ATOM     33  O   UNL     1      15.033  28.447  21.408  1.00  0.00    -0.385 OA
ATOM     34  H   UNL     1      16.010  28.364  21.236  1.00  0.00     0.211 HD
ENDBRANCH  21  33
ENDBRANCH  15  16
ENDBRANCH  10  15
BRANCH  12  35
ATOM     35  O   UNL     1      13.223  28.853  15.101  1.00  0.00    -0.385 OA
ATOM     36  H   UNL     1      13.245  27.928  15.422  1.00  0.00     0.211 HD
ENDBRANCH  12  35
BRANCH  13  37
ATOM     37  O   UNL     1      14.587  29.232  12.746  1.00  0.00    -0.387 OA
ATOM     38  H   UNL     1      13.886  28.584  12.491  1.00  0.00     0.211 HD
ENDBRANCH  13  37
BRANCH  14  39
ATOM     39  O   UNL     1      16.781  30.591  13.441  1.00  0.00    -0.387 OA
ATOM     40  H   UNL     1      16.108  31.127  13.937  1.00  0.00     0.211 HD
ENDBRANCH  14  39
ENDBRANCH   8   9
ENDBRANCH   7   8
ENDBRANCH   1   7
BRANCH   1  41
ATOM     41  C   UNL     1      19.255  32.157  18.008  1.00  0.00     0.364 C 
ATOM     42  O   UNL     1      18.469  33.077  18.350  1.00  0.00    -0.246 OA
BRANCH  41  43
ATOM     43  O   UNL     1      20.555  32.493  17.799  1.00  0.00    -0.477 OA
ATOM     44  H   UNL     1      21.280  32.605  18.505  1.00  0.00     0.296 HD
ENDBRANCH  41  43
ENDBRANCH   1  41
BRANCH   3  45
ATOM     45  O   UNL     1      18.461  27.941  18.190  1.00  0.00    -0.391 OA
ATOM     46  H   UNL     1      18.171  27.331  18.927  1.00  0.00     0.211 HD
ENDBRANCH   3  45
BRANCH   5  47
ATOM     47  C   UNL     1      18.217  30.401  21.348  1.00  0.00     0.176 C 
BRANCH  47  48
ATOM     48  O   UNL     1      18.487  29.507  22.359  1.00  0.00    -0.388 OA
ATOM     49  H   UNL     1      18.368  29.868  23.281  1.00  0.00     0.211 HD
ENDBRANCH  47  48
BRANCH  47  50
ATOM     50  C   UNL     1      18.112  31.840  21.806  1.00  0.00     0.165 C 
BRANCH  50  51
ATOM     51  O   UNL     1      17.323  32.606  21.013  1.00  0.00    -0.388 OA
ATOM     52  H   UNL     1      17.584  33.538  21.001  1.00  0.00     0.211 HD
ENDBRANCH  50  51
BRANCH  50  53
ATOM     53  C   UNL     1      19.488  32.343  22.096  1.00  0.00     0.154 C 
BRANCH  53  54
ATOM     54  N   UNL     1      20.241  31.663  23.081  1.00  0.00    -0.319 N 
ATOM     55  C   UNL     1      20.301  32.064  24.461  1.00  0.00     0.407 C 
ATOM     56  H   UNL     1      20.810  30.801  22.823  1.00  0.00     0.167 HD
ATOM     57  O   UNL     1      19.694  33.071  24.876  1.00  0.00    -0.225 OA
BRANCH  55  58
ATOM     58  O   UNL     1      21.041  31.338  25.376  1.00  0.00    -0.443 OA
BRANCH  58  59
ATOM     59  C   UNL     1      21.969  30.368  24.984  1.00  0.00     0.294 C 
BRANCH  59  60
ATOM     60  C   UNL     1      21.675  29.111  25.740  1.00  0.00     0.120 A 
ATOM     61  C   UNL     1      22.620  28.368  26.473  1.00  0.00     0.139 A 
ATOM     62  N   UNL     1      20.538  28.417  25.876  1.00  0.00    -0.132 NA
ATOM     63  N   UNL     1      22.029  27.289  27.002  1.00  0.00    -0.239 N 
ATOM     64  N   UNL     1      20.771  27.330  26.635  1.00  0.00    -0.066 NA
BRANCH  63  65
ATOM     65  C   UNL     1      22.692  26.295  27.820  1.00  0.00     0.122 C 
ATOM     66  C   UNL     1      21.705  25.969  28.994  1.00  0.00     0.046 C 
ATOM     67  C   UNL     1      23.918  26.818  28.531  1.00  0.00     0.046 C 
BRANCH  65  68
ATOM     68  C   UNL     1      22.911  25.050  27.109  1.00  0.00     0.192 C 
ATOM     69  O   UNL     1      22.610  23.981  27.798  1.00  0.00    -0.291 OA
BRANCH  68  70
ATOM     70  C   UNL     1      23.400  24.795  25.789  1.00  0.00     0.045 A 
ATOM     71  C   UNL     1      24.756  24.615  25.486  1.00  0.00     0.095 A 
ATOM     72  C   UNL     1      22.718  24.699  24.593  1.00  0.00     0.010 A 
ATOM     73  N   UNL     1      24.859  24.425  24.186  1.00  0.00    -0.360 N 
ATOM     74  C   UNL     1      23.666  24.465  23.592  1.00  0.00     0.046 A 
ATOM     75  C   UNL     1      21.405  24.781  24.220  1.00  0.00     0.011 A 
ATOM     76  H   UNL     1      25.787  24.264  23.701  1.00  0.00     0.166 HD
ATOM     77  C   UNL     1      23.291  24.321  22.268  1.00  0.00     0.027 A 
ATOM     78  C   UNL     1      21.032  24.637  22.885  1.00  0.00     0.001 A 
ATOM     79  C   UNL     1      21.973  24.409  21.925  1.00  0.00     0.002 A 
ENDBRANCH  68  70
ENDBRANCH  65  68
ENDBRANCH  63  65
ENDBRANCH  59  60
ENDBRANCH  58  59
ENDBRANCH  55  58
ENDBRANCH  53  54
ENDBRANCH  50  53
ENDBRANCH  47  50
ENDBRANCH   5  47
BRANCH   4  80
ATOM     80  N   UNL     1      21.076  28.915  20.288  1.00  0.00    -0.348 N 
ATOM     81  C   UNL     1      21.641  28.483  21.515  1.00  0.00     0.217 C 
ATOM     82  H   UNL     1      21.731  29.332  19.573  1.00  0.00     0.163 HD
ATOM     83  C   UNL     1      23.088  28.586  21.840  1.00  0.00     0.114 C 
ATOM     84  O   UNL     1      20.828  27.982  22.366  1.00  0.00    -0.275 OA
ENDBRANCH   4  80
TORSDOF 32
