REMARK VINA RESULT:    -5.865     13.194     17.699
REMARK INTER + INTRA:         -25.285
REMARK INTER:                 -16.036
REMARK INTRA:                  -9.248
REMARK UNBOUND:                -8.963
REMARK SMILES CC(=O)N[C@@H]1[C@@H](O)C[C@](OC[C@H]2O[C@@H](O[C@H]3[C@H](O)[C@@H](O)[C@H](OCCN=[N+]=[N-])O[C@@H]3CO)[C@H](O)[C@@H](O)[C@H]2O)(C(=O)O)O[C@H]1C(O)[C@H](O)CNC(=O)OCc1cn(C[C@@H](C(=O)O)C(c2ccccc2)c2ccccc2)nn1
REMARK SMILES IDX 43 1 42 2 9 3 8 4 41 5 6 6 5 7 10 8 11 9 12 10 14 11 13 12
REMARK SMILES IDX 32 13 34 14 36 15 15 16 16 17 29 18 28 19 21 20 17 21 19 22
REMARK SMILES IDX 30 23 31 24 22 26 23 27 24 28 25 29 26 30 27 31 18 32 20 34
REMARK SMILES IDX 33 36 35 38 37 40 38 42 39 43 40 44 7 46 4 48 2 49 1 51 3 52
REMARK SMILES IDX 44 53 45 55 46 56 47 58 48 59 49 60 50 62 51 63 52 64 53 65
REMARK SMILES IDX 54 66 75 67 55 68 74 69 56 70 57 71 58 72 59 73 60 74 61 76
REMARK SMILES IDX 62 77 63 78 67 79 64 80 66 81 65 82 68 83 69 84 73 85 70 86
REMARK SMILES IDX 72 87 71 88
REMARK H PARENT 31 25 18 33 20 35 33 37 35 39 37 41 40 45 7 47 4 50 44 54
REMARK H PARENT 46 57 48 61 60 75
REMARK Flexibility Score: inf
ROOT
ATOM      1  C   UNL     1       4.494  25.154  31.155  1.00  0.00     0.176 C 
ENDROOT
BRANCH   1   2
ATOM      2  C   UNL     1       4.760  25.760  32.549  1.00  0.00     0.178 C 
ATOM      3  C   UNL     1       5.539  27.535  33.808  1.00  0.00     0.272 C 
ATOM      4  C   UNL     1       4.921  26.559  34.863  1.00  0.00     0.113 C 
ATOM      5  O   UNL     1       5.383  26.954  32.536  1.00  0.00    -0.332 OA
ATOM      6  C   UNL     1       5.505  25.192  34.767  1.00  0.00     0.145 C 
ATOM      7  C   UNL     1       5.430  24.679  33.365  1.00  0.00     0.142 C 
BRANCH   3   8
ATOM      8  O   UNL     1       6.745  27.811  34.179  1.00  0.00    -0.338 OA
BRANCH   8   9
ATOM      9  C   UNL     1       7.581  28.773  34.207  1.00  0.00     0.199 C 
BRANCH   9  10
ATOM     10  C   UNL     1       9.030  28.654  34.599  1.00  0.00     0.179 C 
ATOM     11  C   UNL     1      10.175  27.346  36.212  1.00  0.00     0.282 C 
ATOM     12  O   UNL     1       9.146  28.127  35.848  1.00  0.00    -0.341 OA
ATOM     13  C   UNL     1      11.315  27.139  35.293  1.00  0.00     0.202 C 
ATOM     14  C   UNL     1      11.127  27.669  33.901  1.00  0.00     0.179 C 
ATOM     15  C   UNL     1       9.657  27.628  33.627  1.00  0.00     0.177 C 
BRANCH  11  16
ATOM     16  O   UNL     1       9.599  26.059  36.429  1.00  0.00    -0.341 OA
BRANCH  16  17
ATOM     17  C   UNL     1      10.512  25.105  36.780  1.00  0.00     0.184 C 
ATOM     18  C   UNL     1      10.039  23.774  36.269  1.00  0.00     0.178 C 
ATOM     19  O   UNL     1       9.167  23.141  37.148  1.00  0.00    -0.341 OA
ATOM     20  C   UNL     1       8.454  24.031  37.964  1.00  0.00     0.281 C 
ATOM     21  C   UNL     1      10.677  24.984  38.288  1.00  0.00     0.180 C 
ATOM     22  C   UNL     1       9.334  24.731  38.942  1.00  0.00     0.202 C 
BRANCH  18  23
ATOM     23  C   UNL     1      11.143  22.821  35.906  1.00  0.00     0.191 C 
BRANCH  23  24
ATOM     24  O   UNL     1      11.062  21.616  36.574  1.00  0.00    -0.394 OA
ATOM     25  H   UNL     1      10.086  21.393  36.651  1.00  0.00     0.210 HD
ENDBRANCH  23  24
ENDBRANCH  18  23
BRANCH  20  26
ATOM     26  O   UNL     1       7.516  23.309  38.667  1.00  0.00    -0.350 OA
BRANCH  26  27
ATOM     27  C   UNL     1       6.208  23.565  38.398  1.00  0.00     0.169 C 
BRANCH  27  28
ATOM     28  C   UNL     1       5.487  24.324  39.464  1.00  0.00     0.119 C 
BRANCH  28  29
ATOM     29  N   UNL     1       4.909  25.511  38.801  1.00  0.00    -0.092 NA
ATOM     30  N   UNL     1       5.704  26.292  38.271  1.00  0.00     0.001 N 
ATOM     31  N   UNL     1       6.485  27.150  37.867  1.00  0.00    -0.003 NA
ENDBRANCH  28  29
ENDBRANCH  27  28
ENDBRANCH  26  27
ENDBRANCH  20  26
BRANCH  21  32
ATOM     32  O   UNL     1      11.474  23.867  38.524  1.00  0.00    -0.387 OA
ATOM     33  H   UNL     1      12.390  23.966  38.175  1.00  0.00     0.211 HD
ENDBRANCH  21  32
BRANCH  22  34
ATOM     34  O   UNL     1       8.748  25.935  39.310  1.00  0.00    -0.385 OA
ATOM     35  H   UNL     1       8.543  25.867  40.296  1.00  0.00     0.211 HD
ENDBRANCH  22  34
ENDBRANCH  16  17
ENDBRANCH  11  16
BRANCH  13  36
ATOM     36  O   UNL     1      12.471  27.782  35.796  1.00  0.00    -0.385 OA
ATOM     37  H   UNL     1      12.218  28.452  36.492  1.00  0.00     0.211 HD
ENDBRANCH  13  36
BRANCH  14  38
ATOM     38  O   UNL     1      11.820  26.890  32.997  1.00  0.00    -0.387 OA
ATOM     39  H   UNL     1      11.228  26.685  32.226  1.00  0.00     0.211 HD
ENDBRANCH  14  38
BRANCH  15  40
ATOM     40  O   UNL     1       9.186  26.349  33.890  1.00  0.00    -0.387 OA
ATOM     41  H   UNL     1       8.228  26.331  33.685  1.00  0.00     0.211 HD
ENDBRANCH  15  40
ENDBRANCH   9  10
ENDBRANCH   8   9
ENDBRANCH   3   8
BRANCH   3  42
ATOM     42  C   UNL     1       4.580  28.658  33.828  1.00  0.00     0.364 C 
ATOM     43  O   UNL     1       4.108  29.185  34.856  1.00  0.00    -0.246 OA
BRANCH  42  44
ATOM     44  O   UNL     1       4.136  29.207  32.606  1.00  0.00    -0.477 OA
ATOM     45  H   UNL     1       4.259  30.188  32.474  1.00  0.00     0.296 HD
ENDBRANCH  42  44
ENDBRANCH   3  42
BRANCH   6  46
ATOM     46  O   UNL     1       6.819  25.138  35.255  1.00  0.00    -0.391 OA
ATOM     47  H   UNL     1       6.855  25.251  36.233  1.00  0.00     0.211 HD
ENDBRANCH   6  46
BRANCH   7  48
ATOM     48  N   UNL     1       4.587  23.506  33.331  1.00  0.00    -0.348 N 
ATOM     49  C   UNL     1       5.138  22.207  33.196  1.00  0.00     0.217 C 
ATOM     50  H   UNL     1       3.539  23.633  33.410  1.00  0.00     0.163 HD
ATOM     51  C   UNL     1       4.267  20.982  33.160  1.00  0.00     0.114 C 
ATOM     52  O   UNL     1       6.390  22.117  33.106  1.00  0.00    -0.275 OA
ENDBRANCH   7  48
ENDBRANCH   1   2
BRANCH   1  53
ATOM     53  O   UNL     1       4.715  26.076  30.168  1.00  0.00    -0.388 OA
ATOM     54  H   UNL     1       5.593  25.998  29.730  1.00  0.00     0.211 HD
ENDBRANCH   1  53
BRANCH   1  55
ATOM     55  C   UNL     1       3.114  24.629  31.069  1.00  0.00     0.165 C 
BRANCH  55  56
ATOM     56  O   UNL     1       2.876  23.873  29.902  1.00  0.00    -0.388 OA
ATOM     57  H   UNL     1       2.861  22.919  30.226  1.00  0.00     0.211 HD
ENDBRANCH  55  56
BRANCH  55  58
ATOM     58  C   UNL     1       1.949  25.510  31.322  1.00  0.00     0.154 C 
BRANCH  58  59
ATOM     59  N   UNL     1       1.380  26.161  30.201  1.00  0.00    -0.319 N 
ATOM     60  C   UNL     1       1.663  27.469  29.753  1.00  0.00     0.407 C 
ATOM     61  H   UNL     1       0.648  25.598  29.615  1.00  0.00     0.167 HD
ATOM     62  O   UNL     1       2.444  28.233  30.346  1.00  0.00    -0.225 OA
BRANCH  60  63
ATOM     63  O   UNL     1       1.043  27.907  28.602  1.00  0.00    -0.443 OA
BRANCH  63  64
ATOM     64  C   UNL     1       1.147  27.228  27.400  1.00  0.00     0.294 C 
BRANCH  64  65
ATOM     65  C   UNL     1       2.516  26.839  27.028  1.00  0.00     0.120 A 
ATOM     66  C   UNL     1       3.331  27.343  26.043  1.00  0.00     0.138 A 
ATOM     67  N   UNL     1       3.249  25.835  27.601  1.00  0.00    -0.132 NA
ATOM     68  N   UNL     1       4.486  26.669  26.035  1.00  0.00    -0.251 N 
ATOM     69  N   UNL     1       4.408  25.761  26.989  1.00  0.00    -0.067 NA
BRANCH  68  70
ATOM     70  C   UNL     1       5.653  26.865  25.153  1.00  0.00     0.162 C 
BRANCH  70  71
ATOM     71  C   UNL     1       6.671  27.716  25.839  1.00  0.00     0.132 C 
BRANCH  71  72
ATOM     72  C   UNL     1       8.045  27.164  25.645  1.00  0.00     0.309 C 
ATOM     73  O   UNL     1       8.821  27.574  24.766  1.00  0.00    -0.252 OA
BRANCH  72  74
ATOM     74  O   UNL     1       8.491  26.149  26.475  1.00  0.00    -0.481 OA
ATOM     75  H   UNL     1       9.494  26.051  26.655  1.00  0.00     0.296 HD
ENDBRANCH  72  74
ENDBRANCH  71  72
BRANCH  71  76
ATOM     76  C   UNL     1       6.608  29.183  25.636  1.00  0.00     0.065 C 
BRANCH  76  77
ATOM     77  C   UNL     1       6.004  29.676  24.397  1.00  0.00    -0.040 A 
ATOM     78  C   UNL     1       4.680  30.141  24.372  1.00  0.00     0.004 A 
ATOM     79  C   UNL     1       6.672  29.718  23.171  1.00  0.00     0.004 A 
ATOM     80  C   UNL     1       4.077  30.602  23.245  1.00  0.00     0.000 A 
ATOM     81  C   UNL     1       6.053  30.185  22.037  1.00  0.00     0.000 A 
ATOM     82  C   UNL     1       4.747  30.632  22.062  1.00  0.00     0.000 A 
ENDBRANCH  76  77
BRANCH  76  83
ATOM     83  C   UNL     1       6.232  29.941  26.860  1.00  0.00    -0.040 A 
ATOM     84  C   UNL     1       5.606  29.230  27.862  1.00  0.00     0.004 A 
ATOM     85  C   UNL     1       6.492  31.275  27.015  1.00  0.00     0.004 A 
ATOM     86  C   UNL     1       5.235  29.840  29.026  1.00  0.00     0.000 A 
ATOM     87  C   UNL     1       6.109  31.884  28.207  1.00  0.00     0.000 A 
ATOM     88  C   UNL     1       5.484  31.180  29.211  1.00  0.00     0.000 A 
ENDBRANCH  76  83
ENDBRANCH  71  76
ENDBRANCH  70  71
ENDBRANCH  68  70
ENDBRANCH  64  65
ENDBRANCH  63  64
ENDBRANCH  60  63
ENDBRANCH  58  59
ENDBRANCH  55  58
ENDBRANCH   1  55
TORSDOF 36
