REMARK VINA RESULT:    -4.993     13.691     20.691
REMARK INTER + INTRA:         -24.898
REMARK INTER:                 -16.649
REMARK INTRA:                  -8.249
REMARK UNBOUND:               -10.710
REMARK SMILES CC(=O)N[C@@H]1[C@@H](O)C[C@](OC[C@H]2O[C@@H](O[C@H]3[C@H](O)[C@@H](O)[C@H](OCCN=[N+]=[N-])O[C@@H]3CO)[C@H](O)[C@@H](O)[C@H]2O)(C(=O)O)O[C@H]1C(O)[C@H](O)CNC(=O)OCc1cn(CC(=O)NCC(O)Cn2ccnc2[N+](=O)[O-])nn1
REMARK SMILES IDX 47 1 45 2 43 3 42 4 9 5 8 6 41 7 6 8 5 9 10 10 11 11 12 12
REMARK SMILES IDX 14 13 13 14 32 15 34 16 36 17 15 18 16 19 29 20 28 21 21 22
REMARK SMILES IDX 17 23 19 24 30 25 31 26 22 28 23 29 24 30 25 31 26 32 27 33
REMARK SMILES IDX 18 34 20 36 33 38 35 40 37 42 38 44 39 45 40 46 7 48 4 50
REMARK SMILES IDX 2 51 1 53 3 54 44 55 46 57 48 59 49 60 50 62 51 63 52 64
REMARK SMILES IDX 53 65 54 66 73 67 55 68 72 69 56 70 57 71 58 72 59 73 60 75
REMARK SMILES IDX 61 76 62 77 63 79 64 80 65 81 68 82 66 83 67 84 69 85 70 86
REMARK SMILES IDX 71 87
REMARK H PARENT 31 27 18 35 20 37 33 39 35 41 37 43 40 47 7 49 4 52 44 56
REMARK H PARENT 46 58 48 61 59 74 62 78
REMARK Flexibility Score: inf
ROOT
ATOM      1  C   UNL     1      23.698  24.978  21.721  1.00  0.00     0.154 C 
ENDROOT
BRANCH   1   2
ATOM      2  C   UNL     1      23.097  24.165  20.624  1.00  0.00     0.165 C 
BRANCH   2   3
ATOM      3  C   UNL     1      23.119  24.769  19.270  1.00  0.00     0.176 C 
BRANCH   3   4
ATOM      4  C   UNL     1      22.735  26.181  19.106  1.00  0.00     0.178 C 
ATOM      5  C   UNL     1      21.235  27.860  19.685  1.00  0.00     0.272 C 
ATOM      6  C   UNL     1      22.385  28.703  19.256  1.00  0.00     0.113 C 
ATOM      7  O   UNL     1      21.535  26.486  19.714  1.00  0.00    -0.332 OA
ATOM      8  C   UNL     1      23.026  28.287  17.975  1.00  0.00     0.145 C 
ATOM      9  C   UNL     1      22.781  26.768  17.746  1.00  0.00     0.142 C 
BRANCH   5  10
ATOM     10  O   UNL     1      20.067  28.012  18.997  1.00  0.00    -0.338 OA
BRANCH  10  11
ATOM     11  C   UNL     1      19.757  29.253  18.535  1.00  0.00     0.199 C 
BRANCH  11  12
ATOM     12  C   UNL     1      18.335  29.668  18.859  1.00  0.00     0.179 C 
ATOM     13  C   UNL     1      16.373  30.419  17.847  1.00  0.00     0.282 C 
ATOM     14  O   UNL     1      17.762  30.451  17.921  1.00  0.00    -0.341 OA
ATOM     15  C   UNL     1      15.743  30.263  19.209  1.00  0.00     0.202 C 
ATOM     16  C   UNL     1      16.237  29.019  19.910  1.00  0.00     0.179 C 
ATOM     17  C   UNL     1      17.475  28.486  19.214  1.00  0.00     0.177 C 
BRANCH  13  18
ATOM     18  O   UNL     1      15.882  29.482  17.011  1.00  0.00    -0.341 OA
BRANCH  18  19
ATOM     19  C   UNL     1      15.839  29.662  15.680  1.00  0.00     0.184 C 
ATOM     20  C   UNL     1      14.511  29.474  14.998  1.00  0.00     0.178 C 
ATOM     21  O   UNL     1      14.609  30.128  13.767  1.00  0.00    -0.341 OA
ATOM     22  C   UNL     1      15.470  29.454  12.907  1.00  0.00     0.281 C 
ATOM     23  C   UNL     1      16.782  28.711  14.926  1.00  0.00     0.180 C 
ATOM     24  C   UNL     1      16.825  29.219  13.503  1.00  0.00     0.202 C 
BRANCH  20  25
ATOM     25  C   UNL     1      13.431  30.162  15.779  1.00  0.00     0.191 C 
BRANCH  25  26
ATOM     26  O   UNL     1      13.086  29.444  16.932  1.00  0.00    -0.394 OA
ATOM     27  H   UNL     1      12.928  28.504  16.601  1.00  0.00     0.210 HD
ENDBRANCH  25  26
ENDBRANCH  20  25
BRANCH  22  28
ATOM     28  O   UNL     1      15.639  30.258  11.782  1.00  0.00    -0.350 OA
BRANCH  28  29
ATOM     29  C   UNL     1      14.422  30.783  11.345  1.00  0.00     0.169 C 
BRANCH  29  30
ATOM     30  C   UNL     1      14.048  29.993  10.087  1.00  0.00     0.119 C 
BRANCH  30  31
ATOM     31  N   UNL     1      12.693  29.482  10.198  1.00  0.00    -0.092 NA
ATOM     32  N   UNL     1      12.477  28.662  11.115  1.00  0.00     0.001 N 
ATOM     33  N   UNL     1      12.135  28.096  12.145  1.00  0.00    -0.003 NA
ENDBRANCH  30  31
ENDBRANCH  29  30
ENDBRANCH  28  29
ENDBRANCH  22  28
BRANCH  23  34
ATOM     34  O   UNL     1      18.078  28.789  15.422  1.00  0.00    -0.387 OA
ATOM     35  H   UNL     1      18.623  29.152  14.654  1.00  0.00     0.211 HD
ENDBRANCH  23  34
BRANCH  24  36
ATOM     36  O   UNL     1      17.528  28.371  12.648  1.00  0.00    -0.385 OA
ATOM     37  H   UNL     1      17.205  28.537  11.715  1.00  0.00     0.211 HD
ENDBRANCH  24  36
ENDBRANCH  18  19
ENDBRANCH  13  18
BRANCH  15  38
ATOM     38  O   UNL     1      15.932  31.406  20.000  1.00  0.00    -0.385 OA
ATOM     39  H   UNL     1      16.395  32.064  19.392  1.00  0.00     0.211 HD
ENDBRANCH  15  38
BRANCH  16  40
ATOM     40  O   UNL     1      15.278  28.010  19.875  1.00  0.00    -0.387 OA
ATOM     41  H   UNL     1      15.690  27.101  19.787  1.00  0.00     0.211 HD
ENDBRANCH  16  40
BRANCH  17  42
ATOM     42  O   UNL     1      17.210  27.639  18.164  1.00  0.00    -0.387 OA
ATOM     43  H   UNL     1      17.819  26.851  18.138  1.00  0.00     0.211 HD
ENDBRANCH  17  42
ENDBRANCH  11  12
ENDBRANCH  10  11
ENDBRANCH   5  10
BRANCH   5  44
ATOM     44  C   UNL     1      20.993  28.175  21.142  1.00  0.00     0.364 C 
ATOM     45  O   UNL     1      20.976  29.377  21.462  1.00  0.00    -0.246 OA
BRANCH  44  46
ATOM     46  O   UNL     1      20.795  27.210  22.101  1.00  0.00    -0.477 OA
ATOM     47  H   UNL     1      21.586  26.875  22.681  1.00  0.00     0.296 HD
ENDBRANCH  44  46
ENDBRANCH   5  44
BRANCH   8  48
ATOM     48  O   UNL     1      22.712  28.994  16.860  1.00  0.00    -0.391 OA
ATOM     49  H   UNL     1      23.332  29.687  16.592  1.00  0.00     0.211 HD
ENDBRANCH   8  48
BRANCH   9  50
ATOM     50  N   UNL     1      23.793  26.324  16.864  1.00  0.00    -0.348 N 
ATOM     51  C   UNL     1      23.525  26.120  15.463  1.00  0.00     0.217 C 
ATOM     52  H   UNL     1      24.753  26.142  17.186  1.00  0.00     0.163 HD
ATOM     53  C   UNL     1      24.573  25.645  14.521  1.00  0.00     0.114 C 
ATOM     54  O   UNL     1      22.369  26.352  15.049  1.00  0.00    -0.275 OA
ENDBRANCH   9  50
ENDBRANCH   3   4
BRANCH   3  55
ATOM     55  O   UNL     1      22.364  23.917  18.425  1.00  0.00    -0.388 OA
ATOM     56  H   UNL     1      22.915  23.141  18.229  1.00  0.00     0.211 HD
ENDBRANCH   3  55
ENDBRANCH   2   3
BRANCH   2  57
ATOM     57  O   UNL     1      21.947  23.512  20.997  1.00  0.00    -0.388 OA
ATOM     58  H   UNL     1      21.610  22.847  20.369  1.00  0.00     0.211 HD
ENDBRANCH   2  57
ENDBRANCH   1   2
BRANCH   1  59
ATOM     59  N   UNL     1      22.825  25.012  22.863  1.00  0.00    -0.319 N 
ATOM     60  C   UNL     1      23.235  24.654  24.171  1.00  0.00     0.407 C 
ATOM     61  H   UNL     1      21.812  25.315  22.755  1.00  0.00     0.167 HD
ATOM     62  O   UNL     1      24.417  24.299  24.364  1.00  0.00    -0.225 OA
BRANCH  60  63
ATOM     63  O   UNL     1      22.408  24.667  25.274  1.00  0.00    -0.443 OA
BRANCH  63  64
ATOM     64  C   UNL     1      22.305  25.787  26.114  1.00  0.00     0.294 C 
BRANCH  64  65
ATOM     65  C   UNL     1      21.564  26.932  25.589  1.00  0.00     0.120 A 
ATOM     66  C   UNL     1      21.979  28.235  25.471  1.00  0.00     0.138 A 
ATOM     67  N   UNL     1      20.302  26.928  25.129  1.00  0.00    -0.132 NA
ATOM     68  N   UNL     1      20.972  28.972  24.949  1.00  0.00    -0.243 N 
ATOM     69  N   UNL     1      19.972  28.172  24.749  1.00  0.00    -0.067 NA
BRANCH  68  70
ATOM     70  C   UNL     1      21.018  30.397  24.643  1.00  0.00     0.245 C 
BRANCH  70  71
ATOM     71  C   UNL     1      19.638  30.902  24.486  1.00  0.00     0.241 C 
ATOM     72  O   UNL     1      19.179  31.819  25.247  1.00  0.00    -0.273 OA
ATOM     73  N   UNL     1      18.743  30.411  23.489  1.00  0.00    -0.352 N 
ATOM     74  H   UNL     1      19.067  29.667  22.848  1.00  0.00     0.163 HD
BRANCH  73  75
ATOM     75  C   UNL     1      17.407  30.971  23.412  1.00  0.00     0.151 C 
BRANCH  75  76
ATOM     76  C   UNL     1      16.349  29.980  23.785  1.00  0.00     0.168 C 
BRANCH  76  77
ATOM     77  O   UNL     1      15.955  29.197  22.714  1.00  0.00    -0.388 OA
ATOM     78  H   UNL     1      15.989  28.256  23.006  1.00  0.00     0.211 HD
ENDBRANCH  76  77
BRANCH  76  79
ATOM     79  C   UNL     1      15.169  30.762  24.340  1.00  0.00     0.239 C 
BRANCH  79  80
ATOM     80  N   UNL     1      14.496  31.508  23.317  1.00  0.00    -0.227 N 
ATOM     81  C   UNL     1      14.770  32.799  22.991  1.00  0.00     0.204 A 
ATOM     82  C   UNL     1      13.482  31.139  22.496  1.00  0.00     0.434 A 
ATOM     83  C   UNL     1      13.928  33.202  21.985  1.00  0.00     0.245 A 
ATOM     84  N   UNL     1      13.144  32.169  21.694  1.00  0.00    -0.074 NA
BRANCH  82  85
ATOM     85  N   UNL     1      12.871  29.850  22.472  1.00  0.00    -0.047 N 
ATOM     86  O   UNL     1      13.199  28.946  21.704  1.00  0.00    -0.390 OA
ATOM     87  O   UNL     1      11.837  29.600  23.364  1.00  0.00    -0.390 OA
ENDBRANCH  82  85
ENDBRANCH  79  80
ENDBRANCH  76  79
ENDBRANCH  75  76
ENDBRANCH  73  75
ENDBRANCH  70  71
ENDBRANCH  68  70
ENDBRANCH  64  65
ENDBRANCH  63  64
ENDBRANCH  60  63
ENDBRANCH   1  59
TORSDOF 37
