REMARK VINA RESULT:    -6.309      3.125      7.915
REMARK INTER + INTRA:         -20.546
REMARK INTER:                 -14.223
REMARK INTRA:                  -6.323
REMARK UNBOUND:                -5.017
REMARK SMILES CC(=O)N[C@@H]1[C@@H](O)C[C@](OC[C@H]2O[C@@H](O[C@H]3[C@H](O)[C@@H](O)[C@H](OCCN=[N+]=[N-])O[C@@H]3CO)[C@H](O)[C@@H](O)[C@H]2O)(C(=O)O)O[C@H]1C(O)[C@H](O)CNC(=O)OCc1cn(C2CCCCC2)nn1
REMARK SMILES IDX 9 1 8 2 6 3 5 4 42 5 41 6 10 7 11 8 12 9 14 10 13 11 32 12
REMARK SMILES IDX 34 13 36 14 15 15 16 16 29 17 28 18 21 19 17 20 19 21 30 22
REMARK SMILES IDX 31 23 22 25 23 26 24 27 25 28 26 29 27 30 18 31 20 33 33 35
REMARK SMILES IDX 35 37 37 39 38 41 39 42 40 43 7 45 43 47 44 48 45 50 46 51
REMARK SMILES IDX 47 53 48 54 49 55 50 57 51 58 52 59 53 60 54 61 63 62 55 63
REMARK SMILES IDX 62 64 56 65 57 66 61 67 58 68 60 69 59 70 4 71 2 72 1 74
REMARK SMILES IDX 3 75
REMARK H PARENT 31 24 18 32 20 34 33 36 35 38 37 40 40 44 7 46 44 49 46 52
REMARK H PARENT 48 56 4 73
REMARK Flexibility Score: inf
ROOT
ATOM      1  C   UNL     1      23.383  25.420  22.297  1.00  0.00     0.272 C 
ATOM      2  C   UNL     1      22.708  24.382  23.269  1.00  0.00     0.113 C 
ATOM      3  C   UNL     1      21.361  24.893  23.680  1.00  0.00     0.145 C 
ATOM      4  C   UNL     1      21.467  26.262  24.296  1.00  0.00     0.142 C 
ATOM      5  C   UNL     1      22.475  27.137  23.637  1.00  0.00     0.178 C 
ATOM      6  O   UNL     1      23.408  26.646  22.847  1.00  0.00    -0.332 OA
ENDROOT
BRANCH   1   7
ATOM      7  O   UNL     1      22.636  25.337  21.205  1.00  0.00    -0.338 OA
BRANCH   7   8
ATOM      8  C   UNL     1      22.758  25.723  19.981  1.00  0.00     0.199 C 
BRANCH   8   9
ATOM      9  C   UNL     1      23.065  24.763  18.843  1.00  0.00     0.179 C 
ATOM     10  C   UNL     1      22.938  25.377  16.583  1.00  0.00     0.282 C 
ATOM     11  O   UNL     1      22.291  24.979  17.748  1.00  0.00    -0.341 OA
ATOM     12  C   UNL     1      24.018  24.416  16.260  1.00  0.00     0.202 C 
ATOM     13  C   UNL     1      24.944  24.126  17.416  1.00  0.00     0.179 C 
ATOM     14  C   UNL     1      24.558  24.945  18.588  1.00  0.00     0.177 C 
BRANCH  10  15
ATOM     15  O   UNL     1      23.225  26.687  16.703  1.00  0.00    -0.341 OA
BRANCH  15  16
ATOM     16  C   UNL     1      22.321  27.626  16.329  1.00  0.00     0.184 C 
ATOM     17  C   UNL     1      23.047  28.673  15.510  1.00  0.00     0.178 C 
ATOM     18  O   UNL     1      22.180  29.517  14.844  1.00  0.00    -0.341 OA
ATOM     19  C   UNL     1      20.951  29.654  15.434  1.00  0.00     0.281 C 
ATOM     20  C   UNL     1      21.711  28.390  17.486  1.00  0.00     0.180 C 
ATOM     21  C   UNL     1      21.026  29.609  16.915  1.00  0.00     0.202 C 
BRANCH  17  22
ATOM     22  C   UNL     1      24.116  28.107  14.621  1.00  0.00     0.191 C 
BRANCH  22  23
ATOM     23  O   UNL     1      23.496  27.249  13.712  1.00  0.00    -0.394 OA
ATOM     24  H   UNL     1      24.052  27.086  12.913  1.00  0.00     0.210 HD
ENDBRANCH  22  23
ENDBRANCH  17  22
BRANCH  19  25
ATOM     25  O   UNL     1      20.060  28.801  14.839  1.00  0.00    -0.350 OA
BRANCH  25  26
ATOM     26  C   UNL     1      18.996  29.429  14.210  1.00  0.00     0.169 C 
BRANCH  26  27
ATOM     27  C   UNL     1      17.647  28.994  14.716  1.00  0.00     0.119 C 
BRANCH  27  28
ATOM     28  N   UNL     1      17.523  29.416  16.096  1.00  0.00    -0.092 NA
ATOM     29  N   UNL     1      16.432  29.195  16.639  1.00  0.00     0.001 N 
ATOM     30  N   UNL     1      15.323  29.521  17.099  1.00  0.00    -0.003 NA
ENDBRANCH  27  28
ENDBRANCH  26  27
ENDBRANCH  25  26
ENDBRANCH  19  25
BRANCH  20  31
ATOM     31  O   UNL     1      20.787  27.667  18.201  1.00  0.00    -0.387 OA
ATOM     32  H   UNL     1      21.118  27.376  19.087  1.00  0.00     0.211 HD
ENDBRANCH  20  31
BRANCH  21  33
ATOM     33  O   UNL     1      21.810  30.718  17.318  1.00  0.00    -0.385 OA
ATOM     34  H   UNL     1      22.737  30.435  17.511  1.00  0.00     0.211 HD
ENDBRANCH  21  33
ENDBRANCH  15  16
ENDBRANCH  10  15
BRANCH  12  35
ATOM     35  O   UNL     1      23.373  23.187  15.963  1.00  0.00    -0.385 OA
ATOM     36  H   UNL     1      22.396  23.288  15.948  1.00  0.00     0.211 HD
ENDBRANCH  12  35
BRANCH  13  37
ATOM     37  O   UNL     1      26.284  24.387  17.068  1.00  0.00    -0.387 OA
ATOM     38  H   UNL     1      26.860  23.831  17.617  1.00  0.00     0.211 HD
ENDBRANCH  13  37
BRANCH  14  39
ATOM     39  O   UNL     1      24.964  26.251  18.595  1.00  0.00    -0.387 OA
ATOM     40  H   UNL     1      24.971  26.577  17.663  1.00  0.00     0.211 HD
ENDBRANCH  14  39
ENDBRANCH   8   9
ENDBRANCH   7   8
ENDBRANCH   1   7
BRANCH   1  41
ATOM     41  C   UNL     1      24.803  24.928  22.234  1.00  0.00     0.364 C 
ATOM     42  O   UNL     1      25.793  25.649  22.275  1.00  0.00    -0.246 OA
BRANCH  41  43
ATOM     43  O   UNL     1      25.053  23.546  22.120  1.00  0.00    -0.477 OA
ATOM     44  H   UNL     1      25.999  23.199  22.106  1.00  0.00     0.296 HD
ENDBRANCH  41  43
ENDBRANCH   1  41
BRANCH   3  45
ATOM     45  O   UNL     1      20.457  24.859  22.626  1.00  0.00    -0.391 OA
ATOM     46  H   UNL     1      20.278  25.804  22.352  1.00  0.00     0.211 HD
ENDBRANCH   3  45
BRANCH   5  47
ATOM     47  C   UNL     1      21.753  28.264  22.837  1.00  0.00     0.176 C 
BRANCH  47  48
ATOM     48  O   UNL     1      20.403  28.298  23.236  1.00  0.00    -0.388 OA
ATOM     49  H   UNL     1      20.242  27.734  24.018  1.00  0.00     0.211 HD
ENDBRANCH  47  48
BRANCH  47  50
ATOM     50  C   UNL     1      22.424  29.583  23.012  1.00  0.00     0.165 C 
BRANCH  50  51
ATOM     51  O   UNL     1      22.548  29.787  24.406  1.00  0.00    -0.388 OA
ATOM     52  H   UNL     1      21.703  29.630  24.871  1.00  0.00     0.211 HD
ENDBRANCH  50  51
BRANCH  50  53
ATOM     53  C   UNL     1      21.723  30.773  22.471  1.00  0.00     0.154 C 
BRANCH  53  54
ATOM     54  N   UNL     1      20.452  30.522  21.844  1.00  0.00    -0.319 N 
ATOM     55  C   UNL     1      20.139  30.940  20.523  1.00  0.00     0.407 C 
ATOM     56  H   UNL     1      19.725  30.008  22.372  1.00  0.00     0.167 HD
ATOM     57  O   UNL     1      20.992  31.561  19.842  1.00  0.00    -0.225 OA
BRANCH  55  58
ATOM     58  O   UNL     1      18.922  30.689  19.952  1.00  0.00    -0.443 OA
BRANCH  58  59
ATOM     59  C   UNL     1      18.407  29.433  19.580  1.00  0.00     0.294 C 
BRANCH  59  60
ATOM     60  C   UNL     1      17.170  29.176  20.349  1.00  0.00     0.120 A 
ATOM     61  C   UNL     1      16.561  30.129  21.115  1.00  0.00     0.138 A 
ATOM     62  N   UNL     1      16.446  28.057  20.458  1.00  0.00    -0.132 NA
ATOM     63  N   UNL     1      15.465  29.577  21.685  1.00  0.00    -0.249 N 
ATOM     64  N   UNL     1      15.421  28.314  21.267  1.00  0.00    -0.067 NA
BRANCH  63  65
ATOM     65  C   UNL     1      14.538  30.245  22.576  1.00  0.00     0.109 C 
ATOM     66  C   UNL     1      14.709  29.568  23.933  1.00  0.00     0.027 C 
ATOM     67  C   UNL     1      13.114  30.032  22.114  1.00  0.00     0.027 C 
ATOM     68  C   UNL     1      13.825  30.281  24.958  1.00  0.00     0.002 C 
ATOM     69  C   UNL     1      12.220  29.496  23.213  1.00  0.00     0.002 C 
ATOM     70  C   UNL     1      12.411  30.281  24.475  1.00  0.00     0.000 C 
ENDBRANCH  63  65
ENDBRANCH  59  60
ENDBRANCH  58  59
ENDBRANCH  55  58
ENDBRANCH  53  54
ENDBRANCH  50  53
ENDBRANCH  47  50
ENDBRANCH   5  47
BRANCH   4  71
ATOM     71  N   UNL     1      21.591  26.198  25.729  1.00  0.00    -0.348 N 
ATOM     72  C   UNL     1      21.152  27.196  26.614  1.00  0.00     0.217 C 
ATOM     73  H   UNL     1      22.042  25.353  26.206  1.00  0.00     0.163 HD
ATOM     74  C   UNL     1      21.301  27.058  28.103  1.00  0.00     0.114 C 
ATOM     75  O   UNL     1      20.625  28.232  26.209  1.00  0.00    -0.275 OA
ENDBRANCH   4  71
TORSDOF 30
