REMARK VINA RESULT:    -5.840      9.029     15.622
REMARK INTER + INTRA:         -22.866
REMARK INTER:                 -16.852
REMARK INTRA:                  -6.014
REMARK UNBOUND:                -8.149
REMARK SMILES CC(=O)N[C@@H]1[C@@H](O)C[C@](OC[C@H]2O[C@@H](O[C@H]3[C@H](O)[C@@H](O)[C@H](OCCN=[N+]=[N-])O[C@@H]3CO)[C@H](O)[C@@H](O)[C@H]2O)(C(=O)O)O[C@H]1C(O)[C@H](O)CNC(=O)OCc1cn(Cc2ccc3c(c2)OCO3)nn1
REMARK SMILES IDX 9 1 8 2 6 3 5 4 42 5 41 6 10 7 11 8 12 9 14 10 13 11 32 12
REMARK SMILES IDX 34 13 36 14 15 15 16 16 29 17 28 18 21 19 17 20 19 21 30 22
REMARK SMILES IDX 31 23 22 25 23 26 24 27 25 28 26 29 27 30 18 31 20 33 33 35
REMARK SMILES IDX 35 37 37 39 38 41 39 42 40 43 7 45 43 47 44 48 45 50 46 51
REMARK SMILES IDX 47 53 48 54 49 55 50 57 51 58 52 59 53 60 54 61 67 62 55 63
REMARK SMILES IDX 66 64 56 65 57 66 58 67 62 68 59 69 61 70 60 71 63 72 65 73
REMARK SMILES IDX 64 74 4 75 2 76 1 78 3 79
REMARK H PARENT 31 24 18 32 20 34 33 36 35 38 37 40 40 44 7 46 44 49 46 52
REMARK H PARENT 48 56 4 77
REMARK Flexibility Score: inf
ROOT
ATOM      1  C   UNL     1      30.092  20.175  21.784  1.00  0.00     0.272 C 
ATOM      2  C   UNL     1      31.021  19.589  20.740  1.00  0.00     0.113 C 
ATOM      3  C   UNL     1      31.481  20.677  19.816  1.00  0.00     0.145 C 
ATOM      4  C   UNL     1      30.207  21.208  19.107  1.00  0.00     0.142 C 
ATOM      5  C   UNL     1      29.242  21.597  20.168  1.00  0.00     0.178 C 
ATOM      6  O   UNL     1      29.727  21.460  21.467  1.00  0.00    -0.332 OA
ENDROOT
BRANCH   1   7
ATOM      7  O   UNL     1      30.677  20.105  23.058  1.00  0.00    -0.338 OA
BRANCH   7   8
ATOM      8  C   UNL     1      30.378  21.101  23.926  1.00  0.00     0.199 C 
BRANCH   8   9
ATOM      9  C   UNL     1      31.524  21.224  24.942  1.00  0.00     0.179 C 
ATOM     10  C   UNL     1      32.877  19.989  26.333  1.00  0.00     0.282 C 
ATOM     11  O   UNL     1      31.714  20.019  25.564  1.00  0.00    -0.341 OA
ATOM     12  C   UNL     1      34.078  20.091  25.390  1.00  0.00     0.202 C 
ATOM     13  C   UNL     1      33.806  20.857  24.146  1.00  0.00     0.179 C 
ATOM     14  C   UNL     1      32.729  21.867  24.356  1.00  0.00     0.177 C 
BRANCH  10  15
ATOM     15  O   UNL     1      32.966  18.808  26.956  1.00  0.00    -0.341 OA
BRANCH  15  16
ATOM     16  C   UNL     1      33.416  18.714  28.238  1.00  0.00     0.184 C 
ATOM     17  C   UNL     1      34.651  17.872  28.403  1.00  0.00     0.178 C 
ATOM     18  O   UNL     1      34.438  16.746  29.127  1.00  0.00    -0.341 OA
ATOM     19  C   UNL     1      34.003  16.937  30.454  1.00  0.00     0.281 C 
ATOM     20  C   UNL     1      32.305  18.194  29.113  1.00  0.00     0.180 C 
ATOM     21  C   UNL     1      32.875  17.943  30.494  1.00  0.00     0.202 C 
BRANCH  17  22
ATOM     22  C   UNL     1      35.731  18.705  29.047  1.00  0.00     0.191 C 
BRANCH  22  23
ATOM     23  O   UNL     1      35.383  20.081  29.007  1.00  0.00    -0.394 OA
ATOM     24  H   UNL     1      35.079  20.363  28.114  1.00  0.00     0.210 HD
ENDBRANCH  22  23
ENDBRANCH  17  22
BRANCH  19  25
ATOM     25  O   UNL     1      35.041  17.209  31.287  1.00  0.00    -0.350 OA
BRANCH  25  26
ATOM     26  C   UNL     1      35.000  17.026  32.605  1.00  0.00     0.169 C 
BRANCH  26  27
ATOM     27  C   UNL     1      35.352  18.201  33.460  1.00  0.00     0.119 C 
BRANCH  27  28
ATOM     28  N   UNL     1      34.561  19.367  33.286  1.00  0.00    -0.092 NA
ATOM     29  N   UNL     1      34.796  20.250  32.465  1.00  0.00     0.001 N 
ATOM     30  N   UNL     1      35.386  21.192  31.908  1.00  0.00    -0.003 NA
ENDBRANCH  27  28
ENDBRANCH  26  27
ENDBRANCH  25  26
ENDBRANCH  19  25
BRANCH  20  31
ATOM     31  O   UNL     1      31.330  19.184  29.204  1.00  0.00    -0.387 OA
ATOM     32  H   UNL     1      31.552  19.969  28.639  1.00  0.00     0.211 HD
ENDBRANCH  20  31
BRANCH  21  33
ATOM     33  O   UNL     1      31.820  17.462  31.265  1.00  0.00    -0.385 OA
ATOM     34  H   UNL     1      31.192  18.201  31.484  1.00  0.00     0.211 HD
ENDBRANCH  21  33
ENDBRANCH  15  16
ENDBRANCH  10  15
BRANCH  12  35
ATOM     35  O   UNL     1      35.178  20.615  26.067  1.00  0.00    -0.385 OA
ATOM     36  H   UNL     1      34.925  21.397  26.584  1.00  0.00     0.211 HD
ENDBRANCH  12  35
BRANCH  13  37
ATOM     37  O   UNL     1      33.562  20.056  23.042  1.00  0.00    -0.387 OA
ATOM     38  H   UNL     1      34.066  19.209  23.146  1.00  0.00     0.211 HD
ENDBRANCH  13  37
BRANCH  14  39
ATOM     39  O   UNL     1      32.445  22.451  23.112  1.00  0.00    -0.387 OA
ATOM     40  H   UNL     1      32.926  23.299  23.056  1.00  0.00     0.211 HD
ENDBRANCH  14  39
ENDBRANCH   8   9
ENDBRANCH   7   8
ENDBRANCH   1   7
BRANCH   1  41
ATOM     41  C   UNL     1      28.888  19.330  21.885  1.00  0.00     0.364 C 
ATOM     42  O   UNL     1      27.829  19.714  22.398  1.00  0.00    -0.246 OA
BRANCH  41  43
ATOM     43  O   UNL     1      28.882  18.021  21.394  1.00  0.00    -0.477 OA
ATOM     44  H   UNL     1      27.985  17.552  21.180  1.00  0.00     0.296 HD
ENDBRANCH  41  43
ENDBRANCH   1  41
BRANCH   3  45
ATOM     45  O   UNL     1      32.062  21.767  20.394  1.00  0.00    -0.391 OA
ATOM     46  H   UNL     1      32.353  21.625  21.330  1.00  0.00     0.211 HD
ENDBRANCH   3  45
BRANCH   5  47
ATOM     47  C   UNL     1      28.926  23.110  20.074  1.00  0.00     0.176 C 
BRANCH  47  48
ATOM     48  O   UNL     1      28.366  23.459  18.882  1.00  0.00    -0.388 OA
ATOM     49  H   UNL     1      28.982  24.037  18.374  1.00  0.00     0.211 HD
ENDBRANCH  47  48
BRANCH  47  50
ATOM     50  C   UNL     1      28.278  23.698  21.249  1.00  0.00     0.165 C 
BRANCH  50  51
ATOM     51  O   UNL     1      27.430  22.838  21.960  1.00  0.00    -0.388 OA
ATOM     52  H   UNL     1      27.785  21.911  21.952  1.00  0.00     0.211 HD
ENDBRANCH  50  51
BRANCH  50  53
ATOM     53  C   UNL     1      27.531  24.987  21.038  1.00  0.00     0.154 C 
BRANCH  53  54
ATOM     54  N   UNL     1      26.125  24.639  20.770  1.00  0.00    -0.319 N 
ATOM     55  C   UNL     1      25.499  24.948  19.529  1.00  0.00     0.407 C 
ATOM     56  H   UNL     1      25.600  24.160  21.510  1.00  0.00     0.167 HD
ATOM     57  O   UNL     1      26.201  25.534  18.663  1.00  0.00    -0.225 OA
BRANCH  55  58
ATOM     58  O   UNL     1      24.191  24.636  19.249  1.00  0.00    -0.443 OA
BRANCH  58  59
ATOM     59  C   UNL     1      23.233  25.645  19.035  1.00  0.00     0.294 C 
BRANCH  59  60
ATOM     60  C   UNL     1      22.322  25.687  20.203  1.00  0.00     0.120 A 
ATOM     61  C   UNL     1      22.229  24.781  21.253  1.00  0.00     0.138 A 
ATOM     62  N   UNL     1      21.385  26.618  20.474  1.00  0.00    -0.132 NA
ATOM     63  N   UNL     1      21.265  25.190  22.100  1.00  0.00    -0.248 N 
ATOM     64  N   UNL     1      20.773  26.297  21.606  1.00  0.00    -0.067 NA
BRANCH  63  65
ATOM     65  C   UNL     1      20.876  24.522  23.306  1.00  0.00     0.181 C 
BRANCH  65  66
ATOM     66  C   UNL     1      21.384  25.157  24.545  1.00  0.00    -0.023 A 
ATOM     67  C   UNL     1      22.403  24.583  25.239  1.00  0.00     0.010 A 
ATOM     68  C   UNL     1      20.814  26.350  25.007  1.00  0.00     0.056 A 
ATOM     69  C   UNL     1      22.856  25.187  26.384  1.00  0.00     0.051 A 
ATOM     70  C   UNL     1      21.256  26.961  26.148  1.00  0.00     0.166 A 
ATOM     71  C   UNL     1      22.293  26.352  26.831  1.00  0.00     0.165 A 
ATOM     72  O   UNL     1      20.933  28.100  26.861  1.00  0.00    -0.454 OA
ATOM     73  O   UNL     1      22.604  27.119  27.961  1.00  0.00    -0.454 OA
ATOM     74  C   UNL     1      22.003  28.380  27.759  1.00  0.00     0.468 C 
ENDBRANCH  65  66
ENDBRANCH  63  65
ENDBRANCH  59  60
ENDBRANCH  58  59
ENDBRANCH  55  58
ENDBRANCH  53  54
ENDBRANCH  50  53
ENDBRANCH  47  50
ENDBRANCH   5  47
BRANCH   4  75
ATOM     75  N   UNL     1      29.799  20.128  18.254  1.00  0.00    -0.348 N 
ATOM     76  C   UNL     1      29.142  20.450  17.019  1.00  0.00     0.217 C 
ATOM     77  H   UNL     1      29.926  19.114  18.422  1.00  0.00     0.163 HD
ATOM     78  C   UNL     1      28.701  19.338  16.109  1.00  0.00     0.114 C 
ATOM     79  O   UNL     1      28.937  21.646  16.704  1.00  0.00    -0.275 OA
ENDBRANCH   4  75
TORSDOF 31
