REMARK VINA RESULT:    -6.171      4.963     13.924
REMARK INTER + INTRA:         -21.488
REMARK INTER:                 -14.134
REMARK INTRA:                  -7.354
REMARK UNBOUND:                -6.298
REMARK SMILES CC(=O)N[C@@H]1[C@@H](O)C[C@](OC[C@H]2O[C@@H](O[C@H]3[C@H](O)[C@@H](O)[C@H](OCCN=[N+]=[N-])O[C@@H]3CO)[C@H](O)[C@@H](O)[C@H]2O)(C(=O)O)O[C@H]1C(O)[C@H](O)CNC(=O)OCc1cn(-c2c(C)cc(C)cc2C)nn1
REMARK SMILES IDX 9 1 8 2 6 3 5 4 42 5 41 6 10 7 11 8 12 9 14 10 13 11 32 12
REMARK SMILES IDX 34 13 36 14 15 15 16 16 29 17 28 18 21 19 17 20 19 21 30 22
REMARK SMILES IDX 31 23 22 25 23 26 24 27 25 28 26 29 27 30 18 31 20 33 33 35
REMARK SMILES IDX 35 37 37 39 38 41 39 42 40 43 7 45 43 47 44 48 45 50 46 51
REMARK SMILES IDX 47 53 48 54 49 55 50 57 51 58 52 59 53 60 54 61 66 62 55 63
REMARK SMILES IDX 65 64 56 65 57 66 63 67 58 68 59 69 62 70 64 71 60 72 61 73
REMARK SMILES IDX 4 74 2 75 1 77 3 78
REMARK H PARENT 31 24 18 32 20 34 33 36 35 38 37 40 40 44 7 46 44 49 46 52
REMARK H PARENT 48 56 4 76
REMARK Flexibility Score: inf
ROOT
ATOM      1  C   UNL     1      23.684  27.851  20.809  1.00  0.00     0.272 C 
ATOM      2  C   UNL     1      24.463  29.097  20.643  1.00  0.00     0.113 C 
ATOM      3  C   UNL     1      24.501  30.029  21.829  1.00  0.00     0.145 C 
ATOM      4  C   UNL     1      23.200  29.973  22.564  1.00  0.00     0.142 C 
ATOM      5  C   UNL     1      22.170  29.493  21.534  1.00  0.00     0.178 C 
ATOM      6  O   UNL     1      22.418  28.105  21.356  1.00  0.00    -0.332 OA
ENDROOT
BRANCH   1   7
ATOM      7  O   UNL     1      24.273  26.816  21.470  1.00  0.00    -0.338 OA
BRANCH   7   8
ATOM      8  C   UNL     1      24.363  25.600  20.899  1.00  0.00     0.199 C 
BRANCH   8   9
ATOM      9  C   UNL     1      23.823  24.574  21.906  1.00  0.00     0.179 C 
ATOM     10  C   UNL     1      22.915  24.609  24.021  1.00  0.00     0.282 C 
ATOM     11  O   UNL     1      23.939  25.052  23.197  1.00  0.00    -0.341 OA
ATOM     12  C   UNL     1      21.668  25.311  23.550  1.00  0.00     0.202 C 
ATOM     13  C   UNL     1      21.369  24.754  22.166  1.00  0.00     0.179 C 
ATOM     14  C   UNL     1      22.498  24.016  21.539  1.00  0.00     0.177 C 
BRANCH  10  15
ATOM     15  O   UNL     1      23.186  24.695  25.333  1.00  0.00    -0.341 OA
BRANCH  15  16
ATOM     16  C   UNL     1      23.535  25.884  25.863  1.00  0.00     0.184 C 
ATOM     17  C   UNL     1      25.015  25.873  26.200  1.00  0.00     0.178 C 
ATOM     18  O   UNL     1      25.263  25.711  27.530  1.00  0.00    -0.341 OA
ATOM     19  C   UNL     1      24.780  26.728  28.338  1.00  0.00     0.281 C 
ATOM     20  C   UNL     1      22.730  26.107  27.147  1.00  0.00     0.180 C 
ATOM     21  C   UNL     1      23.400  27.165  28.005  1.00  0.00     0.202 C 
BRANCH  17  22
ATOM     22  C   UNL     1      25.718  27.080  25.601  1.00  0.00     0.191 C 
BRANCH  22  23
ATOM     23  O   UNL     1      25.177  27.397  24.358  1.00  0.00    -0.394 OA
ATOM     24  H   UNL     1      25.679  27.018  23.601  1.00  0.00     0.210 HD
ENDBRANCH  22  23
ENDBRANCH  17  22
BRANCH  19  25
ATOM     25  O   UNL     1      25.636  27.839  28.316  1.00  0.00    -0.350 OA
BRANCH  25  26
ATOM     26  C   UNL     1      26.094  28.207  29.556  1.00  0.00     0.169 C 
BRANCH  26  27
ATOM     27  C   UNL     1      26.056  27.132  30.597  1.00  0.00     0.119 C 
BRANCH  27  28
ATOM     28  N   UNL     1      27.272  27.090  31.389  1.00  0.00    -0.092 NA
ATOM     29  N   UNL     1      27.674  26.019  31.888  1.00  0.00     0.001 N 
ATOM     30  N   UNL     1      27.931  24.861  32.238  1.00  0.00    -0.003 NA
ENDBRANCH  27  28
ENDBRANCH  26  27
ENDBRANCH  25  26
ENDBRANCH  19  25
BRANCH  20  31
ATOM     31  O   UNL     1      21.438  26.505  26.914  1.00  0.00    -0.387 OA
ATOM     32  H   UNL     1      21.003  26.975  27.670  1.00  0.00     0.211 HD
ENDBRANCH  20  31
BRANCH  21  33
ATOM     33  O   UNL     1      22.658  27.263  29.179  1.00  0.00    -0.385 OA
ATOM     34  H   UNL     1      21.679  27.271  28.986  1.00  0.00     0.211 HD
ENDBRANCH  21  33
ENDBRANCH  15  16
ENDBRANCH  10  15
BRANCH  12  35
ATOM     35  O   UNL     1      20.563  25.036  24.351  1.00  0.00    -0.385 OA
ATOM     36  H   UNL     1      20.867  25.127  25.305  1.00  0.00     0.211 HD
ENDBRANCH  12  35
BRANCH  13  37
ATOM     37  O   UNL     1      20.948  25.759  21.297  1.00  0.00    -0.387 OA
ATOM     38  H   UNL     1      20.785  25.435  20.374  1.00  0.00     0.211 HD
ENDBRANCH  13  37
BRANCH  14  39
ATOM     39  O   UNL     1      22.322  24.090  20.136  1.00  0.00    -0.387 OA
ATOM     40  H   UNL     1      23.168  23.901  19.669  1.00  0.00     0.211 HD
ENDBRANCH  14  39
ENDBRANCH   8   9
ENDBRANCH   7   8
ENDBRANCH   1   7
BRANCH   1  41
ATOM     41  C   UNL     1      23.342  27.384  19.411  1.00  0.00     0.364 C 
ATOM     42  O   UNL     1      24.214  27.430  18.537  1.00  0.00    -0.246 OA
BRANCH  41  43
ATOM     43  O   UNL     1      22.083  26.911  19.096  1.00  0.00    -0.477 OA
ATOM     44  H   UNL     1      21.553  27.181  18.286  1.00  0.00     0.296 HD
ENDBRANCH  41  43
ENDBRANCH   1  41
BRANCH   3  45
ATOM     45  O   UNL     1      25.603  29.665  22.601  1.00  0.00    -0.391 OA
ATOM     46  H   UNL     1      26.316  29.298  21.985  1.00  0.00     0.211 HD
ENDBRANCH   3  45
BRANCH   5  47
ATOM     47  C   UNL     1      20.763  29.558  21.982  1.00  0.00     0.176 C 
BRANCH  47  48
ATOM     48  O   UNL     1      20.530  28.360  22.752  1.00  0.00    -0.388 OA
ATOM     49  H   UNL     1      20.180  27.661  22.142  1.00  0.00     0.211 HD
ENDBRANCH  47  48
BRANCH  47  50
ATOM     50  C   UNL     1      19.684  29.455  20.923  1.00  0.00     0.165 C 
BRANCH  50  51
ATOM     51  O   UNL     1      19.589  28.022  20.741  1.00  0.00    -0.388 OA
ATOM     52  H   UNL     1      19.848  27.801  19.825  1.00  0.00     0.211 HD
ENDBRANCH  50  51
BRANCH  50  53
ATOM     53  C   UNL     1      20.176  29.925  19.575  1.00  0.00     0.154 C 
BRANCH  53  54
ATOM     54  N   UNL     1      19.171  30.166  18.585  1.00  0.00    -0.319 N 
ATOM     55  C   UNL     1      18.866  29.151  17.628  1.00  0.00     0.407 C 
ATOM     56  H   UNL     1      18.654  31.090  18.549  1.00  0.00     0.167 HD
ATOM     57  O   UNL     1      19.528  28.080  17.713  1.00  0.00    -0.225 OA
BRANCH  55  58
ATOM     58  O   UNL     1      17.894  29.315  16.648  1.00  0.00    -0.443 OA
BRANCH  58  59
ATOM     59  C   UNL     1      17.102  30.475  16.562  1.00  0.00     0.294 C 
BRANCH  59  60
ATOM     60  C   UNL     1      15.802  30.369  17.279  1.00  0.00     0.121 A 
ATOM     61  C   UNL     1      15.506  30.734  18.572  1.00  0.00     0.144 A 
ATOM     62  N   UNL     1      14.635  29.876  16.772  1.00  0.00    -0.131 NA
ATOM     63  N   UNL     1      14.213  30.465  18.818  1.00  0.00    -0.220 N 
ATOM     64  N   UNL     1      13.726  29.945  17.692  1.00  0.00    -0.062 NA
BRANCH  63  65
ATOM     65  C   UNL     1      13.465  30.671  20.031  1.00  0.00     0.072 A 
ATOM     66  C   UNL     1      13.571  29.702  20.997  1.00  0.00    -0.025 A 
ATOM     67  C   UNL     1      12.702  31.777  20.179  1.00  0.00    -0.025 A 
ATOM     68  C   UNL     1      14.431  28.485  20.793  1.00  0.00     0.047 C 
ATOM     69  C   UNL     1      12.859  29.879  22.167  1.00  0.00     0.009 A 
ATOM     70  C   UNL     1      11.998  31.912  21.381  1.00  0.00     0.009 A 
ATOM     71  C   UNL     1      12.565  32.847  19.158  1.00  0.00     0.047 C 
ATOM     72  C   UNL     1      12.065  30.976  22.384  1.00  0.00    -0.050 A 
ATOM     73  C   UNL     1      11.327  31.109  23.664  1.00  0.00     0.044 C 
ENDBRANCH  63  65
ENDBRANCH  59  60
ENDBRANCH  58  59
ENDBRANCH  55  58
ENDBRANCH  53  54
ENDBRANCH  50  53
ENDBRANCH  47  50
ENDBRANCH   5  47
BRANCH   4  74
ATOM     74  N   UNL     1      22.817  31.127  23.255  1.00  0.00    -0.348 N 
ATOM     75  C   UNL     1      22.682  31.186  24.672  1.00  0.00     0.217 C 
ATOM     76  H   UNL     1      22.635  32.006  22.738  1.00  0.00     0.163 HD
ATOM     77  C   UNL     1      22.272  32.438  25.380  1.00  0.00     0.114 C 
ATOM     78  O   UNL     1      22.922  30.150  25.315  1.00  0.00    -0.275 OA
ENDBRANCH   4  74
TORSDOF 30
