REMARK VINA RESULT:    -5.707     11.616     18.612
REMARK INTER + INTRA:         -21.583
REMARK INTER:                 -15.241
REMARK INTRA:                  -6.342
REMARK UNBOUND:                -7.203
REMARK SMILES CC(=O)N[C@@H]1[C@@H](O)C[C@](OC[C@H]2O[C@@H](O[C@H]3[C@H](O)[C@@H](O)[C@H](OCCN=[N+]=[N-])O[C@@H]3CO)[C@H](O)[C@@H](O)[C@H]2O)(C(=O)O)O[C@H]1C(O)[C@H](O)CNC(=O)OCc1cn(CC2=CC[C@H]3C[C@@H]2C3(C)C)nn1
REMARK SMILES IDX 9 1 8 2 6 3 5 4 42 5 41 6 10 7 11 8 12 9 14 10 13 11 32 12
REMARK SMILES IDX 34 13 36 14 15 15 16 16 29 17 28 18 21 19 17 20 19 21 30 22
REMARK SMILES IDX 31 23 22 25 23 26 24 27 25 28 26 29 27 30 18 31 20 33 33 35
REMARK SMILES IDX 35 37 37 39 38 41 39 42 40 43 7 45 43 47 44 48 45 50 46 51
REMARK SMILES IDX 47 53 48 54 49 55 50 57 51 58 52 59 53 60 54 61 67 62 55 63
REMARK SMILES IDX 66 64 56 65 57 66 58 67 62 68 59 69 61 70 63 71 60 72 64 73
REMARK SMILES IDX 65 74 4 75 2 76 1 78 3 79
REMARK H PARENT 31 24 18 32 20 34 33 36 35 38 37 40 40 44 7 46 44 49 46 52
REMARK H PARENT 48 56 4 77
REMARK Flexibility Score: inf
ROOT
ATOM      1  C   UNL     1      32.240  19.169  23.987  1.00  0.00     0.272 C 
ATOM      2  C   UNL     1      32.460  20.632  24.187  1.00  0.00     0.113 C 
ATOM      3  C   UNL     1      31.168  21.298  24.694  1.00  0.00     0.145 C 
ATOM      4  C   UNL     1      30.083  21.167  23.687  1.00  0.00     0.142 C 
ATOM      5  C   UNL     1      30.529  20.116  22.692  1.00  0.00     0.178 C 
ATOM      6  O   UNL     1      30.992  19.003  23.295  1.00  0.00    -0.332 OA
ENDROOT
BRANCH   1   7
ATOM      7  O   UNL     1      32.109  18.422  25.073  1.00  0.00    -0.338 OA
BRANCH   7   8
ATOM      8  C   UNL     1      32.958  17.602  25.635  1.00  0.00     0.199 C 
BRANCH   8   9
ATOM      9  C   UNL     1      33.207  17.440  27.075  1.00  0.00     0.179 C 
ATOM     10  C   UNL     1      34.216  18.597  28.806  1.00  0.00     0.282 C 
ATOM     11  O   UNL     1      33.633  18.719  27.550  1.00  0.00    -0.341 OA
ATOM     12  C   UNL     1      33.538  17.700  29.741  1.00  0.00     0.202 C 
ATOM     13  C   UNL     1      32.397  16.886  29.274  1.00  0.00     0.179 C 
ATOM     14  C   UNL     1      31.914  17.261  27.895  1.00  0.00     0.177 C 
BRANCH  10  15
ATOM     15  O   UNL     1      34.209  19.909  29.318  1.00  0.00    -0.341 OA
BRANCH  15  16
ATOM     16  C   UNL     1      34.397  20.864  28.336  1.00  0.00     0.184 C 
ATOM     17  C   UNL     1      35.640  21.658  28.616  1.00  0.00     0.178 C 
ATOM     18  O   UNL     1      35.723  22.849  27.916  1.00  0.00    -0.341 OA
ATOM     19  C   UNL     1      34.804  23.036  26.925  1.00  0.00     0.281 C 
ATOM     20  C   UNL     1      33.223  21.843  28.444  1.00  0.00     0.180 C 
ATOM     21  C   UNL     1      33.374  22.896  27.388  1.00  0.00     0.202 C 
BRANCH  17  22
ATOM     22  C   UNL     1      36.848  20.787  28.249  1.00  0.00     0.191 C 
BRANCH  22  23
ATOM     23  O   UNL     1      36.495  20.011  27.155  1.00  0.00    -0.394 OA
ATOM     24  H   UNL     1      35.877  19.286  27.478  1.00  0.00     0.210 HD
ENDBRANCH  22  23
ENDBRANCH  17  22
BRANCH  19  25
ATOM     25  O   UNL     1      35.013  22.168  25.845  1.00  0.00    -0.350 OA
BRANCH  25  26
ATOM     26  C   UNL     1      35.847  22.732  24.879  1.00  0.00     0.169 C 
BRANCH  26  27
ATOM     27  C   UNL     1      35.436  24.204  24.794  1.00  0.00     0.119 C 
BRANCH  27  28
ATOM     28  N   UNL     1      34.894  24.474  23.479  1.00  0.00    -0.092 NA
ATOM     29  N   UNL     1      33.900  25.156  23.311  1.00  0.00     0.001 N 
ATOM     30  N   UNL     1      32.813  25.735  23.196  1.00  0.00    -0.003 NA
ENDBRANCH  27  28
ENDBRANCH  26  27
ENDBRANCH  25  26
ENDBRANCH  19  25
BRANCH  20  31
ATOM     31  O   UNL     1      32.015  21.160  28.214  1.00  0.00    -0.387 OA
ATOM     32  H   UNL     1      31.274  21.797  28.124  1.00  0.00     0.211 HD
ENDBRANCH  20  31
BRANCH  21  33
ATOM     33  O   UNL     1      32.869  24.132  27.787  1.00  0.00    -0.385 OA
ATOM     34  H   UNL     1      32.539  24.041  28.726  1.00  0.00     0.211 HD
ENDBRANCH  21  33
ENDBRANCH  15  16
ENDBRANCH  10  15
BRANCH  12  35
ATOM     35  O   UNL     1      34.517  16.806  30.253  1.00  0.00    -0.385 OA
ATOM     36  H   UNL     1      35.408  16.986  29.859  1.00  0.00     0.211 HD
ENDBRANCH  12  35
BRANCH  13  37
ATOM     37  O   UNL     1      31.358  16.847  30.210  1.00  0.00    -0.387 OA
ATOM     38  H   UNL     1      31.519  16.116  30.867  1.00  0.00     0.211 HD
ENDBRANCH  13  37
BRANCH  14  39
ATOM     39  O   UNL     1      31.313  18.533  27.992  1.00  0.00    -0.387 OA
ATOM     40  H   UNL     1      31.793  19.085  28.657  1.00  0.00     0.211 HD
ENDBRANCH  14  39
ENDBRANCH   8   9
ENDBRANCH   7   8
ENDBRANCH   1   7
BRANCH   1  41
ATOM     41  C   UNL     1      33.194  18.639  22.977  1.00  0.00     0.364 C 
ATOM     42  O   UNL     1      34.422  19.002  23.008  1.00  0.00    -0.246 OA
BRANCH  41  43
ATOM     43  O   UNL     1      32.845  17.778  21.992  1.00  0.00    -0.477 OA
ATOM     44  H   UNL     1      32.072  17.846  21.351  1.00  0.00     0.296 HD
ENDBRANCH  41  43
ENDBRANCH   1  41
BRANCH   3  45
ATOM     45  O   UNL     1      30.802  20.511  25.796  1.00  0.00    -0.391 OA
ATOM     46  H   UNL     1      29.857  20.710  26.007  1.00  0.00     0.211 HD
ENDBRANCH   3  45
BRANCH   5  47
ATOM     47  C   UNL     1      29.360  19.703  21.793  1.00  0.00     0.176 C 
BRANCH  47  48
ATOM     48  O   UNL     1      28.741  18.585  22.290  1.00  0.00    -0.388 OA
ATOM     49  H   UNL     1      29.354  17.824  22.494  1.00  0.00     0.211 HD
ENDBRANCH  47  48
BRANCH  47  50
ATOM     50  C   UNL     1      29.824  19.489  20.383  1.00  0.00     0.165 C 
BRANCH  50  51
ATOM     51  O   UNL     1      31.208  19.828  20.386  1.00  0.00    -0.388 OA
ATOM     52  H   UNL     1      31.651  18.960  20.643  1.00  0.00     0.211 HD
ENDBRANCH  50  51
BRANCH  50  53
ATOM     53  C   UNL     1      29.176  20.438  19.427  1.00  0.00     0.154 C 
BRANCH  53  54
ATOM     54  N   UNL     1      28.220  21.325  20.007  1.00  0.00    -0.319 N 
ATOM     55  C   UNL     1      27.676  22.387  19.246  1.00  0.00     0.407 C 
ATOM     56  H   UNL     1      27.919  21.174  21.002  1.00  0.00     0.167 HD
ATOM     57  O   UNL     1      28.027  22.556  18.071  1.00  0.00    -0.225 OA
BRANCH  55  58
ATOM     58  O   UNL     1      26.748  23.250  19.797  1.00  0.00    -0.443 OA
BRANCH  58  59
ATOM     59  C   UNL     1      26.397  24.508  19.325  1.00  0.00     0.294 C 
BRANCH  59  60
ATOM     60  C   UNL     1      25.833  25.423  20.359  1.00  0.00     0.120 A 
ATOM     61  C   UNL     1      24.518  25.770  20.557  1.00  0.00     0.138 A 
ATOM     62  N   UNL     1      26.537  26.086  21.318  1.00  0.00    -0.132 NA
ATOM     63  N   UNL     1      24.447  26.607  21.595  1.00  0.00    -0.248 N 
ATOM     64  N   UNL     1      25.678  26.781  22.035  1.00  0.00    -0.067 NA
BRANCH  63  65
ATOM     65  C   UNL     1      23.232  27.225  22.157  1.00  0.00     0.177 C 
BRANCH  65  66
ATOM     66  C   UNL     1      22.692  26.214  23.126  1.00  0.00    -0.049 C 
ATOM     67  C   UNL     1      21.684  25.393  22.772  1.00  0.00    -0.025 C 
ATOM     68  C   UNL     1      23.226  26.062  24.488  1.00  0.00     0.023 C 
ATOM     69  C   UNL     1      21.075  24.521  23.800  1.00  0.00     0.031 C 
ATOM     70  C   UNL     1      23.339  24.554  24.747  1.00  0.00     0.013 C 
ATOM     71  C   UNL     1      22.097  26.078  25.473  1.00  0.00    -0.026 C 
ATOM     72  C   UNL     1      21.844  24.614  25.087  1.00  0.00    -0.000 C 
ATOM     73  C   UNL     1      22.524  26.143  26.920  1.00  0.00     0.012 C 
ATOM     74  C   UNL     1      20.963  27.010  25.207  1.00  0.00     0.012 C 
ENDBRANCH  65  66
ENDBRANCH  63  65
ENDBRANCH  59  60
ENDBRANCH  58  59
ENDBRANCH  55  58
ENDBRANCH  53  54
ENDBRANCH  50  53
ENDBRANCH  47  50
ENDBRANCH   5  47
BRANCH   4  75
ATOM     75  N   UNL     1      29.733  22.336  22.959  1.00  0.00    -0.348 N 
ATOM     76  C   UNL     1      30.517  22.999  22.004  1.00  0.00     0.217 C 
ATOM     77  H   UNL     1      28.773  22.738  23.171  1.00  0.00     0.163 HD
ATOM     78  C   UNL     1      30.025  24.219  21.313  1.00  0.00     0.114 C 
ATOM     79  O   UNL     1      31.639  22.518  21.765  1.00  0.00    -0.275 OA
ENDBRANCH   4  75
TORSDOF 31
