REMARK VINA RESULT:    -5.778      1.763      2.157
REMARK INTER + INTRA:         -21.258
REMARK INTER:                 -14.552
REMARK INTRA:                  -6.706
REMARK UNBOUND:                -7.035
REMARK SMILES CC(=O)N[C@@H]1[C@@H](O)C[C@](OC[C@H]2O[C@@H](O[C@H]3[C@H](O)[C@@H](O)[C@H](OCCN=[N+]=[N-])O[C@@H]3CO)[C@H](O)[C@@H](O)[C@H]2O)(C(=O)O)O[C@H]1C(O)[C@H](O)CNC(=O)OCc1cn([C@@H]2C[C@H]3CC[C@@H](C2)N3C)nn1
REMARK SMILES IDX 9 1 8 2 6 3 5 4 42 5 41 6 10 7 11 8 12 9 14 10 13 11 32 12
REMARK SMILES IDX 34 13 36 14 15 15 16 16 29 17 28 18 21 19 17 20 19 21 30 22
REMARK SMILES IDX 31 23 22 25 23 26 24 27 25 28 26 29 27 30 18 31 20 33 33 35
REMARK SMILES IDX 35 37 37 39 38 41 39 42 40 43 7 45 43 47 44 48 45 50 46 51
REMARK SMILES IDX 47 53 48 54 49 55 50 57 51 58 52 59 53 60 54 61 66 62 55 63
REMARK SMILES IDX 65 64 56 65 62 66 57 67 61 68 58 69 63 70 60 71 59 72 64 73
REMARK SMILES IDX 4 74 2 75 1 77 3 78
REMARK H PARENT 31 24 18 32 20 34 33 36 35 38 37 40 40 44 7 46 44 49 46 52
REMARK H PARENT 48 56 4 76
REMARK Flexibility Score: inf
ROOT
ATOM      1  C   UNL     1      23.629  25.740  23.708  1.00  0.00     0.272 C 
ATOM      2  C   UNL     1      22.913  24.678  24.441  1.00  0.00     0.113 C 
ATOM      3  C   UNL     1      21.515  25.117  24.852  1.00  0.00     0.145 C 
ATOM      4  C   UNL     1      21.609  26.452  25.627  1.00  0.00     0.142 C 
ATOM      5  C   UNL     1      22.571  27.377  24.996  1.00  0.00     0.178 C 
ATOM      6  O   UNL     1      22.843  26.925  23.721  1.00  0.00    -0.332 OA
ENDROOT
BRANCH   1   7
ATOM      7  O   UNL     1      24.101  25.555  22.458  1.00  0.00    -0.338 OA
BRANCH   7   8
ATOM      8  C   UNL     1      24.727  24.561  21.916  1.00  0.00     0.199 C 
BRANCH   8   9
ATOM      9  C   UNL     1      24.388  24.219  20.473  1.00  0.00     0.179 C 
ATOM     10  C   UNL     1      22.649  25.351  19.369  1.00  0.00     0.282 C 
ATOM     11  O   UNL     1      23.012  24.435  20.312  1.00  0.00    -0.341 OA
ATOM     12  C   UNL     1      23.202  25.081  18.010  1.00  0.00     0.202 C 
ATOM     13  C   UNL     1      24.678  24.924  18.125  1.00  0.00     0.179 C 
ATOM     14  C   UNL     1      25.198  25.034  19.516  1.00  0.00     0.177 C 
BRANCH  10  15
ATOM     15  O   UNL     1      22.785  26.664  19.785  1.00  0.00    -0.341 OA
BRANCH  15  16
ATOM     16  C   UNL     1      21.692  27.463  19.524  1.00  0.00     0.184 C 
ATOM     17  C   UNL     1      22.075  28.765  18.941  1.00  0.00     0.178 C 
ATOM     18  O   UNL     1      20.964  29.505  18.523  1.00  0.00    -0.341 OA
ATOM     19  C   UNL     1      19.758  29.028  19.039  1.00  0.00     0.281 C 
ATOM     20  C   UNL     1      21.020  27.837  20.888  1.00  0.00     0.180 C 
ATOM     21  C   UNL     1      19.827  28.651  20.505  1.00  0.00     0.202 C 
BRANCH  17  22
ATOM     22  C   UNL     1      23.110  28.762  17.872  1.00  0.00     0.191 C 
BRANCH  22  23
ATOM     23  O   UNL     1      24.384  28.654  18.425  1.00  0.00    -0.394 OA
ATOM     24  H   UNL     1      24.569  29.462  18.963  1.00  0.00     0.210 HD
ENDBRANCH  22  23
ENDBRANCH  17  22
BRANCH  19  25
ATOM     25  O   UNL     1      19.182  28.085  18.235  1.00  0.00    -0.350 OA
BRANCH  25  26
ATOM     26  C   UNL     1      18.551  28.458  17.101  1.00  0.00     0.169 C 
BRANCH  26  27
ATOM     27  C   UNL     1      17.278  29.197  17.288  1.00  0.00     0.119 C 
BRANCH  27  28
ATOM     28  N   UNL     1      16.265  28.510  18.011  1.00  0.00    -0.092 NA
ATOM     29  N   UNL     1      16.355  28.208  19.205  1.00  0.00     0.001 N 
ATOM     30  N   UNL     1      16.356  27.440  20.172  1.00  0.00    -0.003 NA
ENDBRANCH  27  28
ENDBRANCH  26  27
ENDBRANCH  25  26
ENDBRANCH  19  25
BRANCH  20  31
ATOM     31  O   UNL     1      20.624  26.714  21.568  1.00  0.00    -0.387 OA
ATOM     32  H   UNL     1      19.803  26.897  22.099  1.00  0.00     0.211 HD
ENDBRANCH  20  31
BRANCH  21  33
ATOM     33  O   UNL     1      19.764  29.822  21.267  1.00  0.00    -0.385 OA
ATOM     34  H   UNL     1      20.612  29.940  21.719  1.00  0.00     0.211 HD
ENDBRANCH  21  33
ENDBRANCH  15  16
ENDBRANCH  10  15
BRANCH  12  35
ATOM     35  O   UNL     1      22.634  23.892  17.506  1.00  0.00    -0.385 OA
ATOM     36  H   UNL     1      23.246  23.148  17.747  1.00  0.00     0.211 HD
ENDBRANCH  12  35
BRANCH  13  37
ATOM     37  O   UNL     1      25.349  25.880  17.326  1.00  0.00    -0.387 OA
ATOM     38  H   UNL     1      24.697  26.400  16.798  1.00  0.00     0.211 HD
ENDBRANCH  13  37
BRANCH  14  39
ATOM     39  O   UNL     1      25.319  26.381  19.877  1.00  0.00    -0.387 OA
ATOM     40  H   UNL     1      24.884  26.460  20.775  1.00  0.00     0.211 HD
ENDBRANCH  14  39
ENDBRANCH   8   9
ENDBRANCH   7   8
ENDBRANCH   1   7
BRANCH   1  41
ATOM     41  C   UNL     1      24.871  26.074  24.510  1.00  0.00     0.364 C 
ATOM     42  O   UNL     1      25.677  26.975  24.227  1.00  0.00    -0.246 OA
BRANCH  41  43
ATOM     43  O   UNL     1      25.165  25.337  25.661  1.00  0.00    -0.477 OA
ATOM     44  H   UNL     1      26.118  25.338  26.043  1.00  0.00     0.296 HD
ENDBRANCH  41  43
ENDBRANCH   1  41
BRANCH   3  45
ATOM     45  O   UNL     1      20.613  25.185  23.814  1.00  0.00    -0.391 OA
ATOM     46  H   UNL     1      21.104  25.493  22.993  1.00  0.00     0.211 HD
ENDBRANCH   3  45
BRANCH   5  47
ATOM     47  C   UNL     1      21.890  28.762  24.684  1.00  0.00     0.176 C 
BRANCH  47  48
ATOM     48  O   UNL     1      20.691  28.364  23.950  1.00  0.00    -0.388 OA
ATOM     49  H   UNL     1      20.305  27.609  24.489  1.00  0.00     0.211 HD
ENDBRANCH  47  48
BRANCH  47  50
ATOM     50  C   UNL     1      22.638  29.544  23.657  1.00  0.00     0.165 C 
BRANCH  50  51
ATOM     51  O   UNL     1      23.995  29.371  23.806  1.00  0.00    -0.388 OA
ATOM     52  H   UNL     1      24.337  29.433  24.712  1.00  0.00     0.211 HD
ENDBRANCH  50  51
BRANCH  50  53
ATOM     53  C   UNL     1      22.212  30.952  23.476  1.00  0.00     0.154 C 
BRANCH  53  54
ATOM     54  N   UNL     1      20.868  31.158  24.015  1.00  0.00    -0.319 N 
ATOM     55  C   UNL     1      20.140  32.317  23.722  1.00  0.00     0.407 C 
ATOM     56  H   UNL     1      20.472  30.421  24.616  1.00  0.00     0.167 HD
ATOM     57  O   UNL     1      20.669  33.193  22.977  1.00  0.00    -0.225 OA
BRANCH  55  58
ATOM     58  O   UNL     1      18.860  32.552  24.212  1.00  0.00    -0.443 OA
BRANCH  58  59
ATOM     59  C   UNL     1      18.239  31.625  25.094  1.00  0.00     0.294 C 
BRANCH  59  60
ATOM     60  C   UNL     1      17.241  30.806  24.338  1.00  0.00     0.120 A 
ATOM     61  C   UNL     1      15.867  30.874  24.425  1.00  0.00     0.138 A 
ATOM     62  N   UNL     1      17.496  29.856  23.445  1.00  0.00    -0.132 NA
ATOM     63  N   UNL     1      15.324  29.975  23.593  1.00  0.00    -0.249 N 
ATOM     64  N   UNL     1      16.367  29.362  23.003  1.00  0.00    -0.067 NA
BRANCH  63  65
ATOM     65  C   UNL     1      13.942  29.660  23.321  1.00  0.00     0.112 C 
ATOM     66  C   UNL     1      13.004  30.808  23.552  1.00  0.00     0.046 C 
ATOM     67  C   UNL     1      13.828  29.303  21.831  1.00  0.00     0.046 C 
ATOM     68  C   UNL     1      13.197  31.874  22.506  1.00  0.00     0.058 C 
ATOM     69  C   UNL     1      14.193  30.510  20.989  1.00  0.00     0.058 C 
ATOM     70  N   UNL     1      14.486  31.624  21.873  1.00  0.00    -0.300 NA
ATOM     71  C   UNL     1      12.219  31.741  21.369  1.00  0.00     0.021 C 
ATOM     72  C   UNL     1      12.960  31.026  20.273  1.00  0.00     0.021 C 
ATOM     73  C   UNL     1      14.863  32.806  21.160  1.00  0.00     0.105 C 
ENDBRANCH  63  65
ENDBRANCH  59  60
ENDBRANCH  58  59
ENDBRANCH  55  58
ENDBRANCH  53  54
ENDBRANCH  50  53
ENDBRANCH  47  50
ENDBRANCH   5  47
BRANCH   4  74
ATOM     74  N   UNL     1      21.883  26.109  27.028  1.00  0.00    -0.348 N 
ATOM     75  C   UNL     1      22.947  26.769  27.753  1.00  0.00     0.217 C 
ATOM     76  H   UNL     1      21.358  25.400  27.573  1.00  0.00     0.163 HD
ATOM     77  C   UNL     1      23.285  26.485  29.150  1.00  0.00     0.114 C 
ATOM     78  O   UNL     1      23.597  27.628  27.121  1.00  0.00    -0.275 OA
ENDBRANCH   4  74
TORSDOF 30
