REMARK VINA RESULT:    -6.122     11.145     15.238
REMARK INTER + INTRA:         -24.557
REMARK INTER:                 -18.343
REMARK INTRA:                  -6.214
REMARK UNBOUND:                -7.877
REMARK SMILES CC(=O)N[C@@H]1[C@@H](O)C[C@](OC[C@H]2O[C@@H](O[C@H]3[C@H](O)[C@@H](O)[C@H](OCCN=[N+]=[N-])O[C@@H]3CO)[C@H](O)[C@@H](O)[C@H]2O)(C(=O)O)O[C@H]1C(O)[C@H](O)CNC(=O)OCc1cn(CC(O)CCc2ccccc2)nn1
REMARK SMILES IDX 43 1 42 2 9 3 8 4 41 5 6 6 5 7 10 8 11 9 12 10 14 11 13 12
REMARK SMILES IDX 32 13 34 14 36 15 15 16 16 17 29 18 28 19 21 20 17 21 19 22
REMARK SMILES IDX 30 23 31 24 22 26 23 27 24 28 25 29 26 30 27 31 18 32 20 34
REMARK SMILES IDX 33 36 35 38 37 40 38 42 39 43 40 44 7 46 4 48 2 49 1 51 3 52
REMARK SMILES IDX 44 53 45 55 46 56 47 58 48 59 49 60 50 62 51 63 52 64 53 65
REMARK SMILES IDX 54 66 68 67 55 68 67 69 56 70 57 71 58 72 59 74 60 75 61 76
REMARK SMILES IDX 62 77 66 78 63 79 65 80 64 81
REMARK H PARENT 31 25 18 33 20 35 33 37 35 39 37 41 40 45 7 47 4 50 44 54
REMARK H PARENT 46 57 48 61 58 73
REMARK Flexibility Score: inf
ROOT
ATOM      1  C   UNL     1      33.600  20.568  30.164  1.00  0.00     0.176 C 
ENDROOT
BRANCH   1   2
ATOM      2  C   UNL     1      34.250  19.205  29.858  1.00  0.00     0.178 C 
ATOM      3  C   UNL     1      33.933  17.875  27.920  1.00  0.00     0.272 C 
ATOM      4  C   UNL     1      32.723  17.321  28.598  1.00  0.00     0.113 C 
ATOM      5  O   UNL     1      34.300  19.042  28.535  1.00  0.00    -0.332 OA
ATOM      6  C   UNL     1      32.989  17.043  30.034  1.00  0.00     0.145 C 
ATOM      7  C   UNL     1      33.644  18.188  30.747  1.00  0.00     0.142 C 
BRANCH   3   8
ATOM      8  O   UNL     1      33.690  18.063  26.545  1.00  0.00    -0.338 OA
BRANCH   8   9
ATOM      9  C   UNL     1      34.437  18.995  25.918  1.00  0.00     0.199 C 
BRANCH   9  10
ATOM     10  C   UNL     1      33.605  19.765  24.864  1.00  0.00     0.179 C 
ATOM     11  C   UNL     1      31.675  19.807  23.673  1.00  0.00     0.282 C 
ATOM     12  O   UNL     1      32.526  19.068  24.454  1.00  0.00    -0.341 OA
ATOM     13  C   UNL     1      31.187  20.957  24.598  1.00  0.00     0.202 C 
ATOM     14  C   UNL     1      32.396  21.898  24.603  1.00  0.00     0.179 C 
ATOM     15  C   UNL     1      33.443  21.148  25.379  1.00  0.00     0.177 C 
BRANCH  11  16
ATOM     16  O   UNL     1      30.588  19.094  23.309  1.00  0.00    -0.341 OA
BRANCH  16  17
ATOM     17  C   UNL     1      30.171  19.111  21.999  1.00  0.00     0.184 C 
ATOM     18  C   UNL     1      30.879  20.121  21.158  1.00  0.00     0.178 C 
ATOM     19  O   UNL     1      30.115  21.040  20.510  1.00  0.00    -0.341 OA
ATOM     20  C   UNL     1      28.863  20.678  20.112  1.00  0.00     0.281 C 
ATOM     21  C   UNL     1      28.672  19.188  22.014  1.00  0.00     0.180 C 
ATOM     22  C   UNL     1      28.061  20.370  21.353  1.00  0.00     0.202 C 
BRANCH  18  23
ATOM     23  C   UNL     1      31.714  19.406  20.118  1.00  0.00     0.191 C 
BRANCH  23  24
ATOM     24  O   UNL     1      32.048  18.118  20.530  1.00  0.00    -0.394 OA
ATOM     25  H   UNL     1      31.236  17.763  21.002  1.00  0.00     0.210 HD
ENDBRANCH  23  24
ENDBRANCH  18  23
BRANCH  20  26
ATOM     26  O   UNL     1      28.837  19.645  19.189  1.00  0.00    -0.350 OA
BRANCH  26  27
ATOM     27  C   UNL     1      28.380  20.128  17.961  1.00  0.00     0.169 C 
BRANCH  27  28
ATOM     28  C   UNL     1      28.941  19.198  16.887  1.00  0.00     0.119 C 
BRANCH  28  29
ATOM     29  N   UNL     1      30.365  19.346  16.759  1.00  0.00    -0.092 NA
ATOM     30  N   UNL     1      31.085  18.326  16.758  1.00  0.00     0.001 N 
ATOM     31  N   UNL     1      31.801  17.348  17.044  1.00  0.00    -0.003 NA
ENDBRANCH  28  29
ENDBRANCH  27  28
ENDBRANCH  26  27
ENDBRANCH  20  26
BRANCH  21  32
ATOM     32  O   UNL     1      28.095  18.052  21.386  1.00  0.00    -0.387 OA
ATOM     33  H   UNL     1      27.267  18.277  20.904  1.00  0.00     0.211 HD
ENDBRANCH  21  32
BRANCH  22  34
ATOM     34  O   UNL     1      28.116  21.494  22.182  1.00  0.00    -0.385 OA
ATOM     35  H   UNL     1      28.065  21.260  23.131  1.00  0.00     0.211 HD
ENDBRANCH  22  34
ENDBRANCH  16  17
ENDBRANCH  11  16
BRANCH  13  36
ATOM     36  O   UNL     1      30.038  21.543  24.180  1.00  0.00    -0.385 OA
ATOM     37  H   UNL     1      29.923  21.697  23.228  1.00  0.00     0.211 HD
ENDBRANCH  13  36
BRANCH  14  38
ATOM     38  O   UNL     1      32.076  23.120  25.189  1.00  0.00    -0.387 OA
ATOM     39  H   UNL     1      31.509  23.652  24.586  1.00  0.00     0.211 HD
ENDBRANCH  14  38
BRANCH  15  40
ATOM     40  O   UNL     1      33.001  21.117  26.706  1.00  0.00    -0.387 OA
ATOM     41  H   UNL     1      33.659  21.529  27.313  1.00  0.00     0.211 HD
ENDBRANCH  15  40
ENDBRANCH   9  10
ENDBRANCH   8   9
ENDBRANCH   3   8
BRANCH   3  42
ATOM     42  C   UNL     1      35.007  16.852  27.939  1.00  0.00     0.364 C 
ATOM     43  O   UNL     1      34.811  15.752  27.349  1.00  0.00    -0.246 OA
BRANCH  42  44
ATOM     44  O   UNL     1      36.210  17.032  28.565  1.00  0.00    -0.477 OA
ATOM     45  H   UNL     1      36.236  17.196  29.560  1.00  0.00     0.296 HD
ENDBRANCH  42  44
ENDBRANCH   3  42
BRANCH   6  46
ATOM     46  O   UNL     1      31.724  16.730  30.603  1.00  0.00    -0.391 OA
ATOM     47  H   UNL     1      31.412  15.843  30.335  1.00  0.00     0.211 HD
ENDBRANCH   6  46
BRANCH   7  48
ATOM     48  N   UNL     1      34.541  17.765  31.792  1.00  0.00    -0.348 N 
ATOM     49  C   UNL     1      34.648  18.413  33.053  1.00  0.00     0.217 C 
ATOM     50  H   UNL     1      35.179  16.926  31.647  1.00  0.00     0.163 HD
ATOM     51  C   UNL     1      35.604  17.879  34.046  1.00  0.00     0.114 C 
ATOM     52  O   UNL     1      33.957  19.403  33.316  1.00  0.00    -0.275 OA
ENDBRANCH   7  48
ENDBRANCH   1   2
BRANCH   1  53
ATOM     53  O   UNL     1      32.607  20.834  29.242  1.00  0.00    -0.388 OA
ATOM     54  H   UNL     1      32.505  21.797  29.049  1.00  0.00     0.211 HD
ENDBRANCH   1  53
BRANCH   1  55
ATOM     55  C   UNL     1      34.553  21.669  30.439  1.00  0.00     0.165 C 
BRANCH  55  56
ATOM     56  O   UNL     1      34.428  22.092  31.738  1.00  0.00    -0.388 OA
ATOM     57  H   UNL     1      35.202  21.881  32.296  1.00  0.00     0.211 HD
ENDBRANCH  55  56
BRANCH  55  58
ATOM     58  C   UNL     1      34.247  22.784  29.465  1.00  0.00     0.154 C 
BRANCH  58  59
ATOM     59  N   UNL     1      33.240  23.703  29.840  1.00  0.00    -0.319 N 
ATOM     60  C   UNL     1      32.067  24.049  29.117  1.00  0.00     0.407 C 
ATOM     61  H   UNL     1      33.322  24.229  30.778  1.00  0.00     0.167 HD
ATOM     62  O   UNL     1      31.821  23.513  28.031  1.00  0.00    -0.225 OA
BRANCH  60  63
ATOM     63  O   UNL     1      31.177  24.991  29.610  1.00  0.00    -0.443 OA
BRANCH  63  64
ATOM     64  C   UNL     1      30.347  25.828  28.894  1.00  0.00     0.294 C 
BRANCH  64  65
ATOM     65  C   UNL     1      28.922  25.838  29.258  1.00  0.00     0.120 A 
ATOM     66  C   UNL     1      27.946  26.720  28.810  1.00  0.00     0.138 A 
ATOM     67  N   UNL     1      28.315  25.004  30.128  1.00  0.00    -0.132 NA
ATOM     68  N   UNL     1      26.817  26.380  29.425  1.00  0.00    -0.250 N 
ATOM     69  N   UNL     1      27.049  25.355  30.207  1.00  0.00    -0.067 NA
BRANCH  68  70
ATOM     70  C   UNL     1      25.534  27.104  29.227  1.00  0.00     0.177 C 
BRANCH  70  71
ATOM     71  C   UNL     1      24.597  26.130  28.597  1.00  0.00     0.136 C 
BRANCH  71  72
ATOM     72  O   UNL     1      24.392  25.003  29.411  1.00  0.00    -0.391 OA
ATOM     73  H   UNL     1      24.956  24.247  29.145  1.00  0.00     0.211 HD
ENDBRANCH  71  72
BRANCH  71  74
ATOM     74  C   UNL     1      24.941  25.725  27.218  1.00  0.00     0.038 C 
BRANCH  74  75
ATOM     75  C   UNL     1      24.399  24.520  26.600  1.00  0.00     0.038 C 
BRANCH  75  76
ATOM     76  C   UNL     1      23.686  24.601  25.343  1.00  0.00    -0.048 A 
ATOM     77  C   UNL     1      22.295  24.637  25.310  1.00  0.00     0.004 A 
ATOM     78  C   UNL     1      24.356  24.567  24.119  1.00  0.00     0.004 A 
ATOM     79  C   UNL     1      21.625  24.638  24.122  1.00  0.00     0.000 A 
ATOM     80  C   UNL     1      23.651  24.569  22.940  1.00  0.00     0.000 A 
ATOM     81  C   UNL     1      22.264  24.603  22.907  1.00  0.00     0.000 A 
ENDBRANCH  75  76
ENDBRANCH  74  75
ENDBRANCH  71  74
ENDBRANCH  70  71
ENDBRANCH  68  70
ENDBRANCH  64  65
ENDBRANCH  63  64
ENDBRANCH  60  63
ENDBRANCH  58  59
ENDBRANCH  55  58
ENDBRANCH   1  55
TORSDOF 35
