REMARK VINA RESULT:    -5.802      2.578      6.900
REMARK INTER + INTRA:         -22.769
REMARK INTER:                 -14.421
REMARK INTRA:                  -8.349
REMARK UNBOUND:                -8.149
REMARK SMILES CC(=O)N[C@@H]1[C@@H](O)C[C@](OC[C@H]2O[C@@H](O[C@H]3[C@H](O)[C@@H](O)[C@H](OCCN=[N+]=[N-])O[C@@H]3CO)[C@H](O)[C@@H](O)[C@H]2O)(C(=O)O)O[C@H]1C(O)[C@H](O)CNC(=O)OCc1cn(Cc2ccc3c(c2)OCO3)nn1
REMARK SMILES IDX 9 1 8 2 6 3 5 4 42 5 41 6 10 7 11 8 12 9 14 10 13 11 32 12
REMARK SMILES IDX 34 13 36 14 15 15 16 16 29 17 28 18 21 19 17 20 19 21 30 22
REMARK SMILES IDX 31 23 22 25 23 26 24 27 25 28 26 29 27 30 18 31 20 33 33 35
REMARK SMILES IDX 35 37 37 39 38 41 39 42 40 43 7 45 43 47 44 48 45 50 46 51
REMARK SMILES IDX 47 53 48 54 49 55 50 57 51 58 52 59 53 60 54 61 67 62 55 63
REMARK SMILES IDX 66 64 56 65 57 66 58 67 62 68 59 69 61 70 60 71 63 72 65 73
REMARK SMILES IDX 64 74 4 75 2 76 1 78 3 79
REMARK H PARENT 31 24 18 32 20 34 33 36 35 38 37 40 40 44 7 46 44 49 46 52
REMARK H PARENT 48 56 4 77
REMARK Flexibility Score: inf
ROOT
ATOM      1  C   UNL     1      15.649  30.140  20.293  1.00  0.00     0.272 C 
ATOM      2  C   UNL     1      15.146  29.158  19.253  1.00  0.00     0.113 C 
ATOM      3  C   UNL     1      16.091  27.997  19.167  1.00  0.00     0.145 C 
ATOM      4  C   UNL     1      17.447  28.578  18.689  1.00  0.00     0.142 C 
ATOM      5  C   UNL     1      17.816  29.669  19.628  1.00  0.00     0.178 C 
ATOM      6  O   UNL     1      16.929  29.839  20.689  1.00  0.00    -0.332 OA
ENDROOT
BRANCH   1   7
ATOM      7  O   UNL     1      14.769  30.191  21.386  1.00  0.00    -0.338 OA
BRANCH   7   8
ATOM      8  C   UNL     1      13.543  29.642  21.212  1.00  0.00     0.199 C 
BRANCH   8   9
ATOM      9  C   UNL     1      12.607  30.182  22.305  1.00  0.00     0.179 C 
ATOM     10  C   UNL     1      12.553  30.829  24.512  1.00  0.00     0.282 C 
ATOM     11  O   UNL     1      13.251  30.151  23.513  1.00  0.00    -0.341 OA
ATOM     12  C   UNL     1      12.540  32.319  24.159  1.00  0.00     0.202 C 
ATOM     13  C   UNL     1      12.576  32.593  22.699  1.00  0.00     0.179 C 
ATOM     14  C   UNL     1      11.978  31.472  21.920  1.00  0.00     0.177 C 
BRANCH  10  15
ATOM     15  O   UNL     1      13.208  30.707  25.672  1.00  0.00    -0.341 OA
BRANCH  15  16
ATOM     16  C   UNL     1      14.272  31.502  25.974  1.00  0.00     0.184 C 
ATOM     17  C   UNL     1      15.611  30.873  25.709  1.00  0.00     0.178 C 
ATOM     18  O   UNL     1      16.334  30.659  26.836  1.00  0.00    -0.341 OA
ATOM     19  C   UNL     1      16.663  31.806  27.586  1.00  0.00     0.281 C 
ATOM     20  C   UNL     1      14.170  31.936  27.413  1.00  0.00     0.180 C 
ATOM     21  C   UNL     1      15.442  32.678  27.769  1.00  0.00     0.202 C 
BRANCH  17  22
ATOM     22  C   UNL     1      16.385  31.749  24.756  1.00  0.00     0.191 C 
BRANCH  22  23
ATOM     23  O   UNL     1      15.998  31.484  23.416  1.00  0.00    -0.394 OA
ATOM     24  H   UNL     1      15.562  30.606  23.321  1.00  0.00     0.210 HD
ENDBRANCH  22  23
ENDBRANCH  17  22
BRANCH  19  25
ATOM     25  O   UNL     1      17.750  32.443  27.078  1.00  0.00    -0.350 OA
BRANCH  25  26
ATOM     26  C   UNL     1      19.005  32.116  27.375  1.00  0.00     0.169 C 
BRANCH  26  27
ATOM     27  C   UNL     1      20.029  33.202  27.264  1.00  0.00     0.119 C 
BRANCH  27  28
ATOM     28  N   UNL     1      20.678  33.329  26.008  1.00  0.00    -0.092 NA
ATOM     29  N   UNL     1      20.132  33.720  24.980  1.00  0.00     0.001 N 
ATOM     30  N   UNL     1      19.362  33.730  24.004  1.00  0.00    -0.003 NA
ENDBRANCH  27  28
ENDBRANCH  26  27
ENDBRANCH  25  26
ENDBRANCH  19  25
BRANCH  20  31
ATOM     31  O   UNL     1      13.094  32.812  27.523  1.00  0.00    -0.387 OA
ATOM     32  H   UNL     1      12.462  32.713  26.764  1.00  0.00     0.211 HD
ENDBRANCH  20  31
BRANCH  21  33
ATOM     33  O   UNL     1      15.307  33.056  29.102  1.00  0.00    -0.385 OA
ATOM     34  H   UNL     1      16.131  32.823  29.609  1.00  0.00     0.211 HD
ENDBRANCH  21  33
ENDBRANCH  15  16
ENDBRANCH  10  15
BRANCH  12  35
ATOM     35  O   UNL     1      11.447  32.945  24.756  1.00  0.00    -0.385 OA
ATOM     36  H   UNL     1      10.877  32.295  25.200  1.00  0.00     0.211 HD
ENDBRANCH  12  35
BRANCH  13  37
ATOM     37  O   UNL     1      13.833  32.942  22.230  1.00  0.00    -0.387 OA
ATOM     38  H   UNL     1      13.753  33.215  21.280  1.00  0.00     0.211 HD
ENDBRANCH  13  37
BRANCH  14  39
ATOM     39  O   UNL     1      12.168  31.749  20.558  1.00  0.00    -0.387 OA
ATOM     40  H   UNL     1      12.611  30.981  20.149  1.00  0.00     0.211 HD
ENDBRANCH  14  39
ENDBRANCH   8   9
ENDBRANCH   7   8
ENDBRANCH   1   7
BRANCH   1  41
ATOM     41  C   UNL     1      15.613  31.501  19.727  1.00  0.00     0.364 C 
ATOM     42  O   UNL     1      15.784  32.523  20.403  1.00  0.00    -0.246 OA
BRANCH  41  43
ATOM     43  O   UNL     1      15.380  31.710  18.364  1.00  0.00    -0.477 OA
ATOM     44  H   UNL     1      15.412  30.914  17.704  1.00  0.00     0.296 HD
ENDBRANCH  41  43
ENDBRANCH   1  41
BRANCH   3  45
ATOM     45  O   UNL     1      16.362  27.340  20.332  1.00  0.00    -0.391 OA
ATOM     46  H   UNL     1      15.836  27.656  21.109  1.00  0.00     0.211 HD
ENDBRANCH   3  45
BRANCH   5  47
ATOM     47  C   UNL     1      19.148  29.333  20.341  1.00  0.00     0.176 C 
BRANCH  47  48
ATOM     48  O   UNL     1      19.261  28.012  20.653  1.00  0.00    -0.388 OA
ATOM     49  H   UNL     1      19.202  27.888  21.629  1.00  0.00     0.211 HD
ENDBRANCH  47  48
BRANCH  47  50
ATOM     50  C   UNL     1      20.351  29.925  19.750  1.00  0.00     0.165 C 
BRANCH  50  51
ATOM     51  O   UNL     1      20.964  29.164  18.746  1.00  0.00    -0.388 OA
ATOM     52  H   UNL     1      21.544  28.464  19.143  1.00  0.00     0.211 HD
ENDBRANCH  50  51
BRANCH  50  53
ATOM     53  C   UNL     1      21.431  30.361  20.703  1.00  0.00     0.154 C 
BRANCH  53  54
ATOM     54  N   UNL     1      20.993  29.990  22.059  1.00  0.00    -0.319 N 
ATOM     55  C   UNL     1      21.414  30.719  23.209  1.00  0.00     0.407 C 
ATOM     56  H   UNL     1      20.367  29.184  22.158  1.00  0.00     0.167 HD
ATOM     57  O   UNL     1      22.181  31.699  23.017  1.00  0.00    -0.225 OA
BRANCH  55  58
ATOM     58  O   UNL     1      21.022  30.398  24.486  1.00  0.00    -0.443 OA
BRANCH  58  59
ATOM     59  C   UNL     1      21.817  29.573  25.304  1.00  0.00     0.294 C 
BRANCH  59  60
ATOM     60  C   UNL     1      21.415  28.163  25.085  1.00  0.00     0.120 A 
ATOM     61  C   UNL     1      22.217  27.089  24.714  1.00  0.00     0.138 A 
ATOM     62  N   UNL     1      20.177  27.641  25.192  1.00  0.00    -0.132 NA
ATOM     63  N   UNL     1      21.452  25.985  24.616  1.00  0.00    -0.248 N 
ATOM     64  N   UNL     1      20.229  26.347  24.908  1.00  0.00    -0.067 NA
BRANCH  63  65
ATOM     65  C   UNL     1      21.915  24.677  24.263  1.00  0.00     0.181 C 
BRANCH  65  66
ATOM     66  C   UNL     1      22.628  24.613  22.965  1.00  0.00    -0.023 A 
ATOM     67  C   UNL     1      23.951  24.299  22.927  1.00  0.00     0.010 A 
ATOM     68  C   UNL     1      21.943  24.880  21.774  1.00  0.00     0.056 A 
ATOM     69  C   UNL     1      24.591  24.248  21.715  1.00  0.00     0.051 A 
ATOM     70  C   UNL     1      22.570  24.834  20.559  1.00  0.00     0.166 A 
ATOM     71  C   UNL     1      23.915  24.511  20.554  1.00  0.00     0.165 A 
ATOM     72  O   UNL     1      22.210  25.033  19.240  1.00  0.00    -0.454 OA
ATOM     73  O   UNL     1      24.377  24.513  19.232  1.00  0.00    -0.454 OA
ATOM     74  C   UNL     1      23.228  24.476  18.413  1.00  0.00     0.468 C 
ENDBRANCH  65  66
ENDBRANCH  63  65
ENDBRANCH  59  60
ENDBRANCH  58  59
ENDBRANCH  55  58
ENDBRANCH  53  54
ENDBRANCH  50  53
ENDBRANCH  47  50
ENDBRANCH   5  47
BRANCH   4  75
ATOM     75  N   UNL     1      17.204  28.975  17.331  1.00  0.00    -0.348 N 
ATOM     76  C   UNL     1      18.217  28.699  16.352  1.00  0.00     0.217 C 
ATOM     77  H   UNL     1      16.362  29.448  16.956  1.00  0.00     0.163 HD
ATOM     78  C   UNL     1      17.991  29.107  14.923  1.00  0.00     0.114 C 
ATOM     79  O   UNL     1      19.280  28.123  16.685  1.00  0.00    -0.275 OA
ENDBRANCH   4  75
TORSDOF 31
