REMARK VINA RESULT:    -7.071      0.000      0.000
REMARK INTER + INTRA:         -22.641
REMARK INTER:                 -15.946
REMARK INTRA:                  -6.695
REMARK UNBOUND:                -4.822
REMARK SMILES CC(=O)N[C@@H]1[C@@H](O)C[C@](OC[C@H]2O[C@@H](O[C@H]3[C@H](O)[C@@H](O)[C@H](OCCN=[N+]=[N-])O[C@@H]3CO)[C@H](O)[C@@H](O)[C@H]2O)(C(=O)O)O[C@H]1C(O)[C@H](O)CNC(=O)OCc1cn(Cc2ccccc2Br)nn1
REMARK SMILES IDX 9 1 8 2 6 3 5 4 42 5 41 6 10 7 11 8 12 9 14 10 13 11 32 12
REMARK SMILES IDX 34 13 36 14 15 15 16 16 29 17 28 18 21 19 17 20 19 21 30 22
REMARK SMILES IDX 31 23 22 25 23 26 24 27 25 28 26 29 27 30 18 31 20 33 33 35
REMARK SMILES IDX 35 37 37 39 38 41 39 42 40 43 7 45 43 47 44 48 45 50 46 51
REMARK SMILES IDX 47 53 48 54 49 55 50 57 51 58 52 59 53 60 54 61 65 62 55 63
REMARK SMILES IDX 64 64 56 65 57 66 58 67 62 68 59 69 61 70 63 71 60 72 4 73
REMARK SMILES IDX 2 74 1 76 3 77
REMARK H PARENT 31 24 18 32 20 34 33 36 35 38 37 40 40 44 7 46 44 49 46 52
REMARK H PARENT 48 56 4 75
REMARK Flexibility Score: inf
ROOT
ATOM      1  C   UNL     1      21.971  22.326  12.519  1.00  0.00     0.272 C 
ATOM      2  C   UNL     1      20.520  22.049  12.553  1.00  0.00     0.113 C 
ATOM      3  C   UNL     1      20.122  21.079  11.499  1.00  0.00     0.145 C 
ATOM      4  C   UNL     1      20.916  19.814  11.662  1.00  0.00     0.142 C 
ATOM      5  C   UNL     1      22.303  20.023  12.136  1.00  0.00     0.178 C 
ATOM      6  O   UNL     1      22.555  21.052  12.974  1.00  0.00    -0.332 OA
ENDROOT
BRANCH   1   7
ATOM      7  O   UNL     1      22.420  23.217  13.422  1.00  0.00    -0.338 OA
BRANCH   7   8
ATOM      8  C   UNL     1      22.955  23.044  14.587  1.00  0.00     0.199 C 
BRANCH   8   9
ATOM      9  C   UNL     1      24.221  23.533  15.137  1.00  0.00     0.179 C 
ATOM     10  C   UNL     1      25.517  24.156  16.924  1.00  0.00     0.282 C 
ATOM     11  O   UNL     1      24.457  23.318  16.499  1.00  0.00    -0.341 OA
ATOM     12  C   UNL     1      26.785  23.503  16.448  1.00  0.00     0.202 C 
ATOM     13  C   UNL     1      26.715  23.162  15.000  1.00  0.00     0.179 C 
ATOM     14  C   UNL     1      25.438  23.508  14.286  1.00  0.00     0.177 C 
BRANCH  10  15
ATOM     15  O   UNL     1      25.424  24.240  18.281  1.00  0.00    -0.341 OA
BRANCH  15  16
ATOM     16  C   UNL     1      25.081  25.438  18.830  1.00  0.00     0.184 C 
ATOM     17  C   UNL     1      25.070  25.505  20.317  1.00  0.00     0.178 C 
ATOM     18  O   UNL     1      23.866  26.075  20.721  1.00  0.00    -0.341 OA
ATOM     19  C   UNL     1      22.856  25.160  20.330  1.00  0.00     0.281 C 
ATOM     20  C   UNL     1      23.789  26.007  18.263  1.00  0.00     0.180 C 
ATOM     21  C   UNL     1      22.581  25.311  18.858  1.00  0.00     0.202 C 
BRANCH  17  22
ATOM     22  C   UNL     1      26.176  26.406  20.864  1.00  0.00     0.191 C 
BRANCH  22  23
ATOM     23  O   UNL     1      27.395  26.107  20.256  1.00  0.00    -0.394 OA
ATOM     24  H   UNL     1      27.569  25.139  20.213  1.00  0.00     0.210 HD
ENDBRANCH  22  23
ENDBRANCH  17  22
BRANCH  19  25
ATOM     25  O   UNL     1      21.754  25.451  21.129  1.00  0.00    -0.350 OA
BRANCH  25  26
ATOM     26  C   UNL     1      21.513  24.444  22.065  1.00  0.00     0.169 C 
BRANCH  26  27
ATOM     27  C   UNL     1      21.242  25.112  23.402  1.00  0.00     0.119 C 
BRANCH  27  28
ATOM     28  N   UNL     1      22.122  24.524  24.380  1.00  0.00    -0.092 NA
ATOM     29  N   UNL     1      23.346  24.682  24.331  1.00  0.00     0.001 N 
ATOM     30  N   UNL     1      24.523  24.547  23.937  1.00  0.00    -0.003 NA
ENDBRANCH  27  28
ENDBRANCH  26  27
ENDBRANCH  25  26
ENDBRANCH  19  25
BRANCH  20  31
ATOM     31  O   UNL     1      23.658  27.359  18.588  1.00  0.00    -0.387 OA
ATOM     32  H   UNL     1      22.694  27.503  18.800  1.00  0.00     0.211 HD
ENDBRANCH  20  31
BRANCH  21  33
ATOM     33  O   UNL     1      22.262  24.141  18.220  1.00  0.00    -0.385 OA
ATOM     34  H   UNL     1      22.825  23.410  18.568  1.00  0.00     0.211 HD
ENDBRANCH  21  33
ENDBRANCH  15  16
ENDBRANCH  10  15
BRANCH  12  35
ATOM     35  O   UNL     1      27.886  24.361  16.599  1.00  0.00    -0.385 OA
ATOM     36  H   UNL     1      28.690  23.814  16.449  1.00  0.00     0.211 HD
ENDBRANCH  12  35
BRANCH  13  37
ATOM     37  O   UNL     1      26.938  21.786  14.846  1.00  0.00    -0.387 OA
ATOM     38  H   UNL     1      26.880  21.503  13.912  1.00  0.00     0.211 HD
ENDBRANCH  13  37
BRANCH  14  39
ATOM     39  O   UNL     1      25.335  22.636  13.212  1.00  0.00    -0.387 OA
ATOM     40  H   UNL     1      24.450  22.524  12.835  1.00  0.00     0.211 HD
ENDBRANCH  14  39
ENDBRANCH   8   9
ENDBRANCH   7   8
ENDBRANCH   1   7
BRANCH   1  41
ATOM     41  C   UNL     1      22.619  22.451  11.197  1.00  0.00     0.364 C 
ATOM     42  O   UNL     1      22.123  22.970  10.171  1.00  0.00    -0.246 OA
BRANCH  41  43
ATOM     43  O   UNL     1      23.901  21.950  11.038  1.00  0.00    -0.477 OA
ATOM     44  H   UNL     1      24.074  21.042  10.607  1.00  0.00     0.296 HD
ENDBRANCH  41  43
ENDBRANCH   1  41
BRANCH   3  45
ATOM     45  O   UNL     1      18.748  20.774  11.770  1.00  0.00    -0.391 OA
ATOM     46  H   UNL     1      18.637  20.484  12.697  1.00  0.00     0.211 HD
ENDBRANCH   3  45
BRANCH   5  47
ATOM     47  C   UNL     1      22.794  18.757  12.843  1.00  0.00     0.176 C 
BRANCH  47  48
ATOM     48  O   UNL     1      22.062  18.629  14.015  1.00  0.00    -0.388 OA
ATOM     49  H   UNL     1      22.324  19.257  14.710  1.00  0.00     0.211 HD
ENDBRANCH  47  48
BRANCH  47  50
ATOM     50  C   UNL     1      24.246  18.804  13.167  1.00  0.00     0.165 C 
BRANCH  50  51
ATOM     51  O   UNL     1      24.587  19.960  13.891  1.00  0.00    -0.388 OA
ATOM     52  H   UNL     1      23.819  20.586  13.917  1.00  0.00     0.211 HD
ENDBRANCH  50  51
BRANCH  50  53
ATOM     53  C   UNL     1      25.069  18.860  11.907  1.00  0.00     0.154 C 
BRANCH  53  54
ATOM     54  N   UNL     1      26.416  18.494  12.167  1.00  0.00    -0.319 N 
ATOM     55  C   UNL     1      27.471  19.415  12.334  1.00  0.00     0.407 C 
ATOM     56  H   UNL     1      26.638  17.458  12.239  1.00  0.00     0.167 HD
ATOM     57  O   UNL     1      27.276  20.655  12.264  1.00  0.00    -0.225 OA
BRANCH  55  58
ATOM     58  O   UNL     1      28.780  18.987  12.587  1.00  0.00    -0.443 OA
BRANCH  58  59
ATOM     59  C   UNL     1      29.104  18.230  13.722  1.00  0.00     0.294 C 
BRANCH  59  60
ATOM     60  C   UNL     1      28.819  18.908  15.007  1.00  0.00     0.120 A 
ATOM     61  C   UNL     1      29.805  19.492  15.818  1.00  0.00     0.138 A 
ATOM     62  N   UNL     1      27.664  19.108  15.647  1.00  0.00    -0.132 NA
ATOM     63  N   UNL     1      29.207  20.006  16.887  1.00  0.00    -0.248 N 
ATOM     64  N   UNL     1      27.899  19.761  16.765  1.00  0.00    -0.067 NA
BRANCH  63  65
ATOM     65  C   UNL     1      29.791  20.729  18.017  1.00  0.00     0.182 C 
BRANCH  65  66
ATOM     66  C   UNL     1      29.372  20.203  19.334  1.00  0.00    -0.012 A 
ATOM     67  C   UNL     1      29.737  18.882  19.641  1.00  0.00     0.007 A 
ATOM     68  C   UNL     1      28.637  20.906  20.249  1.00  0.00     0.023 A 
ATOM     69  C   UNL     1      29.347  18.348  20.831  1.00  0.00     0.000 A 
ATOM     70  C   UNL     1      28.246  20.348  21.456  1.00  0.00     0.016 A 
ATOM     71  Br  UNL     1      28.163  22.716  19.921  1.00  0.00    -0.050 Br
ATOM     72  C   UNL     1      28.610  19.058  21.739  1.00  0.00     0.001 A 
ENDBRANCH  65  66
ENDBRANCH  63  65
ENDBRANCH  59  60
ENDBRANCH  58  59
ENDBRANCH  55  58
ENDBRANCH  53  54
ENDBRANCH  50  53
ENDBRANCH  47  50
ENDBRANCH   5  47
BRANCH   4  73
ATOM     73  N   UNL     1      20.917  19.098  10.413  1.00  0.00    -0.348 N 
ATOM     74  C   UNL     1      19.913  18.152  10.049  1.00  0.00     0.217 C 
ATOM     75  H   UNL     1      21.665  19.235   9.700  1.00  0.00     0.163 HD
ATOM     76  C   UNL     1      19.978  17.442   8.733  1.00  0.00     0.114 C 
ATOM     77  O   UNL     1      18.993  17.938  10.850  1.00  0.00    -0.275 OA
ENDBRANCH   4  73
TORSDOF 31
