REMARK VINA RESULT:    -6.082     11.600     16.978
REMARK INTER + INTRA:         -21.910
REMARK INTER:                 -13.608
REMARK INTRA:                  -8.302
REMARK UNBOUND:                -6.939
REMARK SMILES CC(=O)N[C@@H]1[C@@H](O)C[C@](OC[C@H]2O[C@@H](O[C@H]3[C@H](O)[C@@H](O)[C@H](OCCN=[N+]=[N-])O[C@@H]3CO)[C@H](O)[C@@H](O)[C@H]2O)(C(=O)O)O[C@H]1C(O)[C@H](O)CNC(=O)OCc1cn([C@H]2C[C@H]3CC[C@@H](C2)N3C)nn1
REMARK SMILES IDX 9 1 8 2 6 3 5 4 42 5 41 6 10 7 11 8 12 9 14 10 13 11 32 12
REMARK SMILES IDX 34 13 36 14 15 15 16 16 29 17 28 18 21 19 17 20 19 21 30 22
REMARK SMILES IDX 31 23 22 25 23 26 24 27 25 28 26 29 27 30 18 31 20 33 33 35
REMARK SMILES IDX 35 37 37 39 38 41 39 42 40 43 7 45 43 47 44 48 45 50 46 51
REMARK SMILES IDX 47 53 48 54 49 55 50 57 51 58 52 59 53 60 54 61 66 62 55 63
REMARK SMILES IDX 65 64 56 65 62 66 57 67 61 68 58 69 63 70 60 71 59 72 64 73
REMARK SMILES IDX 4 74 2 75 1 77 3 78
REMARK H PARENT 31 24 18 32 20 34 33 36 35 38 37 40 40 44 7 46 44 49 46 52
REMARK H PARENT 48 56 4 76
REMARK Flexibility Score: inf
ROOT
ATOM      1  C   UNL     1       2.945  21.633  31.302  1.00  0.00     0.272 C 
ATOM      2  C   UNL     1       2.129  21.150  32.487  1.00  0.00     0.113 C 
ATOM      3  C   UNL     1       1.883  22.185  33.543  1.00  0.00     0.145 C 
ATOM      4  C   UNL     1       3.042  23.109  33.577  1.00  0.00     0.142 C 
ATOM      5  C   UNL     1       4.268  22.323  33.102  1.00  0.00     0.178 C 
ATOM      6  O   UNL     1       4.064  22.331  31.662  1.00  0.00    -0.332 OA
ENDROOT
BRANCH   1   7
ATOM      7  O   UNL     1       2.109  22.299  30.456  1.00  0.00    -0.338 OA
BRANCH   7   8
ATOM      8  C   UNL     1       2.459  23.503  29.964  1.00  0.00     0.199 C 
BRANCH   8   9
ATOM      9  C   UNL     1       2.030  23.878  28.595  1.00  0.00     0.179 C 
ATOM     10  C   UNL     1       2.688  25.268  26.941  1.00  0.00     0.282 C 
ATOM     11  O   UNL     1       3.176  24.347  27.876  1.00  0.00    -0.341 OA
ATOM     12  C   UNL     1       1.627  24.736  26.075  1.00  0.00     0.202 C 
ATOM     13  C   UNL     1       0.972  23.463  26.455  1.00  0.00     0.179 C 
ATOM     14  C   UNL     1       1.494  22.801  27.711  1.00  0.00     0.177 C 
BRANCH  10  15
ATOM     15  O   UNL     1       3.784  25.732  26.254  1.00  0.00    -0.341 OA
BRANCH  15  16
ATOM     16  C   UNL     1       4.050  27.079  26.516  1.00  0.00     0.184 C 
ATOM     17  C   UNL     1       3.869  27.991  25.348  1.00  0.00     0.178 C 
ATOM     18  O   UNL     1       4.848  28.000  24.407  1.00  0.00    -0.341 OA
ATOM     19  C   UNL     1       6.113  28.008  24.885  1.00  0.00     0.281 C 
ATOM     20  C   UNL     1       5.475  27.108  27.022  1.00  0.00     0.180 C 
ATOM     21  C   UNL     1       6.338  26.805  25.799  1.00  0.00     0.202 C 
BRANCH  17  22
ATOM     22  C   UNL     1       3.412  29.385  25.797  1.00  0.00     0.191 C 
BRANCH  22  23
ATOM     23  O   UNL     1       3.196  29.486  27.152  1.00  0.00    -0.394 OA
ATOM     24  H   UNL     1       3.037  28.619  27.581  1.00  0.00     0.210 HD
ENDBRANCH  22  23
ENDBRANCH  17  22
BRANCH  19  25
ATOM     25  O   UNL     1       6.590  29.167  25.422  1.00  0.00    -0.350 OA
BRANCH  25  26
ATOM     26  C   UNL     1       6.845  30.209  24.586  1.00  0.00     0.169 C 
BRANCH  26  27
ATOM     27  C   UNL     1       6.398  31.516  25.147  1.00  0.00     0.119 C 
BRANCH  27  28
ATOM     28  N   UNL     1       6.989  31.768  26.469  1.00  0.00    -0.092 NA
ATOM     29  N   UNL     1       6.284  31.688  27.490  1.00  0.00     0.001 N 
ATOM     30  N   UNL     1       5.644  31.091  28.377  1.00  0.00    -0.003 NA
ENDBRANCH  27  28
ENDBRANCH  26  27
ENDBRANCH  25  26
ENDBRANCH  19  25
BRANCH  20  31
ATOM     31  O   UNL     1       5.851  28.318  27.553  1.00  0.00    -0.387 OA
ATOM     32  H   UNL     1       6.792  28.363  27.787  1.00  0.00     0.211 HD
ENDBRANCH  20  31
BRANCH  21  33
ATOM     33  O   UNL     1       5.913  25.642  25.162  1.00  0.00    -0.385 OA
ATOM     34  H   UNL     1       6.733  25.136  24.913  1.00  0.00     0.211 HD
ENDBRANCH  21  33
ENDBRANCH  15  16
ENDBRANCH  10  15
BRANCH  12  35
ATOM     35  O   UNL     1       0.616  25.728  25.993  1.00  0.00    -0.385 OA
ATOM     36  H   UNL     1       0.704  26.408  26.695  1.00  0.00     0.211 HD
ENDBRANCH  12  35
BRANCH  13  37
ATOM     37  O   UNL     1       1.088  22.497  25.424  1.00  0.00    -0.387 OA
ATOM     38  H   UNL     1       1.575  21.705  25.820  1.00  0.00     0.211 HD
ENDBRANCH  13  37
BRANCH  14  39
ATOM     39  O   UNL     1       2.559  21.969  27.288  1.00  0.00    -0.387 OA
ATOM     40  H   UNL     1       2.312  21.746  26.336  1.00  0.00     0.211 HD
ENDBRANCH  14  39
ENDBRANCH   8   9
ENDBRANCH   7   8
ENDBRANCH   1   7
BRANCH   1  41
ATOM     41  C   UNL     1       3.420  20.367  30.658  1.00  0.00     0.364 C 
ATOM     42  O   UNL     1       2.694  19.385  30.541  1.00  0.00    -0.246 OA
BRANCH  41  43
ATOM     43  O   UNL     1       4.728  20.270  30.164  1.00  0.00    -0.477 OA
ATOM     44  H   UNL     1       5.074  19.322  29.959  1.00  0.00     0.296 HD
ENDBRANCH  41  43
ENDBRANCH   1  41
BRANCH   3  45
ATOM     45  O   UNL     1       0.681  22.841  33.183  1.00  0.00    -0.391 OA
ATOM     46  H   UNL     1       0.858  23.797  32.995  1.00  0.00     0.211 HD
ENDBRANCH   3  45
BRANCH   5  47
ATOM     47  C   UNL     1       5.563  22.990  33.345  1.00  0.00     0.176 C 
BRANCH  47  48
ATOM     48  O   UNL     1       5.599  24.135  32.438  1.00  0.00    -0.388 OA
ATOM     49  H   UNL     1       6.338  24.723  32.740  1.00  0.00     0.211 HD
ENDBRANCH  47  48
BRANCH  47  50
ATOM     50  C   UNL     1       6.793  22.258  32.828  1.00  0.00     0.165 C 
BRANCH  50  51
ATOM     51  O   UNL     1       6.405  20.901  32.711  1.00  0.00    -0.388 OA
ATOM     52  H   UNL     1       5.841  20.757  31.912  1.00  0.00     0.211 HD
ENDBRANCH  50  51
BRANCH  50  53
ATOM     53  C   UNL     1       8.037  22.367  33.612  1.00  0.00     0.154 C 
BRANCH  53  54
ATOM     54  N   UNL     1       7.812  23.424  34.619  1.00  0.00    -0.319 N 
ATOM     55  C   UNL     1       8.821  24.365  34.940  1.00  0.00     0.407 C 
ATOM     56  H   UNL     1       6.892  23.464  35.093  1.00  0.00     0.167 HD
ATOM     57  O   UNL     1       9.936  24.298  34.331  1.00  0.00    -0.225 OA
BRANCH  55  58
ATOM     58  O   UNL     1       8.596  25.342  35.897  1.00  0.00    -0.443 OA
BRANCH  58  59
ATOM     59  C   UNL     1       8.325  26.655  35.461  1.00  0.00     0.294 C 
BRANCH  59  60
ATOM     60  C   UNL     1       6.996  26.807  34.836  1.00  0.00     0.120 A 
ATOM     61  C   UNL     1       6.630  27.852  34.012  1.00  0.00     0.138 A 
ATOM     62  N   UNL     1       5.910  26.033  34.934  1.00  0.00    -0.132 NA
ATOM     63  N   UNL     1       5.355  27.697  33.635  1.00  0.00    -0.249 N 
ATOM     64  N   UNL     1       4.925  26.573  34.209  1.00  0.00    -0.067 NA
BRANCH  63  65
ATOM     65  C   UNL     1       4.636  28.621  32.770  1.00  0.00     0.112 C 
ATOM     66  C   UNL     1       3.182  28.450  33.055  1.00  0.00     0.046 C 
ATOM     67  C   UNL     1       5.059  28.370  31.360  1.00  0.00     0.046 C 
ATOM     68  C   UNL     1       2.304  28.411  31.847  1.00  0.00     0.058 C 
ATOM     69  C   UNL     1       3.963  28.422  30.341  1.00  0.00     0.058 C 
ATOM     70  N   UNL     1       2.821  29.199  30.772  1.00  0.00    -0.300 NA
ATOM     71  C   UNL     1       2.334  26.997  31.270  1.00  0.00     0.021 C 
ATOM     72  C   UNL     1       3.387  27.030  30.188  1.00  0.00     0.021 C 
ATOM     73  C   UNL     1       3.165  30.556  31.123  1.00  0.00     0.105 C 
ENDBRANCH  63  65
ENDBRANCH  59  60
ENDBRANCH  58  59
ENDBRANCH  55  58
ENDBRANCH  53  54
ENDBRANCH  50  53
ENDBRANCH  47  50
ENDBRANCH   5  47
BRANCH   4  74
ATOM     74  N   UNL     1       3.164  23.948  34.692  1.00  0.00    -0.348 N 
ATOM     75  C   UNL     1       3.402  23.450  36.018  1.00  0.00     0.217 C 
ATOM     76  H   UNL     1       3.123  24.988  34.598  1.00  0.00     0.163 HD
ATOM     77  C   UNL     1       3.534  24.430  37.147  1.00  0.00     0.114 C 
ATOM     78  O   UNL     1       3.500  22.238  36.245  1.00  0.00    -0.275 OA
ENDBRANCH   4  74
TORSDOF 30
