REMARK VINA RESULT:    -6.559      4.808     12.970
REMARK INTER + INTRA:         -22.894
REMARK INTER:                 -17.379
REMARK INTRA:                  -5.515
REMARK UNBOUND:                -6.367
REMARK SMILES CC(=O)N[C@@H]1[C@@H](O)C[C@](OC[C@H]2O[C@@H](O[C@H]3[C@H](O)[C@@H](O)[C@H](OCCN=[N+]=[N-])O[C@@H]3CO)[C@H](O)[C@@H](O)[C@H]2O)(C(=O)O)O[C@H]1C(O)[C@H](O)CNC(=O)OCc1cn(-c2ncn3c2c(=O)n(C(C)C)c2ccccc23)nn1
REMARK SMILES IDX 9 1 8 2 6 3 5 4 42 5 41 6 10 7 11 8 12 9 14 10 13 11 32 12
REMARK SMILES IDX 34 13 36 14 15 15 16 16 29 17 28 18 21 19 17 20 19 21 30 22
REMARK SMILES IDX 31 23 22 25 23 26 24 27 25 28 26 29 27 30 18 31 20 33 33 35
REMARK SMILES IDX 35 37 37 39 38 41 39 42 40 43 7 45 43 47 44 48 45 50 46 51
REMARK SMILES IDX 47 53 48 54 49 55 50 57 51 58 52 59 53 60 54 61 74 62 55 63
REMARK SMILES IDX 73 64 56 65 57 66 60 67 58 68 59 69 61 70 72 71 63 72 62 73
REMARK SMILES IDX 71 74 67 75 70 76 68 77 69 78 64 79 65 80 66 81 4 82 2 83
REMARK SMILES IDX 1 85 3 86
REMARK H PARENT 31 24 18 32 20 34 33 36 35 38 37 40 40 44 7 46 44 49 46 52
REMARK H PARENT 48 56 4 84
REMARK Flexibility Score: inf
ROOT
ATOM      1  C   UNL     1      23.173  24.914  20.893  1.00  0.00     0.272 C 
ATOM      2  C   UNL     1      22.373  24.161  21.921  1.00  0.00     0.113 C 
ATOM      3  C   UNL     1      22.105  24.950  23.133  1.00  0.00     0.145 C 
ATOM      4  C   UNL     1      21.671  26.366  22.880  1.00  0.00     0.142 C 
ATOM      5  C   UNL     1      22.191  26.935  21.610  1.00  0.00     0.178 C 
ATOM      6  O   UNL     1      22.440  26.108  20.598  1.00  0.00    -0.332 OA
ENDROOT
BRANCH   1   7
ATOM      7  O   UNL     1      23.039  24.220  19.723  1.00  0.00    -0.338 OA
BRANCH   7   8
ATOM      8  C   UNL     1      22.674  24.686  18.563  1.00  0.00     0.199 C 
BRANCH   8   9
ATOM      9  C   UNL     1      23.576  25.086  17.446  1.00  0.00     0.179 C 
ATOM     10  C   UNL     1      23.766  24.626  15.171  1.00  0.00     0.282 C 
ATOM     11  O   UNL     1      23.054  24.376  16.315  1.00  0.00    -0.341 OA
ATOM     12  C   UNL     1      23.679  26.080  14.742  1.00  0.00     0.202 C 
ATOM     13  C   UNL     1      24.049  27.001  15.891  1.00  0.00     0.179 C 
ATOM     14  C   UNL     1      23.302  26.555  17.118  1.00  0.00     0.177 C 
BRANCH  10  15
ATOM     15  O   UNL     1      23.201  23.852  14.164  1.00  0.00    -0.341 OA
BRANCH  15  16
ATOM     16  C   UNL     1      23.808  22.626  14.081  1.00  0.00     0.184 C 
ATOM     17  C   UNL     1      24.718  22.571  12.909  1.00  0.00     0.178 C 
ATOM     18  O   UNL     1      24.219  21.975  11.779  1.00  0.00    -0.341 OA
ATOM     19  C   UNL     1      22.856  21.995  11.636  1.00  0.00     0.281 C 
ATOM     20  C   UNL     1      22.820  21.478  14.105  1.00  0.00     0.180 C 
ATOM     21  C   UNL     1      22.128  21.364  12.797  1.00  0.00     0.202 C 
BRANCH  17  22
ATOM     22  C   UNL     1      26.033  21.923  13.286  1.00  0.00     0.191 C 
BRANCH  22  23
ATOM     23  O   UNL     1      26.068  21.942  14.701  1.00  0.00    -0.394 OA
ATOM     24  H   UNL     1      25.198  22.299  14.990  1.00  0.00     0.210 HD
ENDBRANCH  22  23
ENDBRANCH  17  22
BRANCH  19  25
ATOM     25  O   UNL     1      22.545  21.202  10.517  1.00  0.00    -0.350 OA
BRANCH  25  26
ATOM     26  C   UNL     1      22.234  19.904  10.819  1.00  0.00     0.169 C 
BRANCH  26  27
ATOM     27  C   UNL     1      21.381  19.186   9.822  1.00  0.00     0.119 C 
BRANCH  27  28
ATOM     28  N   UNL     1      20.054  19.817   9.898  1.00  0.00    -0.092 NA
ATOM     29  N   UNL     1      19.422  19.936  10.926  1.00  0.00     0.001 N 
ATOM     30  N   UNL     1      18.595  19.854  11.839  1.00  0.00    -0.003 NA
ENDBRANCH  27  28
ENDBRANCH  26  27
ENDBRANCH  25  26
ENDBRANCH  19  25
BRANCH  20  31
ATOM     31  O   UNL     1      23.495  20.313  14.487  1.00  0.00    -0.387 OA
ATOM     32  H   UNL     1      24.295  20.636  14.998  1.00  0.00     0.211 HD
ENDBRANCH  20  31
BRANCH  21  33
ATOM     33  O   UNL     1      20.883  22.006  12.923  1.00  0.00    -0.385 OA
ATOM     34  H   UNL     1      20.162  21.365  13.155  1.00  0.00     0.211 HD
ENDBRANCH  21  33
ENDBRANCH  15  16
ENDBRANCH  10  15
BRANCH  12  35
ATOM     35  O   UNL     1      24.644  26.281  13.758  1.00  0.00    -0.385 OA
ATOM     36  H   UNL     1      25.472  26.677  14.120  1.00  0.00     0.211 HD
ENDBRANCH  12  35
BRANCH  13  37
ATOM     37  O   UNL     1      23.543  28.272  15.558  1.00  0.00    -0.387 OA
ATOM     38  H   UNL     1      24.284  28.937  15.527  1.00  0.00     0.211 HD
ENDBRANCH  13  37
BRANCH  14  39
ATOM     39  O   UNL     1      21.925  26.667  16.794  1.00  0.00    -0.387 OA
ATOM     40  H   UNL     1      21.778  27.439  16.196  1.00  0.00     0.211 HD
ENDBRANCH  14  39
ENDBRANCH   8   9
ENDBRANCH   7   8
ENDBRANCH   1   7
BRANCH   1  41
ATOM     41  C   UNL     1      24.502  25.321  21.328  1.00  0.00     0.364 C 
ATOM     42  O   UNL     1      25.124  24.807  22.257  1.00  0.00    -0.246 OA
BRANCH  41  43
ATOM     43  O   UNL     1      25.172  26.372  20.675  1.00  0.00    -0.477 OA
ATOM     44  H   UNL     1      25.989  26.169  20.112  1.00  0.00     0.296 HD
ENDBRANCH  41  43
ENDBRANCH   1  41
BRANCH   3  45
ATOM     45  O   UNL     1      21.080  24.272  23.843  1.00  0.00    -0.391 OA
ATOM     46  H   UNL     1      20.680  23.566  23.287  1.00  0.00     0.211 HD
ENDBRANCH   3  45
BRANCH   5  47
ATOM     47  C   UNL     1      21.342  28.089  21.107  1.00  0.00     0.176 C 
BRANCH  47  48
ATOM     48  O   UNL     1      20.011  27.740  21.146  1.00  0.00    -0.388 OA
ATOM     49  H   UNL     1      19.726  27.177  20.383  1.00  0.00     0.211 HD
ENDBRANCH  47  48
BRANCH  47  50
ATOM     50  C   UNL     1      21.719  28.595  19.759  1.00  0.00     0.165 C 
BRANCH  50  51
ATOM     51  O   UNL     1      23.001  29.051  19.612  1.00  0.00    -0.388 OA
ATOM     52  H   UNL     1      23.084  29.868  19.069  1.00  0.00     0.211 HD
ENDBRANCH  50  51
BRANCH  50  53
ATOM     53  C   UNL     1      20.747  29.583  19.190  1.00  0.00     0.154 C 
BRANCH  53  54
ATOM     54  N   UNL     1      19.893  28.945  18.181  1.00  0.00    -0.319 N 
ATOM     55  C   UNL     1      19.268  29.666  17.151  1.00  0.00     0.407 C 
ATOM     56  H   UNL     1      19.735  27.893  18.221  1.00  0.00     0.167 HD
ATOM     57  O   UNL     1      19.404  30.913  17.054  1.00  0.00    -0.225 OA
BRANCH  55  58
ATOM     58  O   UNL     1      18.484  28.958  16.228  1.00  0.00    -0.443 OA
BRANCH  58  59
ATOM     59  C   UNL     1      17.093  28.897  16.373  1.00  0.00     0.294 C 
BRANCH  59  60
ATOM     60  C   UNL     1      16.677  28.427  17.748  1.00  0.00     0.121 A 
ATOM     61  C   UNL     1      15.893  29.119  18.642  1.00  0.00     0.146 A 
ATOM     62  N   UNL     1      16.978  27.267  18.354  1.00  0.00    -0.131 NA
ATOM     63  N   UNL     1      15.729  28.371  19.773  1.00  0.00    -0.200 N 
ATOM     64  N   UNL     1      16.403  27.259  19.554  1.00  0.00    -0.060 NA
BRANCH  63  65
ATOM     65  C   UNL     1      14.973  28.754  20.922  1.00  0.00     0.186 A 
ATOM     66  N   UNL     1      13.662  28.517  21.092  1.00  0.00    -0.216 NA
ATOM     67  C   UNL     1      15.360  29.424  22.055  1.00  0.00     0.158 A 
ATOM     68  C   UNL     1      13.257  29.018  22.275  1.00  0.00     0.207 A 
ATOM     69  N   UNL     1      14.309  29.593  22.896  1.00  0.00    -0.291 N 
ATOM     70  C   UNL     1      16.593  29.909  22.408  1.00  0.00     0.279 A 
ATOM     71  C   UNL     1      14.446  30.228  24.074  1.00  0.00     0.071 A 
ATOM     72  N   UNL     1      16.762  30.554  23.591  1.00  0.00    -0.302 N 
ATOM     73  O   UNL     1      17.595  29.765  21.641  1.00  0.00    -0.267 OA
ATOM     74  C   UNL     1      13.386  30.404  24.921  1.00  0.00     0.029 A 
ATOM     75  C   UNL     1      15.695  30.706  24.405  1.00  0.00     0.068 A 
ATOM     76  C   UNL     1      13.527  31.072  26.148  1.00  0.00     0.002 A 
ATOM     77  C   UNL     1      15.829  31.363  25.614  1.00  0.00     0.028 A 
ATOM     78  C   UNL     1      14.769  31.555  26.491  1.00  0.00     0.002 A 
BRANCH  72  79
ATOM     79  C   UNL     1      18.080  31.064  23.973  1.00  0.00     0.085 C 
ATOM     80  C   UNL     1      19.166  30.044  23.878  1.00  0.00     0.031 C 
ATOM     81  C   UNL     1      18.397  32.380  23.308  1.00  0.00     0.031 C 
ENDBRANCH  72  79
ENDBRANCH  63  65
ENDBRANCH  59  60
ENDBRANCH  58  59
ENDBRANCH  55  58
ENDBRANCH  53  54
ENDBRANCH  50  53
ENDBRANCH  47  50
ENDBRANCH   5  47
BRANCH   4  82
ATOM     82  N   UNL     1      22.018  27.163  24.038  1.00  0.00    -0.348 N 
ATOM     83  C   UNL     1      21.137  27.390  25.120  1.00  0.00     0.217 C 
ATOM     84  H   UNL     1      22.967  27.605  24.098  1.00  0.00     0.163 HD
ATOM     85  C   UNL     1      21.508  28.215  26.307  1.00  0.00     0.114 C 
ATOM     86  O   UNL     1      19.987  26.864  25.062  1.00  0.00    -0.275 OA
ENDBRANCH   4  82
TORSDOF 31
