REMARK VINA RESULT:    -5.791     22.101     25.960
REMARK INTER + INTRA:         -21.674
REMARK INTER:                 -13.826
REMARK INTRA:                  -7.848
REMARK UNBOUND:                -7.419
REMARK SMILES CC(=O)N[C@@H]1[C@@H](O)C[C@](OC[C@H]2O[C@@H](O[C@H]3[C@H](O)[C@@H](O)[C@H](OCCN=[N+]=[N-])O[C@@H]3CO)[C@H](O)[C@@H](O)[C@H]2O)(C(=O)O)O[C@H]1C(O)[C@H](O)CNC(=O)OCc1cn(-c2ccc(C)cc2)nn1
REMARK SMILES IDX 9 1 8 2 6 3 5 4 42 5 41 6 10 7 11 8 12 9 14 10 13 11 32 12
REMARK SMILES IDX 34 13 36 14 15 15 16 16 29 17 28 18 21 19 17 20 19 21 30 22
REMARK SMILES IDX 31 23 22 25 23 26 24 27 25 28 26 29 27 30 18 31 20 33 33 35
REMARK SMILES IDX 35 37 37 39 38 41 39 42 40 43 7 45 43 47 44 48 45 50 46 51
REMARK SMILES IDX 47 53 48 54 49 55 50 57 51 58 52 59 53 60 54 61 64 62 55 63
REMARK SMILES IDX 63 64 56 65 57 66 62 67 58 68 61 69 59 70 60 71 4 72 2 73
REMARK SMILES IDX 1 75 3 76
REMARK H PARENT 31 24 18 32 20 34 33 36 35 38 37 40 40 44 7 46 44 49 46 52
REMARK H PARENT 48 56 4 74
REMARK Flexibility Score: inf
ROOT
ATOM      1  C   UNL     1       5.082  23.716  33.470  1.00  0.00     0.272 C 
ATOM      2  C   UNL     1       6.003  22.909  32.561  1.00  0.00     0.113 C 
ATOM      3  C   UNL     1       5.672  21.466  32.577  1.00  0.00     0.145 C 
ATOM      4  C   UNL     1       4.234  21.139  32.772  1.00  0.00     0.142 C 
ATOM      5  C   UNL     1       3.272  22.323  32.770  1.00  0.00     0.178 C 
ATOM      6  O   UNL     1       3.811  23.406  33.378  1.00  0.00    -0.332 OA
ENDROOT
BRANCH   1   7
ATOM      7  O   UNL     1       5.233  25.056  32.995  1.00  0.00    -0.338 OA
BRANCH   7   8
ATOM      8  C   UNL     1       4.346  25.870  33.703  1.00  0.00     0.199 C 
BRANCH   8   9
ATOM      9  C   UNL     1       4.616  27.313  33.503  1.00  0.00     0.179 C 
ATOM     10  C   UNL     1       6.232  28.937  33.567  1.00  0.00     0.282 C 
ATOM     11  O   UNL     1       5.989  27.568  33.521  1.00  0.00    -0.341 OA
ATOM     12  C   UNL     1       5.867  29.568  32.278  1.00  0.00     0.202 C 
ATOM     13  C   UNL     1       5.027  28.635  31.451  1.00  0.00     0.179 C 
ATOM     14  C   UNL     1       3.990  27.884  32.260  1.00  0.00     0.177 C 
BRANCH  10  15
ATOM     15  O   UNL     1       7.583  29.154  33.825  1.00  0.00    -0.341 OA
BRANCH  15  16
ATOM     16  C   UNL     1       8.225  27.977  34.216  1.00  0.00     0.184 C 
ATOM     17  C   UNL     1       8.674  27.962  35.650  1.00  0.00     0.178 C 
ATOM     18  O   UNL     1      10.068  27.865  35.721  1.00  0.00    -0.341 OA
ATOM     19  C   UNL     1      10.630  29.005  35.174  1.00  0.00     0.281 C 
ATOM     20  C   UNL     1       9.457  27.874  33.343  1.00  0.00     0.180 C 
ATOM     21  C   UNL     1      10.312  29.101  33.694  1.00  0.00     0.202 C 
BRANCH  17  22
ATOM     22  C   UNL     1       8.170  26.688  36.350  1.00  0.00     0.191 C 
BRANCH  22  23
ATOM     23  O   UNL     1       8.870  25.573  35.897  1.00  0.00    -0.394 OA
ATOM     24  H   UNL     1       8.646  25.469  34.924  1.00  0.00     0.210 HD
ENDBRANCH  22  23
ENDBRANCH  17  22
BRANCH  19  25
ATOM     25  O   UNL     1      12.001  29.072  35.370  1.00  0.00    -0.350 OA
BRANCH  25  26
ATOM     26  C   UNL     1      12.474  28.164  36.283  1.00  0.00     0.169 C 
BRANCH  26  27
ATOM     27  C   UNL     1      13.594  27.288  35.796  1.00  0.00     0.119 C 
BRANCH  27  28
ATOM     28  N   UNL     1      13.126  26.265  34.894  1.00  0.00    -0.092 NA
ATOM     29  N   UNL     1      12.363  25.401  35.291  1.00  0.00     0.001 N 
ATOM     30  N   UNL     1      11.522  24.577  35.653  1.00  0.00    -0.003 NA
ENDBRANCH  27  28
ENDBRANCH  26  27
ENDBRANCH  25  26
ENDBRANCH  19  25
BRANCH  20  31
ATOM     31  O   UNL     1      10.183  26.714  33.567  1.00  0.00    -0.387 OA
ATOM     32  H   UNL     1      10.611  26.806  34.453  1.00  0.00     0.211 HD
ENDBRANCH  20  31
BRANCH  21  33
ATOM     33  O   UNL     1       9.444  30.200  33.534  1.00  0.00    -0.385 OA
ATOM     34  H   UNL     1       9.908  31.063  33.627  1.00  0.00     0.211 HD
ENDBRANCH  21  33
ENDBRANCH  15  16
ENDBRANCH  10  15
BRANCH  12  35
ATOM     35  O   UNL     1       5.209  30.799  32.457  1.00  0.00    -0.385 OA
ATOM     36  H   UNL     1       4.267  30.627  32.129  1.00  0.00     0.211 HD
ENDBRANCH  12  35
BRANCH  13  37
ATOM     37  O   UNL     1       5.847  27.829  30.699  1.00  0.00    -0.387 OA
ATOM     38  H   UNL     1       6.780  28.194  30.572  1.00  0.00     0.211 HD
ENDBRANCH  13  37
BRANCH  14  39
ATOM     39  O   UNL     1       3.503  26.836  31.502  1.00  0.00    -0.387 OA
ATOM     40  H   UNL     1       3.002  26.161  32.005  1.00  0.00     0.211 HD
ENDBRANCH  14  39
ENDBRANCH   8   9
ENDBRANCH   7   8
ENDBRANCH   1   7
BRANCH   1  41
ATOM     41  C   UNL     1       5.668  23.592  34.819  1.00  0.00     0.364 C 
ATOM     42  O   UNL     1       6.893  23.697  35.055  1.00  0.00    -0.246 OA
BRANCH  41  43
ATOM     43  O   UNL     1       4.788  23.349  35.891  1.00  0.00    -0.477 OA
ATOM     44  H   UNL     1       4.112  24.073  36.139  1.00  0.00     0.296 HD
ENDBRANCH  41  43
ENDBRANCH   1  41
BRANCH   3  45
ATOM     45  O   UNL     1       6.231  20.813  31.455  1.00  0.00    -0.391 OA
ATOM     46  H   UNL     1       6.081  21.451  30.686  1.00  0.00     0.211 HD
ENDBRANCH   3  45
BRANCH   5  47
ATOM     47  C   UNL     1       2.825  22.583  31.346  1.00  0.00     0.176 C 
BRANCH  47  48
ATOM     48  O   UNL     1       3.357  23.736  30.788  1.00  0.00    -0.388 OA
ATOM     49  H   UNL     1       4.127  23.984  31.365  1.00  0.00     0.211 HD
ENDBRANCH  47  48
BRANCH  47  50
ATOM     50  C   UNL     1       2.719  21.484  30.400  1.00  0.00     0.165 C 
BRANCH  50  51
ATOM     51  O   UNL     1       3.870  21.214  29.630  1.00  0.00    -0.388 OA
ATOM     52  H   UNL     1       3.606  20.913  28.720  1.00  0.00     0.211 HD
ENDBRANCH  50  51
BRANCH  50  53
ATOM     53  C   UNL     1       1.543  21.328  29.502  1.00  0.00     0.154 C 
BRANCH  53  54
ATOM     54  N   UNL     1       1.096  22.547  28.879  1.00  0.00    -0.319 N 
ATOM     55  C   UNL     1       1.572  22.935  27.593  1.00  0.00     0.407 C 
ATOM     56  H   UNL     1       0.412  23.168  29.369  1.00  0.00     0.167 HD
ATOM     57  O   UNL     1       2.382  22.186  26.994  1.00  0.00    -0.225 OA
BRANCH  55  58
ATOM     58  O   UNL     1       1.144  24.119  27.032  1.00  0.00    -0.443 OA
BRANCH  58  59
ATOM     59  C   UNL     1       1.147  25.334  27.700  1.00  0.00     0.294 C 
BRANCH  59  60
ATOM     60  C   UNL     1       2.500  25.879  27.824  1.00  0.00     0.121 A 
ATOM     61  C   UNL     1       3.205  26.590  26.835  1.00  0.00     0.144 A 
ATOM     62  N   UNL     1       3.333  25.824  28.855  1.00  0.00    -0.131 NA
ATOM     63  N   UNL     1       4.401  26.914  27.325  1.00  0.00    -0.220 N 
ATOM     64  N   UNL     1       4.459  26.439  28.552  1.00  0.00    -0.062 NA
BRANCH  63  65
ATOM     65  C   UNL     1       5.401  27.644  26.591  1.00  0.00     0.066 A 
ATOM     66  C   UNL     1       5.554  28.997  26.796  1.00  0.00     0.029 A 
ATOM     67  C   UNL     1       6.238  27.028  25.684  1.00  0.00     0.029 A 
ATOM     68  C   UNL     1       6.533  29.712  26.099  1.00  0.00     0.005 A 
ATOM     69  C   UNL     1       7.218  27.743  24.986  1.00  0.00     0.005 A 
ATOM     70  C   UNL     1       7.367  29.094  25.195  1.00  0.00    -0.051 A 
ATOM     71  C   UNL     1       8.423  29.858  24.456  1.00  0.00     0.044 C 
ENDBRANCH  63  65
ENDBRANCH  59  60
ENDBRANCH  58  59
ENDBRANCH  55  58
ENDBRANCH  53  54
ENDBRANCH  50  53
ENDBRANCH  47  50
ENDBRANCH   5  47
BRANCH   4  72
ATOM     72  N   UNL     1       4.007  20.244  33.890  1.00  0.00    -0.348 N 
ATOM     73  C   UNL     1       3.111  19.133  33.848  1.00  0.00     0.217 C 
ATOM     74  H   UNL     1       4.499  20.386  34.795  1.00  0.00     0.163 HD
ATOM     75  C   UNL     1       2.907  18.246  35.035  1.00  0.00     0.114 C 
ATOM     76  O   UNL     1       2.519  18.962  32.753  1.00  0.00    -0.275 OA
ENDBRANCH   4  72
TORSDOF 30
