REMARK VINA RESULT:    -4.915      8.710     15.122
REMARK INTER + INTRA:         -21.235
REMARK INTER:                 -14.156
REMARK INTRA:                  -7.079
REMARK UNBOUND:                -8.562
REMARK SMILES CC(=O)N[C@@H]1[C@@H](O)C[C@](OC[C@H]2O[C@@H](O[C@H]3[C@H](O)[C@@H](O)[C@H](OCCN=[N+]=[N-])O[C@@H]3CO)[C@H](O)[C@@H](O)[C@H]2O)(C(=O)O)O[C@H]1C(O)[C@H](O)CNC(=O)OCc1cn(Cc2ccc(C#N)cc2)nn1
REMARK SMILES IDX 9 1 8 2 6 3 5 4 42 5 41 6 10 7 11 8 12 9 14 10 13 11 32 12
REMARK SMILES IDX 34 13 36 14 15 15 16 16 29 17 28 18 21 19 17 20 19 21 30 22
REMARK SMILES IDX 31 23 22 25 23 26 24 27 25 28 26 29 27 30 18 31 20 33 33 35
REMARK SMILES IDX 35 37 37 39 38 41 39 42 40 43 7 45 43 47 44 48 45 50 46 51
REMARK SMILES IDX 47 53 48 54 49 55 50 57 51 58 52 59 53 60 54 61 66 62 55 63
REMARK SMILES IDX 65 64 56 65 57 66 58 67 64 68 59 69 63 70 60 71 61 72 62 73
REMARK SMILES IDX 4 74 2 75 1 77 3 78
REMARK H PARENT 31 24 18 32 20 34 33 36 35 38 37 40 40 44 7 46 44 49 46 52
REMARK H PARENT 48 56 4 76
REMARK Flexibility Score: inf
ROOT
ATOM      1  C   UNL     1      19.986  18.993  10.817  1.00  0.00     0.272 C 
ATOM      2  C   UNL     1      19.635  17.874   9.900  1.00  0.00     0.113 C 
ATOM      3  C   UNL     1      20.618  17.606   8.817  1.00  0.00     0.145 C 
ATOM      4  C   UNL     1      21.295  18.938   8.454  1.00  0.00     0.142 C 
ATOM      5  C   UNL     1      20.303  20.012   8.785  1.00  0.00     0.178 C 
ATOM      6  O   UNL     1      20.240  20.195  10.137  1.00  0.00    -0.332 OA
ENDROOT
BRANCH   1   7
ATOM      7  O   UNL     1      20.991  18.740  11.726  1.00  0.00    -0.338 OA
BRANCH   7   8
ATOM      8  C   UNL     1      22.009  19.633  11.722  1.00  0.00     0.199 C 
BRANCH   8   9
ATOM      9  C   UNL     1      22.269  20.221  13.120  1.00  0.00     0.179 C 
ATOM     10  C   UNL     1      24.043  20.767  14.491  1.00  0.00     0.282 C 
ATOM     11  O   UNL     1      23.640  20.090  13.341  1.00  0.00    -0.341 OA
ATOM     12  C   UNL     1      23.803  22.240  14.421  1.00  0.00     0.202 C 
ATOM     13  C   UNL     1      23.113  22.574  13.119  1.00  0.00     0.179 C 
ATOM     14  C   UNL     1      21.885  21.676  13.062  1.00  0.00     0.177 C 
BRANCH  10  15
ATOM     15  O   UNL     1      25.413  20.556  14.624  1.00  0.00    -0.341 OA
BRANCH  15  16
ATOM     16  C   UNL     1      26.011  20.075  13.461  1.00  0.00     0.184 C 
ATOM     17  C   UNL     1      26.484  18.682  13.682  1.00  0.00     0.178 C 
ATOM     18  O   UNL     1      27.799  18.532  14.015  1.00  0.00    -0.341 OA
ATOM     19  C   UNL     1      28.491  19.677  14.320  1.00  0.00     0.281 C 
ATOM     20  C   UNL     1      27.027  21.017  12.902  1.00  0.00     0.180 C 
ATOM     21  C   UNL     1      28.457  20.600  13.123  1.00  0.00     0.202 C 
BRANCH  17  22
ATOM     22  C   UNL     1      26.092  17.823  12.482  1.00  0.00     0.191 C 
BRANCH  22  23
ATOM     23  O   UNL     1      24.764  17.433  12.659  1.00  0.00    -0.394 OA
ATOM     24  H   UNL     1      24.485  16.773  11.954  1.00  0.00     0.210 HD
ENDBRANCH  22  23
ENDBRANCH  17  22
BRANCH  19  25
ATOM     25  O   UNL     1      29.831  19.286  14.518  1.00  0.00    -0.350 OA
BRANCH  25  26
ATOM     26  C   UNL     1      29.991  18.682  15.758  1.00  0.00     0.169 C 
BRANCH  26  27
ATOM     27  C   UNL     1      29.610  19.632  16.875  1.00  0.00     0.119 C 
BRANCH  27  28
ATOM     28  N   UNL     1      28.656  19.043  17.795  1.00  0.00    -0.092 NA
ATOM     29  N   UNL     1      29.031  18.603  18.870  1.00  0.00     0.001 N 
ATOM     30  N   UNL     1      29.126  18.498  20.102  1.00  0.00    -0.003 NA
ENDBRANCH  27  28
ENDBRANCH  26  27
ENDBRANCH  25  26
ENDBRANCH  19  25
BRANCH  20  31
ATOM     31  O   UNL     1      26.802  21.327  11.555  1.00  0.00    -0.387 OA
ATOM     32  H   UNL     1      27.636  21.703  11.147  1.00  0.00     0.211 HD
ENDBRANCH  20  31
BRANCH  21  33
ATOM     33  O   UNL     1      29.296  21.699  13.319  1.00  0.00    -0.385 OA
ATOM     34  H   UNL     1      30.158  21.481  12.876  1.00  0.00     0.211 HD
ENDBRANCH  21  33
ENDBRANCH  15  16
ENDBRANCH  10  15
BRANCH  12  35
ATOM     35  O   UNL     1      23.054  22.752  15.456  1.00  0.00    -0.385 OA
ATOM     36  H   UNL     1      22.133  22.962  15.133  1.00  0.00     0.211 HD
ENDBRANCH  12  35
BRANCH  13  37
ATOM     37  O   UNL     1      23.998  22.326  12.083  1.00  0.00    -0.387 OA
ATOM     38  H   UNL     1      24.650  23.042  11.917  1.00  0.00     0.211 HD
ENDBRANCH  13  37
BRANCH  14  39
ATOM     39  O   UNL     1      21.041  21.972  12.019  1.00  0.00    -0.387 OA
ATOM     40  H   UNL     1      20.588  21.157  11.713  1.00  0.00     0.211 HD
ENDBRANCH  14  39
ENDBRANCH   8   9
ENDBRANCH   7   8
ENDBRANCH   1   7
BRANCH   1  41
ATOM     41  C   UNL     1      18.741  19.306  11.595  1.00  0.00     0.364 C 
ATOM     42  O   UNL     1      18.550  20.445  12.030  1.00  0.00    -0.246 OA
BRANCH  41  43
ATOM     43  O   UNL     1      17.826  18.301  11.807  1.00  0.00    -0.477 OA
ATOM     44  H   UNL     1      17.797  17.729  12.642  1.00  0.00     0.296 HD
ENDBRANCH  41  43
ENDBRANCH   1  41
BRANCH   3  45
ATOM     45  O   UNL     1      21.513  16.598   9.038  1.00  0.00    -0.391 OA
ATOM     46  H   UNL     1      22.417  16.857   8.767  1.00  0.00     0.211 HD
ENDBRANCH   3  45
BRANCH   5  47
ATOM     47  C   UNL     1      20.581  21.333   8.055  1.00  0.00     0.176 C 
BRANCH  47  48
ATOM     48  O   UNL     1      19.324  21.724   7.539  1.00  0.00    -0.388 OA
ATOM     49  H   UNL     1      19.307  21.498   6.576  1.00  0.00     0.211 HD
ENDBRANCH  47  48
BRANCH  47  50
ATOM     50  C   UNL     1      21.070  22.370   8.965  1.00  0.00     0.165 C 
BRANCH  50  51
ATOM     51  O   UNL     1      20.025  23.277   9.318  1.00  0.00    -0.388 OA
ATOM     52  H   UNL     1      19.809  23.029  10.271  1.00  0.00     0.211 HD
ENDBRANCH  50  51
BRANCH  50  53
ATOM     53  C   UNL     1      22.264  23.136   8.556  1.00  0.00     0.154 C 
BRANCH  53  54
ATOM     54  N   UNL     1      23.138  23.723   9.474  1.00  0.00    -0.319 N 
ATOM     55  C   UNL     1      22.965  24.850  10.299  1.00  0.00     0.407 C 
ATOM     56  H   UNL     1      24.104  23.256   9.589  1.00  0.00     0.167 HD
ATOM     57  O   UNL     1      21.919  25.513  10.339  1.00  0.00    -0.225 OA
BRANCH  55  58
ATOM     58  O   UNL     1      23.996  25.290  11.145  1.00  0.00    -0.443 OA
BRANCH  58  59
ATOM     59  C   UNL     1      23.860  26.512  11.852  1.00  0.00     0.294 C 
BRANCH  59  60
ATOM     60  C   UNL     1      23.758  26.193  13.320  1.00  0.00     0.120 A 
ATOM     61  C   UNL     1      24.821  26.248  14.198  1.00  0.00     0.138 A 
ATOM     62  N   UNL     1      22.691  25.802  14.041  1.00  0.00    -0.132 NA
ATOM     63  N   UNL     1      24.365  25.888  15.426  1.00  0.00    -0.248 N 
ATOM     64  N   UNL     1      23.106  25.637  15.277  1.00  0.00    -0.067 NA
BRANCH  63  65
ATOM     65  C   UNL     1      25.233  25.820  16.591  1.00  0.00     0.181 C 
BRANCH  65  66
ATOM     66  C   UNL     1      24.292  25.804  17.770  1.00  0.00    -0.026 A 
ATOM     67  C   UNL     1      23.794  27.001  18.220  1.00  0.00     0.007 A 
ATOM     68  C   UNL     1      23.951  24.591  18.374  1.00  0.00     0.007 A 
ATOM     69  C   UNL     1      22.933  27.084  19.291  1.00  0.00     0.020 A 
ATOM     70  C   UNL     1      23.093  24.674  19.441  1.00  0.00     0.020 A 
ATOM     71  C   UNL     1      22.604  25.860  19.884  1.00  0.00     0.052 A 
BRANCH  71  72
ATOM     72  C   UNL     1      21.709  25.922  21.034  1.00  0.00     0.099 C 
ATOM     73  N   UNL     1      21.000  25.953  21.956  1.00  0.00    -0.192 NA
ENDBRANCH  71  72
ENDBRANCH  65  66
ENDBRANCH  63  65
ENDBRANCH  59  60
ENDBRANCH  58  59
ENDBRANCH  55  58
ENDBRANCH  53  54
ENDBRANCH  50  53
ENDBRANCH  47  50
ENDBRANCH   5  47
BRANCH   4  74
ATOM     74  N   UNL     1      21.726  18.916   7.079  1.00  0.00    -0.348 N 
ATOM     75  C   UNL     1      23.077  18.588   6.795  1.00  0.00     0.217 C 
ATOM     76  H   UNL     1      21.092  19.127   6.293  1.00  0.00     0.163 HD
ATOM     77  C   UNL     1      23.591  18.544   5.414  1.00  0.00     0.114 C 
ATOM     78  O   UNL     1      23.898  18.317   7.735  1.00  0.00    -0.275 OA
ENDBRANCH   4  74
TORSDOF 32
