REMARK VINA RESULT:    -5.744     12.810     17.844
REMARK INTER + INTRA:         -20.736
REMARK INTER:                 -13.959
REMARK INTRA:                  -6.777
REMARK UNBOUND:                -6.597
REMARK SMILES CC(=O)N[C@@H]1[C@@H](O)C[C@](OC[C@H]2O[C@@H](O[C@H]3[C@H](O)[C@@H](O)[C@H](OCCN=[N+]=[N-])O[C@@H]3CO)[C@H](O)[C@@H](O)[C@H]2O)(C(=O)O)O[C@H]1C(O)[C@H](O)CNC(=O)OCc1cn(-c2ccccc2)nn1
REMARK SMILES IDX 9 1 8 2 6 3 5 4 42 5 41 6 10 7 11 8 12 9 14 10 13 11 32 12
REMARK SMILES IDX 34 13 36 14 15 15 16 16 29 17 28 18 21 19 17 20 19 21 30 22
REMARK SMILES IDX 31 23 22 25 23 26 24 27 25 28 26 29 27 30 18 31 20 33 33 35
REMARK SMILES IDX 35 37 37 39 38 41 39 42 40 43 7 45 43 47 44 48 45 50 46 51
REMARK SMILES IDX 47 53 48 54 49 55 50 57 51 58 52 59 53 60 54 61 63 62 55 63
REMARK SMILES IDX 62 64 56 65 57 66 61 67 58 68 60 69 59 70 4 71 2 72 1 74
REMARK SMILES IDX 3 75
REMARK H PARENT 31 24 18 32 20 34 33 36 35 38 37 40 40 44 7 46 44 49 46 52
REMARK H PARENT 48 56 4 73
REMARK Flexibility Score: inf
ROOT
ATOM      1  C   UNL     1       1.419  20.129  30.779  1.00  0.00     0.272 C 
ATOM      2  C   UNL     1       0.300  19.482  31.507  1.00  0.00     0.113 C 
ATOM      3  C   UNL     1       0.331  19.636  32.981  1.00  0.00     0.145 C 
ATOM      4  C   UNL     1       0.738  21.048  33.361  1.00  0.00     0.142 C 
ATOM      5  C   UNL     1       2.093  21.277  32.731  1.00  0.00     0.178 C 
ATOM      6  O   UNL     1       1.865  21.345  31.381  1.00  0.00    -0.332 OA
ENDROOT
BRANCH   1   7
ATOM      7  O   UNL     1       1.134  20.536  29.509  1.00  0.00    -0.338 OA
BRANCH   7   8
ATOM      8  C   UNL     1       0.440  21.616  29.204  1.00  0.00     0.199 C 
BRANCH   8   9
ATOM      9  C   UNL     1       0.938  22.677  28.302  1.00  0.00     0.179 C 
ATOM     10  C   UNL     1       1.825  24.831  28.446  1.00  0.00     0.282 C 
ATOM     11  O   UNL     1       1.147  23.812  29.150  1.00  0.00    -0.341 OA
ATOM     12  C   UNL     1       1.984  24.568  26.985  1.00  0.00     0.202 C 
ATOM     13  C   UNL     1       2.732  23.275  26.738  1.00  0.00     0.179 C 
ATOM     14  C   UNL     1       2.336  22.293  27.802  1.00  0.00     0.177 C 
BRANCH  10  15
ATOM     15  O   UNL     1       3.042  24.976  29.004  1.00  0.00    -0.341 OA
BRANCH  15  16
ATOM     16  C   UNL     1       3.411  26.102  29.643  1.00  0.00     0.184 C 
ATOM     17  C   UNL     1       2.742  27.368  29.161  1.00  0.00     0.178 C 
ATOM     18  O   UNL     1       3.617  28.415  29.511  1.00  0.00    -0.341 OA
ATOM     19  C   UNL     1       4.577  28.449  28.476  1.00  0.00     0.281 C 
ATOM     20  C   UNL     1       4.923  26.328  29.630  1.00  0.00     0.180 C 
ATOM     21  C   UNL     1       5.317  27.129  28.406  1.00  0.00     0.202 C 
BRANCH  17  22
ATOM     22  C   UNL     1       1.433  27.637  29.872  1.00  0.00     0.191 C 
BRANCH  22  23
ATOM     23  O   UNL     1       1.535  27.152  31.179  1.00  0.00    -0.394 OA
ATOM     24  H   UNL     1       1.131  26.232  31.260  1.00  0.00     0.210 HD
ENDBRANCH  22  23
ENDBRANCH  17  22
BRANCH  19  25
ATOM     25  O   UNL     1       5.482  29.452  28.643  1.00  0.00    -0.350 OA
BRANCH  25  26
ATOM     26  C   UNL     1       5.573  30.400  27.662  1.00  0.00     0.169 C 
BRANCH  26  27
ATOM     27  C   UNL     1       6.216  29.944  26.391  1.00  0.00     0.119 C 
BRANCH  27  28
ATOM     28  N   UNL     1       5.331  30.024  25.287  1.00  0.00    -0.092 NA
ATOM     29  N   UNL     1       4.618  29.063  24.942  1.00  0.00     0.001 N 
ATOM     30  N   UNL     1       4.255  27.943  24.548  1.00  0.00    -0.003 NA
ENDBRANCH  27  28
ENDBRANCH  26  27
ENDBRANCH  25  26
ENDBRANCH  19  25
BRANCH  20  31
ATOM     31  O   UNL     1       5.377  27.027  30.739  1.00  0.00    -0.387 OA
ATOM     32  H   UNL     1       5.199  26.535  31.578  1.00  0.00     0.211 HD
ENDBRANCH  20  31
BRANCH  21  33
ATOM     33  O   UNL     1       5.039  26.468  27.227  1.00  0.00    -0.385 OA
ATOM     34  H   UNL     1       5.796  25.945  26.879  1.00  0.00     0.211 HD
ENDBRANCH  21  33
ENDBRANCH  15  16
ENDBRANCH  10  15
BRANCH  12  35
ATOM     35  O   UNL     1       0.818  24.690  26.240  1.00  0.00    -0.385 OA
ATOM     36  H   UNL     1       0.994  25.349  25.521  1.00  0.00     0.211 HD
ENDBRANCH  12  35
BRANCH  13  37
ATOM     37  O   UNL     1       4.088  23.520  26.843  1.00  0.00    -0.387 OA
ATOM     38  H   UNL     1       4.645  22.704  26.904  1.00  0.00     0.211 HD
ENDBRANCH  13  37
BRANCH  14  39
ATOM     39  O   UNL     1       3.183  22.400  28.930  1.00  0.00    -0.387 OA
ATOM     40  H   UNL     1       2.856  23.077  29.557  1.00  0.00     0.211 HD
ENDBRANCH  14  39
ENDBRANCH   8   9
ENDBRANCH   7   8
ENDBRANCH   1   7
BRANCH   1  41
ATOM     41  C   UNL     1       2.632  19.284  30.868  1.00  0.00     0.364 C 
ATOM     42  O   UNL     1       2.578  18.100  31.198  1.00  0.00    -0.246 OA
BRANCH  41  43
ATOM     43  O   UNL     1       3.898  19.832  30.576  1.00  0.00    -0.477 OA
ATOM     44  H   UNL     1       4.090  20.786  30.877  1.00  0.00     0.296 HD
ENDBRANCH  41  43
ENDBRANCH   1  41
BRANCH   3  45
ATOM     45  O   UNL     1      -0.912  19.302  33.514  1.00  0.00    -0.391 OA
ATOM     46  H   UNL     1      -0.790  18.495  34.043  1.00  0.00     0.211 HD
ENDBRANCH   3  45
BRANCH   5  47
ATOM     47  C   UNL     1       2.669  22.628  33.141  1.00  0.00     0.176 C 
BRANCH  47  48
ATOM     48  O   UNL     1       3.335  22.458  34.325  1.00  0.00    -0.388 OA
ATOM     49  H   UNL     1       3.304  21.545  34.685  1.00  0.00     0.211 HD
ENDBRANCH  47  48
BRANCH  47  50
ATOM     50  C   UNL     1       3.478  23.316  32.123  1.00  0.00     0.165 C 
BRANCH  50  51
ATOM     51  O   UNL     1       4.379  22.335  31.601  1.00  0.00    -0.388 OA
ATOM     52  H   UNL     1       4.655  22.662  30.726  1.00  0.00     0.211 HD
ENDBRANCH  50  51
BRANCH  50  53
ATOM     53  C   UNL     1       4.421  24.360  32.746  1.00  0.00     0.154 C 
BRANCH  53  54
ATOM     54  N   UNL     1       5.798  23.937  32.701  1.00  0.00    -0.319 N 
ATOM     55  C   UNL     1       6.507  23.549  33.890  1.00  0.00     0.407 C 
ATOM     56  H   UNL     1       6.351  23.887  31.820  1.00  0.00     0.167 HD
ATOM     57  O   UNL     1       5.940  23.555  35.006  1.00  0.00    -0.225 OA
BRANCH  55  58
ATOM     58  O   UNL     1       7.832  23.156  33.831  1.00  0.00    -0.443 OA
BRANCH  58  59
ATOM     59  C   UNL     1       8.763  23.543  34.835  1.00  0.00     0.294 C 
BRANCH  59  60
ATOM     60  C   UNL     1       9.404  24.791  34.327  1.00  0.00     0.121 A 
ATOM     61  C   UNL     1       8.828  26.048  34.449  1.00  0.00     0.144 A 
ATOM     62  N   UNL     1      10.566  24.988  33.698  1.00  0.00    -0.131 NA
ATOM     63  N   UNL     1       9.656  26.970  33.890  1.00  0.00    -0.220 N 
ATOM     64  N   UNL     1      10.692  26.294  33.448  1.00  0.00    -0.062 NA
BRANCH  63  65
ATOM     65  C   UNL     1       9.436  28.368  33.803  1.00  0.00     0.066 A 
ATOM     66  C   UNL     1       8.178  28.913  33.919  1.00  0.00     0.028 A 
ATOM     67  C   UNL     1      10.499  29.221  33.603  1.00  0.00     0.028 A 
ATOM     68  C   UNL     1       7.956  30.272  33.842  1.00  0.00     0.002 A 
ATOM     69  C   UNL     1      10.272  30.587  33.527  1.00  0.00     0.002 A 
ATOM     70  C   UNL     1       9.023  31.149  33.639  1.00  0.00     0.000 A 
ENDBRANCH  63  65
ENDBRANCH  59  60
ENDBRANCH  58  59
ENDBRANCH  55  58
ENDBRANCH  53  54
ENDBRANCH  50  53
ENDBRANCH  47  50
ENDBRANCH   5  47
BRANCH   4  71
ATOM     71  N   UNL     1       0.645  21.273  34.760  1.00  0.00    -0.348 N 
ATOM     72  C   UNL     1      -0.261  22.252  35.244  1.00  0.00     0.217 C 
ATOM     73  H   UNL     1       1.205  20.737  35.449  1.00  0.00     0.163 HD
ATOM     74  C   UNL     1      -0.380  22.508  36.711  1.00  0.00     0.114 C 
ATOM     75  O   UNL     1      -0.997  22.940  34.472  1.00  0.00    -0.275 OA
ENDBRANCH   4  71
TORSDOF 30
