REMARK VINA RESULT:    -8.472      4.776     10.626
REMARK INTER + INTRA:         -20.751
REMARK INTER:                 -16.686
REMARK INTRA:                  -4.065
REMARK UNBOUND:                 3.076
REMARK SMILES CC(=O)N[C@@H]1[C@@H](O)C[C@](OC[C@H]2O[C@@H](O[C@H]3[C@H](O)[C@@H](O)[C@H](OCCN=[N+]=[N-])O[C@@H]3CO)[C@H](O)[C@@H](O)[C@H]2O)(C(=O)O)O[C@H]1C(O)[C@H](O)CNC(=O)OCc1cn(C2CC(O)C=C[C@@H](O)C2)nn1
REMARK SMILES IDX 43 1 42 2 9 3 8 4 41 5 6 6 5 7 10 8 11 9 12 10 14 11 13 12
REMARK SMILES IDX 32 13 34 14 36 15 15 16 16 17 29 18 28 19 21 20 17 21 19 22
REMARK SMILES IDX 30 23 31 24 22 26 23 27 24 28 25 29 26 30 27 31 18 32 20 34
REMARK SMILES IDX 33 36 35 38 37 40 38 42 39 43 40 44 7 46 4 48 2 49 1 51 3 52
REMARK SMILES IDX 44 53 45 55 46 56 47 58 48 59 49 60 50 62 51 63 52 64 53 65
REMARK SMILES IDX 54 66 66 67 55 68 65 69 56 70 57 71 58 72 59 74 64 76 62 77
REMARK SMILES IDX 61 78 60 79 63 81
REMARK H PARENT 31 25 18 33 20 35 33 37 35 39 37 41 40 45 7 47 4 50 44 54
REMARK H PARENT 46 57 48 61 59 75 63 82
REMARK Flexibility Score: 90.00
ROOT
ATOM      1  C   UNL     1      16.132  28.769  20.378  1.00  0.00     0.176 C 
ENDROOT
BRANCH   1   2
ATOM      2  C   UNL     1      17.486  29.416  20.143  1.00  0.00     0.178 C 
ATOM      3  C   UNL     1      19.604  28.710  19.398  1.00  0.00     0.272 C 
ATOM      4  C   UNL     1      20.254  29.914  19.973  1.00  0.00     0.113 C 
ATOM      5  O   UNL     1      18.379  28.354  19.821  1.00  0.00    -0.332 OA
ATOM      6  C   UNL     1      19.326  30.880  20.616  1.00  0.00     0.145 C 
ATOM      7  C   UNL     1      18.121  30.125  21.259  1.00  0.00     0.142 C 
BRANCH   3   8
ATOM      8  O   UNL     1      20.517  27.639  19.489  1.00  0.00    -0.338 OA
BRANCH   8   9
ATOM      9  C   UNL     1      21.430  27.576  18.477  1.00  0.00     0.199 C 
BRANCH   9  10
ATOM     10  C   UNL     1      22.825  27.260  19.019  1.00  0.00     0.179 C 
ATOM     11  C   UNL     1      23.540  26.272  20.980  1.00  0.00     0.282 C 
ATOM     12  O   UNL     1      22.755  27.255  20.376  1.00  0.00    -0.341 OA
ATOM     13  C   UNL     1      22.907  24.963  20.546  1.00  0.00     0.202 C 
ATOM     14  C   UNL     1      23.282  24.780  19.093  1.00  0.00     0.179 C 
ATOM     15  C   UNL     1      23.431  26.073  18.355  1.00  0.00     0.177 C 
BRANCH  11  16
ATOM     16  O   UNL     1      23.537  26.469  22.340  1.00  0.00    -0.341 OA
BRANCH  16  17
ATOM     17  C   UNL     1      22.226  26.667  22.783  1.00  0.00     0.184 C 
ATOM     18  C   UNL     1      22.057  28.076  23.293  1.00  0.00     0.178 C 
ATOM     19  O   UNL     1      22.605  28.308  24.528  1.00  0.00    -0.341 OA
ATOM     20  C   UNL     1      23.092  27.166  25.160  1.00  0.00     0.281 C 
ATOM     21  C   UNL     1      21.787  25.634  23.784  1.00  0.00     0.180 C 
ATOM     22  C   UNL     1      22.007  26.096  25.198  1.00  0.00     0.202 C 
BRANCH  18  23
ATOM     23  C   UNL     1      20.587  28.476  23.293  1.00  0.00     0.191 C 
BRANCH  23  24
ATOM     24  O   UNL     1      20.041  28.456  24.562  1.00  0.00    -0.394 OA
ATOM     25  H   UNL     1      19.525  29.252  24.769  1.00  0.00     0.210 HD
ENDBRANCH  23  24
ENDBRANCH  18  23
BRANCH  20  26
ATOM     26  O   UNL     1      23.430  27.555  26.452  1.00  0.00    -0.350 OA
BRANCH  26  27
ATOM     27  C   UNL     1      24.801  27.778  26.504  1.00  0.00     0.169 C 
BRANCH  27  28
ATOM     28  C   UNL     1      25.578  26.503  26.223  1.00  0.00     0.119 C 
BRANCH  28  29
ATOM     29  N   UNL     1      25.306  25.500  27.232  1.00  0.00    -0.092 NA
ATOM     30  N   UNL     1      25.573  25.754  28.418  1.00  0.00     0.001 N 
ATOM     31  N   UNL     1      25.977  26.090  29.540  1.00  0.00    -0.003 NA
ENDBRANCH  28  29
ENDBRANCH  27  28
ENDBRANCH  26  27
ENDBRANCH  20  26
BRANCH  21  32
ATOM     32  O   UNL     1      20.441  25.318  23.594  1.00  0.00    -0.387 OA
ATOM     33  H   UNL     1      20.092  24.740  24.314  1.00  0.00     0.211 HD
ENDBRANCH  21  32
BRANCH  22  34
ATOM     34  O   UNL     1      22.420  25.046  26.010  1.00  0.00    -0.385 OA
ATOM     35  H   UNL     1      23.397  25.094  26.179  1.00  0.00     0.211 HD
ENDBRANCH  22  34
ENDBRANCH  16  17
ENDBRANCH  11  16
BRANCH  13  36
ATOM     36  O   UNL     1      23.297  23.876  21.280  1.00  0.00    -0.385 OA
ATOM     37  H   UNL     1      22.656  23.566  21.939  1.00  0.00     0.211 HD
ENDBRANCH  13  36
BRANCH  14  38
ATOM     38  O   UNL     1      22.318  23.944  18.533  1.00  0.00    -0.387 OA
ATOM     39  H   UNL     1      22.732  23.303  17.890  1.00  0.00     0.211 HD
ENDBRANCH  14  38
BRANCH  15  40
ATOM     40  O   UNL     1      22.840  25.968  17.080  1.00  0.00    -0.387 OA
ATOM     41  H   UNL     1      23.391  25.503  16.434  1.00  0.00     0.211 HD
ENDBRANCH  15  40
ENDBRANCH   9  10
ENDBRANCH   8   9
ENDBRANCH   3   8
BRANCH   3  42
ATOM     42  C   UNL     1      19.476  28.982  17.915  1.00  0.00     0.364 C 
ATOM     43  O   UNL     1      20.006  29.982  17.363  1.00  0.00    -0.246 OA
BRANCH  42  44
ATOM     44  O   UNL     1      18.744  28.080  17.160  1.00  0.00    -0.477 OA
ATOM     45  H   UNL     1      19.040  27.109  17.065  1.00  0.00     0.296 HD
ENDBRANCH  42  44
ENDBRANCH   3  42
BRANCH   6  46
ATOM     46  O   UNL     1      19.960  31.647  21.562  1.00  0.00    -0.391 OA
ATOM     47  H   UNL     1      20.914  31.729  21.348  1.00  0.00     0.211 HD
ENDBRANCH   6  46
BRANCH   7  48
ATOM     48  N   UNL     1      17.400  31.031  22.067  1.00  0.00    -0.348 N 
ATOM     49  C   UNL     1      16.977  30.650  23.365  1.00  0.00     0.217 C 
ATOM     50  H   UNL     1      17.195  31.994  21.743  1.00  0.00     0.163 HD
ATOM     51  C   UNL     1      16.217  31.587  24.233  1.00  0.00     0.114 C 
ATOM     52  O   UNL     1      17.246  29.502  23.792  1.00  0.00    -0.275 OA
ENDBRANCH   7  48
ENDBRANCH   1   2
BRANCH   1  53
ATOM     53  O   UNL     1      16.522  27.359  20.431  1.00  0.00    -0.388 OA
ATOM     54  H   UNL     1      17.507  27.317  20.223  1.00  0.00     0.211 HD
ENDBRANCH   1  53
BRANCH   1  55
ATOM     55  C   UNL     1      15.228  28.778  19.179  1.00  0.00     0.165 C 
BRANCH  55  56
ATOM     56  O   UNL     1      15.921  28.627  18.002  1.00  0.00    -0.388 OA
ATOM     57  H   UNL     1      16.699  28.029  18.068  1.00  0.00     0.211 HD
ENDBRANCH  55  56
BRANCH  55  58
ATOM     58  C   UNL     1      14.482  30.103  19.075  1.00  0.00     0.154 C 
BRANCH  58  59
ATOM     59  N   UNL     1      13.605  30.368  20.170  1.00  0.00    -0.319 N 
ATOM     60  C   UNL     1      13.841  31.399  21.120  1.00  0.00     0.407 C 
ATOM     61  H   UNL     1      12.730  29.776  20.297  1.00  0.00     0.167 HD
ATOM     62  O   UNL     1      14.886  32.093  20.960  1.00  0.00    -0.225 OA
BRANCH  60  63
ATOM     63  O   UNL     1      12.959  31.610  22.154  1.00  0.00    -0.443 OA
BRANCH  63  64
ATOM     64  C   UNL     1      12.876  30.686  23.237  1.00  0.00     0.294 C 
BRANCH  64  65
ATOM     65  C   UNL     1      11.455  30.580  23.634  1.00  0.00     0.120 A 
ATOM     66  C   UNL     1      10.802  29.508  24.184  1.00  0.00     0.138 A 
ATOM     67  N   UNL     1      10.538  31.556  23.509  1.00  0.00    -0.132 NA
ATOM     68  N   UNL     1       9.508  29.869  24.371  1.00  0.00    -0.249 N 
ATOM     69  N   UNL     1       9.382  31.111  23.954  1.00  0.00    -0.067 NA
BRANCH  68  70
ATOM     70  C   UNL     1       8.439  29.031  24.932  1.00  0.00     0.115 C 
BRANCH  70  71
ATOM     71  C   UNL     1       7.203  29.231  24.121  1.00  0.00     0.063 C 
BRANCH  71  72
ATOM     72  C   UNL     1       5.981  28.938  24.997  1.00  0.00     0.139 CG0
ATOM     73  G   UNL     1       5.865  27.483  25.189  1.00  0.00     0.000 G0
BRANCH  72  74
ATOM     74  O   UNL     1       4.835  29.465  24.405  1.00  0.00    -0.389 OA
ATOM     75  H   UNL     1       4.121  29.502  25.103  1.00  0.00     0.211 HD
ENDBRANCH  72  74
ENDBRANCH  71  72
ENDBRANCH  70  71
BRANCH  70  76
ATOM     76  C   UNL     1       8.889  27.604  24.900  1.00  0.00     0.063 C 
BRANCH  76  77
ATOM     77  C   UNL     1       8.153  26.888  26.038  1.00  0.00     0.139 C 
BRANCH  77  78
ATOM     78  C   UNL     1       6.761  26.579  25.615  1.00  0.00     0.002 C 
ATOM     79  C   UNL     1       5.861  27.454  25.189  1.00  0.00     0.002 CG0
ATOM     80  G   UNL     1       5.974  28.912  25.020  1.00  0.00     0.000 G0
ENDBRANCH  77  78
BRANCH  77  81
ATOM     81  O   UNL     1       8.826  25.746  26.445  1.00  0.00    -0.389 OA
ATOM     82  H   UNL     1       9.694  26.036  26.841  1.00  0.00     0.211 HD
ENDBRANCH  77  81
ENDBRANCH  76  77
ENDBRANCH  70  76
ENDBRANCH  68  70
ENDBRANCH  64  65
ENDBRANCH  63  64
ENDBRANCH  60  63
ENDBRANCH  58  59
ENDBRANCH  55  58
ENDBRANCH   1  55
TORSDOF 32
