REMARK VINA RESULT:    -5.422      1.871      2.783
REMARK INTER + INTRA:         -23.858
REMARK INTER:                 -16.663
REMARK INTRA:                  -7.195
REMARK UNBOUND:                -9.245
REMARK SMILES CC(=O)N[C@@H]1[C@@H](O)C[C@](OC[C@H]2O[C@@H](O[C@H]3[C@H](O)[C@@H](O)[C@H](OCCN=[N+]=[N-])O[C@@H]3CO)[C@H](O)[C@@H](O)[C@H]2O)(C(=O)O)O[C@H]1C(O)[C@H](O)CNC(=O)OCc1cn([C@@H](C)C(=O)OCc2ccccc2)nn1
REMARK SMILES IDX 43 1 42 2 9 3 8 4 41 5 6 6 5 7 10 8 11 9 12 10 14 11 13 12
REMARK SMILES IDX 32 13 34 14 36 15 15 16 16 17 29 18 28 19 21 20 17 21 19 22
REMARK SMILES IDX 30 23 31 24 22 26 23 27 24 28 25 29 26 30 27 31 18 32 20 34
REMARK SMILES IDX 33 36 35 38 37 40 38 42 39 43 40 44 7 46 4 48 2 49 1 51 3 52
REMARK SMILES IDX 44 53 45 55 46 56 47 58 48 59 49 60 50 62 51 63 52 64 53 65
REMARK SMILES IDX 54 66 69 67 55 68 68 69 56 70 57 71 58 72 59 73 60 74 61 75
REMARK SMILES IDX 62 76 63 77 67 78 64 79 66 80 65 81
REMARK H PARENT 31 25 18 33 20 35 33 37 35 39 37 41 40 45 7 47 4 50 44 54
REMARK H PARENT 46 57 48 61
REMARK Flexibility Score: inf
ROOT
ATOM      1  C   UNL     1      30.056  23.278  20.711  1.00  0.00     0.176 C 
ENDROOT
BRANCH   1   2
ATOM      2  C   UNL     1      30.387  22.024  21.422  1.00  0.00     0.178 C 
ATOM      3  C   UNL     1      29.136  20.429  20.264  1.00  0.00     0.272 C 
ATOM      4  C   UNL     1      28.313  20.231  21.479  1.00  0.00     0.113 C 
ATOM      5  O   UNL     1      30.443  20.890  20.657  1.00  0.00    -0.332 OA
ATOM      6  C   UNL     1      28.205  21.460  22.350  1.00  0.00     0.145 C 
ATOM      7  C   UNL     1      29.594  21.905  22.697  1.00  0.00     0.142 C 
BRANCH   3   8
ATOM      8  O   UNL     1      28.762  21.239  19.306  1.00  0.00    -0.338 OA
BRANCH   8   9
ATOM      9  C   UNL     1      27.753  21.244  18.484  1.00  0.00     0.199 C 
BRANCH   9  10
ATOM     10  C   UNL     1      27.852  21.698  17.056  1.00  0.00     0.179 C 
ATOM     11  C   UNL     1      26.740  21.376  15.037  1.00  0.00     0.282 C 
ATOM     12  O   UNL     1      27.140  20.848  16.262  1.00  0.00    -0.341 OA
ATOM     13  C   UNL     1      27.579  22.523  14.603  1.00  0.00     0.202 C 
ATOM     14  C   UNL     1      27.466  23.671  15.569  1.00  0.00     0.179 C 
ATOM     15  C   UNL     1      27.315  23.142  16.950  1.00  0.00     0.177 C 
BRANCH  11  16
ATOM     16  O   UNL     1      25.390  21.583  15.112  1.00  0.00    -0.341 OA
BRANCH  16  17
ATOM     17  C   UNL     1      24.725  21.594  13.922  1.00  0.00     0.184 C 
ATOM     18  C   UNL     1      23.334  22.134  14.132  1.00  0.00     0.178 C 
ATOM     19  O   UNL     1      22.590  22.008  12.953  1.00  0.00    -0.341 OA
ATOM     20  C   UNL     1      22.106  20.675  12.976  1.00  0.00     0.281 C 
ATOM     21  C   UNL     1      24.575  20.208  13.316  1.00  0.00     0.180 C 
ATOM     22  C   UNL     1      23.187  19.687  13.280  1.00  0.00     0.202 C 
BRANCH  18  23
ATOM     23  C   UNL     1      23.286  23.531  14.676  1.00  0.00     0.191 C 
BRANCH  23  24
ATOM     24  O   UNL     1      23.471  23.429  16.058  1.00  0.00    -0.394 OA
ATOM     25  H   UNL     1      24.130  22.739  16.309  1.00  0.00     0.210 HD
ENDBRANCH  23  24
ENDBRANCH  18  23
BRANCH  20  26
ATOM     26  O   UNL     1      21.446  20.456  11.809  1.00  0.00    -0.350 OA
BRANCH  26  27
ATOM     27  C   UNL     1      20.115  20.707  11.744  1.00  0.00     0.169 C 
BRANCH  27  28
ATOM     28  C   UNL     1      19.181  19.656  12.227  1.00  0.00     0.119 C 
BRANCH  28  29
ATOM     29  N   UNL     1      18.546  18.846  11.251  1.00  0.00    -0.092 NA
ATOM     30  N   UNL     1      19.166  18.294  10.349  1.00  0.00     0.001 N 
ATOM     31  N   UNL     1      19.752  17.574   9.520  1.00  0.00    -0.003 NA
ENDBRANCH  28  29
ENDBRANCH  27  28
ENDBRANCH  26  27
ENDBRANCH  20  26
BRANCH  21  32
ATOM     32  O   UNL     1      25.109  20.157  12.025  1.00  0.00    -0.387 OA
ATOM     33  H   UNL     1      24.849  20.925  11.469  1.00  0.00     0.211 HD
ENDBRANCH  21  32
BRANCH  22  34
ATOM     34  O   UNL     1      22.939  18.947  14.442  1.00  0.00    -0.385 OA
ATOM     35  H   UNL     1      22.447  18.130  14.158  1.00  0.00     0.211 HD
ENDBRANCH  22  34
ENDBRANCH  16  17
ENDBRANCH  11  16
BRANCH  13  36
ATOM     36  O   UNL     1      28.919  22.078  14.503  1.00  0.00    -0.385 OA
ATOM     37  H   UNL     1      29.389  22.817  14.010  1.00  0.00     0.211 HD
ENDBRANCH  13  36
BRANCH  14  38
ATOM     38  O   UNL     1      26.428  24.487  15.169  1.00  0.00    -0.387 OA
ATOM     39  H   UNL     1      25.852  24.059  14.478  1.00  0.00     0.211 HD
ENDBRANCH  14  38
BRANCH  15  40
ATOM     40  O   UNL     1      26.013  23.234  17.421  1.00  0.00    -0.387 OA
ATOM     41  H   UNL     1      25.715  24.195  17.377  1.00  0.00     0.211 HD
ENDBRANCH  15  40
ENDBRANCH   9  10
ENDBRANCH   8   9
ENDBRANCH   3   8
BRANCH   3  42
ATOM     42  C   UNL     1      29.524  19.056  19.753  1.00  0.00     0.364 C 
ATOM     43  O   UNL     1      29.170  18.023  20.336  1.00  0.00    -0.246 OA
BRANCH  42  44
ATOM     44  O   UNL     1      30.296  18.918  18.600  1.00  0.00    -0.477 OA
ATOM     45  H   UNL     1      30.700  19.700  18.095  1.00  0.00     0.296 HD
ENDBRANCH  42  44
ENDBRANCH   3  42
BRANCH   6  46
ATOM     46  O   UNL     1      27.445  22.471  21.769  1.00  0.00    -0.391 OA
ATOM     47  H   UNL     1      27.982  22.839  21.029  1.00  0.00     0.211 HD
ENDBRANCH   6  46
BRANCH   7  48
ATOM     48  N   UNL     1      30.183  20.927  23.602  1.00  0.00    -0.348 N 
ATOM     49  C   UNL     1      31.114  21.385  24.587  1.00  0.00     0.217 C 
ATOM     50  H   UNL     1      29.968  19.910  23.575  1.00  0.00     0.163 HD
ATOM     51  C   UNL     1      31.719  20.383  25.514  1.00  0.00     0.114 C 
ATOM     52  O   UNL     1      31.409  22.609  24.662  1.00  0.00    -0.275 OA
ENDBRANCH   7  48
ENDBRANCH   1   2
BRANCH   1  53
ATOM     53  O   UNL     1      30.316  24.368  21.576  1.00  0.00    -0.388 OA
ATOM     54  H   UNL     1      29.804  25.171  21.283  1.00  0.00     0.211 HD
ENDBRANCH   1  53
BRANCH   1  55
ATOM     55  C   UNL     1      30.961  23.556  19.500  1.00  0.00     0.165 C 
BRANCH  55  56
ATOM     56  O   UNL     1      32.123  22.852  19.545  1.00  0.00    -0.388 OA
ATOM     57  H   UNL     1      31.961  21.909  19.785  1.00  0.00     0.211 HD
ENDBRANCH  55  56
BRANCH  55  58
ATOM     58  C   UNL     1      31.095  25.025  19.261  1.00  0.00     0.154 C 
BRANCH  58  59
ATOM     59  N   UNL     1      29.806  25.634  19.085  1.00  0.00    -0.319 N 
ATOM     60  C   UNL     1      29.341  26.801  19.735  1.00  0.00     0.407 C 
ATOM     61  H   UNL     1      29.097  25.203  18.410  1.00  0.00     0.167 HD
ATOM     62  O   UNL     1      30.042  27.399  20.555  1.00  0.00    -0.225 OA
BRANCH  60  63
ATOM     63  O   UNL     1      28.064  27.319  19.467  1.00  0.00    -0.443 OA
BRANCH  63  64
ATOM     64  C   UNL     1      27.220  26.759  18.492  1.00  0.00     0.294 C 
BRANCH  64  65
ATOM     65  C   UNL     1      26.221  25.919  19.191  1.00  0.00     0.120 A 
ATOM     66  C   UNL     1      24.850  26.048  19.188  1.00  0.00     0.139 A 
ATOM     67  N   UNL     1      26.503  24.868  19.969  1.00  0.00    -0.132 NA
ATOM     68  N   UNL     1      24.325  25.065  19.972  1.00  0.00    -0.238 N 
ATOM     69  N   UNL     1      25.347  24.368  20.429  1.00  0.00    -0.066 NA
BRANCH  68  70
ATOM     70  C   UNL     1      22.905  24.930  20.186  1.00  0.00     0.215 C 
ATOM     71  C   UNL     1      22.602  23.828  21.183  1.00  0.00     0.046 C 
BRANCH  70  72
ATOM     72  C   UNL     1      22.321  26.228  20.679  1.00  0.00     0.331 C 
ATOM     73  O   UNL     1      21.348  26.717  20.081  1.00  0.00    -0.250 OA
BRANCH  72  74
ATOM     74  O   UNL     1      22.842  26.877  21.775  1.00  0.00    -0.459 OA
BRANCH  74  75
ATOM     75  C   UNL     1      22.231  26.945  23.040  1.00  0.00     0.268 C 
BRANCH  75  76
ATOM     76  C   UNL     1      22.847  26.055  24.045  1.00  0.00    -0.011 A 
ATOM     77  C   UNL     1      24.189  25.777  24.057  1.00  0.00     0.007 A 
ATOM     78  C   UNL     1      22.068  25.470  25.013  1.00  0.00     0.007 A 
ATOM     79  C   UNL     1      24.767  24.946  24.990  1.00  0.00     0.000 A 
ATOM     80  C   UNL     1      22.601  24.634  25.966  1.00  0.00     0.000 A 
ATOM     81  C   UNL     1      23.966  24.375  25.946  1.00  0.00     0.000 A 
ENDBRANCH  75  76
ENDBRANCH  74  75
ENDBRANCH  72  74
ENDBRANCH  70  72
ENDBRANCH  68  70
ENDBRANCH  64  65
ENDBRANCH  63  64
ENDBRANCH  60  63
ENDBRANCH  58  59
ENDBRANCH  55  58
ENDBRANCH   1  55
TORSDOF 34
