REMARK VINA RESULT:    -6.515      2.517      5.405
REMARK INTER + INTRA:         -21.627
REMARK INTER:                 -12.281
REMARK INTRA:                  -9.346
REMARK UNBOUND:                -4.828
REMARK SMILES CC(=O)N[C@@H]1[C@@H](O)C[C@](OC[C@H]2O[C@@H](O[C@H]3[C@H](O)[C@@H](O)[C@H](OCCN=[N+]=[N-])O[C@@H]3CO)[C@H](O)[C@@H](O)[C@H]2O)(C(=O)O)O[C@H]1C(O)[C@H](O)CNC(=O)OCc1cn(CCN2CCCC2)nn1
REMARK SMILES IDX 9 1 8 2 6 3 5 4 42 5 41 6 10 7 11 8 12 9 14 10 13 11 32 12
REMARK SMILES IDX 34 13 36 14 15 15 16 16 29 17 28 18 21 19 17 20 19 21 30 22
REMARK SMILES IDX 31 23 22 25 23 26 24 27 25 28 26 29 27 30 18 31 20 33 33 35
REMARK SMILES IDX 35 37 37 39 38 41 39 42 40 43 7 45 43 47 44 48 45 50 46 51
REMARK SMILES IDX 47 53 48 54 49 55 50 57 51 58 52 59 53 60 54 61 64 62 55 63
REMARK SMILES IDX 63 64 56 65 57 66 58 67 59 68 62 69 60 70 61 71 4 72 2 73
REMARK SMILES IDX 1 75 3 76
REMARK H PARENT 31 24 18 32 20 34 33 36 35 38 37 40 40 44 7 46 44 49 46 52
REMARK H PARENT 48 56 4 74
REMARK Flexibility Score: inf
ROOT
ATOM      1  C   UNL     1      23.326  29.301  20.137  1.00  0.00     0.272 C 
ATOM      2  C   UNL     1      23.045  28.598  21.428  1.00  0.00     0.113 C 
ATOM      3  C   UNL     1      21.783  27.733  21.311  1.00  0.00     0.145 C 
ATOM      4  C   UNL     1      20.618  28.738  21.083  1.00  0.00     0.142 C 
ATOM      5  C   UNL     1      20.987  29.556  19.901  1.00  0.00     0.178 C 
ATOM      6  O   UNL     1      22.191  29.126  19.335  1.00  0.00    -0.332 OA
ENDROOT
BRANCH   1   7
ATOM      7  O   UNL     1      24.327  28.662  19.402  1.00  0.00    -0.338 OA
BRANCH   7   8
ATOM      8  C   UNL     1      24.046  28.300  18.135  1.00  0.00     0.199 C 
BRANCH   8   9
ATOM      9  C   UNL     1      24.241  26.807  17.883  1.00  0.00     0.179 C 
ATOM     10  C   UNL     1      24.917  24.846  18.862  1.00  0.00     0.282 C 
ATOM     11  O   UNL     1      24.308  26.059  19.046  1.00  0.00    -0.341 OA
ATOM     12  C   UNL     1      24.516  24.249  17.556  1.00  0.00     0.202 C 
ATOM     13  C   UNL     1      23.148  24.780  17.167  1.00  0.00     0.179 C 
ATOM     14  C   UNL     1      23.181  26.277  16.937  1.00  0.00     0.177 C 
BRANCH  10  15
ATOM     15  O   UNL     1      24.869  23.996  19.927  1.00  0.00    -0.341 OA
BRANCH  15  16
ATOM     16  C   UNL     1      24.576  24.401  21.158  1.00  0.00     0.184 C 
ATOM     17  C   UNL     1      25.590  24.123  22.249  1.00  0.00     0.178 C 
ATOM     18  O   UNL     1      25.364  25.062  23.260  1.00  0.00    -0.341 OA
ATOM     19  C   UNL     1      24.203  24.605  23.949  1.00  0.00     0.281 C 
ATOM     20  C   UNL     1      23.249  23.928  21.724  1.00  0.00     0.180 C 
ATOM     21  C   UNL     1      23.050  24.757  22.978  1.00  0.00     0.202 C 
BRANCH  17  22
ATOM     22  C   UNL     1      27.010  24.144  21.797  1.00  0.00     0.191 C 
BRANCH  22  23
ATOM     23  O   UNL     1      27.269  25.396  21.247  1.00  0.00    -0.394 OA
ATOM     24  H   UNL     1      28.252  25.542  21.177  1.00  0.00     0.210 HD
ENDBRANCH  22  23
ENDBRANCH  17  22
BRANCH  19  25
ATOM     25  O   UNL     1      24.012  25.486  24.964  1.00  0.00    -0.350 OA
BRANCH  25  26
ATOM     26  C   UNL     1      24.175  26.812  24.753  1.00  0.00     0.169 C 
BRANCH  26  27
ATOM     27  C   UNL     1      23.373  27.756  25.578  1.00  0.00     0.119 C 
BRANCH  27  28
ATOM     28  N   UNL     1      22.196  28.275  24.925  1.00  0.00    -0.092 NA
ATOM     29  N   UNL     1      21.173  27.604  24.906  1.00  0.00     0.001 N 
ATOM     30  N   UNL     1      20.188  26.869  25.033  1.00  0.00    -0.003 NA
ENDBRANCH  27  28
ENDBRANCH  26  27
ENDBRANCH  25  26
ENDBRANCH  19  25
BRANCH  20  31
ATOM     31  O   UNL     1      22.197  24.240  20.875  1.00  0.00    -0.387 OA
ATOM     32  H   UNL     1      21.657  25.001  21.163  1.00  0.00     0.211 HD
ENDBRANCH  20  31
BRANCH  21  33
ATOM     33  O   UNL     1      21.824  24.563  23.568  1.00  0.00    -0.385 OA
ATOM     34  H   UNL     1      21.057  24.502  22.973  1.00  0.00     0.211 HD
ENDBRANCH  21  33
ENDBRANCH  15  16
ENDBRANCH  10  15
BRANCH  12  35
ATOM     35  O   UNL     1      25.387  24.570  16.508  1.00  0.00    -0.385 OA
ATOM     36  H   UNL     1      24.882  24.994  15.755  1.00  0.00     0.211 HD
ENDBRANCH  12  35
BRANCH  13  37
ATOM     37  O   UNL     1      22.238  24.548  18.202  1.00  0.00    -0.387 OA
ATOM     38  H   UNL     1      21.991  23.570  18.227  1.00  0.00     0.211 HD
ENDBRANCH  13  37
BRANCH  14  39
ATOM     39  O   UNL     1      21.914  26.757  17.259  1.00  0.00    -0.387 OA
ATOM     40  H   UNL     1      21.811  26.583  18.241  1.00  0.00     0.211 HD
ENDBRANCH  14  39
ENDBRANCH   8   9
ENDBRANCH   7   8
ENDBRANCH   1   7
BRANCH   1  41
ATOM     41  C   UNL     1      23.620  30.751  20.287  1.00  0.00     0.364 C 
ATOM     42  O   UNL     1      23.599  31.238  21.458  1.00  0.00    -0.246 OA
BRANCH  41  43
ATOM     43  O   UNL     1      23.913  31.623  19.272  1.00  0.00    -0.477 OA
ATOM     44  H   UNL     1      24.536  31.491  18.509  1.00  0.00     0.296 HD
ENDBRANCH  41  43
ENDBRANCH   1  41
BRANCH   3  45
ATOM     45  O   UNL     1      21.825  26.929  20.200  1.00  0.00    -0.391 OA
ATOM     46  H   UNL     1      22.725  26.891  19.779  1.00  0.00     0.211 HD
ENDBRANCH   3  45
BRANCH   5  47
ATOM     47  C   UNL     1      19.984  29.370  18.787  1.00  0.00     0.176 C 
BRANCH  47  48
ATOM     48  O   UNL     1      19.442  28.102  18.706  1.00  0.00    -0.388 OA
ATOM     49  H   UNL     1      18.840  27.945  17.946  1.00  0.00     0.211 HD
ENDBRANCH  47  48
BRANCH  47  50
ATOM     50  C   UNL     1      18.959  30.414  18.569  1.00  0.00     0.165 C 
BRANCH  50  51
ATOM     51  O   UNL     1      17.842  30.363  19.368  1.00  0.00    -0.388 OA
ATOM     52  H   UNL     1      17.246  29.594  19.225  1.00  0.00     0.211 HD
ENDBRANCH  50  51
BRANCH  50  53
ATOM     53  C   UNL     1      18.783  30.908  17.171  1.00  0.00     0.154 C 
BRANCH  53  54
ATOM     54  N   UNL     1      17.453  30.826  16.694  1.00  0.00    -0.319 N 
ATOM     55  C   UNL     1      16.830  29.577  16.345  1.00  0.00     0.407 C 
ATOM     56  H   UNL     1      16.874  31.693  16.584  1.00  0.00     0.167 HD
ATOM     57  O   UNL     1      17.410  28.479  16.437  1.00  0.00    -0.225 OA
BRANCH  55  58
ATOM     58  O   UNL     1      15.514  29.555  15.884  1.00  0.00    -0.443 OA
BRANCH  58  59
ATOM     59  C   UNL     1      14.536  30.422  16.468  1.00  0.00     0.294 C 
BRANCH  59  60
ATOM     60  C   UNL     1      14.488  30.246  17.933  1.00  0.00     0.120 A 
ATOM     61  C   UNL     1      13.996  29.253  18.731  1.00  0.00     0.138 A 
ATOM     62  N   UNL     1      14.992  31.166  18.806  1.00  0.00    -0.132 NA
ATOM     63  N   UNL     1      14.199  29.567  20.011  1.00  0.00    -0.251 N 
ATOM     64  N   UNL     1      14.821  30.764  20.029  1.00  0.00    -0.067 NA
BRANCH  63  65
ATOM     65  C   UNL     1      13.864  28.853  21.202  1.00  0.00     0.161 C 
BRANCH  65  66
ATOM     66  C   UNL     1      13.044  29.619  22.173  1.00  0.00     0.108 C 
BRANCH  66  67
ATOM     67  N   UNL     1      13.525  29.835  23.472  1.00  0.00    -0.301 NA
ATOM     68  C   UNL     1      14.810  29.398  23.848  1.00  0.00     0.084 C 
ATOM     69  C   UNL     1      13.226  31.109  24.052  1.00  0.00     0.084 C 
ATOM     70  C   UNL     1      15.501  30.549  24.564  1.00  0.00     0.017 C 
ATOM     71  C   UNL     1      14.397  31.511  24.894  1.00  0.00     0.017 C 
ENDBRANCH  66  67
ENDBRANCH  65  66
ENDBRANCH  63  65
ENDBRANCH  59  60
ENDBRANCH  58  59
ENDBRANCH  55  58
ENDBRANCH  53  54
ENDBRANCH  50  53
ENDBRANCH  47  50
ENDBRANCH   5  47
BRANCH   4  72
ATOM     72  N   UNL     1      20.486  29.479  22.323  1.00  0.00    -0.348 N 
ATOM     73  C   UNL     1      19.251  29.998  22.809  1.00  0.00     0.217 C 
ATOM     74  H   UNL     1      21.315  29.661  22.918  1.00  0.00     0.163 HD
ATOM     75  C   UNL     1      19.233  30.761  24.105  1.00  0.00     0.114 C 
ATOM     76  O   UNL     1      18.220  29.814  22.160  1.00  0.00    -0.275 OA
ENDBRANCH   4  72
TORSDOF 32
