REMARK VINA RESULT:    -5.537     11.890     18.696
REMARK INTER + INTRA:         -24.195
REMARK INTER:                 -16.844
REMARK INTRA:                  -7.351
REMARK UNBOUND:                -7.166
REMARK SMILES CC(=O)N[C@@H]1[C@@H](O)C[C@](OC[C@H]2O[C@@H](O[C@H]3[C@H](O)[C@@H](O)[C@H](OCCN=[N+]=[N-])O[C@@H]3CO)[C@H](O)[C@@H](O)[C@H]2O)(C(=O)O)O[C@H]1C(O)[C@H](O)CNC(=O)OCc1cn(CCCCCCCCCCC(=O)O)nn1
REMARK SMILES IDX 51 1 49 2 48 3 50 5 47 6 45 7 43 8 42 9 9 10 8 11 41 12 6 13
REMARK SMILES IDX 5 14 10 15 11 16 12 17 14 18 13 19 32 20 34 21 36 22 15 23
REMARK SMILES IDX 16 24 29 25 28 26 21 27 17 28 19 29 30 30 31 31 22 33 23 34
REMARK SMILES IDX 24 35 25 36 26 37 27 38 18 39 20 41 33 43 35 45 37 47 38 49
REMARK SMILES IDX 39 50 40 51 7 53 4 55 2 56 1 58 3 59 44 60 46 62 52 64 53 65
REMARK SMILES IDX 54 66 70 67 55 68 69 69 56 70 57 71 58 72 59 73 60 74 61 75
REMARK SMILES IDX 62 76 63 77 64 78 65 79 66 80 67 81 68 82
REMARK H PARENT 48 4 31 32 18 40 20 42 33 44 35 46 37 48 40 52 7 54 4 57 44 61
REMARK H PARENT 46 63 68 83
REMARK Flexibility Score: inf
ROOT
ATOM      1  O   UNL     1       2.602  20.641  28.928  1.00  0.00    -0.443 OA
ENDROOT
BRANCH   1   2
ATOM      2  C   UNL     1       3.204  20.485  30.196  1.00  0.00     0.407 C 
ATOM      3  N   UNL     1       3.945  21.541  30.783  1.00  0.00    -0.319 N 
ATOM      4  H   UNL     1       4.043  22.443  30.247  1.00  0.00     0.167 HD
ATOM      5  O   UNL     1       3.096  19.413  30.834  1.00  0.00    -0.225 OA
BRANCH   3   6
ATOM      6  C   UNL     1       4.563  21.429  32.069  1.00  0.00     0.154 C 
BRANCH   6   7
ATOM      7  C   UNL     1       4.775  22.760  32.784  1.00  0.00     0.165 C 
BRANCH   7   8
ATOM      8  C   UNL     1       3.432  23.396  32.874  1.00  0.00     0.176 C 
BRANCH   8   9
ATOM      9  C   UNL     1       3.385  24.888  32.641  1.00  0.00     0.178 C 
ATOM     10  C   UNL     1       4.703  26.776  32.964  1.00  0.00     0.272 C 
ATOM     11  C   UNL     1       3.415  27.516  33.256  1.00  0.00     0.113 C 
ATOM     12  O   UNL     1       4.483  25.440  33.240  1.00  0.00    -0.332 OA
ATOM     13  C   UNL     1       2.370  26.673  33.911  1.00  0.00     0.145 C 
ATOM     14  C   UNL     1       2.067  25.493  33.012  1.00  0.00     0.142 C 
BRANCH  10  15
ATOM     15  O   UNL     1       5.751  27.271  33.758  1.00  0.00    -0.338 OA
BRANCH  15  16
ATOM     16  C   UNL     1       6.735  26.401  34.082  1.00  0.00     0.199 C 
BRANCH  16  17
ATOM     17  C   UNL     1       7.739  27.186  34.953  1.00  0.00     0.179 C 
ATOM     18  C   UNL     1       9.475  25.699  35.564  1.00  0.00     0.282 C 
ATOM     19  O   UNL     1       8.370  26.426  35.856  1.00  0.00    -0.341 OA
ATOM     20  C   UNL     1      10.132  26.078  34.291  1.00  0.00     0.202 C 
ATOM     21  C   UNL     1      10.058  27.592  34.130  1.00  0.00     0.179 C 
ATOM     22  C   UNL     1       8.616  28.051  34.076  1.00  0.00     0.177 C 
BRANCH  18  23
ATOM     23  O   UNL     1       9.089  24.336  35.622  1.00  0.00    -0.341 OA
BRANCH  23  24
ATOM     24  C   UNL     1       9.416  23.868  36.888  1.00  0.00     0.184 C 
ATOM     25  C   UNL     1      10.208  22.603  36.914  1.00  0.00     0.178 C 
ATOM     26  O   UNL     1      10.329  22.134  38.189  1.00  0.00    -0.341 OA
ATOM     27  C   UNL     1       9.935  22.872  39.242  1.00  0.00     0.281 C 
ATOM     28  C   UNL     1       8.129  23.582  37.679  1.00  0.00     0.180 C 
ATOM     29  C   UNL     1       8.549  23.461  39.126  1.00  0.00     0.202 C 
BRANCH  25  30
ATOM     30  C   UNL     1      11.581  22.732  36.281  1.00  0.00     0.191 C 
BRANCH  30  31
ATOM     31  O   UNL     1      12.217  23.910  36.573  1.00  0.00    -0.394 OA
ATOM     32  H   UNL     1      11.883  24.239  37.448  1.00  0.00     0.210 HD
ENDBRANCH  30  31
ENDBRANCH  25  30
BRANCH  27  33
ATOM     33  O   UNL     1      10.828  23.912  39.461  1.00  0.00    -0.350 OA
BRANCH  33  34
ATOM     34  C   UNL     1      11.661  23.669  40.553  1.00  0.00     0.169 C 
BRANCH  34  35
ATOM     35  C   UNL     1      11.129  22.578  41.439  1.00  0.00     0.119 C 
BRANCH  35  36
ATOM     36  N   UNL     1      12.256  21.775  41.917  1.00  0.00    -0.092 NA
ATOM     37  N   UNL     1      12.112  20.557  42.162  1.00  0.00     0.001 N 
ATOM     38  N   UNL     1      11.683  19.397  42.340  1.00  0.00    -0.003 NA
ENDBRANCH  35  36
ENDBRANCH  34  35
ENDBRANCH  33  34
ENDBRANCH  27  33
BRANCH  28  39
ATOM     39  O   UNL     1       7.191  24.584  37.547  1.00  0.00    -0.387 OA
ATOM     40  H   UNL     1       7.403  25.234  36.831  1.00  0.00     0.211 HD
ENDBRANCH  28  39
BRANCH  29  41
ATOM     41  O   UNL     1       7.666  22.581  39.743  1.00  0.00    -0.385 OA
ATOM     42  H   UNL     1       7.503  22.926  40.675  1.00  0.00     0.211 HD
ENDBRANCH  29  41
ENDBRANCH  23  24
ENDBRANCH  18  23
BRANCH  20  43
ATOM     43  O   UNL     1      11.503  25.786  34.282  1.00  0.00    -0.385 OA
ATOM     44  H   UNL     1      11.961  26.638  34.547  1.00  0.00     0.211 HD
ENDBRANCH  20  43
BRANCH  21  45
ATOM     45  O   UNL     1      10.719  27.996  32.972  1.00  0.00    -0.387 OA
ATOM     46  H   UNL     1      11.634  27.619  33.027  1.00  0.00     0.211 HD
ENDBRANCH  21  45
BRANCH  22  47
ATOM     47  O   UNL     1       8.200  27.984  32.769  1.00  0.00    -0.387 OA
ATOM     48  H   UNL     1       8.594  27.175  32.355  1.00  0.00     0.211 HD
ENDBRANCH  22  47
ENDBRANCH  16  17
ENDBRANCH  15  16
ENDBRANCH  10  15
BRANCH  10  49
ATOM     49  C   UNL     1       5.153  26.974  31.583  1.00  0.00     0.364 C 
ATOM     50  O   UNL     1       5.542  28.071  31.151  1.00  0.00    -0.246 OA
BRANCH  49  51
ATOM     51  O   UNL     1       5.162  25.917  30.689  1.00  0.00    -0.477 OA
ATOM     52  H   UNL     1       4.383  25.732  30.053  1.00  0.00     0.296 HD
ENDBRANCH  49  51
ENDBRANCH  10  49
BRANCH  13  53
ATOM     53  O   UNL     1       2.634  26.296  35.210  1.00  0.00    -0.391 OA
ATOM     54  H   UNL     1       2.079  25.527  35.527  1.00  0.00     0.211 HD
ENDBRANCH  13  53
BRANCH  14  55
ATOM     55  N   UNL     1       1.291  25.976  31.918  1.00  0.00    -0.348 N 
ATOM     56  C   UNL     1      -0.129  25.896  31.842  1.00  0.00     0.217 C 
ATOM     57  H   UNL     1       1.757  26.429  31.095  1.00  0.00     0.163 HD
ATOM     58  C   UNL     1      -0.862  26.420  30.676  1.00  0.00     0.114 C 
ATOM     59  O   UNL     1      -0.729  25.367  32.795  1.00  0.00    -0.275 OA
ENDBRANCH  14  55
ENDBRANCH   8   9
BRANCH   8  60
ATOM     60  O   UNL     1       2.818  22.982  34.025  1.00  0.00    -0.388 OA
ATOM     61  H   UNL     1       3.124  23.410  34.840  1.00  0.00     0.211 HD
ENDBRANCH   8  60
ENDBRANCH   7   8
BRANCH   7  62
ATOM     62  O   UNL     1       5.708  23.474  32.041  1.00  0.00    -0.388 OA
ATOM     63  H   UNL     1       5.342  24.327  31.702  1.00  0.00     0.211 HD
ENDBRANCH   7  62
ENDBRANCH   6   7
ENDBRANCH   3   6
ENDBRANCH   1   2
BRANCH   1  64
ATOM     64  C   UNL     1       1.487  21.540  28.858  1.00  0.00     0.294 C 
BRANCH  64  65
ATOM     65  C   UNL     1       2.036  22.906  28.730  1.00  0.00     0.120 A 
ATOM     66  C   UNL     1       2.739  23.378  27.636  1.00  0.00     0.138 A 
ATOM     67  N   UNL     1       1.958  23.915  29.608  1.00  0.00    -0.132 NA
ATOM     68  N   UNL     1       3.051  24.659  27.909  1.00  0.00    -0.252 N 
ATOM     69  N   UNL     1       2.562  24.966  29.126  1.00  0.00    -0.067 NA
BRANCH  68  70
ATOM     70  C   UNL     1       3.769  25.599  27.106  1.00  0.00     0.146 C 
BRANCH  70  71
ATOM     71  C   UNL     1       3.396  25.644  25.666  1.00  0.00     0.024 C 
BRANCH  71  72
ATOM     72  C   UNL     1       3.382  26.990  25.030  1.00  0.00     0.002 C 
BRANCH  72  73
ATOM     73  C   UNL     1       2.332  27.926  25.516  1.00  0.00     0.000 C 
BRANCH  73  74
ATOM     74  C   UNL     1       2.749  29.350  25.655  1.00  0.00     0.000 C 
BRANCH  74  75
ATOM     75  C   UNL     1       3.441  29.562  26.972  1.00  0.00     0.000 C 
BRANCH  75  76
ATOM     76  C   UNL     1       4.864  30.057  26.824  1.00  0.00     0.000 C 
BRANCH  76  77
ATOM     77  C   UNL     1       5.890  29.015  27.124  1.00  0.00     0.001 C 
BRANCH  77  78
ATOM     78  C   UNL     1       6.640  28.510  25.930  1.00  0.00     0.012 C 
BRANCH  78  79
ATOM     79  C   UNL     1       6.946  27.038  26.147  1.00  0.00     0.122 C 
BRANCH  79  80
ATOM     80  C   UNL     1       8.158  26.684  25.388  1.00  0.00     0.303 C 
ATOM     81  O   UNL     1       9.274  26.658  25.946  1.00  0.00    -0.252 OA
BRANCH  80  82
ATOM     82  O   UNL     1       8.099  26.372  24.037  1.00  0.00    -0.481 OA
ATOM     83  H   UNL     1       8.823  26.638  23.394  1.00  0.00     0.296 HD
ENDBRANCH  80  82
ENDBRANCH  79  80
ENDBRANCH  78  79
ENDBRANCH  77  78
ENDBRANCH  76  77
ENDBRANCH  75  76
ENDBRANCH  74  75
ENDBRANCH  73  74
ENDBRANCH  72  73
ENDBRANCH  71  72
ENDBRANCH  70  71
ENDBRANCH  68  70
ENDBRANCH  64  65
ENDBRANCH   1  64
TORSDOF 41
