REMARK VINA RESULT:    -6.069     13.411     19.787
REMARK INTER + INTRA:         -22.888
REMARK INTER:                 -12.957
REMARK INTRA:                  -9.931
REMARK UNBOUND:                -6.885
REMARK SMILES CCOC(=O)c1cccc(-n2cc(COC(=O)NC[C@@H](O)C(O)[C@@H]3O[C@@](OC[C@H]4O[C@@H](O[C@H]5[C@H](O)[C@@H](O)[C@H](OCCN=[N+]=[N-])O[C@@H]5CO)[C@H](O)[C@@H](O)[C@H]4O)(C(=O)O)C[C@H](O)[C@H]3NC(C)=O)nn2)c1
REMARK SMILES IDX 22 1 24 2 26 3 58 4 25 5 59 6 61 7 27 8 28 9 29 10 31 11
REMARK SMILES IDX 30 12 49 13 51 14 53 15 32 16 33 17 46 18 45 19 38 20 34 21
REMARK SMILES IDX 36 22 47 23 48 24 39 26 40 27 41 28 42 29 43 30 44 31 35 32
REMARK SMILES IDX 37 34 50 36 52 38 54 40 55 42 56 43 57 44 60 46 62 48 63 49
REMARK SMILES IDX 64 51 65 52 23 53 20 55 21 56 19 58 18 59 16 60 17 62 15 63
REMARK SMILES IDX 14 64 13 65 12 66 66 67 11 68 67 69 10 70 68 71 9 72 6 73
REMARK SMILES IDX 8 74 7 75 4 76 5 77 3 78 2 79 1 80
REMARK H PARENT 48 25 35 33 37 35 50 37 52 39 54 41 57 45 60 47 62 50 23 54
REMARK H PARENT 21 57 18 61
REMARK Flexibility Score: inf
ROOT
ATOM      1  C   UNL     1      24.129  26.137  20.843  1.00  0.00     0.176 C 
ENDROOT
BRANCH   1   2
ATOM      2  C   UNL     1      23.949  25.500  22.156  1.00  0.00     0.178 C 
ATOM      3  C   UNL     1      22.340  25.636  23.883  1.00  0.00     0.272 C 
ATOM      4  C   UNL     1      23.276  24.605  24.425  1.00  0.00     0.113 C 
ATOM      5  O   UNL     1      23.162  26.350  22.939  1.00  0.00    -0.332 OA
ATOM      6  C   UNL     1      24.730  25.048  24.426  1.00  0.00     0.145 C 
ATOM      7  C   UNL     1      25.174  25.163  22.930  1.00  0.00     0.142 C 
BRANCH   3   8
ATOM      8  O   UNL     1      22.028  26.550  24.841  1.00  0.00    -0.338 OA
BRANCH   8   9
ATOM      9  C   UNL     1      21.240  27.588  24.714  1.00  0.00     0.199 C 
BRANCH   9  10
ATOM     10  C   UNL     1      21.589  28.931  24.232  1.00  0.00     0.179 C 
ATOM     11  C   UNL     1      23.261  30.191  23.188  1.00  0.00     0.282 C 
ATOM     12  O   UNL     1      22.910  29.103  24.019  1.00  0.00    -0.341 OA
ATOM     13  C   UNL     1      22.124  31.155  23.044  1.00  0.00     0.202 C 
ATOM     14  C   UNL     1      20.864  30.523  22.546  1.00  0.00     0.179 C 
ATOM     15  C   UNL     1      20.884  29.063  22.843  1.00  0.00     0.177 C 
BRANCH  11  16
ATOM     16  O   UNL     1      23.730  29.627  22.038  1.00  0.00    -0.341 OA
BRANCH  16  17
ATOM     17  C   UNL     1      24.897  30.060  21.511  1.00  0.00     0.184 C 
ATOM     18  C   UNL     1      24.821  29.931  20.012  1.00  0.00     0.178 C 
ATOM     19  O   UNL     1      25.980  30.412  19.400  1.00  0.00    -0.341 OA
ATOM     20  C   UNL     1      27.037  29.516  19.724  1.00  0.00     0.281 C 
ATOM     21  C   UNL     1      26.100  29.215  21.963  1.00  0.00     0.180 C 
ATOM     22  C   UNL     1      27.307  29.738  21.187  1.00  0.00     0.202 C 
BRANCH  18  23
ATOM     23  C   UNL     1      23.648  30.690  19.461  1.00  0.00     0.191 C 
BRANCH  23  24
ATOM     24  O   UNL     1      22.496  29.860  19.437  1.00  0.00    -0.394 OA
ATOM     25  H   UNL     1      22.632  29.068  20.016  1.00  0.00     0.210 HD
ENDBRANCH  23  24
ENDBRANCH  18  23
BRANCH  20  26
ATOM     26  O   UNL     1      28.090  29.799  18.903  1.00  0.00    -0.350 OA
BRANCH  26  27
ATOM     27  C   UNL     1      28.230  28.872  17.880  1.00  0.00     0.169 C 
BRANCH  27  28
ATOM     28  C   UNL     1      27.479  29.235  16.633  1.00  0.00     0.119 C 
BRANCH  28  29
ATOM     29  N   UNL     1      26.308  28.359  16.507  1.00  0.00    -0.092 NA
ATOM     30  N   UNL     1      25.194  28.897  16.450  1.00  0.00     0.001 N 
ATOM     31  N   UNL     1      24.052  29.288  16.137  1.00  0.00    -0.003 NA
ENDBRANCH  28  29
ENDBRANCH  27  28
ENDBRANCH  26  27
ENDBRANCH  20  26
BRANCH  21  32
ATOM     32  O   UNL     1      26.399  29.443  23.298  1.00  0.00    -0.387 OA
ATOM     33  H   UNL     1      26.857  28.638  23.638  1.00  0.00     0.211 HD
ENDBRANCH  21  32
BRANCH  22  34
ATOM     34  O   UNL     1      28.476  29.112  21.606  1.00  0.00    -0.385 OA
ATOM     35  H   UNL     1      28.609  28.207  21.190  1.00  0.00     0.211 HD
ENDBRANCH  22  34
ENDBRANCH  16  17
ENDBRANCH  11  16
BRANCH  13  36
ATOM     36  O   UNL     1      21.939  31.832  24.265  1.00  0.00    -0.385 OA
ATOM     37  H   UNL     1      21.773  31.214  25.012  1.00  0.00     0.211 HD
ENDBRANCH  13  36
BRANCH  14  38
ATOM     38  O   UNL     1      20.546  30.863  21.251  1.00  0.00    -0.387 OA
ATOM     39  H   UNL     1      20.314  31.830  21.252  1.00  0.00     0.211 HD
ENDBRANCH  14  38
BRANCH  15  40
ATOM     40  O   UNL     1      21.507  28.328  21.884  1.00  0.00    -0.387 OA
ATOM     41  H   UNL     1      22.221  28.867  21.462  1.00  0.00     0.211 HD
ENDBRANCH  15  40
ENDBRANCH   9  10
ENDBRANCH   8   9
ENDBRANCH   3   8
BRANCH   3  42
ATOM     42  C   UNL     1      21.189  25.136  23.146  1.00  0.00     0.364 C 
ATOM     43  O   UNL     1      20.495  24.190  23.551  1.00  0.00    -0.246 OA
BRANCH  42  44
ATOM     44  O   UNL     1      20.820  25.716  21.931  1.00  0.00    -0.477 OA
ATOM     45  H   UNL     1      20.896  26.692  21.735  1.00  0.00     0.296 HD
ENDBRANCH  42  44
ENDBRANCH   3  42
BRANCH   6  46
ATOM     46  O   UNL     1      24.799  26.319  24.939  1.00  0.00    -0.391 OA
ATOM     47  H   UNL     1      23.978  26.511  25.454  1.00  0.00     0.211 HD
ENDBRANCH   6  46
BRANCH   7  48
ATOM     48  N   UNL     1      25.734  23.876  22.585  1.00  0.00    -0.348 N 
ATOM     49  C   UNL     1      26.971  23.707  21.883  1.00  0.00     0.217 C 
ATOM     50  H   UNL     1      25.249  22.965  22.843  1.00  0.00     0.163 HD
ATOM     51  C   UNL     1      27.518  22.366  21.544  1.00  0.00     0.114 C 
ATOM     52  O   UNL     1      27.626  24.710  21.535  1.00  0.00    -0.275 OA
ENDBRANCH   7  48
ENDBRANCH   1   2
BRANCH   1  53
ATOM     53  O   UNL     1      25.394  26.119  20.320  1.00  0.00    -0.388 OA
ATOM     54  H   UNL     1      25.900  26.941  20.515  1.00  0.00     0.211 HD
ENDBRANCH   1  53
BRANCH   1  55
ATOM     55  C   UNL     1      23.095  25.832  19.789  1.00  0.00     0.165 C 
BRANCH  55  56
ATOM     56  O   UNL     1      22.778  24.470  19.790  1.00  0.00    -0.388 OA
ATOM     57  H   UNL     1      22.264  24.237  18.974  1.00  0.00     0.211 HD
ENDBRANCH  55  56
BRANCH  55  58
ATOM     58  C   UNL     1      23.382  26.414  18.438  1.00  0.00     0.154 C 
BRANCH  58  59
ATOM     59  N   UNL     1      22.303  27.247  17.960  1.00  0.00    -0.319 N 
ATOM     60  C   UNL     1      21.567  26.907  16.802  1.00  0.00     0.407 C 
ATOM     61  H   UNL     1      22.039  28.140  18.479  1.00  0.00     0.167 HD
ATOM     62  O   UNL     1      21.756  25.889  16.099  1.00  0.00    -0.225 OA
BRANCH  60  63
ATOM     63  O   UNL     1      20.533  27.750  16.350  1.00  0.00    -0.443 OA
BRANCH  63  64
ATOM     64  C   UNL     1      20.124  28.923  16.984  1.00  0.00     0.294 C 
BRANCH  64  65
ATOM     65  C   UNL     1      19.362  28.751  18.228  1.00  0.00     0.121 A 
ATOM     66  C   UNL     1      18.002  28.986  18.396  1.00  0.00     0.144 A 
ATOM     67  N   UNL     1      19.816  28.347  19.408  1.00  0.00    -0.131 NA
ATOM     68  N   UNL     1      17.700  28.716  19.665  1.00  0.00    -0.220 N 
ATOM     69  N   UNL     1      18.800  28.330  20.270  1.00  0.00    -0.062 NA
BRANCH  68  70
ATOM     70  C   UNL     1      16.419  28.824  20.247  1.00  0.00     0.067 A 
ATOM     71  C   UNL     1      16.254  29.074  21.607  1.00  0.00     0.044 A 
ATOM     72  C   UNL     1      15.274  28.699  19.506  1.00  0.00     0.028 A 
ATOM     73  C   UNL     1      15.034  29.198  22.215  1.00  0.00     0.062 A 
ATOM     74  C   UNL     1      14.020  28.819  20.083  1.00  0.00     0.003 A 
ATOM     75  C   UNL     1      13.894  29.066  21.431  1.00  0.00     0.016 A 
BRANCH  73  76
ATOM     76  C   UNL     1      14.934  29.456  23.636  1.00  0.00     0.338 C 
ATOM     77  O   UNL     1      15.969  29.677  24.294  1.00  0.00    -0.246 OA
BRANCH  76  78
ATOM     78  O   UNL     1      13.709  29.459  24.251  1.00  0.00    -0.462 OA
BRANCH  78  79
ATOM     79  C   UNL     1      13.176  30.560  24.950  1.00  0.00     0.230 C 
ATOM     80  C   UNL     1      13.153  31.778  24.052  1.00  0.00     0.049 C 
ENDBRANCH  78  79
ENDBRANCH  76  78
ENDBRANCH  73  76
ENDBRANCH  68  70
ENDBRANCH  64  65
ENDBRANCH  63  64
ENDBRANCH  60  63
ENDBRANCH  58  59
ENDBRANCH  55  58
ENDBRANCH   1  55
TORSDOF 33
