REMARK VINA RESULT:    -6.092      9.917     15.913
REMARK INTER + INTRA:         -23.559
REMARK INTER:                 -16.151
REMARK INTRA:                  -7.407
REMARK UNBOUND:                -7.494
REMARK SMILES CC(=O)N[C@@H]1[C@@H](O)C[C@](OC[C@H]2O[C@@H](O[C@H]3[C@H](O)[C@@H](O)[C@H](OCCN=[N+]=[N-])O[C@@H]3CO)[C@H](O)[C@@H](O)[C@H]2O)(C(=O)O)O[C@H]1C(O)[C@H](O)CNC(=O)OCc1cn(C(C)CC(=O)c2ccccc2)nn1
REMARK SMILES IDX 43 1 42 2 9 3 8 4 41 5 6 6 5 7 10 8 11 9 12 10 14 11 13 12
REMARK SMILES IDX 32 13 34 14 36 15 15 16 16 17 29 18 28 19 21 20 17 21 19 22
REMARK SMILES IDX 30 23 31 24 22 26 23 27 24 28 25 29 26 30 27 31 18 32 20 34
REMARK SMILES IDX 33 36 35 38 37 40 38 42 39 43 40 44 7 46 4 48 2 49 1 51 3 52
REMARK SMILES IDX 44 53 45 55 46 56 47 58 48 59 49 60 50 62 51 63 52 64 53 65
REMARK SMILES IDX 54 66 68 67 55 68 67 69 56 70 57 71 58 72 59 73 60 74 61 75
REMARK SMILES IDX 62 76 66 77 63 78 65 79 64 80
REMARK H PARENT 31 25 18 33 20 35 33 37 35 39 37 41 40 45 7 47 4 50 44 54
REMARK H PARENT 46 57 48 61
REMARK Flexibility Score: inf
ROOT
ATOM      1  C   UNL     1      29.533  23.399  17.526  1.00  0.00     0.176 C 
ENDROOT
BRANCH   1   2
ATOM      2  C   UNL     1      29.777  22.925  18.890  1.00  0.00     0.178 C 
ATOM      3  C   UNL     1      29.791  20.598  19.278  1.00  0.00     0.272 C 
ATOM      4  C   UNL     1      29.253  20.728  20.662  1.00  0.00     0.113 C 
ATOM      5  O   UNL     1      30.520  21.825  19.064  1.00  0.00    -0.332 OA
ATOM      6  C   UNL     1      28.814  22.149  20.959  1.00  0.00     0.145 C 
ATOM      7  C   UNL     1      28.472  22.883  19.717  1.00  0.00     0.142 C 
BRANCH   3   8
ATOM      8  O   UNL     1      29.026  20.423  18.241  1.00  0.00    -0.338 OA
BRANCH   8   9
ATOM      9  C   UNL     1      28.398  19.479  17.634  1.00  0.00     0.199 C 
BRANCH   9  10
ATOM     10  C   UNL     1      28.198  19.300  16.164  1.00  0.00     0.179 C 
ATOM     11  C   UNL     1      27.156  20.540  14.438  1.00  0.00     0.282 C 
ATOM     12  O   UNL     1      27.318  20.209  15.731  1.00  0.00    -0.341 OA
ATOM     13  C   UNL     1      28.456  20.890  13.795  1.00  0.00     0.202 C 
ATOM     14  C   UNL     1      29.549  19.992  14.161  1.00  0.00     0.179 C 
ATOM     15  C   UNL     1      29.396  19.079  15.330  1.00  0.00     0.177 C 
BRANCH  11  16
ATOM     16  O   UNL     1      26.287  21.665  14.453  1.00  0.00    -0.341 OA
BRANCH  16  17
ATOM     17  C   UNL     1      24.985  21.232  14.514  1.00  0.00     0.184 C 
ATOM     18  C   UNL     1      24.613  20.436  13.297  1.00  0.00     0.178 C 
ATOM     19  O   UNL     1      24.632  21.211  12.148  1.00  0.00    -0.341 OA
ATOM     20  C   UNL     1      23.887  22.349  12.153  1.00  0.00     0.281 C 
ATOM     21  C   UNL     1      24.065  22.467  14.607  1.00  0.00     0.180 C 
ATOM     22  C   UNL     1      24.063  23.236  13.337  1.00  0.00     0.202 C 
BRANCH  18  23
ATOM     23  C   UNL     1      23.285  19.729  13.476  1.00  0.00     0.191 C 
BRANCH  23  24
ATOM     24  O   UNL     1      23.136  19.187  14.747  1.00  0.00    -0.394 OA
ATOM     25  H   UNL     1      23.918  19.445  15.303  1.00  0.00     0.210 HD
ENDBRANCH  23  24
ENDBRANCH  18  23
BRANCH  20  26
ATOM     26  O   UNL     1      22.558  22.174  11.863  1.00  0.00    -0.350 OA
BRANCH  26  27
ATOM     27  C   UNL     1      22.242  22.169  10.532  1.00  0.00     0.169 C 
BRANCH  27  28
ATOM     28  C   UNL     1      20.861  21.637  10.259  1.00  0.00     0.119 C 
BRANCH  28  29
ATOM     29  N   UNL     1      20.722  20.356  10.928  1.00  0.00    -0.092 NA
ATOM     30  N   UNL     1      19.682  20.096  11.529  1.00  0.00     0.001 N 
ATOM     31  N   UNL     1      18.569  19.774  11.949  1.00  0.00    -0.003 NA
ENDBRANCH  28  29
ENDBRANCH  27  28
ENDBRANCH  26  27
ENDBRANCH  20  26
BRANCH  21  32
ATOM     32  O   UNL     1      22.795  22.103  15.038  1.00  0.00    -0.387 OA
ATOM     33  H   UNL     1      22.748  21.974  16.016  1.00  0.00     0.211 HD
ENDBRANCH  21  32
BRANCH  22  34
ATOM     34  O   UNL     1      25.167  24.084  13.230  1.00  0.00    -0.385 OA
ATOM     35  H   UNL     1      25.881  23.659  13.770  1.00  0.00     0.211 HD
ENDBRANCH  22  34
ENDBRANCH  16  17
ENDBRANCH  11  16
BRANCH  13  36
ATOM     36  O   UNL     1      28.312  20.866  12.377  1.00  0.00    -0.385 OA
ATOM     37  H   UNL     1      27.396  21.214  12.213  1.00  0.00     0.211 HD
ENDBRANCH  13  36
BRANCH  14  38
ATOM     38  O   UNL     1      30.722  20.784  14.328  1.00  0.00    -0.387 OA
ATOM     39  H   UNL     1      31.408  20.307  14.850  1.00  0.00     0.211 HD
ENDBRANCH  14  38
BRANCH  15  40
ATOM     40  O   UNL     1      30.602  19.037  16.001  1.00  0.00    -0.387 OA
ATOM     41  H   UNL     1      30.590  18.957  16.958  1.00  0.00     0.211 HD
ENDBRANCH  15  40
ENDBRANCH   9  10
ENDBRANCH   8   9
ENDBRANCH   3   8
BRANCH   3  42
ATOM     42  C   UNL     1      30.925  19.576  19.335  1.00  0.00     0.364 C 
ATOM     43  O   UNL     1      30.863  18.638  20.138  1.00  0.00    -0.246 OA
BRANCH  42  44
ATOM     44  O   UNL     1      32.014  19.685  18.499  1.00  0.00    -0.477 OA
ATOM     45  H   UNL     1      32.202  20.595  18.097  1.00  0.00     0.296 HD
ENDBRANCH  42  44
ENDBRANCH   3  42
BRANCH   6  46
ATOM     46  O   UNL     1      27.804  22.180  21.913  1.00  0.00    -0.391 OA
ATOM     47  H   UNL     1      27.052  21.584  21.583  1.00  0.00     0.211 HD
ENDBRANCH   6  46
BRANCH   7  48
ATOM     48  N   UNL     1      28.138  24.271  20.021  1.00  0.00    -0.348 N 
ATOM     49  C   UNL     1      26.804  24.724  20.215  1.00  0.00     0.217 C 
ATOM     50  H   UNL     1      28.905  24.961  20.102  1.00  0.00     0.163 HD
ATOM     51  C   UNL     1      26.474  26.117  20.517  1.00  0.00     0.114 C 
ATOM     52  O   UNL     1      25.851  23.877  20.116  1.00  0.00    -0.275 OA
ENDBRANCH   7  48
ENDBRANCH   1   2
BRANCH   1  53
ATOM     53  O   UNL     1      30.024  22.540  16.514  1.00  0.00    -0.388 OA
ATOM     54  H   UNL     1      30.369  23.142  15.785  1.00  0.00     0.211 HD
ENDBRANCH   1  53
BRANCH   1  55
ATOM     55  C   UNL     1      30.022  24.785  17.165  1.00  0.00     0.165 C 
BRANCH  55  56
ATOM     56  O   UNL     1      30.048  25.668  18.195  1.00  0.00    -0.388 OA
ATOM     57  H   UNL     1      29.369  26.369  18.053  1.00  0.00     0.211 HD
ENDBRANCH  55  56
BRANCH  55  58
ATOM     58  C   UNL     1      29.087  25.296  16.059  1.00  0.00     0.154 C 
BRANCH  58  59
ATOM     59  N   UNL     1      27.955  25.987  16.635  1.00  0.00    -0.319 N 
ATOM     60  C   UNL     1      26.603  25.595  16.528  1.00  0.00     0.407 C 
ATOM     61  H   UNL     1      28.110  26.875  17.207  1.00  0.00     0.167 HD
ATOM     62  O   UNL     1      26.284  24.545  15.937  1.00  0.00    -0.225 OA
BRANCH  60  63
ATOM     63  O   UNL     1      25.567  26.376  17.082  1.00  0.00    -0.443 OA
BRANCH  63  64
ATOM     64  C   UNL     1      24.234  26.218  16.550  1.00  0.00     0.294 C 
BRANCH  64  65
ATOM     65  C   UNL     1      23.487  25.539  17.672  1.00  0.00     0.120 A 
ATOM     66  C   UNL     1      23.356  26.107  18.954  1.00  0.00     0.138 A 
ATOM     67  N   UNL     1      22.888  24.367  17.744  1.00  0.00    -0.132 NA
ATOM     68  N   UNL     1      22.689  25.249  19.740  1.00  0.00    -0.249 N 
ATOM     69  N   UNL     1      22.412  24.207  18.997  1.00  0.00    -0.067 NA
BRANCH  68  70
ATOM     70  C   UNL     1      22.395  25.503  21.153  1.00  0.00     0.114 C 
ATOM     71  C   UNL     1      21.462  26.669  21.250  1.00  0.00     0.034 C 
BRANCH  70  72
ATOM     72  C   UNL     1      21.942  24.252  21.830  1.00  0.00     0.108 C 
BRANCH  72  73
ATOM     73  C   UNL     1      21.549  24.604  23.221  1.00  0.00     0.164 C 
ATOM     74  O   UNL     1      20.374  24.826  23.521  1.00  0.00    -0.294 OA
BRANCH  73  75
ATOM     75  C   UNL     1      22.619  24.674  24.227  1.00  0.00     0.018 A 
ATOM     76  C   UNL     1      23.927  24.675  23.904  1.00  0.00     0.012 A 
ATOM     77  C   UNL     1      22.218  24.749  25.571  1.00  0.00     0.012 A 
ATOM     78  C   UNL     1      24.905  24.753  24.909  1.00  0.00     0.001 A 
ATOM     79  C   UNL     1      23.184  24.824  26.533  1.00  0.00     0.001 A 
ATOM     80  C   UNL     1      24.519  24.828  26.228  1.00  0.00     0.000 A 
ENDBRANCH  73  75
ENDBRANCH  72  73
ENDBRANCH  70  72
ENDBRANCH  68  70
ENDBRANCH  64  65
ENDBRANCH  63  64
ENDBRANCH  60  63
ENDBRANCH  58  59
ENDBRANCH  55  58
ENDBRANCH   1  55
TORSDOF 33
