REMARK VINA RESULT:    -4.869      3.256      4.755
REMARK INTER + INTRA:         -21.619
REMARK INTER:                 -15.470
REMARK INTRA:                  -6.149
REMARK UNBOUND:                -8.780
REMARK SMILES COc1ccc(Cn2cc(COC(=O)NC[C@@H](O)C(O)[C@@H]3O[C@@](OC[C@H]4O[C@@H](O[C@H]5[C@H](O)[C@@H](O)[C@H](OCCN=[N+]=[N-])O[C@@H]5CO)[C@H](O)[C@@H](O)[C@H]4O)(C(=O)O)C[C@H](O)[C@H]3NC(C)=O)nn2)cc1OC
REMARK SMILES IDX 23 1 55 2 56 3 58 4 21 5 22 6 24 7 25 8 26 9 28 10 27 11
REMARK SMILES IDX 46 12 48 13 50 14 29 15 30 16 43 17 42 18 35 19 31 20 33 21
REMARK SMILES IDX 44 22 45 23 36 25 37 26 38 27 39 28 40 29 41 30 32 31 34 33
REMARK SMILES IDX 47 35 49 37 51 39 52 41 53 42 54 43 57 45 19 47 20 48 17 50
REMARK SMILES IDX 18 51 16 53 15 54 13 55 14 57 12 58 11 59 10 60 9 61 63 62
REMARK SMILES IDX 8 63 64 64 7 65 6 66 65 67 5 68 66 69 4 70 3 71 67 72 68 73
REMARK SMILES IDX 2 74 1 75 59 76 60 77 61 79 62 80
REMARK H PARENT 45 24 32 32 34 34 47 36 49 38 51 40 54 44 57 46 20 49 18 52
REMARK H PARENT 15 56 59 78
REMARK Flexibility Score: inf
ROOT
ATOM      1  C   UNL     1      22.360  25.749  20.921  1.00  0.00     0.272 C 
ATOM      2  C   UNL     1      21.610  24.592  21.557  1.00  0.00     0.113 C 
ATOM      3  C   UNL     1      21.575  24.497  23.039  1.00  0.00     0.145 C 
ATOM      4  C   UNL     1      22.738  25.288  23.632  1.00  0.00     0.142 C 
ATOM      5  C   UNL     1      23.823  25.194  22.634  1.00  0.00     0.178 C 
ATOM      6  O   UNL     1      23.561  26.060  21.589  1.00  0.00    -0.332 OA
ENDROOT
BRANCH   1   7
ATOM      7  O   UNL     1      21.502  26.833  21.059  1.00  0.00    -0.338 OA
BRANCH   7   8
ATOM      8  C   UNL     1      22.060  28.051  21.298  1.00  0.00     0.199 C 
BRANCH   8   9
ATOM      9  C   UNL     1      21.017  29.057  21.699  1.00  0.00     0.179 C 
ATOM     10  C   UNL     1      18.863  29.745  21.471  1.00  0.00     0.282 C 
ATOM     11  O   UNL     1      19.721  28.579  21.427  1.00  0.00    -0.341 OA
ATOM     12  C   UNL     1      18.692  30.175  22.854  1.00  0.00     0.202 C 
ATOM     13  C   UNL     1      20.001  30.202  23.626  1.00  0.00     0.179 C 
ATOM     14  C   UNL     1      21.009  29.197  23.228  1.00  0.00     0.177 C 
BRANCH  10  15
ATOM     15  O   UNL     1      17.704  29.389  20.813  1.00  0.00    -0.341 OA
BRANCH  15  16
ATOM     16  C   UNL     1      17.771  29.773  19.473  1.00  0.00     0.184 C 
ATOM     17  C   UNL     1      16.649  30.635  19.048  1.00  0.00     0.178 C 
ATOM     18  O   UNL     1      16.967  31.172  17.803  1.00  0.00    -0.341 OA
ATOM     19  C   UNL     1      17.614  30.308  16.994  1.00  0.00     0.281 C 
ATOM     20  C   UNL     1      17.778  28.484  18.642  1.00  0.00     0.180 C 
ATOM     21  C   UNL     1      17.321  28.843  17.221  1.00  0.00     0.202 C 
BRANCH  17  22
ATOM     22  C   UNL     1      16.317  31.716  20.050  1.00  0.00     0.191 C 
BRANCH  22  23
ATOM     23  O   UNL     1      14.961  31.578  20.343  1.00  0.00    -0.394 OA
ATOM     24  H   UNL     1      14.494  31.192  19.543  1.00  0.00     0.210 HD
ENDBRANCH  22  23
ENDBRANCH  17  22
BRANCH  19  25
ATOM     25  O   UNL     1      19.029  30.455  17.225  1.00  0.00    -0.350 OA
BRANCH  25  26
ATOM     26  C   UNL     1      19.580  30.966  16.033  1.00  0.00     0.169 C 
BRANCH  26  27
ATOM     27  C   UNL     1      20.697  30.099  15.482  1.00  0.00     0.119 C 
BRANCH  27  28
ATOM     28  N   UNL     1      21.355  29.438  16.575  1.00  0.00    -0.092 NA
ATOM     29  N   UNL     1      21.507  28.214  16.609  1.00  0.00     0.001 N 
ATOM     30  N   UNL     1      21.350  26.987  16.446  1.00  0.00    -0.003 NA
ENDBRANCH  27  28
ENDBRANCH  26  27
ENDBRANCH  25  26
ENDBRANCH  19  25
BRANCH  20  31
ATOM     31  O   UNL     1      19.094  28.059  18.551  1.00  0.00    -0.387 OA
ATOM     32  H   UNL     1      19.094  27.056  18.522  1.00  0.00     0.211 HD
ENDBRANCH  20  31
BRANCH  21  33
ATOM     33  O   UNL     1      15.967  28.620  17.138  1.00  0.00    -0.385 OA
ATOM     34  H   UNL     1      15.434  29.428  17.376  1.00  0.00     0.211 HD
ENDBRANCH  21  33
ENDBRANCH  15  16
ENDBRANCH  10  15
BRANCH  12  35
ATOM     35  O   UNL     1      18.175  31.457  22.935  1.00  0.00    -0.385 OA
ATOM     36  H   UNL     1      17.236  31.463  23.282  1.00  0.00     0.211 HD
ENDBRANCH  12  35
BRANCH  13  37
ATOM     37  O   UNL     1      19.680  30.088  25.004  1.00  0.00    -0.387 OA
ATOM     38  H   UNL     1      20.501  30.334  25.505  1.00  0.00     0.211 HD
ENDBRANCH  13  37
BRANCH  14  39
ATOM     39  O   UNL     1      20.679  27.912  23.715  1.00  0.00    -0.387 OA
ATOM     40  H   UNL     1      21.505  27.446  24.085  1.00  0.00     0.211 HD
ENDBRANCH  14  39
ENDBRANCH   8   9
ENDBRANCH   7   8
ENDBRANCH   1   7
BRANCH   1  41
ATOM     41  C   UNL     1      22.689  25.372  19.523  1.00  0.00     0.364 C 
ATOM     42  O   UNL     1      22.361  24.280  19.052  1.00  0.00    -0.246 OA
BRANCH  41  43
ATOM     43  O   UNL     1      23.399  26.220  18.630  1.00  0.00    -0.477 OA
ATOM     44  H   UNL     1      23.646  25.788  17.710  1.00  0.00     0.296 HD
ENDBRANCH  41  43
ENDBRANCH   1  41
BRANCH   3  45
ATOM     45  O   UNL     1      20.404  24.997  23.556  1.00  0.00    -0.391 OA
ATOM     46  H   UNL     1      20.245  24.630  24.473  1.00  0.00     0.211 HD
ENDBRANCH   3  45
BRANCH   5  47
ATOM     47  C   UNL     1      25.168  25.212  23.197  1.00  0.00     0.176 C 
BRANCH  47  48
ATOM     48  O   UNL     1      25.478  24.200  24.097  1.00  0.00    -0.388 OA
ATOM     49  H   UNL     1      25.059  24.267  24.962  1.00  0.00     0.211 HD
ENDBRANCH  47  48
BRANCH  47  50
ATOM     50  C   UNL     1      26.190  24.764  22.017  1.00  0.00     0.165 C 
BRANCH  50  51
ATOM     51  O   UNL     1      26.777  23.626  22.415  1.00  0.00    -0.388 OA
ATOM     52  H   UNL     1      26.169  22.830  22.376  1.00  0.00     0.211 HD
ENDBRANCH  50  51
BRANCH  50  53
ATOM     53  C   UNL     1      26.919  25.909  21.527  1.00  0.00     0.154 C 
BRANCH  53  54
ATOM     54  N   UNL     1      27.714  25.925  20.345  1.00  0.00    -0.319 N 
ATOM     55  C   UNL     1      27.138  26.543  19.208  1.00  0.00     0.407 C 
ATOM     56  H   UNL     1      28.643  25.527  20.229  1.00  0.00     0.167 HD
ATOM     57  O   UNL     1      25.965  27.040  19.265  1.00  0.00    -0.225 OA
BRANCH  55  58
ATOM     58  O   UNL     1      27.750  26.673  17.966  1.00  0.00    -0.443 OA
BRANCH  58  59
ATOM     59  C   UNL     1      27.121  25.943  16.857  1.00  0.00     0.294 C 
BRANCH  59  60
ATOM     60  C   UNL     1      27.784  24.609  16.932  1.00  0.00     0.120 A 
ATOM     61  C   UNL     1      27.107  23.368  16.884  1.00  0.00     0.138 A 
ATOM     62  N   UNL     1      29.084  24.347  16.976  1.00  0.00    -0.132 NA
ATOM     63  N   UNL     1      28.080  22.426  16.899  1.00  0.00    -0.248 N 
ATOM     64  N   UNL     1      29.229  23.004  16.954  1.00  0.00    -0.067 NA
BRANCH  63  65
ATOM     65  C   UNL     1      27.824  20.964  16.795  1.00  0.00     0.181 C 
BRANCH  65  66
ATOM     66  C   UNL     1      28.184  20.460  18.193  1.00  0.00    -0.023 A 
ATOM     67  C   UNL     1      28.868  19.281  18.394  1.00  0.00     0.056 A 
ATOM     68  C   UNL     1      27.913  21.283  19.238  1.00  0.00     0.010 A 
ATOM     69  C   UNL     1      29.253  19.021  19.740  1.00  0.00     0.161 A 
ATOM     70  C   UNL     1      28.308  21.004  20.583  1.00  0.00     0.051 A 
ATOM     71  C   UNL     1      28.994  19.833  20.769  1.00  0.00     0.160 A 
BRANCH  69  72
ATOM     72  O   UNL     1      29.944  17.839  20.012  1.00  0.00    -0.493 OA
ATOM     73  C   UNL     1      31.312  17.658  19.628  1.00  0.00     0.278 C 
ENDBRANCH  69  72
BRANCH  71  74
ATOM     74  O   UNL     1      29.456  19.480  22.068  1.00  0.00    -0.493 OA
ATOM     75  C   UNL     1      29.964  20.532  22.916  1.00  0.00     0.278 C 
ENDBRANCH  71  74
ENDBRANCH  65  66
ENDBRANCH  63  65
ENDBRANCH  59  60
ENDBRANCH  58  59
ENDBRANCH  55  58
ENDBRANCH  53  54
ENDBRANCH  50  53
ENDBRANCH  47  50
ENDBRANCH   5  47
BRANCH   4  76
ATOM     76  N   UNL     1      23.047  24.741  24.926  1.00  0.00    -0.348 N 
ATOM     77  C   UNL     1      22.490  25.322  26.070  1.00  0.00     0.217 C 
ATOM     78  H   UNL     1      23.667  23.897  25.070  1.00  0.00     0.163 HD
ATOM     79  C   UNL     1      22.730  24.893  27.482  1.00  0.00     0.114 C 
ATOM     80  O   UNL     1      21.679  26.333  26.013  1.00  0.00    -0.275 OA
ENDBRANCH   4  76
TORSDOF 33
