REMARK VINA RESULT:    -5.013      3.507      9.634
REMARK INTER + INTRA:         -22.139
REMARK INTER:                 -14.097
REMARK INTRA:                  -8.042
REMARK UNBOUND:                -8.334
REMARK SMILES CC[N+](C)(CC)CCCn1cc(COC(=O)NC[C@@H](O)C(O)[C@@H]2O[C@@](OC[C@H]3O[C@@H](O[C@H]4[C@H](O)[C@@H](O)[C@H](OCCN=[N+]=[N-])O[C@@H]4CO)[C@H](O)[C@@H](O)[C@H]3O)(C(=O)O)C[C@H](O)[C@H]2NC(C)=O)nn1
REMARK SMILES IDX 21 1 23 2 25 3 57 4 24 5 58 6 60 7 26 8 27 9 28 10 30 11
REMARK SMILES IDX 29 12 48 13 50 14 52 15 31 16 32 17 45 18 44 19 37 20 33 21
REMARK SMILES IDX 35 22 46 23 47 24 38 26 39 27 40 28 41 29 42 30 43 31 34 32
REMARK SMILES IDX 36 34 49 36 51 38 53 40 54 42 55 43 56 44 59 46 61 48 62 49
REMARK SMILES IDX 63 51 64 52 22 53 19 55 20 56 18 58 17 59 15 60 16 62 14 63
REMARK SMILES IDX 13 64 12 65 11 66 65 67 10 68 66 69 9 70 8 71 7 72 3 73 4 74
REMARK SMILES IDX 2 75 1 76 5 77 6 78
REMARK H PARENT 47 25 34 33 36 35 49 37 51 39 53 41 56 45 59 47 61 50 22 54
REMARK H PARENT 20 57 17 61
REMARK Flexibility Score: inf
ROOT
ATOM      1  C   UNL     1      24.493  28.302  21.952  1.00  0.00     0.176 C 
ENDROOT
BRANCH   1   2
ATOM      2  C   UNL     1      24.182  26.903  21.429  1.00  0.00     0.178 C 
ATOM      3  C   UNL     1      23.123  24.916  22.131  1.00  0.00     0.272 C 
ATOM      4  C   UNL     1      24.145  24.259  21.265  1.00  0.00     0.113 C 
ATOM      5  O   UNL     1      23.676  26.178  22.484  1.00  0.00    -0.332 OA
ATOM      6  C   UNL     1      25.509  24.885  21.401  1.00  0.00     0.145 C 
ATOM      7  C   UNL     1      25.427  26.308  20.855  1.00  0.00     0.142 C 
BRANCH   3   8
ATOM      8  O   UNL     1      22.946  24.306  23.355  1.00  0.00    -0.338 OA
BRANCH   8   9
ATOM      9  C   UNL     1      23.283  24.943  24.489  1.00  0.00     0.199 C 
BRANCH   9  10
ATOM     10  C   UNL     1      22.139  24.863  25.534  1.00  0.00     0.179 C 
ATOM     11  C   UNL     1      23.251  25.484  27.519  1.00  0.00     0.282 C 
ATOM     12  O   UNL     1      22.564  24.542  26.763  1.00  0.00    -0.341 OA
ATOM     13  C   UNL     1      22.831  26.882  27.269  1.00  0.00     0.202 C 
ATOM     14  C   UNL     1      21.340  26.786  26.877  1.00  0.00     0.179 C 
ATOM     15  C   UNL     1      21.358  26.177  25.492  1.00  0.00     0.177 C 
BRANCH  11  16
ATOM     16  O   UNL     1      24.630  25.234  27.474  1.00  0.00    -0.341 OA
BRANCH  16  17
ATOM     17  C   UNL     1      25.374  26.300  27.889  1.00  0.00     0.184 C 
ATOM     18  C   UNL     1      26.387  26.883  27.003  1.00  0.00     0.178 C 
ATOM     19  O   UNL     1      26.801  28.100  27.514  1.00  0.00    -0.341 OA
ATOM     20  C   UNL     1      26.608  28.375  28.819  1.00  0.00     0.281 C 
ATOM     21  C   UNL     1      26.123  25.955  29.197  1.00  0.00     0.180 C 
ATOM     22  C   UNL     1      26.673  27.224  29.791  1.00  0.00     0.202 C 
BRANCH  18  23
ATOM     23  C   UNL     1      25.974  27.109  25.562  1.00  0.00     0.191 C 
BRANCH  23  24
ATOM     24  O   UNL     1      25.443  28.371  25.332  1.00  0.00    -0.394 OA
ATOM     25  H   UNL     1      24.738  28.511  26.043  1.00  0.00     0.210 HD
ENDBRANCH  23  24
ENDBRANCH  18  23
BRANCH  20  26
ATOM     26  O   UNL     1      25.487  29.164  29.007  1.00  0.00    -0.350 OA
BRANCH  26  27
ATOM     27  C   UNL     1      25.379  30.250  28.203  1.00  0.00     0.169 C 
BRANCH  27  28
ATOM     28  C   UNL     1      24.374  31.274  28.688  1.00  0.00     0.119 C 
BRANCH  28  29
ATOM     29  N   UNL     1      23.291  31.381  27.725  1.00  0.00    -0.092 NA
ATOM     30  N   UNL     1      23.172  30.623  26.765  1.00  0.00     0.001 N 
ATOM     31  N   UNL     1      23.019  29.859  25.809  1.00  0.00    -0.003 NA
ENDBRANCH  28  29
ENDBRANCH  27  28
ENDBRANCH  26  27
ENDBRANCH  20  26
BRANCH  21  32
ATOM     32  O   UNL     1      25.235  25.268  29.992  1.00  0.00    -0.387 OA
ATOM     33  H   UNL     1      25.589  24.485  30.442  1.00  0.00     0.211 HD
ENDBRANCH  21  32
BRANCH  22  34
ATOM     34  O   UNL     1      27.956  26.980  30.256  1.00  0.00    -0.385 OA
ATOM     35  H   UNL     1      27.987  26.626  31.183  1.00  0.00     0.211 HD
ENDBRANCH  22  34
ENDBRANCH  16  17
ENDBRANCH  11  16
BRANCH  13  36
ATOM     36  O   UNL     1      22.869  27.697  28.412  1.00  0.00    -0.385 OA
ATOM     37  H   UNL     1      23.709  28.203  28.375  1.00  0.00     0.211 HD
ENDBRANCH  13  36
BRANCH  14  38
ATOM     38  O   UNL     1      20.787  28.066  26.842  1.00  0.00    -0.387 OA
ATOM     39  H   UNL     1      21.518  28.685  26.639  1.00  0.00     0.211 HD
ENDBRANCH  14  38
BRANCH  15  40
ATOM     40  O   UNL     1      22.090  27.057  24.697  1.00  0.00    -0.387 OA
ATOM     41  H   UNL     1      22.745  26.645  24.113  1.00  0.00     0.211 HD
ENDBRANCH  15  40
ENDBRANCH   9  10
ENDBRANCH   8   9
ENDBRANCH   3   8
BRANCH   3  42
ATOM     42  C   UNL     1      21.814  25.126  21.489  1.00  0.00     0.364 C 
ATOM     43  O   UNL     1      21.671  25.069  20.247  1.00  0.00    -0.246 OA
BRANCH  42  44
ATOM     44  O   UNL     1      20.695  25.398  22.238  1.00  0.00    -0.477 OA
ATOM     45  H   UNL     1      20.071  24.676  22.595  1.00  0.00     0.296 HD
ENDBRANCH  42  44
ENDBRANCH   3  42
BRANCH   6  46
ATOM     46  O   UNL     1      25.971  24.918  22.695  1.00  0.00    -0.391 OA
ATOM     47  H   UNL     1      26.324  25.827  22.945  1.00  0.00     0.211 HD
ENDBRANCH   6  46
BRANCH   7  48
ATOM     48  N   UNL     1      25.241  26.136  19.403  1.00  0.00    -0.348 N 
ATOM     49  C   UNL     1      26.317  26.324  18.491  1.00  0.00     0.217 C 
ATOM     50  H   UNL     1      24.331  25.879  18.971  1.00  0.00     0.163 HD
ATOM     51  C   UNL     1      26.177  26.159  17.023  1.00  0.00     0.114 C 
ATOM     52  O   UNL     1      27.429  26.638  18.950  1.00  0.00    -0.275 OA
ENDBRANCH   7  48
ENDBRANCH   1   2
BRANCH   1  53
ATOM     53  O   UNL     1      23.643  28.557  23.082  1.00  0.00    -0.388 OA
ATOM     54  H   UNL     1      23.175  27.702  23.273  1.00  0.00     0.211 HD
ENDBRANCH   1  53
BRANCH   1  55
ATOM     55  C   UNL     1      24.158  29.343  20.934  1.00  0.00     0.165 C 
BRANCH  55  56
ATOM     56  O   UNL     1      25.113  30.402  21.230  1.00  0.00    -0.388 OA
ATOM     57  H   UNL     1      24.584  31.165  21.619  1.00  0.00     0.211 HD
ENDBRANCH  55  56
BRANCH  55  58
ATOM     58  C   UNL     1      22.803  29.947  20.981  1.00  0.00     0.154 C 
BRANCH  58  59
ATOM     59  N   UNL     1      21.665  29.286  20.524  1.00  0.00    -0.319 N 
ATOM     60  C   UNL     1      20.719  28.543  21.269  1.00  0.00     0.407 C 
ATOM     61  H   UNL     1      21.460  29.336  19.443  1.00  0.00     0.167 HD
ATOM     62  O   UNL     1      20.785  28.376  22.496  1.00  0.00    -0.225 OA
BRANCH  60  63
ATOM     63  O   UNL     1      19.627  27.931  20.606  1.00  0.00    -0.443 OA
BRANCH  63  64
ATOM     64  C   UNL     1      19.004  28.689  19.551  1.00  0.00     0.294 C 
BRANCH  64  65
ATOM     65  C   UNL     1      17.583  28.840  20.040  1.00  0.00     0.120 A 
ATOM     66  C   UNL     1      16.879  30.012  20.175  1.00  0.00     0.138 A 
ATOM     67  N   UNL     1      16.717  27.881  20.387  1.00  0.00    -0.132 NA
ATOM     68  N   UNL     1      15.607  29.719  20.597  1.00  0.00    -0.252 N 
ATOM     69  N   UNL     1      15.554  28.405  20.716  1.00  0.00    -0.067 NA
BRANCH  68  70
ATOM     70  C   UNL     1      14.543  30.683  20.812  1.00  0.00     0.152 C 
BRANCH  70  71
ATOM     71  C   UNL     1      13.713  30.366  21.980  1.00  0.00     0.085 C 
BRANCH  71  72
ATOM     72  C   UNL     1      13.279  31.428  22.904  1.00  0.00     0.265 C 
BRANCH  72  73
ATOM     73  N   UNL     1      12.290  31.130  23.885  1.00  0.00    -0.326 N 
ATOM     74  C   UNL     1      12.283  32.139  24.909  1.00  0.00     0.334 C 
BRANCH  73  75
ATOM     75  C   UNL     1      12.355  29.815  24.455  1.00  0.00     0.260 C 
ATOM     76  C   UNL     1      11.012  29.125  24.507  1.00  0.00     0.071 C 
ENDBRANCH  73  75
BRANCH  73  77
ATOM     77  C   UNL     1      10.992  31.263  23.202  1.00  0.00     0.260 C 
ATOM     78  C   UNL     1      10.692  32.644  22.736  1.00  0.00     0.071 C 
ENDBRANCH  73  77
ENDBRANCH  72  73
ENDBRANCH  71  72
ENDBRANCH  70  71
ENDBRANCH  68  70
ENDBRANCH  64  65
ENDBRANCH  63  64
ENDBRANCH  60  63
ENDBRANCH  58  59
ENDBRANCH  55  58
ENDBRANCH   1  55
TORSDOF 35
