REMARK VINA RESULT:    -6.182      7.850     11.746
REMARK INTER + INTRA:         -22.724
REMARK INTER:                 -15.330
REMARK INTRA:                  -7.394
REMARK UNBOUND:                -6.784
REMARK SMILES COc1ccc(Cn2cc(COC(=O)NC[C@@H](O)C(O)[C@@H]3O[C@@](OC[C@H]4O[C@@H](O[C@H]5[C@H](O)[C@@H](O)[C@H](OCCN=[N+]=[N-])O[C@@H]5CO)[C@H](O)[C@@H](O)[C@H]4O)(C(=O)O)C[C@H](O)[C@H]3NC(C)=O)nn2)cc1
REMARK SMILES IDX 23 1 55 2 56 3 58 4 21 5 22 6 24 7 25 8 26 9 28 10 27 11
REMARK SMILES IDX 46 12 48 13 50 14 29 15 30 16 43 17 42 18 35 19 31 20 33 21
REMARK SMILES IDX 44 22 45 23 36 25 37 26 38 27 39 28 40 29 41 30 32 31 34 33
REMARK SMILES IDX 47 35 49 37 51 39 52 41 53 42 54 43 57 45 19 47 20 48 17 50
REMARK SMILES IDX 18 51 16 53 15 54 13 55 14 57 12 58 11 59 10 60 9 61 63 62
REMARK SMILES IDX 8 63 64 64 7 65 6 66 5 67 65 68 4 69 66 70 3 71 2 72 1 73
REMARK SMILES IDX 59 74 60 75 61 77 62 78
REMARK H PARENT 45 24 32 32 34 34 47 36 49 38 51 40 54 44 57 46 20 49 18 52
REMARK H PARENT 15 56 59 76
REMARK Flexibility Score: inf
ROOT
ATOM      1  C   UNL     1      13.248  32.328  17.617  1.00  0.00     0.272 C 
ATOM      2  C   UNL     1      14.366  32.987  18.398  1.00  0.00     0.113 C 
ATOM      3  C   UNL     1      14.063  32.924  19.881  1.00  0.00     0.145 C 
ATOM      4  C   UNL     1      13.599  31.574  20.344  1.00  0.00     0.142 C 
ATOM      5  C   UNL     1      13.433  30.573  19.214  1.00  0.00     0.178 C 
ATOM      6  O   UNL     1      12.856  31.145  18.097  1.00  0.00    -0.332 OA
ENDROOT
BRANCH   1   7
ATOM      7  O   UNL     1      13.414  32.458  16.280  1.00  0.00    -0.338 OA
BRANCH   7   8
ATOM      8  C   UNL     1      12.530  32.023  15.375  1.00  0.00     0.199 C 
BRANCH   8   9
ATOM      9  C   UNL     1      12.954  30.739  14.696  1.00  0.00     0.179 C 
ATOM     10  C   UNL     1      14.853  29.518  14.396  1.00  0.00     0.282 C 
ATOM     11  O   UNL     1      14.088  30.201  15.367  1.00  0.00    -0.341 OA
ATOM     12  C   UNL     1      13.999  28.737  13.467  1.00  0.00     0.202 C 
ATOM     13  C   UNL     1      12.584  28.509  13.879  1.00  0.00     0.179 C 
ATOM     14  C   UNL     1      11.951  29.649  14.652  1.00  0.00     0.177 C 
BRANCH  10  15
ATOM     15  O   UNL     1      15.935  28.889  14.943  1.00  0.00    -0.341 OA
BRANCH  15  16
ATOM     16  C   UNL     1      17.173  29.436  14.681  1.00  0.00     0.184 C 
ATOM     17  C   UNL     1      17.794  29.011  13.372  1.00  0.00     0.178 C 
ATOM     18  O   UNL     1      19.186  29.035  13.452  1.00  0.00    -0.341 OA
ATOM     19  C   UNL     1      19.666  30.035  14.316  1.00  0.00     0.281 C 
ATOM     20  C   UNL     1      18.115  28.813  15.729  1.00  0.00     0.180 C 
ATOM     21  C   UNL     1      19.331  29.696  15.780  1.00  0.00     0.202 C 
BRANCH  17  22
ATOM     22  C   UNL     1      17.409  29.844  12.190  1.00  0.00     0.191 C 
BRANCH  22  23
ATOM     23  O   UNL     1      18.455  29.853  11.270  1.00  0.00    -0.394 OA
ATOM     24  H   UNL     1      18.102  30.260  10.429  1.00  0.00     0.210 HD
ENDBRANCH  22  23
ENDBRANCH  17  22
BRANCH  19  25
ATOM     25  O   UNL     1      19.263  31.293  14.003  1.00  0.00    -0.350 OA
BRANCH  25  26
ATOM     26  C   UNL     1      19.454  32.300  14.898  1.00  0.00     0.169 C 
BRANCH  26  27
ATOM     27  C   UNL     1      18.381  33.313  15.045  1.00  0.00     0.119 C 
BRANCH  27  28
ATOM     28  N   UNL     1      17.833  33.414  16.353  1.00  0.00    -0.092 NA
ATOM     29  N   UNL     1      17.546  32.446  17.071  1.00  0.00     0.001 N 
ATOM     30  N   UNL     1      17.623  31.622  18.011  1.00  0.00    -0.003 NA
ENDBRANCH  27  28
ENDBRANCH  26  27
ENDBRANCH  25  26
ENDBRANCH  19  25
BRANCH  20  31
ATOM     31  O   UNL     1      17.498  28.614  16.932  1.00  0.00    -0.387 OA
ATOM     32  H   UNL     1      17.337  27.634  17.120  1.00  0.00     0.211 HD
ENDBRANCH  20  31
BRANCH  21  33
ATOM     33  O   UNL     1      20.399  29.062  16.414  1.00  0.00    -0.385 OA
ATOM     34  H   UNL     1      20.081  28.203  16.799  1.00  0.00     0.211 HD
ENDBRANCH  21  33
ENDBRANCH  15  16
ENDBRANCH  10  15
BRANCH  12  35
ATOM     35  O   UNL     1      14.042  29.253  12.146  1.00  0.00    -0.385 OA
ATOM     36  H   UNL     1      13.108  29.483  11.854  1.00  0.00     0.211 HD
ENDBRANCH  12  35
BRANCH  13  37
ATOM     37  O   UNL     1      12.432  27.284  14.573  1.00  0.00    -0.387 OA
ATOM     38  H   UNL     1      12.334  27.492  15.537  1.00  0.00     0.211 HD
ENDBRANCH  13  37
BRANCH  14  39
ATOM     39  O   UNL     1      11.523  29.242  15.911  1.00  0.00    -0.387 OA
ATOM     40  H   UNL     1      10.977  28.418  15.874  1.00  0.00     0.211 HD
ENDBRANCH  14  39
ENDBRANCH   8   9
ENDBRANCH   7   8
ENDBRANCH   1   7
BRANCH   1  41
ATOM     41  C   UNL     1      12.083  33.354  17.819  1.00  0.00     0.364 C 
ATOM     42  O   UNL     1      12.258  34.553  17.515  1.00  0.00    -0.246 OA
BRANCH  41  43
ATOM     43  O   UNL     1      10.874  33.005  18.312  1.00  0.00    -0.477 OA
ATOM     44  H   UNL     1      10.617  32.210  18.843  1.00  0.00     0.296 HD
ENDBRANCH  41  43
ENDBRANCH   1  41
BRANCH   3  45
ATOM     45  O   UNL     1      15.314  33.237  20.492  1.00  0.00    -0.391 OA
ATOM     46  H   UNL     1      15.856  32.414  20.599  1.00  0.00     0.211 HD
ENDBRANCH   3  45
BRANCH   5  47
ATOM     47  C   UNL     1      14.722  29.866  19.049  1.00  0.00     0.176 C 
BRANCH  47  48
ATOM     48  O   UNL     1      14.845  29.182  17.805  1.00  0.00    -0.388 OA
ATOM     49  H   UNL     1      14.528  29.789  17.104  1.00  0.00     0.211 HD
ENDBRANCH  47  48
BRANCH  47  50
ATOM     50  C   UNL     1      14.877  28.626  19.978  1.00  0.00     0.165 C 
BRANCH  50  51
ATOM     51  O   UNL     1      13.906  28.390  20.867  1.00  0.00    -0.388 OA
ATOM     52  H   UNL     1      13.061  28.135  20.419  1.00  0.00     0.211 HD
ENDBRANCH  50  51
BRANCH  50  53
ATOM     53  C   UNL     1      16.248  28.778  20.672  1.00  0.00     0.154 C 
BRANCH  53  54
ATOM     54  N   UNL     1      17.332  28.846  19.748  1.00  0.00    -0.319 N 
ATOM     55  C   UNL     1      18.666  29.037  20.236  1.00  0.00     0.407 C 
ATOM     56  H   UNL     1      17.182  28.764  18.738  1.00  0.00     0.167 HD
ATOM     57  O   UNL     1      18.856  29.139  21.480  1.00  0.00    -0.225 OA
BRANCH  55  58
ATOM     58  O   UNL     1      19.697  29.102  19.317  1.00  0.00    -0.443 OA
BRANCH  58  59
ATOM     59  C   UNL     1      21.061  29.064  19.780  1.00  0.00     0.294 C 
BRANCH  59  60
ATOM     60  C   UNL     1      21.584  27.700  19.553  1.00  0.00     0.120 A 
ATOM     61  C   UNL     1      21.779  26.703  20.514  1.00  0.00     0.138 A 
ATOM     62  N   UNL     1      21.981  27.161  18.394  1.00  0.00    -0.132 NA
ATOM     63  N   UNL     1      22.279  25.635  19.882  1.00  0.00    -0.248 N 
ATOM     64  N   UNL     1      22.396  25.927  18.595  1.00  0.00    -0.067 NA
BRANCH  63  65
ATOM     65  C   UNL     1      22.633  24.379  20.493  1.00  0.00     0.181 C 
BRANCH  65  66
ATOM     66  C   UNL     1      22.569  24.522  21.964  1.00  0.00    -0.026 A 
ATOM     67  C   UNL     1      21.332  24.519  22.602  1.00  0.00     0.009 A 
ATOM     68  C   UNL     1      23.685  24.642  22.750  1.00  0.00     0.009 A 
ATOM     69  C   UNL     1      21.214  24.632  23.971  1.00  0.00     0.047 A 
ATOM     70  C   UNL     1      23.564  24.757  24.139  1.00  0.00     0.047 A 
ATOM     71  C   UNL     1      22.347  24.754  24.763  1.00  0.00     0.118 A 
BRANCH  71  72
ATOM     72  O   UNL     1      22.176  24.863  26.130  1.00  0.00    -0.497 OA
ATOM     73  C   UNL     1      23.144  24.543  27.086  1.00  0.00     0.278 C 
ENDBRANCH  71  72
ENDBRANCH  65  66
ENDBRANCH  63  65
ENDBRANCH  59  60
ENDBRANCH  58  59
ENDBRANCH  55  58
ENDBRANCH  53  54
ENDBRANCH  50  53
ENDBRANCH  47  50
ENDBRANCH   5  47
BRANCH   4  74
ATOM     74  N   UNL     1      12.454  31.589  21.229  1.00  0.00    -0.348 N 
ATOM     75  C   UNL     1      12.423  30.997  22.521  1.00  0.00     0.217 C 
ATOM     76  H   UNL     1      11.585  32.044  20.911  1.00  0.00     0.163 HD
ATOM     77  C   UNL     1      11.165  31.069  23.358  1.00  0.00     0.114 C 
ATOM     78  O   UNL     1      13.442  30.415  22.965  1.00  0.00    -0.275 OA
ENDBRANCH   4  74
TORSDOF 32
