REMARK VINA RESULT:    -5.663      3.048      8.088
REMARK INTER + INTRA:         -21.693
REMARK INTER:                 -12.425
REMARK INTRA:                  -9.269
REMARK UNBOUND:                -6.761
REMARK SMILES CC(=O)N[C@@H]1[C@@H](O)C[C@](OC[C@H]2O[C@@H](O[C@H]3[C@H](O)[C@@H](O)[C@H](OCCN=[N+]=[N-])O[C@@H]3CO)[C@H](O)[C@@H](O)[C@H]2O)(C(=O)O)O[C@H]1C(O)[C@H](O)CNC(=O)OCc1cn(CCNS(C)(=O)=O)nn1
REMARK SMILES IDX 43 1 42 2 9 3 8 4 41 5 6 6 5 7 10 8 11 9 12 10 14 11 13 12
REMARK SMILES IDX 32 13 34 14 36 15 15 16 16 17 29 18 28 19 21 20 17 21 19 22
REMARK SMILES IDX 30 23 31 24 22 26 23 27 24 28 25 29 26 30 27 31 18 32 20 34
REMARK SMILES IDX 33 36 35 38 37 40 38 42 39 43 40 44 7 46 4 48 2 49 1 51 3 52
REMARK SMILES IDX 44 53 45 55 46 56 47 58 48 59 49 60 50 62 51 63 52 64 53 65
REMARK SMILES IDX 54 66 64 67 55 68 63 69 56 70 57 71 58 72 59 74 61 75 62 76
REMARK SMILES IDX 60 77
REMARK H PARENT 31 25 18 33 20 35 33 37 35 39 37 41 40 45 7 47 4 50 44 54
REMARK H PARENT 46 57 48 61 58 73
REMARK Flexibility Score: inf
ROOT
ATOM      1  C   UNL     1      22.803  28.046  23.394  1.00  0.00     0.176 C 
ENDROOT
BRANCH   1   2
ATOM      2  C   UNL     1      23.210  26.577  23.177  1.00  0.00     0.178 C 
ATOM      3  C   UNL     1      23.711  25.188  21.360  1.00  0.00     0.272 C 
ATOM      4  C   UNL     1      22.582  24.265  21.587  1.00  0.00     0.113 C 
ATOM      5  O   UNL     1      23.455  26.462  21.851  1.00  0.00    -0.332 OA
ATOM      6  C   UNL     1      21.662  24.631  22.719  1.00  0.00     0.145 C 
ATOM      7  C   UNL     1      22.145  25.676  23.665  1.00  0.00     0.142 C 
BRANCH   3   8
ATOM      8  O   UNL     1      24.068  25.406  20.025  1.00  0.00    -0.338 OA
BRANCH   8   9
ATOM      9  C   UNL     1      23.418  24.550  19.152  1.00  0.00     0.199 C 
BRANCH   9  10
ATOM     10  C   UNL     1      22.738  25.325  18.078  1.00  0.00     0.179 C 
ATOM     11  C   UNL     1      21.927  27.384  17.429  1.00  0.00     0.282 C 
ATOM     12  O   UNL     1      22.760  26.688  18.320  1.00  0.00    -0.341 OA
ATOM     13  C   UNL     1      22.389  27.246  16.020  1.00  0.00     0.202 C 
ATOM     14  C   UNL     1      22.310  25.777  15.665  1.00  0.00     0.179 C 
ATOM     15  C   UNL     1      23.059  24.965  16.667  1.00  0.00     0.177 C 
BRANCH  11  16
ATOM     16  O   UNL     1      21.907  28.684  17.840  1.00  0.00    -0.341 OA
BRANCH  16  17
ATOM     17  C   UNL     1      22.205  28.913  19.140  1.00  0.00     0.184 C 
ATOM     18  C   UNL     1      21.249  29.616  20.018  1.00  0.00     0.178 C 
ATOM     19  O   UNL     1      21.964  30.220  21.053  1.00  0.00    -0.341 OA
ATOM     20  C   UNL     1      22.628  31.340  20.644  1.00  0.00     0.281 C 
ATOM     21  C   UNL     1      23.591  29.599  19.284  1.00  0.00     0.180 C 
ATOM     22  C   UNL     1      23.262  31.077  19.294  1.00  0.00     0.202 C 
BRANCH  18  23
ATOM     23  C   UNL     1      20.335  28.619  20.722  1.00  0.00     0.191 C 
BRANCH  23  24
ATOM     24  O   UNL     1      20.838  27.309  20.546  1.00  0.00    -0.394 OA
ATOM     25  H   UNL     1      20.126  26.675  20.312  1.00  0.00     0.210 HD
ENDBRANCH  23  24
ENDBRANCH  18  23
BRANCH  20  26
ATOM     26  O   UNL     1      23.587  31.745  21.583  1.00  0.00    -0.350 OA
BRANCH  26  27
ATOM     27  C   UNL     1      24.437  32.726  21.141  1.00  0.00     0.169 C 
BRANCH  27  28
ATOM     28  C   UNL     1      25.830  32.369  21.551  1.00  0.00     0.119 C 
BRANCH  28  29
ATOM     29  N   UNL     1      25.884  31.099  22.264  1.00  0.00    -0.092 NA
ATOM     30  N   UNL     1      26.372  31.162  23.406  1.00  0.00     0.001 N 
ATOM     31  N   UNL     1      26.850  30.899  24.504  1.00  0.00    -0.003 NA
ENDBRANCH  28  29
ENDBRANCH  27  28
ENDBRANCH  26  27
ENDBRANCH  20  26
BRANCH  21  32
ATOM     32  O   UNL     1      24.146  29.280  20.527  1.00  0.00    -0.387 OA
ATOM     33  H   UNL     1      23.616  29.725  21.239  1.00  0.00     0.211 HD
ENDBRANCH  21  32
BRANCH  22  34
ATOM     34  O   UNL     1      22.469  31.483  18.244  1.00  0.00    -0.385 OA
ATOM     35  H   UNL     1      22.488  30.874  17.462  1.00  0.00     0.211 HD
ENDBRANCH  22  34
ENDBRANCH  16  17
ENDBRANCH  11  16
BRANCH  13  36
ATOM     36  O   UNL     1      21.508  27.884  15.135  1.00  0.00    -0.385 OA
ATOM     37  H   UNL     1      21.805  27.805  14.193  1.00  0.00     0.211 HD
ENDBRANCH  13  36
BRANCH  14  38
ATOM     38  O   UNL     1      22.649  25.536  14.356  1.00  0.00    -0.387 OA
ATOM     39  H   UNL     1      22.396  26.301  13.750  1.00  0.00     0.211 HD
ENDBRANCH  14  38
BRANCH  15  40
ATOM     40  O   UNL     1      24.422  25.155  16.463  1.00  0.00    -0.387 OA
ATOM     41  H   UNL     1      24.761  24.699  15.650  1.00  0.00     0.211 HD
ENDBRANCH  15  40
ENDBRANCH   9  10
ENDBRANCH   8   9
ENDBRANCH   3   8
BRANCH   3  42
ATOM     42  C   UNL     1      24.953  24.680  21.989  1.00  0.00     0.364 C 
ATOM     43  O   UNL     1      26.099  25.164  21.705  1.00  0.00    -0.246 OA
BRANCH  42  44
ATOM     44  O   UNL     1      24.992  23.661  22.919  1.00  0.00    -0.477 OA
ATOM     45  H   UNL     1      25.840  23.374  23.401  1.00  0.00     0.296 HD
ENDBRANCH  42  44
ENDBRANCH   3  42
BRANCH   6  46
ATOM     46  O   UNL     1      20.402  24.973  22.250  1.00  0.00    -0.391 OA
ATOM     47  H   UNL     1      19.682  24.350  22.475  1.00  0.00     0.211 HD
ENDBRANCH   6  46
BRANCH   7  48
ATOM     48  N   UNL     1      22.596  24.996  24.891  1.00  0.00    -0.348 N 
ATOM     49  C   UNL     1      22.366  25.421  26.203  1.00  0.00     0.217 C 
ATOM     50  H   UNL     1      23.129  24.061  24.790  1.00  0.00     0.163 HD
ATOM     51  C   UNL     1      22.893  24.643  27.380  1.00  0.00     0.114 C 
ATOM     52  O   UNL     1      21.714  26.469  26.460  1.00  0.00    -0.275 OA
ENDBRANCH   7  48
ENDBRANCH   1   2
BRANCH   1  53
ATOM     53  O   UNL     1      21.562  28.070  24.057  1.00  0.00    -0.388 OA
ATOM     54  H   UNL     1      21.488  28.938  24.493  1.00  0.00     0.211 HD
ENDBRANCH   1  53
BRANCH   1  55
ATOM     55  C   UNL     1      23.803  28.735  24.248  1.00  0.00     0.165 C 
BRANCH  55  56
ATOM     56  O   UNL     1      24.579  27.927  25.042  1.00  0.00    -0.388 OA
ATOM     57  H   UNL     1      24.099  27.127  25.384  1.00  0.00     0.211 HD
ENDBRANCH  55  56
BRANCH  55  58
ATOM     58  C   UNL     1      23.299  29.925  25.005  1.00  0.00     0.154 C 
BRANCH  58  59
ATOM     59  N   UNL     1      22.433  30.751  24.207  1.00  0.00    -0.319 N 
ATOM     60  C   UNL     1      21.389  31.483  24.892  1.00  0.00     0.407 C 
ATOM     61  H   UNL     1      22.506  30.856  23.183  1.00  0.00     0.167 HD
ATOM     62  O   UNL     1      21.338  31.354  26.141  1.00  0.00    -0.225 OA
BRANCH  60  63
ATOM     63  O   UNL     1      20.509  32.270  24.196  1.00  0.00    -0.443 OA
BRANCH  63  64
ATOM     64  C   UNL     1      19.949  31.813  22.987  1.00  0.00     0.294 C 
BRANCH  64  65
ATOM     65  C   UNL     1      18.731  31.021  23.234  1.00  0.00     0.120 A 
ATOM     66  C   UNL     1      17.439  31.313  22.826  1.00  0.00     0.138 A 
ATOM     67  N   UNL     1      18.645  29.857  23.864  1.00  0.00    -0.132 NA
ATOM     68  N   UNL     1      16.618  30.335  23.211  1.00  0.00    -0.251 N 
ATOM     69  N   UNL     1      17.372  29.441  23.853  1.00  0.00    -0.067 NA
BRANCH  68  70
ATOM     70  C   UNL     1      15.184  30.267  22.984  1.00  0.00     0.162 C 
BRANCH  70  71
ATOM     71  C   UNL     1      14.884  29.249  21.885  1.00  0.00     0.122 C 
BRANCH  71  72
ATOM     72  N   UNL     1      16.097  28.667  21.385  1.00  0.00    -0.214 NA
ATOM     73  H   UNL     1      16.188  27.687  21.765  1.00  0.00     0.141 HD
BRANCH  72  74
ATOM     74  S   UNL     1      16.123  28.542  19.670  1.00  0.00     0.208 S 
ATOM     75  O   UNL     1      17.285  29.344  19.109  1.00  0.00    -0.213 OA
ATOM     76  O   UNL     1      16.357  27.077  19.355  1.00  0.00    -0.213 OA
ATOM     77  C   UNL     1      14.593  29.078  18.969  1.00  0.00     0.176 C 
ENDBRANCH  72  74
ENDBRANCH  71  72
ENDBRANCH  70  71
ENDBRANCH  68  70
ENDBRANCH  64  65
ENDBRANCH  63  64
ENDBRANCH  60  63
ENDBRANCH  58  59
ENDBRANCH  55  58
ENDBRANCH   1  55
TORSDOF 33
