REMARK VINA RESULT:    -5.334     22.389     27.877
REMARK INTER + INTRA:         -21.025
REMARK INTER:                 -13.441
REMARK INTRA:                  -7.585
REMARK UNBOUND:                -7.585
REMARK SMILES COc1ccc(-n2cc(COC(=O)NC[C@@H](O)C(O)[C@@H]3O[C@@](OC[C@H]4O[C@@H](O[C@H]5[C@H](O)[C@@H](O)[C@H](OCCN=[N+]=[N-])O[C@@H]5CO)[C@H](O)[C@@H](O)[C@H]4O)(C(=O)O)C[C@H](O)[C@H]3NC(C)=O)nn2)cc1
REMARK SMILES IDX 22 1 54 2 55 3 57 4 20 5 21 6 23 7 24 8 25 9 27 10 26 11
REMARK SMILES IDX 45 12 47 13 49 14 28 15 29 16 42 17 41 18 34 19 30 20 32 21
REMARK SMILES IDX 43 22 44 23 35 25 36 26 37 27 38 28 39 29 40 30 31 31 33 33
REMARK SMILES IDX 46 35 48 37 50 39 51 41 52 42 53 43 56 45 18 47 19 48 16 50
REMARK SMILES IDX 17 51 15 53 14 54 12 55 13 57 11 58 10 59 9 60 8 61 62 62
REMARK SMILES IDX 7 63 63 64 6 65 5 66 64 67 4 68 65 69 3 70 2 71 1 72 58 73
REMARK SMILES IDX 59 74 60 76 61 77
REMARK H PARENT 44 24 31 32 33 34 46 36 48 38 50 40 53 44 56 46 19 49 17 52
REMARK H PARENT 14 56 58 75
REMARK Flexibility Score: inf
ROOT
ATOM      1  C   UNL     1       4.902  21.949  33.019  1.00  0.00     0.272 C 
ATOM      2  C   UNL     1       4.108  22.258  31.805  1.00  0.00     0.113 C 
ATOM      3  C   UNL     1       2.637  22.283  31.950  1.00  0.00     0.145 C 
ATOM      4  C   UNL     1       2.266  21.435  33.184  1.00  0.00     0.142 C 
ATOM      5  C   UNL     1       3.211  20.287  33.222  1.00  0.00     0.178 C 
ATOM      6  O   UNL     1       4.442  20.781  33.653  1.00  0.00    -0.332 OA
ENDROOT
BRANCH   1   7
ATOM      7  O   UNL     1       5.240  22.809  33.926  1.00  0.00    -0.338 OA
BRANCH   7   8
ATOM      8  C   UNL     1       5.621  24.022  34.076  1.00  0.00     0.199 C 
BRANCH   8   9
ATOM      9  C   UNL     1       4.726  25.219  33.931  1.00  0.00     0.179 C 
ATOM     10  C   UNL     1       3.506  26.553  32.533  1.00  0.00     0.282 C 
ATOM     11  O   UNL     1       4.209  25.346  32.687  1.00  0.00    -0.341 OA
ATOM     12  C   UNL     1       2.353  26.707  33.474  1.00  0.00     0.202 C 
ATOM     13  C   UNL     1       2.379  25.835  34.673  1.00  0.00     0.179 C 
ATOM     14  C   UNL     1       3.705  25.301  35.039  1.00  0.00     0.177 C 
BRANCH  10  15
ATOM     15  O   UNL     1       3.035  26.585  31.224  1.00  0.00    -0.341 OA
BRANCH  15  16
ATOM     16  C   UNL     1       3.763  27.408  30.410  1.00  0.00     0.184 C 
ATOM     17  C   UNL     1       2.918  28.368  29.655  1.00  0.00     0.178 C 
ATOM     18  O   UNL     1       3.707  29.130  28.751  1.00  0.00    -0.341 OA
ATOM     19  C   UNL     1       4.090  28.217  27.734  1.00  0.00     0.281 C 
ATOM     20  C   UNL     1       4.544  26.526  29.419  1.00  0.00     0.180 C 
ATOM     21  C   UNL     1       5.207  27.398  28.387  1.00  0.00     0.202 C 
BRANCH  17  22
ATOM     22  C   UNL     1       2.176  29.309  30.567  1.00  0.00     0.191 C 
BRANCH  22  23
ATOM     23  O   UNL     1       0.943  28.761  30.876  1.00  0.00    -0.394 OA
ATOM     24  H   UNL     1       0.205  29.404  30.789  1.00  0.00     0.210 HD
ENDBRANCH  22  23
ENDBRANCH  17  22
BRANCH  19  25
ATOM     25  O   UNL     1       4.510  28.860  26.622  1.00  0.00    -0.350 OA
BRANCH  25  26
ATOM     26  C   UNL     1       5.576  29.701  26.685  1.00  0.00     0.169 C 
BRANCH  26  27
ATOM     27  C   UNL     1       6.636  29.551  25.647  1.00  0.00     0.119 C 
BRANCH  27  28
ATOM     28  N   UNL     1       6.547  28.380  24.828  1.00  0.00    -0.092 NA
ATOM     29  N   UNL     1       7.504  27.625  24.688  1.00  0.00     0.001 N 
ATOM     30  N   UNL     1       8.572  27.024  24.541  1.00  0.00    -0.003 NA
ENDBRANCH  27  28
ENDBRANCH  26  27
ENDBRANCH  25  26
ENDBRANCH  19  25
BRANCH  20  31
ATOM     31  O   UNL     1       5.458  25.768  30.127  1.00  0.00    -0.387 OA
ATOM     32  H   UNL     1       6.118  25.406  29.457  1.00  0.00     0.211 HD
ENDBRANCH  20  31
BRANCH  21  33
ATOM     33  O   UNL     1       5.795  26.627  27.410  1.00  0.00    -0.385 OA
ATOM     34  H   UNL     1       6.515  27.120  26.944  1.00  0.00     0.211 HD
ENDBRANCH  21  33
ENDBRANCH  15  16
ENDBRANCH  10  15
BRANCH  12  35
ATOM     35  O   UNL     1       2.239  28.028  33.937  1.00  0.00    -0.385 OA
ATOM     36  H   UNL     1       2.419  28.087  34.902  1.00  0.00     0.211 HD
ENDBRANCH  12  35
BRANCH  13  37
ATOM     37  O   UNL     1       1.388  24.851  34.575  1.00  0.00    -0.387 OA
ATOM     38  H   UNL     1       0.482  25.200  34.701  1.00  0.00     0.211 HD
ENDBRANCH  13  37
BRANCH  14  39
ATOM     39  O   UNL     1       3.534  24.069  35.675  1.00  0.00    -0.387 OA
ATOM     40  H   UNL     1       2.664  24.109  36.148  1.00  0.00     0.211 HD
ENDBRANCH  14  39
ENDBRANCH   8   9
ENDBRANCH   7   8
ENDBRANCH   1   7
BRANCH   1  41
ATOM     41  C   UNL     1       6.242  21.419  32.414  1.00  0.00     0.364 C 
ATOM     42  O   UNL     1       7.288  21.487  33.064  1.00  0.00    -0.246 OA
BRANCH  41  43
ATOM     43  O   UNL     1       6.168  20.891  31.150  1.00  0.00    -0.477 OA
ATOM     44  H   UNL     1       5.272  20.591  30.739  1.00  0.00     0.296 HD
ENDBRANCH  41  43
ENDBRANCH   1  41
BRANCH   3  45
ATOM     45  O   UNL     1       2.035  23.507  31.960  1.00  0.00    -0.391 OA
ATOM     46  H   UNL     1       2.221  24.074  32.742  1.00  0.00     0.211 HD
ENDBRANCH   3  45
BRANCH   5  47
ATOM     47  C   UNL     1       2.831  19.215  34.271  1.00  0.00     0.176 C 
BRANCH  47  48
ATOM     48  O   UNL     1       2.879  17.967  33.729  1.00  0.00    -0.388 OA
ATOM     49  H   UNL     1       2.047  17.483  33.941  1.00  0.00     0.211 HD
ENDBRANCH  47  48
BRANCH  47  50
ATOM     50  C   UNL     1       3.348  19.512  35.583  1.00  0.00     0.165 C 
BRANCH  50  51
ATOM     51  O   UNL     1       4.032  18.452  36.241  1.00  0.00    -0.388 OA
ATOM     52  H   UNL     1       3.916  18.622  37.197  1.00  0.00     0.211 HD
ENDBRANCH  50  51
BRANCH  50  53
ATOM     53  C   UNL     1       2.585  20.175  36.653  1.00  0.00     0.154 C 
BRANCH  53  54
ATOM     54  N   UNL     1       2.990  21.427  37.108  1.00  0.00    -0.319 N 
ATOM     55  C   UNL     1       3.237  21.801  38.437  1.00  0.00     0.407 C 
ATOM     56  H   UNL     1       3.133  22.205  36.375  1.00  0.00     0.167 HD
ATOM     57  O   UNL     1       3.131  20.998  39.379  1.00  0.00    -0.225 OA
BRANCH  55  58
ATOM     58  O   UNL     1       3.621  23.132  38.719  1.00  0.00    -0.443 OA
BRANCH  58  59
ATOM     59  C   UNL     1       4.663  23.320  39.644  1.00  0.00     0.294 C 
BRANCH  59  60
ATOM     60  C   UNL     1       5.954  23.445  38.926  1.00  0.00     0.121 A 
ATOM     61  C   UNL     1       6.250  24.092  37.742  1.00  0.00     0.144 A 
ATOM     62  N   UNL     1       7.115  22.921  39.366  1.00  0.00    -0.131 NA
ATOM     63  N   UNL     1       7.560  23.937  37.514  1.00  0.00    -0.220 N 
ATOM     64  N   UNL     1       8.065  23.217  38.521  1.00  0.00    -0.062 NA
BRANCH  63  65
ATOM     65  C   UNL     1       8.397  24.392  36.462  1.00  0.00     0.067 A 
ATOM     66  C   UNL     1       9.013  23.569  35.559  1.00  0.00     0.032 A 
ATOM     67  C   UNL     1       8.624  25.761  36.334  1.00  0.00     0.032 A 
ATOM     68  C   UNL     1       9.829  24.081  34.560  1.00  0.00     0.048 A 
ATOM     69  C   UNL     1       9.437  26.271  35.340  1.00  0.00     0.048 A 
ATOM     70  C   UNL     1      10.056  25.440  34.431  1.00  0.00     0.119 A 
BRANCH  70  71
ATOM     71  O   UNL     1      10.888  25.945  33.413  1.00  0.00    -0.497 OA
ATOM     72  C   UNL     1      11.034  27.371  33.343  1.00  0.00     0.278 C 
ENDBRANCH  70  71
ENDBRANCH  63  65
ENDBRANCH  59  60
ENDBRANCH  58  59
ENDBRANCH  55  58
ENDBRANCH  53  54
ENDBRANCH  50  53
ENDBRANCH  47  50
ENDBRANCH   5  47
BRANCH   4  73
ATOM     73  N   UNL     1       0.860  21.149  33.136  1.00  0.00    -0.348 N 
ATOM     74  C   UNL     1      -0.014  21.575  34.170  1.00  0.00     0.217 C 
ATOM     75  H   UNL     1       0.470  20.650  32.318  1.00  0.00     0.163 HD
ATOM     76  C   UNL     1      -1.466  21.264  34.096  1.00  0.00     0.114 C 
ATOM     77  O   UNL     1       0.385  22.219  35.176  1.00  0.00    -0.275 OA
ENDBRANCH   4  73
TORSDOF 31
