REMARK VINA RESULT:    -5.966      2.809      7.673
REMARK INTER + INTRA:         -22.887
REMARK INTER:                 -16.011
REMARK INTRA:                  -6.877
REMARK UNBOUND:                -6.283
REMARK SMILES CC(=O)N[C@@H]1[C@@H](O)C[C@](OC[C@H]2O[C@@H](O[C@H]3[C@H](O)[C@@H](O)[C@H](OCCN=[N+]=[N-])O[C@@H]3CO)[C@H](O)[C@@H](O)[C@H]2O)(C(=O)O)O[C@H]1C(O)[C@H](O)CNC(=O)OCc1cn(C[C@H](CC(=O)O)CC(C)C)nn1
REMARK SMILES IDX 43 1 42 2 9 3 8 4 41 5 6 6 5 7 10 8 11 9 12 10 14 11 13 12
REMARK SMILES IDX 32 13 34 14 36 15 15 16 16 17 29 18 28 19 21 20 17 21 19 22
REMARK SMILES IDX 30 23 31 24 22 26 23 27 24 28 25 29 26 30 27 31 18 32 20 34
REMARK SMILES IDX 33 36 35 38 37 40 38 42 39 43 40 44 7 46 4 48 2 49 1 51 3 52
REMARK SMILES IDX 44 53 45 55 46 56 47 58 48 59 49 60 50 62 51 63 52 64 53 65
REMARK SMILES IDX 54 66 67 67 55 68 66 69 56 70 57 71 58 72 59 73 60 74 61 75
REMARK SMILES IDX 62 77 63 78 64 79 65 80
REMARK H PARENT 31 25 18 33 20 35 33 37 35 39 37 41 40 45 7 47 4 50 44 54
REMARK H PARENT 46 57 48 61 61 76
REMARK Flexibility Score: inf
ROOT
ATOM      1  C   UNL     1       5.197  21.843  32.425  1.00  0.00     0.176 C 
ENDROOT
BRANCH   1   2
ATOM      2  C   UNL     1       4.002  21.177  33.046  1.00  0.00     0.178 C 
ATOM      3  C   UNL     1       1.984  20.921  31.751  1.00  0.00     0.272 C 
ATOM      4  C   UNL     1       1.389  22.118  32.401  1.00  0.00     0.113 C 
ATOM      5  O   UNL     1       3.258  20.709  32.010  1.00  0.00    -0.332 OA
ATOM      6  C   UNL     1       2.277  22.969  33.216  1.00  0.00     0.145 C 
ATOM      7  C   UNL     1       3.350  22.163  33.952  1.00  0.00     0.142 C 
BRANCH   3   8
ATOM      8  O   UNL     1       1.818  21.021  30.343  1.00  0.00    -0.338 OA
BRANCH   8   9
ATOM      9  C   UNL     1       2.482  22.056  29.762  1.00  0.00     0.199 C 
BRANCH   9  10
ATOM     10  C   UNL     1       1.522  22.865  28.860  1.00  0.00     0.179 C 
ATOM     11  C   UNL     1       1.355  24.882  27.726  1.00  0.00     0.282 C 
ATOM     12  O   UNL     1       2.189  23.902  28.239  1.00  0.00    -0.341 OA
ATOM     13  C   UNL     1       0.090  24.165  27.229  1.00  0.00     0.202 C 
ATOM     14  C   UNL     1       0.448  22.804  26.670  1.00  0.00     0.179 C 
ATOM     15  C   UNL     1       1.004  21.939  27.751  1.00  0.00     0.177 C 
BRANCH  11  16
ATOM     16  O   UNL     1       1.934  25.406  26.596  1.00  0.00    -0.341 OA
BRANCH  16  17
ATOM     17  C   UNL     1       3.130  26.053  26.764  1.00  0.00     0.184 C 
ATOM     18  C   UNL     1       3.111  27.510  26.406  1.00  0.00     0.178 C 
ATOM     19  O   UNL     1       3.897  27.863  25.349  1.00  0.00    -0.341 OA
ATOM     20  C   UNL     1       5.229  27.515  25.457  1.00  0.00     0.281 C 
ATOM     21  C   UNL     1       4.139  25.373  25.862  1.00  0.00     0.180 C 
ATOM     22  C   UNL     1       5.463  26.142  25.983  1.00  0.00     0.202 C 
BRANCH  18  23
ATOM     23  C   UNL     1       3.412  28.300  27.666  1.00  0.00     0.191 C 
BRANCH  23  24
ATOM     24  O   UNL     1       3.397  29.670  27.421  1.00  0.00    -0.394 OA
ATOM     25  H   UNL     1       2.988  29.891  26.540  1.00  0.00     0.210 HD
ENDBRANCH  23  24
ENDBRANCH  18  23
BRANCH  20  26
ATOM     26  O   UNL     1       5.872  28.520  26.164  1.00  0.00    -0.350 OA
BRANCH  26  27
ATOM     27  C   UNL     1       6.624  29.359  25.360  1.00  0.00     0.169 C 
BRANCH  27  28
ATOM     28  C   UNL     1       7.137  28.516  24.200  1.00  0.00     0.119 C 
BRANCH  28  29
ATOM     29  N   UNL     1       8.529  28.223  24.508  1.00  0.00    -0.092 NA
ATOM     30  N   UNL     1       8.778  27.289  25.233  1.00  0.00     0.001 N 
ATOM     31  N   UNL     1       9.302  26.513  26.044  1.00  0.00    -0.003 NA
ENDBRANCH  28  29
ENDBRANCH  27  28
ENDBRANCH  26  27
ENDBRANCH  20  26
BRANCH  21  32
ATOM     32  O   UNL     1       4.284  24.046  26.221  1.00  0.00    -0.387 OA
ATOM     33  H   UNL     1       4.937  23.639  25.568  1.00  0.00     0.211 HD
ENDBRANCH  21  32
BRANCH  22  34
ATOM     34  O   UNL     1       6.377  25.405  25.201  1.00  0.00    -0.385 OA
ATOM     35  H   UNL     1       7.257  25.823  25.315  1.00  0.00     0.211 HD
ENDBRANCH  22  34
ENDBRANCH  16  17
ENDBRANCH  11  16
BRANCH  13  36
ATOM     36  O   UNL     1      -0.912  24.139  28.166  1.00  0.00    -0.385 OA
ATOM     37  H   UNL     1      -0.711  24.608  28.995  1.00  0.00     0.211 HD
ENDBRANCH  13  36
BRANCH  14  38
ATOM     38  O   UNL     1       1.456  23.043  25.714  1.00  0.00    -0.387 OA
ATOM     39  H   UNL     1       2.119  22.336  25.690  1.00  0.00     0.211 HD
ENDBRANCH  14  38
BRANCH  15  40
ATOM     40  O   UNL     1       2.083  21.216  27.199  1.00  0.00    -0.387 OA
ATOM     41  H   UNL     1       2.232  21.465  26.273  1.00  0.00     0.211 HD
ENDBRANCH  15  40
ENDBRANCH   9  10
ENDBRANCH   8   9
ENDBRANCH   3   8
BRANCH   3  42
ATOM     42  C   UNL     1       1.151  19.698  32.086  1.00  0.00     0.364 C 
ATOM     43  O   UNL     1       0.572  19.070  31.191  1.00  0.00    -0.246 OA
BRANCH  42  44
ATOM     44  O   UNL     1       1.030  19.276  33.378  1.00  0.00    -0.477 OA
ATOM     45  H   UNL     1       1.506  18.453  33.744  1.00  0.00     0.296 HD
ENDBRANCH  42  44
ENDBRANCH   3  42
BRANCH   6  46
ATOM     46  O   UNL     1       2.864  24.043  32.584  1.00  0.00    -0.391 OA
ATOM     47  H   UNL     1       3.636  23.689  32.077  1.00  0.00     0.211 HD
ENDBRANCH   6  46
BRANCH   7  48
ATOM     48  N   UNL     1       2.694  21.623  35.112  1.00  0.00    -0.348 N 
ATOM     49  C   UNL     1       3.127  22.080  36.413  1.00  0.00     0.217 C 
ATOM     50  H   UNL     1       1.926  20.917  35.110  1.00  0.00     0.163 HD
ATOM     51  C   UNL     1       2.435  21.517  37.624  1.00  0.00     0.114 C 
ATOM     52  O   UNL     1       4.050  22.919  36.557  1.00  0.00    -0.275 OA
ENDBRANCH   7  48
ENDBRANCH   1   2
BRANCH   1  53
ATOM     53  O   UNL     1       6.272  20.905  32.409  1.00  0.00    -0.388 OA
ATOM     54  H   UNL     1       6.834  21.071  31.608  1.00  0.00     0.211 HD
ENDBRANCH   1  53
BRANCH   1  55
ATOM     55  C   UNL     1       5.779  23.032  33.155  1.00  0.00     0.165 C 
BRANCH  55  56
ATOM     56  O   UNL     1       5.878  23.999  32.062  1.00  0.00    -0.388 OA
ATOM     57  H   UNL     1       4.917  24.303  31.982  1.00  0.00     0.211 HD
ENDBRANCH  55  56
BRANCH  55  58
ATOM     58  C   UNL     1       7.205  22.837  33.539  1.00  0.00     0.154 C 
BRANCH  58  59
ATOM     59  N   UNL     1       7.531  23.467  34.769  1.00  0.00    -0.319 N 
ATOM     60  C   UNL     1       8.862  24.019  34.871  1.00  0.00     0.407 C 
ATOM     61  H   UNL     1       6.940  23.579  35.612  1.00  0.00     0.167 HD
ATOM     62  O   UNL     1       9.654  23.926  33.891  1.00  0.00    -0.225 OA
BRANCH  60  63
ATOM     63  O   UNL     1       9.337  24.651  35.999  1.00  0.00    -0.443 OA
BRANCH  63  64
ATOM     64  C   UNL     1       9.183  26.022  36.301  1.00  0.00     0.294 C 
BRANCH  64  65
ATOM     65  C   UNL     1       8.231  26.718  35.390  1.00  0.00     0.120 A 
ATOM     66  C   UNL     1       8.507  27.519  34.306  1.00  0.00     0.138 A 
ATOM     67  N   UNL     1       6.900  26.659  35.497  1.00  0.00    -0.132 NA
ATOM     68  N   UNL     1       7.319  27.936  33.771  1.00  0.00    -0.252 N 
ATOM     69  N   UNL     1       6.392  27.392  34.523  1.00  0.00    -0.067 NA
BRANCH  68  70
ATOM     70  C   UNL     1       7.133  28.796  32.660  1.00  0.00     0.150 C 
BRANCH  70  71
ATOM     71  C   UNL     1       5.741  29.003  32.236  1.00  0.00     0.022 C 
BRANCH  71  72
ATOM     72  C   UNL     1       5.335  28.426  30.931  1.00  0.00     0.128 C 
BRANCH  72  73
ATOM     73  C   UNL     1       5.027  26.990  30.902  1.00  0.00     0.303 C 
ATOM     74  O   UNL     1       4.338  26.489  31.829  1.00  0.00    -0.252 OA
BRANCH  73  75
ATOM     75  O   UNL     1       5.456  26.132  29.898  1.00  0.00    -0.481 OA
ATOM     76  H   UNL     1       6.405  26.181  29.557  1.00  0.00     0.296 HD
ENDBRANCH  73  75
ENDBRANCH  72  73
ENDBRANCH  71  72
BRANCH  71  77
ATOM     77  C   UNL     1       5.218  30.395  32.450  1.00  0.00     0.009 C 
BRANCH  77  78
ATOM     78  C   UNL     1       6.155  31.489  32.697  1.00  0.00    -0.017 C 
ATOM     79  C   UNL     1       6.261  32.587  31.701  1.00  0.00     0.007 C 
ATOM     80  C   UNL     1       6.042  32.115  34.074  1.00  0.00     0.007 C 
ENDBRANCH  77  78
ENDBRANCH  71  77
ENDBRANCH  70  71
ENDBRANCH  68  70
ENDBRANCH  64  65
ENDBRANCH  63  64
ENDBRANCH  60  63
ENDBRANCH  58  59
ENDBRANCH  55  58
ENDBRANCH   1  55
TORSDOF 36
