REMARK VINA RESULT:    -6.185     13.813     19.152
REMARK INTER + INTRA:         -21.800
REMARK INTER:                 -12.837
REMARK INTRA:                  -8.963
REMARK UNBOUND:                -6.033
REMARK SMILES CC(=O)N[C@@H]1[C@@H](O)C[C@](OC[C@H]2O[C@@H](O[C@H]3[C@H](O)[C@@H](O)[C@H](OCCN=[N+]=[N-])O[C@@H]3CO)[C@H](O)[C@@H](O)[C@H]2O)(C(=O)O)O[C@H]1C(O)[C@H](O)CNC(=O)OCc1cn(-c2cccc(S(N)(=O)=O)c2)nn1
REMARK SMILES IDX 9 1 8 2 6 3 5 4 42 5 41 6 10 7 11 8 12 9 14 10 13 11 32 12
REMARK SMILES IDX 34 13 36 14 15 15 16 16 29 17 28 18 21 19 17 20 19 21 30 22
REMARK SMILES IDX 31 23 22 25 23 26 24 27 25 28 26 29 27 30 18 31 20 33 33 35
REMARK SMILES IDX 35 37 37 39 38 41 39 42 40 43 7 45 43 47 44 48 45 50 46 51
REMARK SMILES IDX 47 53 48 54 49 55 50 57 51 58 52 59 53 60 54 61 67 62 55 63
REMARK SMILES IDX 66 64 56 65 65 66 57 67 60 68 58 69 59 70 61 71 63 72 64 73
REMARK SMILES IDX 62 74 4 77 2 78 1 80 3 81
REMARK H PARENT 31 24 18 32 20 34 33 36 35 38 37 40 40 44 7 46 44 49 46 52
REMARK H PARENT 48 56 62 75 62 76 4 79
REMARK Flexibility Score: inf
ROOT
ATOM      1  C   UNL     1      15.483  31.590  14.389  1.00  0.00     0.272 C 
ATOM      2  C   UNL     1      14.805  32.633  15.299  1.00  0.00     0.113 C 
ATOM      3  C   UNL     1      13.621  33.173  14.576  1.00  0.00     0.145 C 
ATOM      4  C   UNL     1      12.666  32.086  14.231  1.00  0.00     0.142 C 
ATOM      5  C   UNL     1      13.333  30.787  13.950  1.00  0.00     0.178 C 
ATOM      6  O   UNL     1      14.634  30.587  14.184  1.00  0.00    -0.332 OA
ENDROOT
BRANCH   1   7
ATOM      7  O   UNL     1      16.601  31.181  15.163  1.00  0.00    -0.338 OA
BRANCH   7   8
ATOM      8  C   UNL     1      16.435  31.626  16.438  1.00  0.00     0.199 C 
BRANCH   8   9
ATOM      9  C   UNL     1      16.828  30.600  17.478  1.00  0.00     0.179 C 
ATOM     10  C   UNL     1      17.089  30.408  19.692  1.00  0.00     0.282 C 
ATOM     11  O   UNL     1      16.173  30.815  18.689  1.00  0.00    -0.341 OA
ATOM     12  C   UNL     1      17.689  29.084  19.389  1.00  0.00     0.202 C 
ATOM     13  C   UNL     1      17.020  28.319  18.276  1.00  0.00     0.179 C 
ATOM     14  C   UNL     1      16.648  29.185  17.087  1.00  0.00     0.177 C 
BRANCH  10  15
ATOM     15  O   UNL     1      16.559  30.570  20.947  1.00  0.00    -0.341 OA
BRANCH  15  16
ATOM     16  C   UNL     1      15.219  30.287  21.062  1.00  0.00     0.184 C 
ATOM     17  C   UNL     1      14.518  31.459  21.705  1.00  0.00     0.178 C 
ATOM     18  O   UNL     1      13.583  31.023  22.652  1.00  0.00    -0.341 OA
ATOM     19  C   UNL     1      14.274  30.583  23.757  1.00  0.00     0.281 C 
ATOM     20  C   UNL     1      15.105  29.046  21.919  1.00  0.00     0.180 C 
ATOM     21  C   UNL     1      15.020  29.343  23.382  1.00  0.00     0.202 C 
BRANCH  17  22
ATOM     22  C   UNL     1      13.777  32.327  20.738  1.00  0.00     0.191 C 
BRANCH  22  23
ATOM     23  O   UNL     1      13.421  31.609  19.579  1.00  0.00    -0.394 OA
ATOM     24  H   UNL     1      14.220  31.268  19.112  1.00  0.00     0.210 HD
ENDBRANCH  22  23
ENDBRANCH  17  22
BRANCH  19  25
ATOM     25  O   UNL     1      13.435  30.292  24.832  1.00  0.00    -0.350 OA
BRANCH  25  26
ATOM     26  C   UNL     1      13.132  31.357  25.635  1.00  0.00     0.169 C 
BRANCH  26  27
ATOM     27  C   UNL     1      13.702  31.274  27.035  1.00  0.00     0.119 C 
BRANCH  27  28
ATOM     28  N   UNL     1      14.971  31.969  27.133  1.00  0.00    -0.092 NA
ATOM     29  N   UNL     1      16.023  31.486  26.725  1.00  0.00     0.001 N 
ATOM     30  N   UNL     1      17.119  31.094  26.365  1.00  0.00    -0.003 NA
ENDBRANCH  27  28
ENDBRANCH  26  27
ENDBRANCH  25  26
ENDBRANCH  19  25
BRANCH  20  31
ATOM     31  O   UNL     1      13.930  28.362  21.558  1.00  0.00    -0.387 OA
ATOM     32  H   UNL     1      13.287  28.948  21.085  1.00  0.00     0.211 HD
ENDBRANCH  20  31
BRANCH  21  33
ATOM     33  O   UNL     1      16.319  29.450  23.931  1.00  0.00    -0.385 OA
ATOM     34  H   UNL     1      16.213  29.559  24.905  1.00  0.00     0.211 HD
ENDBRANCH  21  33
ENDBRANCH  15  16
ENDBRANCH  10  15
BRANCH  12  35
ATOM     35  O   UNL     1      19.089  29.142  19.179  1.00  0.00    -0.385 OA
ATOM     36  H   UNL     1      19.309  28.221  18.829  1.00  0.00     0.211 HD
ENDBRANCH  12  35
BRANCH  13  37
ATOM     37  O   UNL     1      15.979  27.536  18.737  1.00  0.00    -0.387 OA
ATOM     38  H   UNL     1      16.309  27.105  19.589  1.00  0.00     0.211 HD
ENDBRANCH  13  37
BRANCH  14  39
ATOM     39  O   UNL     1      15.293  28.956  16.823  1.00  0.00    -0.387 OA
ATOM     40  H   UNL     1      14.786  28.744  17.646  1.00  0.00     0.211 HD
ENDBRANCH  14  39
ENDBRANCH   8   9
ENDBRANCH   7   8
ENDBRANCH   1   7
BRANCH   1  41
ATOM     41  C   UNL     1      15.954  32.344  13.201  1.00  0.00     0.364 C 
ATOM     42  O   UNL     1      15.659  31.883  12.038  1.00  0.00    -0.246 OA
BRANCH  41  43
ATOM     43  O   UNL     1      16.679  33.499  13.199  1.00  0.00    -0.477 OA
ATOM     44  H   UNL     1      16.581  34.221  12.474  1.00  0.00     0.296 HD
ENDBRANCH  41  43
ENDBRANCH   1  41
BRANCH   3  45
ATOM     45  O   UNL     1      13.024  34.108  15.469  1.00  0.00    -0.391 OA
ATOM     46  H   UNL     1      12.333  34.572  14.900  1.00  0.00     0.211 HD
ENDBRANCH   3  45
BRANCH   5  47
ATOM     47  C   UNL     1      12.504  29.684  14.652  1.00  0.00     0.176 C 
BRANCH  47  48
ATOM     48  O   UNL     1      12.765  29.735  16.009  1.00  0.00    -0.388 OA
ATOM     49  H   UNL     1      13.219  30.535  16.324  1.00  0.00     0.211 HD
ENDBRANCH  47  48
BRANCH  47  50
ATOM     50  C   UNL     1      12.715  28.376  13.993  1.00  0.00     0.165 C 
BRANCH  50  51
ATOM     51  O   UNL     1      14.018  27.947  14.236  1.00  0.00    -0.388 OA
ATOM     52  H   UNL     1      14.383  28.603  14.897  1.00  0.00     0.211 HD
ENDBRANCH  50  51
BRANCH  50  53
ATOM     53  C   UNL     1      12.536  28.447  12.486  1.00  0.00     0.154 C 
BRANCH  53  54
ATOM     54  N   UNL     1      11.120  28.462  12.204  1.00  0.00    -0.319 N 
ATOM     55  C   UNL     1      10.562  29.543  11.424  1.00  0.00     0.407 C 
ATOM     56  H   UNL     1      10.469  27.720  12.548  1.00  0.00     0.167 HD
ATOM     57  O   UNL     1      11.291  30.471  10.986  1.00  0.00    -0.225 OA
BRANCH  55  58
ATOM     58  O   UNL     1       9.204  29.492  11.189  1.00  0.00    -0.443 OA
BRANCH  58  59
ATOM     59  C   UNL     1       8.381  28.595  11.874  1.00  0.00     0.294 C 
BRANCH  59  60
ATOM     60  C   UNL     1       7.626  29.253  12.950  1.00  0.00     0.121 A 
ATOM     61  C   UNL     1       8.220  29.821  14.086  1.00  0.00     0.144 A 
ATOM     62  N   UNL     1       6.318  29.443  13.077  1.00  0.00    -0.131 NA
ATOM     63  N   UNL     1       7.241  30.321  14.833  1.00  0.00    -0.220 N 
ATOM     64  N   UNL     1       6.119  30.085  14.214  1.00  0.00    -0.062 NA
BRANCH  63  65
ATOM     65  C   UNL     1       7.455  30.996  16.079  1.00  0.00     0.068 A 
ATOM     66  C   UNL     1       8.709  31.556  16.335  1.00  0.00     0.050 A 
ATOM     67  C   UNL     1       6.459  31.097  17.003  1.00  0.00     0.028 A 
ATOM     68  C   UNL     1       8.965  32.215  17.511  1.00  0.00     0.084 A 
ATOM     69  C   UNL     1       6.699  31.746  18.171  1.00  0.00     0.004 A 
ATOM     70  C   UNL     1       7.945  32.314  18.448  1.00  0.00     0.022 A 
BRANCH  68  71
ATOM     71  S   UNL     1      10.501  32.937  17.894  1.00  0.00     0.238 S 
ATOM     72  O   UNL     1      11.594  32.062  17.348  1.00  0.00    -0.207 OA
ATOM     73  O   UNL     1      10.670  33.049  19.375  1.00  0.00    -0.207 OA
BRANCH  71  74
ATOM     74  N   UNL     1      10.573  34.511  17.157  1.00  0.00    -0.225 NA
ATOM     75  H   UNL     1       9.613  34.767  16.834  1.00  0.00     0.137 HD
ATOM     76  H   UNL     1      11.300  34.558  16.414  1.00  0.00     0.137 HD
ENDBRANCH  71  74
ENDBRANCH  68  71
ENDBRANCH  63  65
ENDBRANCH  59  60
ENDBRANCH  58  59
ENDBRANCH  55  58
ENDBRANCH  53  54
ENDBRANCH  50  53
ENDBRANCH  47  50
ENDBRANCH   5  47
BRANCH   4  77
ATOM     77  N   UNL     1      11.951  32.516  13.018  1.00  0.00    -0.348 N 
ATOM     78  C   UNL     1      10.771  33.305  13.061  1.00  0.00     0.217 C 
ATOM     79  H   UNL     1      12.320  32.234  12.087  1.00  0.00     0.163 HD
ATOM     80  C   UNL     1      10.096  33.709  11.802  1.00  0.00     0.114 C 
ATOM     81  O   UNL     1      10.324  33.643  14.196  1.00  0.00    -0.275 OA
ENDBRANCH   4  77
TORSDOF 32
