REMARK VINA RESULT:    -8.252      2.691      6.157
REMARK INTER + INTRA:         -19.512
REMARK INTER:                 -12.111
REMARK INTRA:                  -7.401
REMARK UNBOUND:                 2.731
REMARK SMILES CC(=O)N[C@@H]1[C@@H](O)C[C@](OC[C@H]2O[C@@H](O[C@H]3[C@H](O)[C@@H](O)[C@H](OCCN=[N+]=[N-])O[C@@H]3CO)[C@H](O)[C@@H](O)[C@H]2O)(C(=O)O)O[C@H]1C(O)[C@H](O)CNC(=O)OCc1cn(C2CCc3ccccc3NC2=O)nn1
REMARK SMILES IDX 43 1 42 2 9 3 8 4 41 5 6 6 5 7 10 8 11 9 12 10 14 11 13 12
REMARK SMILES IDX 32 13 34 14 36 15 15 16 16 17 29 18 28 19 21 20 17 21 19 22
REMARK SMILES IDX 30 23 31 24 22 26 23 27 24 28 25 29 26 30 27 31 18 32 20 34
REMARK SMILES IDX 33 36 35 38 37 40 38 42 39 43 40 44 7 46 4 48 2 49 1 51 3 52
REMARK SMILES IDX 44 53 45 55 46 56 47 58 48 59 49 60 50 62 51 63 52 64 53 65
REMARK SMILES IDX 54 66 69 67 55 68 68 69 56 70 57 71 66 73 65 74 67 75 64 77
REMARK SMILES IDX 59 78 63 79 60 80 62 81 61 82 58 83
REMARK H PARENT 31 25 18 33 20 35 33 37 35 39 37 41 40 45 7 47 4 50 44 54
REMARK H PARENT 46 57 48 61 65 76
REMARK Flexibility Score: 90.00
ROOT
ATOM      1  C   UNL     1      18.332  30.127  20.332  1.00  0.00     0.176 C 
ENDROOT
BRANCH   1   2
ATOM      2  C   UNL     1      16.866  30.391  19.933  1.00  0.00     0.178 C 
ATOM      3  C   UNL     1      15.022  29.761  21.308  1.00  0.00     0.272 C 
ATOM      4  C   UNL     1      14.601  28.754  20.316  1.00  0.00     0.113 C 
ATOM      5  O   UNL     1      16.061  30.623  20.953  1.00  0.00    -0.332 OA
ATOM      6  C   UNL     1      15.742  28.206  19.527  1.00  0.00     0.145 C 
ATOM      7  C   UNL     1      16.462  29.386  18.889  1.00  0.00     0.142 C 
BRANCH   3   8
ATOM      8  O   UNL     1      15.359  29.289  22.527  1.00  0.00    -0.338 OA
BRANCH   8   9
ATOM      9  C   UNL     1      15.064  29.864  23.681  1.00  0.00     0.199 C 
BRANCH   9  10
ATOM     10  C   UNL     1      15.967  30.688  24.491  1.00  0.00     0.179 C 
ATOM     11  C   UNL     1      18.234  30.926  24.888  1.00  0.00     0.282 C 
ATOM     12  O   UNL     1      17.288  30.409  24.003  1.00  0.00    -0.341 OA
ATOM     13  C   UNL     1      17.750  31.952  25.834  1.00  0.00     0.202 C 
ATOM     14  C   UNL     1      16.629  32.825  25.387  1.00  0.00     0.179 C 
ATOM     15  C   UNL     1      15.871  32.193  24.246  1.00  0.00     0.177 C 
BRANCH  11  16
ATOM     16  O   UNL     1      19.367  31.314  24.143  1.00  0.00    -0.341 OA
BRANCH  16  17
ATOM     17  C   UNL     1      20.487  30.600  24.481  1.00  0.00     0.184 C 
ATOM     18  C   UNL     1      21.574  31.386  25.165  1.00  0.00     0.178 C 
ATOM     19  O   UNL     1      22.539  30.450  25.546  1.00  0.00    -0.341 OA
ATOM     20  C   UNL     1      23.315  30.048  24.469  1.00  0.00     0.281 C 
ATOM     21  C   UNL     1      21.121  29.958  23.256  1.00  0.00     0.180 C 
ATOM     22  C   UNL     1      22.592  30.147  23.159  1.00  0.00     0.202 C 
BRANCH  18  23
ATOM     23  C   UNL     1      21.083  32.043  26.440  1.00  0.00     0.191 C 
BRANCH  23  24
ATOM     24  O   UNL     1      20.619  31.105  27.360  1.00  0.00    -0.394 OA
ATOM     25  H   UNL     1      21.177  30.300  27.405  1.00  0.00     0.210 HD
ENDBRANCH  23  24
ENDBRANCH  18  23
BRANCH  20  26
ATOM     26  O   UNL     1      23.785  28.772  24.719  1.00  0.00    -0.350 OA
BRANCH  26  27
ATOM     27  C   UNL     1      25.065  28.789  25.246  1.00  0.00     0.169 C 
BRANCH  27  28
ATOM     28  C   UNL     1      25.695  27.444  25.418  1.00  0.00     0.119 C 
BRANCH  28  29
ATOM     29  N   UNL     1      26.527  27.458  26.610  1.00  0.00    -0.092 NA
ATOM     30  N   UNL     1      27.547  28.166  26.690  1.00  0.00     0.001 N 
ATOM     31  N   UNL     1      28.188  29.221  26.805  1.00  0.00    -0.003 NA
ENDBRANCH  28  29
ENDBRANCH  27  28
ENDBRANCH  26  27
ENDBRANCH  20  26
BRANCH  21  32
ATOM     32  O   UNL     1      20.739  28.614  23.129  1.00  0.00    -0.387 OA
ATOM     33  H   UNL     1      20.824  28.179  24.017  1.00  0.00     0.211 HD
ENDBRANCH  21  32
BRANCH  22  34
ATOM     34  O   UNL     1      22.942  31.363  22.527  1.00  0.00    -0.385 OA
ATOM     35  H   UNL     1      23.698  31.259  21.920  1.00  0.00     0.211 HD
ENDBRANCH  22  34
ENDBRANCH  16  17
ENDBRANCH  11  16
BRANCH  13  36
ATOM     36  O   UNL     1      17.520  31.373  27.086  1.00  0.00    -0.385 OA
ATOM     37  H   UNL     1      17.788  30.418  27.066  1.00  0.00     0.211 HD
ENDBRANCH  13  36
BRANCH  14  38
ATOM     38  O   UNL     1      17.028  34.130  25.104  1.00  0.00    -0.387 OA
ATOM     39  H   UNL     1      17.387  34.113  24.179  1.00  0.00     0.211 HD
ENDBRANCH  14  38
BRANCH  15  40
ATOM     40  O   UNL     1      16.512  32.498  23.020  1.00  0.00    -0.387 OA
ATOM     41  H   UNL     1      17.317  33.006  23.262  1.00  0.00     0.211 HD
ENDBRANCH  15  40
ENDBRANCH   9  10
ENDBRANCH   8   9
ENDBRANCH   3   8
BRANCH   3  42
ATOM     42  C   UNL     1      13.880  30.750  21.405  1.00  0.00     0.364 C 
ATOM     43  O   UNL     1      14.048  31.939  21.266  1.00  0.00    -0.246 OA
BRANCH  42  44
ATOM     44  O   UNL     1      12.586  30.285  21.663  1.00  0.00    -0.477 OA
ATOM     45  H   UNL     1      12.233  29.426  21.274  1.00  0.00     0.296 HD
ENDBRANCH  42  44
ENDBRANCH   3  42
BRANCH   6  46
ATOM     46  O   UNL     1      16.600  27.555  20.429  1.00  0.00    -0.391 OA
ATOM     47  H   UNL     1      16.415  27.773  21.357  1.00  0.00     0.211 HD
ENDBRANCH   6  46
BRANCH   7  48
ATOM     48  N   UNL     1      15.640  29.894  17.842  1.00  0.00    -0.348 N 
ATOM     49  C   UNL     1      15.881  29.530  16.488  1.00  0.00     0.217 C 
ATOM     50  H   UNL     1      14.845  30.546  18.041  1.00  0.00     0.163 HD
ATOM     51  C   UNL     1      15.053  30.035  15.360  1.00  0.00     0.114 C 
ATOM     52  O   UNL     1      16.822  28.760  16.258  1.00  0.00    -0.275 OA
ENDBRANCH   7  48
ENDBRANCH   1   2
BRANCH   1  53
ATOM     53  O   UNL     1      18.365  29.507  21.585  1.00  0.00    -0.388 OA
ATOM     54  H   UNL     1      19.225  29.613  22.050  1.00  0.00     0.211 HD
ENDBRANCH   1  53
BRANCH   1  55
ATOM     55  C   UNL     1      19.054  29.260  19.366  1.00  0.00     0.165 C 
BRANCH  55  56
ATOM     56  O   UNL     1      19.432  28.017  19.858  1.00  0.00    -0.388 OA
ATOM     57  H   UNL     1      20.398  27.896  19.659  1.00  0.00     0.211 HD
ENDBRANCH  55  56
BRANCH  55  58
ATOM     58  C   UNL     1      20.247  29.862  18.699  1.00  0.00     0.154 C 
BRANCH  58  59
ATOM     59  N   UNL     1      21.443  29.078  18.747  1.00  0.00    -0.319 N 
ATOM     60  C   UNL     1      22.666  29.523  19.300  1.00  0.00     0.407 C 
ATOM     61  H   UNL     1      21.414  28.117  18.350  1.00  0.00     0.167 HD
ATOM     62  O   UNL     1      22.773  30.670  19.796  1.00  0.00    -0.225 OA
BRANCH  60  63
ATOM     63  O   UNL     1      23.751  28.678  19.290  1.00  0.00    -0.443 OA
BRANCH  63  64
ATOM     64  C   UNL     1      24.564  28.450  20.388  1.00  0.00     0.294 C 
BRANCH  64  65
ATOM     65  C   UNL     1      24.376  27.092  20.901  1.00  0.00     0.120 A 
ATOM     66  C   UNL     1      23.621  26.725  21.988  1.00  0.00     0.139 A 
ATOM     67  N   UNL     1      24.899  25.935  20.428  1.00  0.00    -0.132 NA
ATOM     68  N   UNL     1      23.695  25.381  22.153  1.00  0.00    -0.240 N 
ATOM     69  N   UNL     1      24.478  24.938  21.190  1.00  0.00    -0.066 NA
BRANCH  68  70
ATOM     70  C   UNL     1      23.031  24.581  23.196  1.00  0.00     0.198 C 
BRANCH  70  71
ATOM     71  C   UNL     1      23.891  24.669  24.400  1.00  0.00     0.042 CG0
ATOM     72  G   UNL     1      23.292  24.236  25.693  1.00  0.00     0.000 G0
ENDBRANCH  70  71
BRANCH  70  73
ATOM     73  C   UNL     1      21.678  25.131  23.318  1.00  0.00     0.249 C 
ATOM     74  N   UNL     1      21.136  26.028  24.276  1.00  0.00    -0.324 N 
ATOM     75  O   UNL     1      20.870  24.744  22.431  1.00  0.00    -0.272 OA
ATOM     76  H   UNL     1      20.298  26.593  24.016  1.00  0.00     0.170 HD
BRANCH  74  77
ATOM     77  C   UNL     1      21.678  26.213  25.601  1.00  0.00     0.044 A 
ATOM     78  C   UNL     1      22.632  25.456  26.271  1.00  0.00    -0.024 A 
ATOM     79  C   UNL     1      21.125  27.310  26.227  1.00  0.00     0.026 A 
ATOM     80  C   UNL     1      23.040  25.775  27.545  1.00  0.00     0.006 A 
ATOM     81  C   UNL     1      21.518  27.652  27.506  1.00  0.00     0.002 A 
ATOM     82  C   UNL     1      22.481  26.870  28.155  1.00  0.00     0.000 A 
BRANCH  78  83
ATOM     83  C   UNL     1      23.287  24.255  25.681  1.00  0.00     0.040 CG0
ATOM     84  G   UNL     1      23.886  24.680  24.386  1.00  0.00     0.000 G0
ENDBRANCH  78  83
ENDBRANCH  74  77
ENDBRANCH  70  73
ENDBRANCH  68  70
ENDBRANCH  64  65
ENDBRANCH  63  64
ENDBRANCH  60  63
ENDBRANCH  58  59
ENDBRANCH  55  58
ENDBRANCH   1  55
TORSDOF 30
