REMARK VINA RESULT:    -5.682      2.671      8.347
REMARK INTER + INTRA:         -24.004
REMARK INTER:                 -16.206
REMARK INTRA:                  -7.798
REMARK UNBOUND:                -8.356
REMARK SMILES CC(=O)N[C@@H]1[C@@H](O)C[C@](OC[C@H]2O[C@@H](O[C@H]3[C@H](O)[C@@H](O)[C@H](OCCN=[N+]=[N-])O[C@@H]3CO)[C@H](O)[C@@H](O)[C@H]2O)(C(=O)O)O[C@H]1C(O)[C@H](O)CNC(=O)OCc1cn([C@@H](CCC(=O)O)C(=O)O)nn1
REMARK SMILES IDX 43 1 42 2 9 3 8 4 41 5 6 6 5 7 10 8 11 9 12 10 14 11 13 12
REMARK SMILES IDX 32 13 34 14 36 15 15 16 16 17 29 18 28 19 21 20 17 21 19 22
REMARK SMILES IDX 30 23 31 24 22 26 23 27 24 28 25 29 26 30 27 31 18 32 20 34
REMARK SMILES IDX 33 36 35 38 37 40 38 42 39 43 40 44 7 46 4 48 2 49 1 51 3 52
REMARK SMILES IDX 44 53 45 55 46 56 47 58 48 59 49 60 50 62 51 63 52 64 53 65
REMARK SMILES IDX 54 66 66 67 55 68 65 69 56 70 57 71 58 72 59 73 60 74 61 75
REMARK SMILES IDX 62 77 63 78 64 79
REMARK H PARENT 31 25 18 33 20 35 33 37 35 39 37 41 40 45 7 47 4 50 44 54
REMARK H PARENT 46 57 48 61 61 76 64 80
REMARK Flexibility Score: inf
ROOT
ATOM      1  C   UNL     1      21.773  24.957  22.144  1.00  0.00     0.176 C 
ENDROOT
BRANCH   1   2
ATOM      2  C   UNL     1      22.687  25.652  21.133  1.00  0.00     0.178 C 
ATOM      3  C   UNL     1      22.326  26.990  19.230  1.00  0.00     0.272 C 
ATOM      4  C   UNL     1      23.021  26.076  18.302  1.00  0.00     0.113 C 
ATOM      5  O   UNL     1      21.763  26.149  20.214  1.00  0.00    -0.332 OA
ATOM      6  C   UNL     1      23.279  24.726  18.914  1.00  0.00     0.145 C 
ATOM      7  C   UNL     1      23.555  24.689  20.374  1.00  0.00     0.142 C 
BRANCH   3   8
ATOM      8  O   UNL     1      21.260  27.622  18.623  1.00  0.00    -0.338 OA
BRANCH   8   9
ATOM      9  C   UNL     1      21.329  28.718  17.912  1.00  0.00     0.199 C 
BRANCH   9  10
ATOM     10  C   UNL     1      20.154  29.610  17.625  1.00  0.00     0.179 C 
ATOM     11  C   UNL     1      18.017  29.158  16.805  1.00  0.00     0.282 C 
ATOM     12  O   UNL     1      19.373  29.144  16.607  1.00  0.00    -0.341 OA
ATOM     13  C   UNL     1      17.700  28.311  18.018  1.00  0.00     0.202 C 
ATOM     14  C   UNL     1      18.303  28.958  19.224  1.00  0.00     0.179 C 
ATOM     15  C   UNL     1      19.388  29.922  18.905  1.00  0.00     0.177 C 
BRANCH  11  16
ATOM     16  O   UNL     1      17.400  28.583  15.691  1.00  0.00    -0.341 OA
BRANCH  16  17
ATOM     17  C   UNL     1      17.594  29.249  14.508  1.00  0.00     0.184 C 
ATOM     18  C   UNL     1      17.226  30.725  14.626  1.00  0.00     0.178 C 
ATOM     19  O   UNL     1      16.191  31.008  13.737  1.00  0.00    -0.341 OA
ATOM     20  C   UNL     1      14.994  30.378  14.178  1.00  0.00     0.281 C 
ATOM     21  C   UNL     1      16.654  28.637  13.489  1.00  0.00     0.180 C 
ATOM     22  C   UNL     1      15.222  28.908  13.996  1.00  0.00     0.202 C 
BRANCH  18  23
ATOM     23  C   UNL     1      18.416  31.575  14.217  1.00  0.00     0.191 C 
BRANCH  23  24
ATOM     24  O   UNL     1      18.897  32.334  15.267  1.00  0.00    -0.394 OA
ATOM     25  H   UNL     1      18.796  33.307  15.101  1.00  0.00     0.210 HD
ENDBRANCH  23  24
ENDBRANCH  18  23
BRANCH  20  26
ATOM     26  O   UNL     1      13.968  30.924  13.462  1.00  0.00    -0.350 OA
BRANCH  26  27
ATOM     27  C   UNL     1      13.416  30.118  12.506  1.00  0.00     0.169 C 
BRANCH  27  28
ATOM     28  C   UNL     1      12.015  30.518  12.091  1.00  0.00     0.119 C 
BRANCH  28  29
ATOM     29  N   UNL     1      11.003  29.664  12.680  1.00  0.00    -0.092 NA
ATOM     30  N   UNL     1      10.893  29.464  13.885  1.00  0.00     0.001 N 
ATOM     31  N   UNL     1      10.752  29.476  15.089  1.00  0.00    -0.003 NA
ENDBRANCH  28  29
ENDBRANCH  27  28
ENDBRANCH  26  27
ENDBRANCH  20  26
BRANCH  21  32
ATOM     32  O   UNL     1      16.825  29.164  12.215  1.00  0.00    -0.387 OA
ATOM     33  H   UNL     1      15.992  29.092  11.652  1.00  0.00     0.211 HD
ENDBRANCH  21  32
BRANCH  22  34
ATOM     34  O   UNL     1      15.209  28.329  15.289  1.00  0.00    -0.385 OA
ATOM     35  H   UNL     1      16.015  28.656  15.765  1.00  0.00     0.211 HD
ENDBRANCH  22  34
ENDBRANCH  16  17
ENDBRANCH  11  16
BRANCH  13  36
ATOM     36  O   UNL     1      16.319  28.171  18.171  1.00  0.00    -0.385 OA
ATOM     37  H   UNL     1      15.937  28.205  17.238  1.00  0.00     0.211 HD
ENDBRANCH  13  36
BRANCH  14  38
ATOM     38  O   UNL     1      18.744  28.020  20.163  1.00  0.00    -0.387 OA
ATOM     39  H   UNL     1      17.993  27.816  20.794  1.00  0.00     0.211 HD
ENDBRANCH  14  38
BRANCH  15  40
ATOM     40  O   UNL     1      20.288  29.883  19.973  1.00  0.00    -0.387 OA
ATOM     41  H   UNL     1      20.241  29.020  20.442  1.00  0.00     0.211 HD
ENDBRANCH  15  40
ENDBRANCH   9  10
ENDBRANCH   8   9
ENDBRANCH   3   8
BRANCH   3  42
ATOM     42  C   UNL     1      23.108  28.015  19.909  1.00  0.00     0.364 C 
ATOM     43  O   UNL     1      24.363  28.087  19.642  1.00  0.00    -0.246 OA
BRANCH  42  44
ATOM     44  O   UNL     1      22.687  28.951  20.833  1.00  0.00    -0.477 OA
ATOM     45  H   UNL     1      22.414  29.870  20.572  1.00  0.00     0.296 HD
ENDBRANCH  42  44
ENDBRANCH   3  42
BRANCH   6  46
ATOM     46  O   UNL     1      22.092  23.964  18.723  1.00  0.00    -0.391 OA
ATOM     47  H   UNL     1      22.307  23.008  18.571  1.00  0.00     0.211 HD
ENDBRANCH   6  46
BRANCH   7  48
ATOM     48  N   UNL     1      24.962  24.780  20.549  1.00  0.00    -0.348 N 
ATOM     49  C   UNL     1      25.686  24.092  21.554  1.00  0.00     0.217 C 
ATOM     50  H   UNL     1      25.549  25.357  19.916  1.00  0.00     0.163 HD
ATOM     51  C   UNL     1      27.179  24.240  21.684  1.00  0.00     0.114 C 
ATOM     52  O   UNL     1      25.106  23.355  22.347  1.00  0.00    -0.275 OA
ENDBRANCH   7  48
ENDBRANCH   1   2
BRANCH   1  53
ATOM     53  O   UNL     1      20.463  25.375  21.941  1.00  0.00    -0.388 OA
ATOM     54  H   UNL     1      19.832  24.661  22.223  1.00  0.00     0.211 HD
ENDBRANCH   1  53
BRANCH   1  55
ATOM     55  C   UNL     1      22.148  25.045  23.549  1.00  0.00     0.165 C 
BRANCH  55  56
ATOM     56  O   UNL     1      21.110  24.444  24.323  1.00  0.00    -0.388 OA
ATOM     57  H   UNL     1      21.537  23.828  24.965  1.00  0.00     0.211 HD
ENDBRANCH  55  56
BRANCH  55  58
ATOM     58  C   UNL     1      22.334  26.405  24.151  1.00  0.00     0.154 C 
BRANCH  58  59
ATOM     59  N   UNL     1      21.101  27.140  24.299  1.00  0.00    -0.319 N 
ATOM     60  C   UNL     1      20.966  28.528  24.003  1.00  0.00     0.407 C 
ATOM     61  H   UNL     1      20.263  26.649  24.649  1.00  0.00     0.167 HD
ATOM     62  O   UNL     1      21.925  29.182  23.595  1.00  0.00    -0.225 OA
BRANCH  60  63
ATOM     63  O   UNL     1      19.738  29.113  24.189  1.00  0.00    -0.443 OA
BRANCH  63  64
ATOM     64  C   UNL     1      19.291  30.229  23.476  1.00  0.00     0.294 C 
BRANCH  64  65
ATOM     65  C   UNL     1      17.848  30.077  23.166  1.00  0.00     0.120 A 
ATOM     66  C   UNL     1      17.146  30.493  22.055  1.00  0.00     0.139 A 
ATOM     67  N   UNL     1      16.926  29.493  23.976  1.00  0.00    -0.132 NA
ATOM     68  N   UNL     1      15.833  30.156  22.212  1.00  0.00    -0.238 N 
ATOM     69  N   UNL     1      15.745  29.549  23.397  1.00  0.00    -0.066 NA
BRANCH  68  70
ATOM     70  C   UNL     1      14.785  30.385  21.287  1.00  0.00     0.219 C 
BRANCH  70  71
ATOM     71  C   UNL     1      15.109  30.839  19.912  1.00  0.00     0.051 C 
BRANCH  71  72
ATOM     72  C   UNL     1      14.083  31.513  19.099  1.00  0.00     0.125 C 
BRANCH  72  73
ATOM     73  C   UNL     1      13.584  30.878  17.897  1.00  0.00     0.303 C 
ATOM     74  O   UNL     1      12.813  31.337  17.037  1.00  0.00    -0.252 OA
BRANCH  73  75
ATOM     75  O   UNL     1      14.001  29.540  17.609  1.00  0.00    -0.481 OA
ATOM     76  H   UNL     1      13.954  28.847  18.339  1.00  0.00     0.296 HD
ENDBRANCH  73  75
ENDBRANCH  72  73
ENDBRANCH  71  72
ENDBRANCH  70  71
BRANCH  70  77
ATOM     77  C   UNL     1      13.962  29.139  21.184  1.00  0.00     0.328 C 
ATOM     78  O   UNL     1      14.147  28.334  20.251  1.00  0.00    -0.250 OA
BRANCH  77  79
ATOM     79  O   UNL     1      12.978  28.835  22.108  1.00  0.00    -0.480 OA
ATOM     80  H   UNL     1      12.975  29.245  23.043  1.00  0.00     0.296 HD
ENDBRANCH  77  79
ENDBRANCH  70  77
ENDBRANCH  68  70
ENDBRANCH  64  65
ENDBRANCH  63  64
ENDBRANCH  60  63
ENDBRANCH  58  59
ENDBRANCH  55  58
ENDBRANCH   1  55
TORSDOF 36
