REMARK VINA RESULT:    -6.558      3.668      6.808
REMARK INTER + INTRA:         -22.012
REMARK INTER:                 -17.393
REMARK INTRA:                  -4.619
REMARK UNBOUND:                -5.485
REMARK SMILES CC(=O)N[C@@H]1[C@@H](O)C[C@](OC[C@H]2O[C@@H](O[C@H]3[C@H](O)[C@@H](O)[C@H](OCCN=[N+]=[N-])O[C@@H]3CO)[C@H](O)[C@@H](O)[C@H]2O)(C(=O)O)O[C@H]1C(O)[C@H](O)CNC(=O)OCc1cn(Cc2ccc(Br)cc2)nn1
REMARK SMILES IDX 9 1 8 2 6 3 5 4 42 5 41 6 10 7 11 8 12 9 14 10 13 11 32 12
REMARK SMILES IDX 34 13 36 14 15 15 16 16 29 17 28 18 21 19 17 20 19 21 30 22
REMARK SMILES IDX 31 23 22 25 23 26 24 27 25 28 26 29 27 30 18 31 20 33 33 35
REMARK SMILES IDX 35 37 37 39 38 41 39 42 40 43 7 45 43 47 44 48 45 50 46 51
REMARK SMILES IDX 47 53 48 54 49 55 50 57 51 58 52 59 53 60 54 61 65 62 55 63
REMARK SMILES IDX 64 64 56 65 57 66 58 67 63 68 59 69 62 70 60 71 61 72 4 73
REMARK SMILES IDX 2 74 1 76 3 77
REMARK H PARENT 31 24 18 32 20 34 33 36 35 38 37 40 40 44 7 46 44 49 46 52
REMARK H PARENT 48 56 4 75
REMARK Flexibility Score: inf
ROOT
ATOM      1  C   UNL     1      22.406  26.097  24.013  1.00  0.00     0.272 C 
ATOM      2  C   UNL     1      22.794  24.896  24.797  1.00  0.00     0.113 C 
ATOM      3  C   UNL     1      24.062  24.212  24.469  1.00  0.00     0.145 C 
ATOM      4  C   UNL     1      24.598  24.530  23.047  1.00  0.00     0.142 C 
ATOM      5  C   UNL     1      23.331  24.799  22.281  1.00  0.00     0.178 C 
ATOM      6  O   UNL     1      22.971  26.103  22.726  1.00  0.00    -0.332 OA
ENDROOT
BRANCH   1   7
ATOM      7  O   UNL     1      22.376  27.299  24.579  1.00  0.00    -0.338 OA
BRANCH   7   8
ATOM      8  C   UNL     1      22.780  27.838  25.666  1.00  0.00     0.199 C 
BRANCH   8   9
ATOM      9  C   UNL     1      23.057  26.906  26.822  1.00  0.00     0.179 C 
ATOM     10  C   UNL     1      24.576  26.255  28.376  1.00  0.00     0.282 C 
ATOM     11  O   UNL     1      24.368  26.919  27.218  1.00  0.00    -0.341 OA
ATOM     12  C   UNL     1      23.442  25.376  28.870  1.00  0.00     0.202 C 
ATOM     13  C   UNL     1      22.123  26.116  28.873  1.00  0.00     0.179 C 
ATOM     14  C   UNL     1      22.235  27.379  28.031  1.00  0.00     0.177 C 
BRANCH  10  15
ATOM     15  O   UNL     1      25.025  26.961  29.442  1.00  0.00    -0.341 OA
BRANCH  15  16
ATOM     16  C   UNL     1      26.270  26.879  29.931  1.00  0.00     0.184 C 
ATOM     17  C   UNL     1      27.372  26.663  28.945  1.00  0.00     0.178 C 
ATOM     18  O   UNL     1      28.024  25.469  29.090  1.00  0.00    -0.341 OA
ATOM     19  C   UNL     1      28.656  25.303  30.313  1.00  0.00     0.281 C 
ATOM     20  C   UNL     1      26.328  25.785  30.976  1.00  0.00     0.180 C 
ATOM     21  C   UNL     1      27.751  25.687  31.467  1.00  0.00     0.202 C 
BRANCH  17  22
ATOM     22  C   UNL     1      28.322  27.837  28.993  1.00  0.00     0.191 C 
BRANCH  22  23
ATOM     23  O   UNL     1      29.014  27.986  27.774  1.00  0.00    -0.394 OA
ATOM     24  H   UNL     1      29.652  28.721  27.818  1.00  0.00     0.210 HD
ENDBRANCH  22  23
ENDBRANCH  17  22
BRANCH  19  25
ATOM     25  O   UNL     1      29.884  25.937  30.408  1.00  0.00    -0.350 OA
BRANCH  25  26
ATOM     26  C   UNL     1      30.933  25.288  29.813  1.00  0.00     0.169 C 
BRANCH  26  27
ATOM     27  C   UNL     1      32.170  25.219  30.660  1.00  0.00     0.119 C 
BRANCH  27  28
ATOM     28  N   UNL     1      33.204  24.457  29.972  1.00  0.00    -0.092 NA
ATOM     29  N   UNL     1      32.897  23.488  29.281  1.00  0.00     0.001 N 
ATOM     30  N   UNL     1      32.752  22.371  28.736  1.00  0.00    -0.003 NA
ENDBRANCH  27  28
ENDBRANCH  26  27
ENDBRANCH  25  26
ENDBRANCH  19  25
BRANCH  20  31
ATOM     31  O   UNL     1      25.548  26.227  32.063  1.00  0.00    -0.387 OA
ATOM     32  H   UNL     1      25.829  25.754  32.895  1.00  0.00     0.211 HD
ENDBRANCH  20  31
BRANCH  21  33
ATOM     33  O   UNL     1      27.879  24.813  32.540  1.00  0.00    -0.385 OA
ATOM     34  H   UNL     1      28.518  24.106  32.267  1.00  0.00     0.211 HD
ENDBRANCH  21  33
ENDBRANCH  15  16
ENDBRANCH  10  15
BRANCH  12  35
ATOM     35  O   UNL     1      23.301  24.198  28.157  1.00  0.00    -0.385 OA
ATOM     36  H   UNL     1      23.117  24.316  27.197  1.00  0.00     0.211 HD
ENDBRANCH  12  35
BRANCH  13  37
ATOM     37  O   UNL     1      21.666  26.414  30.151  1.00  0.00    -0.387 OA
ATOM     38  H   UNL     1      22.363  26.112  30.784  1.00  0.00     0.211 HD
ENDBRANCH  13  37
BRANCH  14  39
ATOM     39  O   UNL     1      23.011  28.353  28.669  1.00  0.00    -0.387 OA
ATOM     40  H   UNL     1      23.562  27.935  29.360  1.00  0.00     0.211 HD
ENDBRANCH  14  39
ENDBRANCH   8   9
ENDBRANCH   7   8
ENDBRANCH   1   7
BRANCH   1  41
ATOM     41  C   UNL     1      20.921  25.881  23.680  1.00  0.00     0.364 C 
ATOM     42  O   UNL     1      20.094  26.096  24.564  1.00  0.00    -0.246 OA
BRANCH  41  43
ATOM     43  O   UNL     1      20.493  25.464  22.447  1.00  0.00    -0.477 OA
ATOM     44  H   UNL     1      20.773  25.994  21.607  1.00  0.00     0.296 HD
ENDBRANCH  41  43
ENDBRANCH   1  41
BRANCH   3  45
ATOM     45  O   UNL     1      25.076  24.304  25.409  1.00  0.00    -0.391 OA
ATOM     46  H   UNL     1      24.876  25.055  26.008  1.00  0.00     0.211 HD
ENDBRANCH   3  45
BRANCH   5  47
ATOM     47  C   UNL     1      23.401  24.785  20.801  1.00  0.00     0.176 C 
BRANCH  47  48
ATOM     48  O   UNL     1      22.377  24.112  20.221  1.00  0.00    -0.388 OA
ATOM     49  H   UNL     1      21.555  24.167  20.720  1.00  0.00     0.211 HD
ENDBRANCH  47  48
BRANCH  47  50
ATOM     50  C   UNL     1      23.823  25.996  20.080  1.00  0.00     0.165 C 
BRANCH  50  51
ATOM     51  O   UNL     1      24.674  26.812  20.844  1.00  0.00    -0.388 OA
ATOM     52  H   UNL     1      24.722  26.583  21.783  1.00  0.00     0.211 HD
ENDBRANCH  50  51
BRANCH  50  53
ATOM     53  C   UNL     1      22.832  26.799  19.338  1.00  0.00     0.154 C 
BRANCH  53  54
ATOM     54  N   UNL     1      21.599  27.080  20.052  1.00  0.00    -0.319 N 
ATOM     55  C   UNL     1      21.441  28.252  20.837  1.00  0.00     0.407 C 
ATOM     56  H   UNL     1      20.767  26.439  20.022  1.00  0.00     0.167 HD
ATOM     57  O   UNL     1      22.393  29.093  20.917  1.00  0.00    -0.225 OA
BRANCH  55  58
ATOM     58  O   UNL     1      20.283  28.549  21.550  1.00  0.00    -0.443 OA
BRANCH  58  59
ATOM     59  C   UNL     1      19.431  29.628  21.122  1.00  0.00     0.294 C 
BRANCH  59  60
ATOM     60  C   UNL     1      18.200  29.146  20.474  1.00  0.00     0.120 A 
ATOM     61  C   UNL     1      17.080  29.913  20.223  1.00  0.00     0.138 A 
ATOM     62  N   UNL     1      17.935  27.917  20.028  1.00  0.00    -0.132 NA
ATOM     63  N   UNL     1      16.169  29.130  19.631  1.00  0.00    -0.248 N 
ATOM     64  N   UNL     1      16.713  27.934  19.528  1.00  0.00    -0.067 NA
BRANCH  63  65
ATOM     65  C   UNL     1      14.845  29.482  19.158  1.00  0.00     0.181 C 
BRANCH  65  66
ATOM     66  C   UNL     1      13.920  29.905  20.233  1.00  0.00    -0.026 A 
ATOM     67  C   UNL     1      13.692  29.017  21.288  1.00  0.00     0.007 A 
ATOM     68  C   UNL     1      13.284  31.113  20.271  1.00  0.00     0.007 A 
ATOM     69  C   UNL     1      12.846  29.370  22.326  1.00  0.00     0.016 A 
ATOM     70  C   UNL     1      12.430  31.482  21.311  1.00  0.00     0.016 A 
ATOM     71  C   UNL     1      12.217  30.602  22.337  1.00  0.00     0.017 A 
ATOM     72  Br  UNL     1      11.052  31.059  23.799  1.00  0.00    -0.051 Br
ENDBRANCH  65  66
ENDBRANCH  63  65
ENDBRANCH  59  60
ENDBRANCH  58  59
ENDBRANCH  55  58
ENDBRANCH  53  54
ENDBRANCH  50  53
ENDBRANCH  47  50
ENDBRANCH   5  47
BRANCH   4  73
ATOM     73  N   UNL     1      25.413  23.462  22.596  1.00  0.00    -0.348 N 
ATOM     74  C   UNL     1      26.633  23.721  21.925  1.00  0.00     0.217 C 
ATOM     75  H   UNL     1      25.135  22.481  22.768  1.00  0.00     0.163 HD
ATOM     76  C   UNL     1      27.555  22.699  21.424  1.00  0.00     0.114 C 
ATOM     77  O   UNL     1      26.968  24.945  21.739  1.00  0.00    -0.275 OA
ENDBRANCH   4  73
TORSDOF 31
