REMARK VINA RESULT:    -6.630      4.358     10.394
REMARK INTER + INTRA:         -22.440
REMARK INTER:                 -14.587
REMARK INTRA:                  -7.853
REMARK UNBOUND:                -5.152
REMARK SMILES CC(=O)N[C@@H]1[C@@H](O)C[C@](OC[C@H]2O[C@@H](O[C@H]3[C@H](O)[C@@H](O)[C@H](OCCN=[N+]=[N-])O[C@@H]3CO)[C@H](O)[C@@H](O)[C@H]2O)(C(=O)O)O[C@H]1C(O)[C@H](O)CNC(=O)OCc1cn(CC(O)c2ccccc2)nn1
REMARK SMILES IDX 9 1 8 2 6 3 5 4 42 5 41 6 10 7 11 8 12 9 14 10 13 11 32 12
REMARK SMILES IDX 34 13 36 14 15 15 16 16 29 17 28 18 21 19 17 20 19 21 30 22
REMARK SMILES IDX 31 23 22 25 23 26 24 27 25 28 26 29 27 30 18 31 20 33 33 35
REMARK SMILES IDX 35 37 37 39 38 41 39 42 40 43 7 45 43 47 44 48 45 50 46 51
REMARK SMILES IDX 47 53 48 54 49 55 50 57 51 58 52 59 53 60 54 61 66 62 55 63
REMARK SMILES IDX 65 64 56 65 57 66 58 67 59 69 60 70 64 71 61 72 63 73 62 74
REMARK SMILES IDX 4 75 2 76 1 78 3 79
REMARK H PARENT 31 24 18 32 20 34 33 36 35 38 37 40 40 44 7 46 44 49 46 52
REMARK H PARENT 48 56 58 68 4 77
REMARK Flexibility Score: inf
ROOT
ATOM      1  C   UNL     1      21.166  27.911  19.447  1.00  0.00     0.272 C 
ATOM      2  C   UNL     1      21.931  29.121  19.830  1.00  0.00     0.113 C 
ATOM      3  C   UNL     1      22.014  30.212  18.821  1.00  0.00     0.145 C 
ATOM      4  C   UNL     1      21.587  29.681  17.489  1.00  0.00     0.142 C 
ATOM      5  C   UNL     1      22.141  28.274  17.357  1.00  0.00     0.178 C 
ATOM      6  O   UNL     1      21.647  27.373  18.249  1.00  0.00    -0.332 OA
ENDROOT
BRANCH   1   7
ATOM      7  O   UNL     1      19.815  28.031  19.312  1.00  0.00    -0.338 OA
BRANCH   7   8
ATOM      8  C   UNL     1      19.147  28.824  20.193  1.00  0.00     0.199 C 
BRANCH   8   9
ATOM      9  C   UNL     1      18.060  29.617  19.505  1.00  0.00     0.179 C 
ATOM     10  C   UNL     1      16.547  29.321  17.798  1.00  0.00     0.282 C 
ATOM     11  O   UNL     1      17.831  29.131  18.233  1.00  0.00    -0.341 OA
ATOM     12  C   UNL     1      15.490  28.583  18.591  1.00  0.00     0.202 C 
ATOM     13  C   UNL     1      15.942  28.531  20.033  1.00  0.00     0.179 C 
ATOM     14  C   UNL     1      16.792  29.761  20.278  1.00  0.00     0.177 C 
BRANCH  10  15
ATOM     15  O   UNL     1      16.376  28.905  16.482  1.00  0.00    -0.341 OA
BRANCH  15  16
ATOM     16  C   UNL     1      15.594  29.714  15.704  1.00  0.00     0.184 C 
ATOM     17  C   UNL     1      15.002  28.831  14.611  1.00  0.00     0.178 C 
ATOM     18  O   UNL     1      15.700  28.965  13.429  1.00  0.00    -0.341 OA
ATOM     19  C   UNL     1      17.068  28.803  13.716  1.00  0.00     0.281 C 
ATOM     20  C   UNL     1      16.510  30.782  15.120  1.00  0.00     0.180 C 
ATOM     21  C   UNL     1      17.567  30.149  14.230  1.00  0.00     0.202 C 
BRANCH  17  22
ATOM     22  C   UNL     1      13.522  29.117  14.429  1.00  0.00     0.191 C 
BRANCH  22  23
ATOM     23  O   UNL     1      12.852  29.119  15.650  1.00  0.00    -0.394 OA
ATOM     24  H   UNL     1      12.060  29.718  15.639  1.00  0.00     0.210 HD
ENDBRANCH  22  23
ENDBRANCH  17  22
BRANCH  19  25
ATOM     25  O   UNL     1      17.676  28.417  12.547  1.00  0.00    -0.350 OA
BRANCH  25  26
ATOM     26  C   UNL     1      17.538  29.288  11.492  1.00  0.00     0.169 C 
BRANCH  26  27
ATOM     27  C   UNL     1      18.714  29.320  10.556  1.00  0.00     0.119 C 
BRANCH  27  28
ATOM     28  N   UNL     1      19.725  30.257  11.059  1.00  0.00    -0.092 NA
ATOM     29  N   UNL     1      20.384  29.836  12.023  1.00  0.00     0.001 N 
ATOM     30  N   UNL     1      21.256  29.581  12.853  1.00  0.00    -0.003 NA
ENDBRANCH  27  28
ENDBRANCH  26  27
ENDBRANCH  25  26
ENDBRANCH  19  25
BRANCH  20  31
ATOM     31  O   UNL     1      15.769  31.713  14.406  1.00  0.00    -0.387 OA
ATOM     32  H   UNL     1      15.345  32.360  15.038  1.00  0.00     0.211 HD
ENDBRANCH  20  31
BRANCH  21  33
ATOM     33  O   UNL     1      18.778  30.050  14.888  1.00  0.00    -0.385 OA
ATOM     34  H   UNL     1      18.643  30.358  15.818  1.00  0.00     0.211 HD
ENDBRANCH  21  33
ENDBRANCH  15  16
ENDBRANCH  10  15
BRANCH  12  35
ATOM     35  O   UNL     1      14.292  29.302  18.510  1.00  0.00    -0.385 OA
ATOM     36  H   UNL     1      13.954  29.205  17.578  1.00  0.00     0.211 HD
ENDBRANCH  12  35
BRANCH  13  37
ATOM     37  O   UNL     1      16.696  27.367  20.162  1.00  0.00    -0.387 OA
ATOM     38  H   UNL     1      17.571  27.410  19.740  1.00  0.00     0.211 HD
ENDBRANCH  13  37
BRANCH  14  39
ATOM     39  O   UNL     1      16.974  30.062  21.607  1.00  0.00    -0.387 OA
ATOM     40  H   UNL     1      16.624  29.372  22.227  1.00  0.00     0.211 HD
ENDBRANCH  14  39
ENDBRANCH   8   9
ENDBRANCH   7   8
ENDBRANCH   1   7
BRANCH   1  41
ATOM     41  C   UNL     1      21.528  26.858  20.484  1.00  0.00     0.364 C 
ATOM     42  O   UNL     1      21.576  27.158  21.665  1.00  0.00    -0.246 OA
BRANCH  41  43
ATOM     43  O   UNL     1      21.786  25.590  19.995  1.00  0.00    -0.477 OA
ATOM     44  H   UNL     1      21.036  25.129  19.523  1.00  0.00     0.296 HD
ENDBRANCH  41  43
ENDBRANCH   1  41
BRANCH   3  45
ATOM     45  O   UNL     1      21.310  31.349  19.220  1.00  0.00    -0.391 OA
ATOM     46  H   UNL     1      21.502  31.461  20.192  1.00  0.00     0.211 HD
ENDBRANCH   3  45
BRANCH   5  47
ATOM     47  C   UNL     1      21.967  27.895  15.909  1.00  0.00     0.176 C 
BRANCH  47  48
ATOM     48  O   UNL     1      20.612  28.033  15.572  1.00  0.00    -0.388 OA
ATOM     49  H   UNL     1      20.139  28.295  16.410  1.00  0.00     0.211 HD
ENDBRANCH  47  48
BRANCH  47  50
ATOM     50  C   UNL     1      22.488  26.529  15.608  1.00  0.00     0.165 C 
BRANCH  50  51
ATOM     51  O   UNL     1      21.696  25.534  16.115  1.00  0.00    -0.388 OA
ATOM     52  H   UNL     1      22.031  25.106  16.918  1.00  0.00     0.211 HD
ENDBRANCH  50  51
BRANCH  50  53
ATOM     53  C   UNL     1      23.969  26.359  15.827  1.00  0.00     0.154 C 
BRANCH  53  54
ATOM     54  N   UNL     1      24.347  25.331  16.751  1.00  0.00    -0.319 N 
ATOM     55  C   UNL     1      24.851  25.565  18.064  1.00  0.00     0.407 C 
ATOM     56  H   UNL     1      24.245  24.306  16.461  1.00  0.00     0.167 HD
ATOM     57  O   UNL     1      24.986  26.723  18.496  1.00  0.00    -0.225 OA
BRANCH  55  58
ATOM     58  O   UNL     1      25.202  24.520  18.890  1.00  0.00    -0.443 OA
BRANCH  58  59
ATOM     59  C   UNL     1      25.918  24.694  20.113  1.00  0.00     0.294 C 
BRANCH  59  60
ATOM     60  C   UNL     1      24.953  24.719  21.256  1.00  0.00     0.120 A 
ATOM     61  C   UNL     1      24.915  25.535  22.357  1.00  0.00     0.138 A 
ATOM     62  N   UNL     1      23.895  23.885  21.361  1.00  0.00    -0.132 NA
ATOM     63  N   UNL     1      23.834  25.191  23.119  1.00  0.00    -0.249 N 
ATOM     64  N   UNL     1      23.269  24.200  22.467  1.00  0.00    -0.067 NA
BRANCH  63  65
ATOM     65  C   UNL     1      23.438  25.821  24.369  1.00  0.00     0.182 C 
BRANCH  65  66
ATOM     66  C   UNL     1      23.188  24.761  25.427  1.00  0.00     0.166 C 
BRANCH  66  67
ATOM     67  O   UNL     1      24.439  24.121  25.596  1.00  0.00    -0.386 OA
ATOM     68  H   UNL     1      24.772  24.275  26.522  1.00  0.00     0.211 HD
ENDBRANCH  66  67
BRANCH  66  69
ATOM     69  C   UNL     1      22.713  25.291  26.708  1.00  0.00    -0.018 A 
ATOM     70  C   UNL     1      22.929  24.666  27.898  1.00  0.00     0.006 A 
ATOM     71  C   UNL     1      21.994  26.493  26.635  1.00  0.00     0.006 A 
ATOM     72  C   UNL     1      22.420  25.246  29.050  1.00  0.00     0.000 A 
ATOM     73  C   UNL     1      21.501  27.044  27.787  1.00  0.00     0.000 A 
ATOM     74  C   UNL     1      21.712  26.423  29.001  1.00  0.00     0.000 A 
ENDBRANCH  66  69
ENDBRANCH  65  66
ENDBRANCH  63  65
ENDBRANCH  59  60
ENDBRANCH  58  59
ENDBRANCH  55  58
ENDBRANCH  53  54
ENDBRANCH  50  53
ENDBRANCH  47  50
ENDBRANCH   5  47
BRANCH   4  75
ATOM     75  N   UNL     1      22.235  30.443  16.409  1.00  0.00    -0.348 N 
ATOM     76  C   UNL     1      21.652  31.605  15.845  1.00  0.00     0.217 C 
ATOM     77  H   UNL     1      23.155  30.132  16.029  1.00  0.00     0.163 HD
ATOM     78  C   UNL     1      22.275  32.399  14.754  1.00  0.00     0.114 C 
ATOM     79  O   UNL     1      20.538  31.986  16.300  1.00  0.00    -0.275 OA
ENDBRANCH   4  75
TORSDOF 33
