REMARK VINA RESULT:    -6.862      0.000      0.000
REMARK INTER + INTRA:         -23.047
REMARK INTER:                 -16.629
REMARK INTRA:                  -6.417
REMARK UNBOUND:                -5.152
REMARK SMILES CC(=O)N[C@@H]1[C@@H](O)C[C@](OC[C@H]2O[C@@H](O[C@H]3[C@H](O)[C@@H](O)[C@H](OCCN=[N+]=[N-])O[C@@H]3CO)[C@H](O)[C@@H](O)[C@H]2O)(C(=O)O)O[C@H]1C(O)[C@H](O)CNC(=O)OCc1cn(CC(O)c2ccccc2)nn1
REMARK SMILES IDX 9 1 8 2 6 3 5 4 42 5 41 6 10 7 11 8 12 9 14 10 13 11 32 12
REMARK SMILES IDX 34 13 36 14 15 15 16 16 29 17 28 18 21 19 17 20 19 21 30 22
REMARK SMILES IDX 31 23 22 25 23 26 24 27 25 28 26 29 27 30 18 31 20 33 33 35
REMARK SMILES IDX 35 37 37 39 38 41 39 42 40 43 7 45 43 47 44 48 45 50 46 51
REMARK SMILES IDX 47 53 48 54 49 55 50 57 51 58 52 59 53 60 54 61 66 62 55 63
REMARK SMILES IDX 65 64 56 65 57 66 58 67 59 69 60 70 64 71 61 72 63 73 62 74
REMARK SMILES IDX 4 75 2 76 1 78 3 79
REMARK H PARENT 31 24 18 32 20 34 33 36 35 38 37 40 40 44 7 46 44 49 46 52
REMARK H PARENT 48 56 58 68 4 77
REMARK Flexibility Score: inf
ROOT
ATOM      1  C   UNL     1      25.501  25.383  18.997  1.00  0.00     0.272 C 
ATOM      2  C   UNL     1      25.546  26.849  19.212  1.00  0.00     0.113 C 
ATOM      3  C   UNL     1      24.271  27.595  19.038  1.00  0.00     0.145 C 
ATOM      4  C   UNL     1      23.284  26.721  18.331  1.00  0.00     0.142 C 
ATOM      5  C   UNL     1      24.039  25.947  17.265  1.00  0.00     0.178 C 
ATOM      6  O   UNL     1      24.976  25.079  17.736  1.00  0.00    -0.332 OA
ENDROOT
BRANCH   1   7
ATOM      7  O   UNL     1      24.816  24.630  19.903  1.00  0.00    -0.338 OA
BRANCH   7   8
ATOM      8  C   UNL     1      24.702  25.098  21.175  1.00  0.00     0.199 C 
BRANCH   8   9
ATOM      9  C   UNL     1      23.773  24.235  21.998  1.00  0.00     0.179 C 
ATOM     10  C   UNL     1      22.609  24.382  23.977  1.00  0.00     0.282 C 
ATOM     11  O   UNL     1      23.785  24.629  23.322  1.00  0.00    -0.341 OA
ATOM     12  C   UNL     1      21.414  25.146  23.453  1.00  0.00     0.202 C 
ATOM     13  C   UNL     1      21.583  25.306  21.958  1.00  0.00     0.179 C 
ATOM     14  C   UNL     1      22.382  24.115  21.471  1.00  0.00     0.177 C 
BRANCH  10  15
ATOM     15  O   UNL     1      22.687  24.704  25.328  1.00  0.00    -0.341 OA
BRANCH  15  16
ATOM     16  C   UNL     1      22.572  26.034  25.625  1.00  0.00     0.184 C 
ATOM     17  C   UNL     1      23.958  26.643  25.452  1.00  0.00     0.178 C 
ATOM     18  O   UNL     1      24.595  26.790  26.667  1.00  0.00    -0.341 OA
ATOM     19  C   UNL     1      24.513  25.561  27.345  1.00  0.00     0.281 C 
ATOM     20  C   UNL     1      22.103  26.122  27.072  1.00  0.00     0.180 C 
ATOM     21  C   UNL     1      23.140  25.519  28.006  1.00  0.00     0.202 C 
BRANCH  17  22
ATOM     22  C   UNL     1      23.880  27.956  24.692  1.00  0.00     0.191 C 
BRANCH  22  23
ATOM     23  O   UNL     1      24.125  27.772  23.335  1.00  0.00    -0.394 OA
ATOM     24  H   UNL     1      24.427  26.848  23.133  1.00  0.00     0.210 HD
ENDBRANCH  22  23
ENDBRANCH  17  22
BRANCH  19  25
ATOM     25  O   UNL     1      25.544  25.539  28.253  1.00  0.00    -0.350 OA
BRANCH  25  26
ATOM     26  C   UNL     1      26.517  26.492  28.067  1.00  0.00     0.169 C 
BRANCH  26  27
ATOM     27  C   UNL     1      27.399  26.719  29.263  1.00  0.00     0.119 C 
BRANCH  27  28
ATOM     28  N   UNL     1      27.906  25.434  29.758  1.00  0.00    -0.092 NA
ATOM     29  N   UNL     1      27.997  25.357  30.993  1.00  0.00     0.001 N 
ATOM     30  N   UNL     1      28.020  24.995  32.169  1.00  0.00    -0.003 NA
ENDBRANCH  27  28
ENDBRANCH  26  27
ENDBRANCH  25  26
ENDBRANCH  19  25
BRANCH  20  31
ATOM     31  O   UNL     1      21.853  27.444  27.416  1.00  0.00    -0.387 OA
ATOM     32  H   UNL     1      22.442  27.710  28.177  1.00  0.00     0.211 HD
ENDBRANCH  20  31
BRANCH  21  33
ATOM     33  O   UNL     1      22.776  24.243  28.395  1.00  0.00    -0.385 OA
ATOM     34  H   UNL     1      23.357  23.979  29.149  1.00  0.00     0.211 HD
ENDBRANCH  21  33
ENDBRANCH  15  16
ENDBRANCH  10  15
BRANCH  12  35
ATOM     35  O   UNL     1      20.260  24.397  23.707  1.00  0.00    -0.385 OA
ATOM     36  H   UNL     1      20.437  23.469  23.392  1.00  0.00     0.211 HD
ENDBRANCH  12  35
BRANCH  13  37
ATOM     37  O   UNL     1      22.287  26.493  21.771  1.00  0.00    -0.387 OA
ATOM     38  H   UNL     1      22.719  26.568  20.903  1.00  0.00     0.211 HD
ENDBRANCH  13  37
BRANCH  14  39
ATOM     39  O   UNL     1      22.311  23.908  20.114  1.00  0.00    -0.387 OA
ATOM     40  H   UNL     1      21.766  23.121  19.855  1.00  0.00     0.211 HD
ENDBRANCH  14  39
ENDBRANCH   8   9
ENDBRANCH   7   8
ENDBRANCH   1   7
BRANCH   1  41
ATOM     41  C   UNL     1      26.953  24.943  18.896  1.00  0.00     0.364 C 
ATOM     42  O   UNL     1      27.769  25.659  18.339  1.00  0.00    -0.246 OA
BRANCH  41  43
ATOM     43  O   UNL     1      27.256  23.717  19.462  1.00  0.00    -0.477 OA
ATOM     44  H   UNL     1      28.121  23.652  19.956  1.00  0.00     0.296 HD
ENDBRANCH  41  43
ENDBRANCH   1  41
BRANCH   3  45
ATOM     45  O   UNL     1      23.795  28.108  20.246  1.00  0.00    -0.391 OA
ATOM     46  H   UNL     1      24.479  28.768  20.550  1.00  0.00     0.211 HD
ENDBRANCH   3  45
BRANCH   5  47
ATOM     47  C   UNL     1      22.988  25.327  16.380  1.00  0.00     0.176 C 
BRANCH  47  48
ATOM     48  O   UNL     1      22.300  24.354  17.121  1.00  0.00    -0.388 OA
ATOM     49  H   UNL     1      22.738  24.319  18.016  1.00  0.00     0.211 HD
ENDBRANCH  47  48
BRANCH  47  50
ATOM     50  C   UNL     1      23.556  24.779  15.114  1.00  0.00     0.165 C 
BRANCH  50  51
ATOM     51  O   UNL     1      22.833  25.137  14.008  1.00  0.00    -0.388 OA
ATOM     52  H   UNL     1      22.801  26.088  13.824  1.00  0.00     0.211 HD
ENDBRANCH  50  51
BRANCH  50  53
ATOM     53  C   UNL     1      23.964  23.330  15.185  1.00  0.00     0.154 C 
BRANCH  53  54
ATOM     54  N   UNL     1      25.343  23.087  15.489  1.00  0.00    -0.319 N 
ATOM     55  C   UNL     1      26.009  21.841  15.298  1.00  0.00     0.407 C 
ATOM     56  H   UNL     1      25.939  23.884  15.881  1.00  0.00     0.167 HD
ATOM     57  O   UNL     1      25.403  20.862  14.829  1.00  0.00    -0.225 OA
BRANCH  55  58
ATOM     58  O   UNL     1      27.338  21.685  15.624  1.00  0.00    -0.443 OA
BRANCH  58  59
ATOM     59  C   UNL     1      27.872  20.484  16.182  1.00  0.00     0.294 C 
BRANCH  59  60
ATOM     60  C   UNL     1      28.347  20.752  17.577  1.00  0.00     0.120 A 
ATOM     61  C   UNL     1      28.277  19.963  18.696  1.00  0.00     0.138 A 
ATOM     62  N   UNL     1      28.972  21.890  17.948  1.00  0.00    -0.132 NA
ATOM     63  N   UNL     1      28.861  20.630  19.736  1.00  0.00    -0.249 N 
ATOM     64  N   UNL     1      29.254  21.772  19.222  1.00  0.00    -0.067 NA
BRANCH  63  65
ATOM     65  C   UNL     1      28.994  20.133  21.097  1.00  0.00     0.182 C 
BRANCH  65  66
ATOM     66  C   UNL     1      29.551  21.223  21.995  1.00  0.00     0.166 C 
BRANCH  66  67
ATOM     67  O   UNL     1      28.412  21.927  22.452  1.00  0.00    -0.386 OA
ATOM     68  H   UNL     1      28.184  22.651  21.806  1.00  0.00     0.211 HD
ENDBRANCH  66  67
BRANCH  66  69
ATOM     69  C   UNL     1      30.332  20.726  23.132  1.00  0.00    -0.018 A 
ATOM     70  C   UNL     1      30.519  21.440  24.275  1.00  0.00     0.006 A 
ATOM     71  C   UNL     1      30.899  19.454  22.964  1.00  0.00     0.006 A 
ATOM     72  C   UNL     1      31.289  20.882  25.283  1.00  0.00     0.000 A 
ATOM     73  C   UNL     1      31.656  18.926  23.974  1.00  0.00     0.000 A 
ATOM     74  C   UNL     1      31.856  19.638  25.140  1.00  0.00     0.000 A 
ENDBRANCH  66  69
ENDBRANCH  65  66
ENDBRANCH  63  65
ENDBRANCH  59  60
ENDBRANCH  58  59
ENDBRANCH  55  58
ENDBRANCH  53  54
ENDBRANCH  50  53
ENDBRANCH  47  50
ENDBRANCH   5  47
BRANCH   4  75
ATOM     75  N   UNL     1      22.321  27.545  17.584  1.00  0.00    -0.348 N 
ATOM     76  C   UNL     1      21.085  27.961  18.141  1.00  0.00     0.217 C 
ATOM     77  H   UNL     1      22.534  27.844  16.608  1.00  0.00     0.163 HD
ATOM     78  C   UNL     1      20.089  28.793  17.419  1.00  0.00     0.114 C 
ATOM     79  O   UNL     1      20.821  27.603  19.322  1.00  0.00    -0.275 OA
ENDBRANCH   4  75
TORSDOF 33
