REMARK VINA RESULT:    -5.799      5.331      7.338
REMARK INTER + INTRA:         -21.735
REMARK INTER:                 -15.908
REMARK INTRA:                  -5.827
REMARK UNBOUND:                -6.784
REMARK SMILES COc1ccc(Cn2cc(COC(=O)NC[C@@H](O)C(O)[C@@H]3O[C@@](OC[C@H]4O[C@@H](O[C@H]5[C@H](O)[C@@H](O)[C@H](OCCN=[N+]=[N-])O[C@@H]5CO)[C@H](O)[C@@H](O)[C@H]4O)(C(=O)O)C[C@H](O)[C@H]3NC(C)=O)nn2)cc1
REMARK SMILES IDX 23 1 55 2 56 3 58 4 21 5 22 6 24 7 25 8 26 9 28 10 27 11
REMARK SMILES IDX 46 12 48 13 50 14 29 15 30 16 43 17 42 18 35 19 31 20 33 21
REMARK SMILES IDX 44 22 45 23 36 25 37 26 38 27 39 28 40 29 41 30 32 31 34 33
REMARK SMILES IDX 47 35 49 37 51 39 52 41 53 42 54 43 57 45 19 47 20 48 17 50
REMARK SMILES IDX 18 51 16 53 15 54 13 55 14 57 12 58 11 59 10 60 9 61 63 62
REMARK SMILES IDX 8 63 64 64 7 65 6 66 5 67 65 68 4 69 66 70 3 71 2 72 1 73
REMARK SMILES IDX 59 74 60 75 61 77 62 78
REMARK H PARENT 45 24 32 32 34 34 47 36 49 38 51 40 54 44 57 46 20 49 18 52
REMARK H PARENT 15 56 59 76
REMARK Flexibility Score: inf
ROOT
ATOM      1  C   UNL     1      24.223  23.442  14.120  1.00  0.00     0.272 C 
ATOM      2  C   UNL     1      25.368  24.413  13.921  1.00  0.00     0.113 C 
ATOM      3  C   UNL     1      25.807  24.970  15.260  1.00  0.00     0.145 C 
ATOM      4  C   UNL     1      25.963  23.926  16.326  1.00  0.00     0.142 C 
ATOM      5  C   UNL     1      25.555  22.535  15.871  1.00  0.00     0.178 C 
ATOM      6  O   UNL     1      24.406  22.558  15.104  1.00  0.00    -0.332 OA
ENDROOT
BRANCH   1   7
ATOM      7  O   UNL     1      23.719  23.000  12.944  1.00  0.00    -0.338 OA
BRANCH   7   8
ATOM      8  C   UNL     1      24.451  22.401  11.999  1.00  0.00     0.199 C 
BRANCH   8   9
ATOM      9  C   UNL     1      24.506  20.896  12.151  1.00  0.00     0.179 C 
ATOM     10  C   UNL     1      23.079  19.176  12.585  1.00  0.00     0.282 C 
ATOM     11  O   UNL     1      23.244  20.339  11.801  1.00  0.00    -0.341 OA
ATOM     12  C   UNL     1      24.333  18.385  12.674  1.00  0.00     0.202 C 
ATOM     13  C   UNL     1      25.411  18.717  11.698  1.00  0.00     0.179 C 
ATOM     14  C   UNL     1      25.510  20.183  11.327  1.00  0.00     0.177 C 
BRANCH  10  15
ATOM     15  O   UNL     1      21.929  18.508  12.277  1.00  0.00    -0.341 OA
BRANCH  15  16
ATOM     16  C   UNL     1      21.159  19.029  11.258  1.00  0.00     0.184 C 
ATOM     17  C   UNL     1      19.686  19.145  11.567  1.00  0.00     0.178 C 
ATOM     18  O   UNL     1      18.925  19.039  10.404  1.00  0.00    -0.341 OA
ATOM     19  C   UNL     1      19.582  19.555   9.273  1.00  0.00     0.281 C 
ATOM     20  C   UNL     1      21.196  17.964  10.145  1.00  0.00     0.180 C 
ATOM     21  C   UNL     1      20.774  18.662   8.881  1.00  0.00     0.202 C 
BRANCH  17  22
ATOM     22  C   UNL     1      19.280  20.417  12.242  1.00  0.00     0.191 C 
BRANCH  22  23
ATOM     23  O   UNL     1      20.405  21.215  12.438  1.00  0.00    -0.394 OA
ATOM     24  H   UNL     1      20.821  20.930  13.301  1.00  0.00     0.210 HD
ENDBRANCH  22  23
ENDBRANCH  17  22
BRANCH  19  25
ATOM     25  O   UNL     1      19.962  20.854   9.384  1.00  0.00    -0.350 OA
BRANCH  25  26
ATOM     26  C   UNL     1      20.833  21.377   8.479  1.00  0.00     0.169 C 
BRANCH  26  27
ATOM     27  C   UNL     1      20.563  22.739   7.961  1.00  0.00     0.119 C 
BRANCH  27  28
ATOM     28  N   UNL     1      20.280  23.711   8.959  1.00  0.00    -0.092 NA
ATOM     29  N   UNL     1      21.029  23.984   9.908  1.00  0.00     0.001 N 
ATOM     30  N   UNL     1      21.837  24.631  10.612  1.00  0.00    -0.003 NA
ENDBRANCH  27  28
ENDBRANCH  26  27
ENDBRANCH  25  26
ENDBRANCH  19  25
BRANCH  20  31
ATOM     31  O   UNL     1      22.403  17.326  10.074  1.00  0.00    -0.387 OA
ATOM     32  H   UNL     1      22.395  16.442  10.562  1.00  0.00     0.211 HD
ENDBRANCH  20  31
BRANCH  21  33
ATOM     33  O   UNL     1      20.424  17.751   7.885  1.00  0.00    -0.385 OA
ATOM     34  H   UNL     1      19.597  18.068   7.435  1.00  0.00     0.211 HD
ENDBRANCH  21  33
ENDBRANCH  15  16
ENDBRANCH  10  15
BRANCH  12  35
ATOM     35  O   UNL     1      24.858  18.370  13.991  1.00  0.00    -0.385 OA
ATOM     36  H   UNL     1      25.827  18.636  13.960  1.00  0.00     0.211 HD
ENDBRANCH  12  35
BRANCH  13  37
ATOM     37  O   UNL     1      25.335  17.907  10.539  1.00  0.00    -0.387 OA
ATOM     38  H   UNL     1      25.507  16.970  10.814  1.00  0.00     0.211 HD
ENDBRANCH  13  37
BRANCH  14  39
ATOM     39  O   UNL     1      25.343  20.380   9.960  1.00  0.00    -0.387 OA
ATOM     40  H   UNL     1      24.835  21.204   9.759  1.00  0.00     0.211 HD
ENDBRANCH  14  39
ENDBRANCH   8   9
ENDBRANCH   7   8
ENDBRANCH   1   7
BRANCH   1  41
ATOM     41  C   UNL     1      23.065  24.409  14.534  1.00  0.00     0.364 C 
ATOM     42  O   UNL     1      22.781  25.381  13.801  1.00  0.00    -0.246 OA
BRANCH  41  43
ATOM     43  O   UNL     1      22.341  24.247  15.664  1.00  0.00    -0.477 OA
ATOM     44  H   UNL     1      22.504  24.604  16.572  1.00  0.00     0.296 HD
ENDBRANCH  41  43
ENDBRANCH   1  41
BRANCH   3  45
ATOM     45  O   UNL     1      27.074  25.561  14.978  1.00  0.00    -0.391 OA
ATOM     46  H   UNL     1      27.299  26.232  15.672  1.00  0.00     0.211 HD
ENDBRANCH   3  45
BRANCH   5  47
ATOM     47  C   UNL     1      26.755  21.876  15.312  1.00  0.00     0.176 C 
BRANCH  47  48
ATOM     48  O   UNL     1      26.687  20.453  15.327  1.00  0.00    -0.388 OA
ATOM     49  H   UNL     1      26.916  20.158  16.234  1.00  0.00     0.211 HD
ENDBRANCH  47  48
BRANCH  47  50
ATOM     50  C   UNL     1      28.023  22.027  16.204  1.00  0.00     0.165 C 
BRANCH  50  51
ATOM     51  O   UNL     1      29.141  22.477  15.624  1.00  0.00    -0.388 OA
ATOM     52  H   UNL     1      29.079  23.444  15.423  1.00  0.00     0.211 HD
ENDBRANCH  50  51
BRANCH  50  53
ATOM     53  C   UNL     1      28.249  20.650  16.866  1.00  0.00     0.154 C 
BRANCH  53  54
ATOM     54  N   UNL     1      27.878  20.630  18.243  1.00  0.00    -0.319 N 
ATOM     55  C   UNL     1      28.878  20.849  19.247  1.00  0.00     0.407 C 
ATOM     56  H   UNL     1      26.911  20.460  18.537  1.00  0.00     0.167 HD
ATOM     57  O   UNL     1      30.070  21.060  18.890  1.00  0.00    -0.225 OA
BRANCH  55  58
ATOM     58  O   UNL     1      28.490  20.822  20.574  1.00  0.00    -0.443 OA
BRANCH  58  59
ATOM     59  C   UNL     1      28.683  19.619  21.343  1.00  0.00     0.294 C 
BRANCH  59  60
ATOM     60  C   UNL     1      29.618  19.926  22.445  1.00  0.00     0.120 A 
ATOM     61  C   UNL     1      30.847  19.310  22.702  1.00  0.00     0.138 A 
ATOM     62  N   UNL     1      29.467  20.838  23.413  1.00  0.00    -0.132 NA
ATOM     63  N   UNL     1      31.356  19.882  23.800  1.00  0.00    -0.248 N 
ATOM     64  N   UNL     1      30.508  20.808  24.221  1.00  0.00    -0.067 NA
BRANCH  63  65
ATOM     65  C   UNL     1      32.612  19.548  24.423  1.00  0.00     0.181 C 
BRANCH  65  66
ATOM     66  C   UNL     1      32.347  18.887  25.720  1.00  0.00    -0.026 A 
ATOM     67  C   UNL     1      32.135  17.512  25.760  1.00  0.00     0.009 A 
ATOM     68  C   UNL     1      32.316  19.566  26.909  1.00  0.00     0.009 A 
ATOM     69  C   UNL     1      31.900  16.842  26.942  1.00  0.00     0.047 A 
ATOM     70  C   UNL     1      32.078  18.885  28.108  1.00  0.00     0.047 A 
ATOM     71  C   UNL     1      31.870  17.533  28.144  1.00  0.00     0.118 A 
BRANCH  71  72
ATOM     72  O   UNL     1      31.632  16.816  29.302  1.00  0.00    -0.497 OA
ATOM     73  C   UNL     1      32.329  16.979  30.502  1.00  0.00     0.278 C 
ENDBRANCH  71  72
ENDBRANCH  65  66
ENDBRANCH  63  65
ENDBRANCH  59  60
ENDBRANCH  58  59
ENDBRANCH  55  58
ENDBRANCH  53  54
ENDBRANCH  50  53
ENDBRANCH  47  50
ENDBRANCH   5  47
BRANCH   4  74
ATOM     74  N   UNL     1      25.389  24.267  17.610  1.00  0.00    -0.348 N 
ATOM     75  C   UNL     1      26.074  24.169  18.852  1.00  0.00     0.217 C 
ATOM     76  H   UNL     1      24.412  24.593  17.647  1.00  0.00     0.163 HD
ATOM     77  C   UNL     1      25.370  24.549  20.136  1.00  0.00     0.114 C 
ATOM     78  O   UNL     1      27.261  23.766  18.881  1.00  0.00    -0.275 OA
ENDBRANCH   4  74
TORSDOF 32
