REMARK VINA RESULT:    -4.706      3.889      7.943
REMARK INTER + INTRA:         -24.081
REMARK INTER:                 -11.935
REMARK INTRA:                 -12.146
REMARK UNBOUND:               -10.710
REMARK SMILES CC(=O)N[C@@H]1[C@@H](O)C[C@](OC[C@H]2O[C@@H](O[C@H]3[C@H](O)[C@@H](O)[C@H](OCCN=[N+]=[N-])O[C@@H]3CO)[C@H](O)[C@@H](O)[C@H]2O)(C(=O)O)O[C@H]1C(O)[C@H](O)CNC(=O)OCc1cn(CC(=O)NCC(O)Cn2ccnc2[N+](=O)[O-])nn1
REMARK SMILES IDX 47 1 45 2 43 3 42 4 9 5 8 6 41 7 6 8 5 9 10 10 11 11 12 12
REMARK SMILES IDX 14 13 13 14 32 15 34 16 36 17 15 18 16 19 29 20 28 21 21 22
REMARK SMILES IDX 17 23 19 24 30 25 31 26 22 28 23 29 24 30 25 31 26 32 27 33
REMARK SMILES IDX 18 34 20 36 33 38 35 40 37 42 38 44 39 45 40 46 7 48 4 50
REMARK SMILES IDX 2 51 1 53 3 54 44 55 46 57 48 59 49 60 50 62 51 63 52 64
REMARK SMILES IDX 53 65 54 66 73 67 55 68 72 69 56 70 57 71 58 72 59 73 60 75
REMARK SMILES IDX 61 76 62 77 63 79 64 80 65 81 68 82 66 83 67 84 69 85 70 86
REMARK SMILES IDX 71 87
REMARK H PARENT 31 27 18 35 20 37 33 39 35 41 37 43 40 47 7 49 4 52 44 56
REMARK H PARENT 46 58 48 61 59 74 62 78
REMARK Flexibility Score: inf
ROOT
ATOM      1  C   UNL     1       5.231  27.856  34.146  1.00  0.00     0.154 C 
ENDROOT
BRANCH   1   2
ATOM      2  C   UNL     1       6.422  27.942  33.252  1.00  0.00     0.165 C 
BRANCH   2   3
ATOM      3  C   UNL     1       7.708  28.294  33.902  1.00  0.00     0.176 C 
BRANCH   3   4
ATOM      4  C   UNL     1       8.743  27.259  34.057  1.00  0.00     0.178 C 
ATOM      5  C   UNL     1       9.284  25.177  34.938  1.00  0.00     0.272 C 
ATOM      6  C   UNL     1      10.319  25.262  33.872  1.00  0.00     0.113 C 
ATOM      7  O   UNL     1       8.360  26.237  34.901  1.00  0.00    -0.332 OA
ATOM      8  C   UNL     1      11.035  26.569  33.794  1.00  0.00     0.145 C 
ATOM      9  C   UNL     1      10.125  27.689  34.373  1.00  0.00     0.142 C 
BRANCH   5  10
ATOM     10  O   UNL     1       9.728  25.063  36.223  1.00  0.00    -0.338 OA
BRANCH  10  11
ATOM     11  C   UNL     1      10.629  24.084  36.501  1.00  0.00     0.199 C 
BRANCH  11  12
ATOM     12  C   UNL     1      10.564  23.609  37.940  1.00  0.00     0.179 C 
ATOM     13  C   UNL     1      10.179  24.380  40.106  1.00  0.00     0.282 C 
ATOM     14  O   UNL     1      10.746  24.586  38.853  1.00  0.00    -0.341 OA
ATOM     15  C   UNL     1      10.230  22.928  40.512  1.00  0.00     0.202 C 
ATOM     16  C   UNL     1       9.541  22.044  39.498  1.00  0.00     0.179 C 
ATOM     17  C   UNL     1       9.319  22.807  38.206  1.00  0.00     0.177 C 
BRANCH  13  18
ATOM     18  O   UNL     1       8.918  24.841  40.228  1.00  0.00    -0.341 OA
BRANCH  18  19
ATOM     19  C   UNL     1       8.646  26.142  40.423  1.00  0.00     0.184 C 
ATOM     20  C   UNL     1       7.909  26.516  41.680  1.00  0.00     0.178 C 
ATOM     21  O   UNL     1       8.139  27.880  41.876  1.00  0.00    -0.341 OA
ATOM     22  C   UNL     1       7.478  28.643  40.920  1.00  0.00     0.281 C 
ATOM     23  C   UNL     1       7.788  26.741  39.298  1.00  0.00     0.180 C 
ATOM     24  C   UNL     1       7.809  28.237  39.516  1.00  0.00     0.202 C 
BRANCH  20  25
ATOM     25  C   UNL     1       8.501  25.795  42.855  1.00  0.00     0.191 C 
BRANCH  25  26
ATOM     26  O   UNL     1       9.864  26.081  43.007  1.00  0.00    -0.394 OA
ATOM     27  H   UNL     1      10.318  25.507  42.312  1.00  0.00     0.210 HD
ENDBRANCH  25  26
ENDBRANCH  20  25
BRANCH  22  28
ATOM     28  O   UNL     1       7.896  29.962  41.085  1.00  0.00    -0.350 OA
BRANCH  28  29
ATOM     29  C   UNL     1       7.077  30.646  41.985  1.00  0.00     0.169 C 
BRANCH  29  30
ATOM     30  C   UNL     1       5.646  30.198  41.679  1.00  0.00     0.119 C 
BRANCH  30  31
ATOM     31  N   UNL     1       4.916  31.263  41.014  1.00  0.00    -0.092 NA
ATOM     32  N   UNL     1       5.268  31.540  39.847  1.00  0.00     0.001 N 
ATOM     33  N   UNL     1       5.363  31.659  38.633  1.00  0.00    -0.003 NA
ENDBRANCH  30  31
ENDBRANCH  29  30
ENDBRANCH  28  29
ENDBRANCH  22  28
BRANCH  23  34
ATOM     34  O   UNL     1       8.358  26.507  38.051  1.00  0.00    -0.387 OA
ATOM     35  H   UNL     1       7.814  25.752  37.660  1.00  0.00     0.211 HD
ENDBRANCH  23  34
BRANCH  24  36
ATOM     36  O   UNL     1       6.950  28.920  38.657  1.00  0.00    -0.385 OA
ATOM     37  H   UNL     1       6.520  29.661  39.176  1.00  0.00     0.211 HD
ENDBRANCH  24  36
ENDBRANCH  18  19
ENDBRANCH  13  18
BRANCH  15  38
ATOM     38  O   UNL     1      11.544  22.504  40.752  1.00  0.00    -0.385 OA
ATOM     39  H   UNL     1      11.968  23.262  41.266  1.00  0.00     0.211 HD
ENDBRANCH  15  38
BRANCH  16  40
ATOM     40  O   UNL     1       8.291  21.637  39.956  1.00  0.00    -0.387 OA
ATOM     41  H   UNL     1       8.350  20.832  40.551  1.00  0.00     0.211 HD
ENDBRANCH  16  40
BRANCH  17  42
ATOM     42  O   UNL     1       8.155  23.537  38.176  1.00  0.00    -0.387 OA
ATOM     43  H   UNL     1       7.354  22.982  37.970  1.00  0.00     0.211 HD
ENDBRANCH  17  42
ENDBRANCH  11  12
ENDBRANCH  10  11
ENDBRANCH   5  10
BRANCH   5  44
ATOM     44  C   UNL     1       8.425  23.980  34.607  1.00  0.00     0.364 C 
ATOM     45  O   UNL     1       8.743  23.321  33.601  1.00  0.00    -0.246 OA
BRANCH  44  46
ATOM     46  O   UNL     1       7.335  23.602  35.355  1.00  0.00    -0.477 OA
ATOM     47  H   UNL     1       6.386  23.600  34.938  1.00  0.00     0.296 HD
ENDBRANCH  44  46
ENDBRANCH   5  44
BRANCH   8  48
ATOM     48  O   UNL     1      12.277  26.635  34.338  1.00  0.00    -0.391 OA
ATOM     49  H   UNL     1      12.463  27.391  34.913  1.00  0.00     0.211 HD
ENDBRANCH   8  48
BRANCH   9  50
ATOM     50  N   UNL     1      10.584  28.908  33.821  1.00  0.00    -0.348 N 
ATOM     51  C   UNL     1      10.627  30.114  34.609  1.00  0.00     0.217 C 
ATOM     52  H   UNL     1      10.912  28.975  32.849  1.00  0.00     0.163 HD
ATOM     53  C   UNL     1      11.099  31.407  34.046  1.00  0.00     0.114 C 
ATOM     54  O   UNL     1      10.250  30.049  35.798  1.00  0.00    -0.275 OA
ENDBRANCH   9  50
ENDBRANCH   3   4
BRANCH   3  55
ATOM     55  O   UNL     1       7.390  28.910  35.138  1.00  0.00    -0.388 OA
ATOM     56  H   UNL     1       6.422  28.928  35.214  1.00  0.00     0.211 HD
ENDBRANCH   3  55
ENDBRANCH   2   3
BRANCH   2  57
ATOM     57  O   UNL     1       6.153  28.533  32.041  1.00  0.00    -0.388 OA
ATOM     58  H   UNL     1       5.212  28.689  31.841  1.00  0.00     0.211 HD
ENDBRANCH   2  57
ENDBRANCH   1   2
BRANCH   1  59
ATOM     59  N   UNL     1       5.115  26.540  34.711  1.00  0.00    -0.319 N 
ATOM     60  C   UNL     1       5.307  26.261  36.088  1.00  0.00     0.407 C 
ATOM     61  H   UNL     1       4.876  25.709  34.093  1.00  0.00     0.167 HD
ATOM     62  O   UNL     1       5.581  27.197  36.867  1.00  0.00    -0.225 OA
BRANCH  60  63
ATOM     63  O   UNL     1       5.215  25.003  36.645  1.00  0.00    -0.443 OA
BRANCH  63  64
ATOM     64  C   UNL     1       4.790  24.804  37.967  1.00  0.00     0.294 C 
BRANCH  64  65
ATOM     65  C   UNL     1       4.654  23.418  38.410  1.00  0.00     0.120 A 
ATOM     66  C   UNL     1       3.605  22.558  38.209  1.00  0.00     0.138 A 
ATOM     67  N   UNL     1       5.546  22.716  39.129  1.00  0.00    -0.132 NA
ATOM     68  N   UNL     1       3.887  21.374  38.802  1.00  0.00    -0.243 N 
ATOM     69  N   UNL     1       5.056  21.486  39.350  1.00  0.00    -0.067 NA
BRANCH  68  70
ATOM     70  C   UNL     1       3.040  20.187  38.797  1.00  0.00     0.245 C 
BRANCH  70  71
ATOM     71  C   UNL     1       3.205  19.483  37.508  1.00  0.00     0.241 C 
ATOM     72  O   UNL     1       4.237  18.767  37.273  1.00  0.00    -0.273 OA
ATOM     73  N   UNL     1       2.239  19.549  36.461  1.00  0.00    -0.352 N 
ATOM     74  H   UNL     1       1.385  20.115  36.602  1.00  0.00     0.163 HD
BRANCH  73  75
ATOM     75  C   UNL     1       2.489  18.820  35.232  1.00  0.00     0.151 C 
BRANCH  75  76
ATOM     76  C   UNL     1       3.150  19.667  34.189  1.00  0.00     0.168 C 
BRANCH  76  77
ATOM     77  O   UNL     1       4.529  19.565  34.219  1.00  0.00    -0.388 OA
ATOM     78  H   UNL     1       4.780  19.169  35.086  1.00  0.00     0.211 HD
ENDBRANCH  76  77
BRANCH  76  79
ATOM     79  C   UNL     1       2.714  21.105  34.429  1.00  0.00     0.239 C 
BRANCH  79  80
ATOM     80  N   UNL     1       2.635  21.848  33.204  1.00  0.00    -0.227 N 
ATOM     81  C   UNL     1       1.531  21.929  32.416  1.00  0.00     0.204 A 
ATOM     82  C   UNL     1       3.582  22.584  32.571  1.00  0.00     0.434 A 
ATOM     83  C   UNL     1       1.812  22.705  31.319  1.00  0.00     0.245 A 
ATOM     84  N   UNL     1       3.076  23.097  31.432  1.00  0.00    -0.074 NA
BRANCH  82  85
ATOM     85  N   UNL     1       4.911  22.795  33.045  1.00  0.00    -0.047 N 
ATOM     86  O   UNL     1       5.741  21.899  33.192  1.00  0.00    -0.390 OA
ATOM     87  O   UNL     1       5.290  24.091  33.370  1.00  0.00    -0.390 OA
ENDBRANCH  82  85
ENDBRANCH  79  80
ENDBRANCH  76  79
ENDBRANCH  75  76
ENDBRANCH  73  75
ENDBRANCH  70  71
ENDBRANCH  68  70
ENDBRANCH  64  65
ENDBRANCH  63  64
ENDBRANCH  60  63
ENDBRANCH   1  59
TORSDOF 37
