REMARK VINA RESULT:    -6.192     18.026     22.483
REMARK INTER + INTRA:         -21.875
REMARK INTER:                 -13.615
REMARK INTRA:                  -8.260
REMARK UNBOUND:                -6.272
REMARK SMILES CC(=O)N[C@@H]1[C@@H](O)C[C@](OC[C@H]2O[C@@H](O[C@H]3[C@H](O)[C@@H](O)[C@H](OCCN=[N+]=[N-])O[C@@H]3CO)[C@H](O)[C@@H](O)[C@H]2O)(C(=O)O)O[C@H]1C(O)[C@H](O)CNC(=O)OCc1cn(Cc2cccc(Br)c2)nn1
REMARK SMILES IDX 9 1 8 2 6 3 5 4 42 5 41 6 10 7 11 8 12 9 14 10 13 11 32 12
REMARK SMILES IDX 34 13 36 14 15 15 16 16 29 17 28 18 21 19 17 20 19 21 30 22
REMARK SMILES IDX 31 23 22 25 23 26 24 27 25 28 26 29 27 30 18 31 20 33 33 35
REMARK SMILES IDX 35 37 37 39 38 41 39 42 40 43 7 45 43 47 44 48 45 50 46 51
REMARK SMILES IDX 47 53 48 54 49 55 50 57 51 58 52 59 53 60 54 61 65 62 55 63
REMARK SMILES IDX 64 64 56 65 57 66 58 67 63 68 59 69 61 70 60 71 62 72 4 73
REMARK SMILES IDX 2 74 1 76 3 77
REMARK H PARENT 31 24 18 32 20 34 33 36 35 38 37 40 40 44 7 46 44 49 46 52
REMARK H PARENT 48 56 4 75
REMARK Flexibility Score: inf
ROOT
ATOM      1  C   UNL     1       1.540  20.769  32.210  1.00  0.00     0.272 C 
ATOM      2  C   UNL     1       0.635  19.615  32.003  1.00  0.00     0.113 C 
ATOM      3  C   UNL     1       0.068  19.022  33.254  1.00  0.00     0.145 C 
ATOM      4  C   UNL     1       1.014  19.114  34.430  1.00  0.00     0.142 C 
ATOM      5  C   UNL     1       1.927  20.257  34.395  1.00  0.00     0.178 C 
ATOM      6  O   UNL     1       1.663  21.236  33.489  1.00  0.00    -0.332 OA
ENDROOT
BRANCH   1   7
ATOM      7  O   UNL     1       1.124  21.837  31.354  1.00  0.00    -0.338 OA
BRANCH   7   8
ATOM      8  C   UNL     1       0.879  21.422  30.077  1.00  0.00     0.199 C 
BRANCH   8   9
ATOM      9  C   UNL     1       1.180  22.555  29.073  1.00  0.00     0.179 C 
ATOM     10  C   UNL     1       2.142  24.689  29.147  1.00  0.00     0.282 C 
ATOM     11  O   UNL     1       1.461  23.649  29.823  1.00  0.00    -0.341 OA
ATOM     12  C   UNL     1       2.124  24.510  27.681  1.00  0.00     0.202 C 
ATOM     13  C   UNL     1       2.656  23.159  27.238  1.00  0.00     0.179 C 
ATOM     14  C   UNL     1       2.419  22.120  28.320  1.00  0.00     0.177 C 
BRANCH  10  15
ATOM     15  O   UNL     1       3.364  24.746  29.771  1.00  0.00    -0.341 OA
BRANCH  15  16
ATOM     16  C   UNL     1       3.480  25.567  30.834  1.00  0.00     0.184 C 
ATOM     17  C   UNL     1       4.739  26.384  30.694  1.00  0.00     0.178 C 
ATOM     18  O   UNL     1       4.761  27.347  31.699  1.00  0.00    -0.341 OA
ATOM     19  C   UNL     1       4.869  26.804  32.982  1.00  0.00     0.281 C 
ATOM     20  C   UNL     1       3.657  24.840  32.163  1.00  0.00     0.180 C 
ATOM     21  C   UNL     1       3.639  25.960  33.214  1.00  0.00     0.202 C 
BRANCH  17  22
ATOM     22  C   UNL     1       4.724  27.093  29.381  1.00  0.00     0.191 C 
BRANCH  22  23
ATOM     23  O   UNL     1       5.201  26.277  28.371  1.00  0.00    -0.394 OA
ATOM     24  H   UNL     1       5.024  25.337  28.635  1.00  0.00     0.210 HD
ENDBRANCH  22  23
ENDBRANCH  17  22
BRANCH  19  25
ATOM     25  O   UNL     1       4.962  27.876  33.844  1.00  0.00    -0.350 OA
BRANCH  25  26
ATOM     26  C   UNL     1       5.990  27.820  34.743  1.00  0.00     0.169 C 
BRANCH  26  27
ATOM     27  C   UNL     1       7.135  26.924  34.329  1.00  0.00     0.119 C 
BRANCH  27  28
ATOM     28  N   UNL     1       7.268  25.905  35.346  1.00  0.00    -0.092 NA
ATOM     29  N   UNL     1       6.694  24.826  35.319  1.00  0.00     0.001 N 
ATOM     30  N   UNL     1       6.184  23.724  35.132  1.00  0.00    -0.003 NA
ENDBRANCH  27  28
ENDBRANCH  26  27
ENDBRANCH  25  26
ENDBRANCH  19  25
BRANCH  20  31
ATOM     31  O   UNL     1       2.642  23.977  32.465  1.00  0.00    -0.387 OA
ATOM     32  H   UNL     1       1.760  24.392  32.591  1.00  0.00     0.211 HD
ENDBRANCH  20  31
BRANCH  21  33
ATOM     33  O   UNL     1       3.590  25.357  34.443  1.00  0.00    -0.385 OA
ATOM     34  H   UNL     1       4.049  24.456  34.451  1.00  0.00     0.211 HD
ENDBRANCH  21  33
ENDBRANCH  15  16
ENDBRANCH  10  15
BRANCH  12  35
ATOM     35  O   UNL     1       0.771  24.602  27.262  1.00  0.00    -0.385 OA
ATOM     36  H   UNL     1       0.194  24.149  27.929  1.00  0.00     0.211 HD
ENDBRANCH  12  35
BRANCH  13  37
ATOM     37  O   UNL     1       3.985  23.218  26.830  1.00  0.00    -0.387 OA
ATOM     38  H   UNL     1       4.095  24.022  26.226  1.00  0.00     0.211 HD
ENDBRANCH  13  37
BRANCH  14  39
ATOM     39  O   UNL     1       3.455  22.006  29.217  1.00  0.00    -0.387 OA
ATOM     40  H   UNL     1       3.406  22.738  29.905  1.00  0.00     0.211 HD
ENDBRANCH  14  39
ENDBRANCH   8   9
ENDBRANCH   7   8
ENDBRANCH   1   7
BRANCH   1  41
ATOM     41  C   UNL     1       2.898  20.420  31.694  1.00  0.00     0.364 C 
ATOM     42  O   UNL     1       3.868  21.230  31.905  1.00  0.00    -0.246 OA
BRANCH  41  43
ATOM     43  O   UNL     1       3.226  19.292  30.996  1.00  0.00    -0.477 OA
ATOM     44  H   UNL     1       3.565  18.480  31.529  1.00  0.00     0.296 HD
ENDBRANCH  41  43
ENDBRANCH   1  41
BRANCH   3  45
ATOM     45  O   UNL     1      -1.196  19.521  33.531  1.00  0.00    -0.391 OA
ATOM     46  H   UNL     1      -1.759  18.911  34.056  1.00  0.00     0.211 HD
ENDBRANCH   3  45
BRANCH   5  47
ATOM     47  C   UNL     1       2.133  20.895  35.778  1.00  0.00     0.176 C 
BRANCH  47  48
ATOM     48  O   UNL     1       3.244  20.164  36.362  1.00  0.00    -0.388 OA
ATOM     49  H   UNL     1       4.044  20.424  35.839  1.00  0.00     0.211 HD
ENDBRANCH  47  48
BRANCH  47  50
ATOM     50  C   UNL     1       2.540  22.322  35.759  1.00  0.00     0.165 C 
BRANCH  50  51
ATOM     51  O   UNL     1       3.705  22.352  34.905  1.00  0.00    -0.388 OA
ATOM     52  H   UNL     1       4.342  23.024  35.296  1.00  0.00     0.211 HD
ENDBRANCH  50  51
BRANCH  50  53
ATOM     53  C   UNL     1       3.029  22.928  37.032  1.00  0.00     0.154 C 
BRANCH  53  54
ATOM     54  N   UNL     1       4.403  22.581  37.359  1.00  0.00    -0.319 N 
ATOM     55  C   UNL     1       4.991  23.128  38.526  1.00  0.00     0.407 C 
ATOM     56  H   UNL     1       4.962  21.946  36.763  1.00  0.00     0.167 HD
ATOM     57  O   UNL     1       4.327  23.908  39.265  1.00  0.00    -0.225 OA
BRANCH  55  58
ATOM     58  O   UNL     1       6.303  22.820  38.887  1.00  0.00    -0.443 OA
BRANCH  58  59
ATOM     59  C   UNL     1       7.191  23.903  39.197  1.00  0.00     0.294 C 
BRANCH  59  60
ATOM     60  C   UNL     1       8.545  23.545  38.714  1.00  0.00     0.120 A 
ATOM     61  C   UNL     1       9.003  23.486  37.421  1.00  0.00     0.138 A 
ATOM     62  N   UNL     1       9.570  23.211  39.509  1.00  0.00    -0.132 NA
ATOM     63  N   UNL     1      10.297  23.116  37.476  1.00  0.00    -0.248 N 
ATOM     64  N   UNL     1      10.617  22.954  38.751  1.00  0.00    -0.067 NA
BRANCH  63  65
ATOM     65  C   UNL     1      11.166  22.935  36.317  1.00  0.00     0.181 C 
BRANCH  65  66
ATOM     66  C   UNL     1      11.751  24.227  35.874  1.00  0.00    -0.025 A 
ATOM     67  C   UNL     1      12.997  24.622  36.315  1.00  0.00     0.006 A 
ATOM     68  C   UNL     1      11.100  25.085  35.022  1.00  0.00     0.021 A 
ATOM     69  C   UNL     1      13.592  25.806  35.944  1.00  0.00     0.002 A 
ATOM     70  C   UNL     1      11.665  26.277  34.631  1.00  0.00     0.018 A 
ATOM     71  C   UNL     1      12.904  26.663  35.073  1.00  0.00     0.016 A 
ATOM     72  Br  UNL     1      10.762  27.476  33.443  1.00  0.00    -0.051 Br
ENDBRANCH  65  66
ENDBRANCH  63  65
ENDBRANCH  59  60
ENDBRANCH  58  59
ENDBRANCH  55  58
ENDBRANCH  53  54
ENDBRANCH  50  53
ENDBRANCH  47  50
ENDBRANCH   5  47
BRANCH   4  73
ATOM     73  N   UNL     1       1.776  17.844  34.540  1.00  0.00    -0.348 N 
ATOM     74  C   UNL     1       1.857  17.158  35.777  1.00  0.00     0.217 C 
ATOM     75  H   UNL     1       2.268  17.434  33.706  1.00  0.00     0.163 HD
ATOM     76  C   UNL     1       2.624  15.871  35.913  1.00  0.00     0.114 C 
ATOM     77  O   UNL     1       1.269  17.648  36.778  1.00  0.00    -0.275 OA
ENDBRANCH   4  73
TORSDOF 31
