REMARK VINA RESULT:    -4.917      1.827      2.438
REMARK INTER + INTRA:         -24.683
REMARK INTER:                 -16.962
REMARK INTRA:                  -7.721
REMARK UNBOUND:               -10.710
REMARK SMILES CC(=O)N[C@@H]1[C@@H](O)C[C@](OC[C@H]2O[C@@H](O[C@H]3[C@H](O)[C@@H](O)[C@H](OCCN=[N+]=[N-])O[C@@H]3CO)[C@H](O)[C@@H](O)[C@H]2O)(C(=O)O)O[C@H]1C(O)[C@H](O)CNC(=O)OCc1cn(CC(=O)NCC(O)Cn2ccnc2[N+](=O)[O-])nn1
REMARK SMILES IDX 47 1 45 2 43 3 42 4 9 5 8 6 41 7 6 8 5 9 10 10 11 11 12 12
REMARK SMILES IDX 14 13 13 14 32 15 34 16 36 17 15 18 16 19 29 20 28 21 21 22
REMARK SMILES IDX 17 23 19 24 30 25 31 26 22 28 23 29 24 30 25 31 26 32 27 33
REMARK SMILES IDX 18 34 20 36 33 38 35 40 37 42 38 44 39 45 40 46 7 48 4 50
REMARK SMILES IDX 2 51 1 53 3 54 44 55 46 57 48 59 49 60 50 62 51 63 52 64
REMARK SMILES IDX 53 65 54 66 73 67 55 68 72 69 56 70 57 71 58 72 59 73 60 75
REMARK SMILES IDX 61 76 62 77 63 79 64 80 65 81 68 82 66 83 67 84 69 85 70 86
REMARK SMILES IDX 71 87
REMARK H PARENT 31 27 18 35 20 37 33 39 35 41 37 43 40 47 7 49 4 52 44 56
REMARK H PARENT 46 58 48 61 59 74 62 78
REMARK Flexibility Score: inf
ROOT
ATOM      1  C   UNL     1       6.451  22.422  32.885  1.00  0.00     0.154 C 
ENDROOT
BRANCH   1   2
ATOM      2  C   UNL     1       6.190  23.880  33.064  1.00  0.00     0.165 C 
BRANCH   2   3
ATOM      3  C   UNL     1       5.847  24.323  34.437  1.00  0.00     0.176 C 
BRANCH   3   4
ATOM      4  C   UNL     1       5.735  25.763  34.722  1.00  0.00     0.178 C 
ATOM      5  C   UNL     1       6.256  27.920  34.031  1.00  0.00     0.272 C 
ATOM      6  C   UNL     1       5.093  28.224  34.909  1.00  0.00     0.113 C 
ATOM      7  O   UNL     1       6.474  26.541  33.856  1.00  0.00    -0.332 OA
ATOM      8  C   UNL     1       5.105  27.531  36.230  1.00  0.00     0.145 C 
ATOM      9  C   UNL     1       5.936  26.221  36.117  1.00  0.00     0.142 C 
BRANCH   5  10
ATOM     10  O   UNL     1       7.450  28.486  34.369  1.00  0.00    -0.338 OA
BRANCH  10  11
ATOM     11  C   UNL     1       8.430  28.516  33.427  1.00  0.00     0.199 C 
BRANCH  11  12
ATOM     12  C   UNL     1       9.808  28.763  34.011  1.00  0.00     0.179 C 
ATOM     13  C   UNL     1      11.345  27.865  35.515  1.00  0.00     0.282 C 
ATOM     14  O   UNL     1      10.023  28.153  35.196  1.00  0.00    -0.341 OA
ATOM     15  C   UNL     1      12.288  28.932  35.017  1.00  0.00     0.202 C 
ATOM     16  C   UNL     1      12.165  29.128  33.524  1.00  0.00     0.179 C 
ATOM     17  C   UNL     1      10.896  28.470  33.014  1.00  0.00     0.177 C 
BRANCH  13  18
ATOM     18  O   UNL     1      11.768  26.654  35.096  1.00  0.00    -0.341 OA
BRANCH  18  19
ATOM     19  C   UNL     1      11.431  25.519  35.729  1.00  0.00     0.184 C 
ATOM     20  C   UNL     1      12.545  24.587  36.122  1.00  0.00     0.178 C 
ATOM     21  O   UNL     1      12.025  23.754  37.116  1.00  0.00    -0.341 OA
ATOM     22  C   UNL     1      11.086  22.872  36.592  1.00  0.00     0.281 C 
ATOM     23  C   UNL     1      10.485  24.638  34.898  1.00  0.00     0.180 C 
ATOM     24  C   UNL     1       9.990  23.564  35.839  1.00  0.00     0.202 C 
BRANCH  20  25
ATOM     25  C   UNL     1      13.670  25.363  36.740  1.00  0.00     0.191 C 
BRANCH  25  26
ATOM     26  O   UNL     1      14.547  25.867  35.771  1.00  0.00    -0.394 OA
ATOM     27  H   UNL     1      15.264  26.336  36.304  1.00  0.00     0.210 HD
ENDBRANCH  25  26
ENDBRANCH  20  25
BRANCH  22  28
ATOM     28  O   UNL     1      10.502  22.206  37.667  1.00  0.00    -0.350 OA
BRANCH  28  29
ATOM     29  C   UNL     1      10.209  23.086  38.710  1.00  0.00     0.169 C 
BRANCH  29  30
ATOM     30  C   UNL     1       9.063  22.443  39.496  1.00  0.00     0.119 C 
BRANCH  30  31
ATOM     31  N   UNL     1       9.300  21.019  39.657  1.00  0.00    -0.092 NA
ATOM     32  N   UNL     1       9.988  20.674  40.641  1.00  0.00     0.001 N 
ATOM     33  N   UNL     1      10.394  20.255  41.718  1.00  0.00    -0.003 NA
ENDBRANCH  30  31
ENDBRANCH  29  30
ENDBRANCH  28  29
ENDBRANCH  22  28
BRANCH  23  34
ATOM     34  O   UNL     1       9.369  25.354  34.478  1.00  0.00    -0.387 OA
ATOM     35  H   UNL     1       9.307  25.171  33.488  1.00  0.00     0.211 HD
ENDBRANCH  23  34
BRANCH  24  36
ATOM     36  O   UNL     1       9.230  22.590  35.194  1.00  0.00    -0.385 OA
ATOM     37  H   UNL     1       9.215  22.808  34.216  1.00  0.00     0.211 HD
ENDBRANCH  24  36
ENDBRANCH  18  19
ENDBRANCH  13  18
BRANCH  15  38
ATOM     38  O   UNL     1      12.114  30.139  35.708  1.00  0.00    -0.385 OA
ATOM     39  H   UNL     1      13.032  30.554  35.736  1.00  0.00     0.211 HD
ENDBRANCH  15  38
BRANCH  16  40
ATOM     40  O   UNL     1      13.232  28.540  32.851  1.00  0.00    -0.387 OA
ATOM     41  H   UNL     1      12.964  28.187  31.952  1.00  0.00     0.211 HD
ENDBRANCH  16  40
BRANCH  17  42
ATOM     42  O   UNL     1      11.039  27.139  32.703  1.00  0.00    -0.387 OA
ATOM     43  H   UNL     1      11.191  26.566  33.505  1.00  0.00     0.211 HD
ENDBRANCH  17  42
ENDBRANCH  11  12
ENDBRANCH  10  11
ENDBRANCH   5  10
BRANCH   5  44
ATOM     44  C   UNL     1       5.874  28.372  32.642  1.00  0.00     0.364 C 
ATOM     45  O   UNL     1       5.613  29.581  32.496  1.00  0.00    -0.246 OA
BRANCH  44  46
ATOM     46  O   UNL     1       5.805  27.523  31.563  1.00  0.00    -0.477 OA
ATOM     47  H   UNL     1       6.629  27.383  30.950  1.00  0.00     0.296 HD
ENDBRANCH  44  46
ENDBRANCH   5  44
BRANCH   8  48
ATOM     48  O   UNL     1       5.497  28.252  37.311  1.00  0.00    -0.391 OA
ATOM     49  H   UNL     1       6.416  28.144  37.599  1.00  0.00     0.211 HD
ENDBRANCH   8  48
BRANCH   9  50
ATOM     50  N   UNL     1       5.501  25.375  37.163  1.00  0.00    -0.348 N 
ATOM     51  C   UNL     1       6.265  25.237  38.377  1.00  0.00     0.217 C 
ATOM     52  H   UNL     1       4.625  24.840  37.101  1.00  0.00     0.163 HD
ATOM     53  C   UNL     1       5.830  24.347  39.486  1.00  0.00     0.114 C 
ATOM     54  O   UNL     1       7.323  25.893  38.479  1.00  0.00    -0.275 OA
ENDBRANCH   9  50
ENDBRANCH   3   4
BRANCH   3  55
ATOM     55  O   UNL     1       6.754  23.681  35.317  1.00  0.00    -0.388 OA
ATOM     56  H   UNL     1       6.264  22.985  35.783  1.00  0.00     0.211 HD
ENDBRANCH   3  55
ENDBRANCH   2   3
BRANCH   2  57
ATOM     57  O   UNL     1       5.473  24.436  32.032  1.00  0.00    -0.388 OA
ATOM     58  H   UNL     1       5.996  24.850  31.322  1.00  0.00     0.211 HD
ENDBRANCH   2  57
ENDBRANCH   1   2
BRANCH   1  59
ATOM     59  N   UNL     1       5.462  21.833  32.024  1.00  0.00    -0.319 N 
ATOM     60  C   UNL     1       4.293  21.189  32.502  1.00  0.00     0.407 C 
ATOM     61  H   UNL     1       5.583  21.862  30.968  1.00  0.00     0.167 HD
ATOM     62  O   UNL     1       4.090  21.131  33.732  1.00  0.00    -0.225 OA
BRANCH  60  63
ATOM     63  O   UNL     1       3.342  20.607  31.692  1.00  0.00    -0.443 OA
BRANCH  63  64
ATOM     64  C   UNL     1       2.088  21.196  31.473  1.00  0.00     0.294 C 
BRANCH  64  65
ATOM     65  C   UNL     1       1.644  21.297  30.085  1.00  0.00     0.120 A 
ATOM     66  C   UNL     1       0.711  22.148  29.547  1.00  0.00     0.138 A 
ATOM     67  N   UNL     1       2.065  20.548  29.053  1.00  0.00    -0.132 NA
ATOM     68  N   UNL     1       0.595  21.894  28.223  1.00  0.00    -0.243 N 
ATOM     69  N   UNL     1       1.414  20.929  27.942  1.00  0.00    -0.067 NA
BRANCH  68  70
ATOM     70  C   UNL     1      -0.272  22.597  27.285  1.00  0.00     0.245 C 
BRANCH  70  71
ATOM     71  C   UNL     1       0.434  23.792  26.779  1.00  0.00     0.241 C 
ATOM     72  O   UNL     1      -0.199  24.867  26.503  1.00  0.00    -0.273 OA
ATOM     73  N   UNL     1       1.845  23.828  26.573  1.00  0.00    -0.352 N 
ATOM     74  H   UNL     1       2.403  22.982  26.782  1.00  0.00     0.163 HD
BRANCH  73  75
ATOM     75  C   UNL     1       2.448  25.049  26.075  1.00  0.00     0.151 C 
BRANCH  75  76
ATOM     76  C   UNL     1       3.932  25.074  26.269  1.00  0.00     0.168 C 
BRANCH  76  77
ATOM     77  O   UNL     1       4.457  23.817  26.511  1.00  0.00    -0.388 OA
ATOM     78  H   UNL     1       4.359  23.634  27.476  1.00  0.00     0.211 HD
ENDBRANCH  76  77
BRANCH  76  79
ATOM     79  C   UNL     1       4.223  26.009  27.433  1.00  0.00     0.239 C 
BRANCH  79  80
ATOM     80  N   UNL     1       5.033  27.123  27.031  1.00  0.00    -0.227 N 
ATOM     81  C   UNL     1       6.096  27.044  26.187  1.00  0.00     0.204 A 
ATOM     82  C   UNL     1       4.952  28.430  27.384  1.00  0.00     0.434 A 
ATOM     83  C   UNL     1       6.648  28.292  26.036  1.00  0.00     0.245 A 
ATOM     84  N   UNL     1       5.933  29.129  26.779  1.00  0.00    -0.074 NA
BRANCH  82  85
ATOM     85  N   UNL     1       3.968  28.986  28.255  1.00  0.00    -0.047 N 
ATOM     86  O   UNL     1       2.815  29.250  27.913  1.00  0.00    -0.390 OA
ATOM     87  O   UNL     1       4.334  29.256  29.567  1.00  0.00    -0.390 OA
ENDBRANCH  82  85
ENDBRANCH  79  80
ENDBRANCH  76  79
ENDBRANCH  75  76
ENDBRANCH  73  75
ENDBRANCH  70  71
ENDBRANCH  68  70
ENDBRANCH  64  65
ENDBRANCH  63  64
ENDBRANCH  60  63
ENDBRANCH   1  59
TORSDOF 37
