REMARK VINA RESULT:    -5.872     10.451     16.333
REMARK INTER + INTRA:         -20.418
REMARK INTER:                 -16.431
REMARK INTRA:                  -3.987
REMARK UNBOUND:                -5.964
REMARK SMILES CC(=O)N[C@@H]1[C@@H](O)C[C@](OC[C@H]2O[C@@H](O[C@H]3[C@H](O)[C@@H](O)[C@H](OCCN=[N+]=[N-])O[C@@H]3CO)[C@H](O)[C@@H](O)[C@H]2O)(C(=O)O)O[C@H]1C(O)[C@H](O)CNC(=O)OCc1cn(C2CCN(C)CC2)nn1
REMARK SMILES IDX 9 1 8 2 6 3 5 4 42 5 41 6 10 7 11 8 12 9 14 10 13 11 32 12
REMARK SMILES IDX 34 13 36 14 15 15 16 16 29 17 28 18 21 19 17 20 19 21 30 22
REMARK SMILES IDX 31 23 22 25 23 26 24 27 25 28 26 29 27 30 18 31 20 33 33 35
REMARK SMILES IDX 35 37 37 39 38 41 39 42 40 43 7 45 43 47 44 48 45 50 46 51
REMARK SMILES IDX 47 53 48 54 49 55 50 57 51 58 52 59 53 60 54 61 64 62 55 63
REMARK SMILES IDX 63 64 56 65 57 66 62 67 58 68 61 69 59 70 60 71 4 72 2 73
REMARK SMILES IDX 1 75 3 76
REMARK H PARENT 31 24 18 32 20 34 33 36 35 38 37 40 40 44 7 46 44 49 46 52
REMARK H PARENT 48 56 4 74
REMARK Flexibility Score: inf
ROOT
ATOM      1  C   UNL     1      17.961  28.812  19.887  1.00  0.00     0.272 C 
ATOM      2  C   UNL     1      18.111  30.315  19.743  1.00  0.00     0.113 C 
ATOM      3  C   UNL     1      16.864  31.095  19.685  1.00  0.00     0.145 C 
ATOM      4  C   UNL     1      15.768  30.610  20.608  1.00  0.00     0.142 C 
ATOM      5  C   UNL     1      15.925  29.197  21.019  1.00  0.00     0.178 C 
ATOM      6  O   UNL     1      17.119  28.618  21.030  1.00  0.00    -0.332 OA
ENDROOT
BRANCH   1   7
ATOM      7  O   UNL     1      19.132  28.307  20.304  1.00  0.00    -0.338 OA
BRANCH   7   8
ATOM      8  C   UNL     1      20.020  28.707  21.150  1.00  0.00     0.199 C 
BRANCH   8   9
ATOM      9  C   UNL     1      21.485  28.423  21.034  1.00  0.00     0.179 C 
ATOM     10  C   UNL     1      21.964  26.482  22.339  1.00  0.00     0.282 C 
ATOM     11  O   UNL     1      21.862  27.825  22.204  1.00  0.00    -0.341 OA
ATOM     12  C   UNL     1      21.575  25.713  21.152  1.00  0.00     0.202 C 
ATOM     13  C   UNL     1      22.386  26.307  19.987  1.00  0.00     0.179 C 
ATOM     14  C   UNL     1      21.869  27.687  19.794  1.00  0.00     0.177 C 
BRANCH  10  15
ATOM     15  O   UNL     1      21.317  26.209  23.537  1.00  0.00    -0.341 OA
BRANCH  15  16
ATOM     16  C   UNL     1      21.742  26.841  24.632  1.00  0.00     0.184 C 
ATOM     17  C   UNL     1      22.217  25.881  25.667  1.00  0.00     0.178 C 
ATOM     18  O   UNL     1      23.021  26.573  26.580  1.00  0.00    -0.341 OA
ATOM     19  C   UNL     1      22.253  27.457  27.301  1.00  0.00     0.281 C 
ATOM     20  C   UNL     1      20.648  27.644  25.353  1.00  0.00     0.180 C 
ATOM     21  C   UNL     1      21.387  28.369  26.474  1.00  0.00     0.202 C 
BRANCH  17  22
ATOM     22  C   UNL     1      22.878  24.653  25.143  1.00  0.00     0.191 C 
BRANCH  22  23
ATOM     23  O   UNL     1      23.927  24.313  25.986  1.00  0.00    -0.394 OA
ATOM     24  H   UNL     1      23.693  24.440  26.941  1.00  0.00     0.210 HD
ENDBRANCH  22  23
ENDBRANCH  17  22
BRANCH  19  25
ATOM     25  O   UNL     1      23.148  28.293  27.983  1.00  0.00    -0.350 OA
BRANCH  25  26
ATOM     26  C   UNL     1      23.571  27.797  29.189  1.00  0.00     0.169 C 
BRANCH  26  27
ATOM     27  C   UNL     1      25.074  27.633  29.285  1.00  0.00     0.119 C 
BRANCH  27  28
ATOM     28  N   UNL     1      25.425  26.283  29.683  1.00  0.00    -0.092 NA
ATOM     29  N   UNL     1      26.597  25.965  29.877  1.00  0.00     0.001 N 
ATOM     30  N   UNL     1      27.675  25.408  29.658  1.00  0.00    -0.003 NA
ENDBRANCH  27  28
ENDBRANCH  26  27
ENDBRANCH  25  26
ENDBRANCH  19  25
BRANCH  20  31
ATOM     31  O   UNL     1      20.082  28.612  24.566  1.00  0.00    -0.387 OA
ATOM     32  H   UNL     1      20.778  29.019  24.007  1.00  0.00     0.211 HD
ENDBRANCH  20  31
BRANCH  21  33
ATOM     33  O   UNL     1      20.477  29.018  27.271  1.00  0.00    -0.385 OA
ATOM     34  H   UNL     1      20.815  29.852  27.635  1.00  0.00     0.211 HD
ENDBRANCH  21  33
ENDBRANCH  15  16
ENDBRANCH  10  15
BRANCH  12  35
ATOM     35  O   UNL     1      21.964  24.376  21.160  1.00  0.00    -0.385 OA
ATOM     36  H   UNL     1      21.171  23.788  21.221  1.00  0.00     0.211 HD
ENDBRANCH  12  35
BRANCH  13  37
ATOM     37  O   UNL     1      22.312  25.543  18.850  1.00  0.00    -0.387 OA
ATOM     38  H   UNL     1      21.484  25.796  18.369  1.00  0.00     0.211 HD
ENDBRANCH  13  37
BRANCH  14  39
ATOM     39  O   UNL     1      20.768  27.629  18.945  1.00  0.00    -0.387 OA
ATOM     40  H   UNL     1      20.530  28.503  18.558  1.00  0.00     0.211 HD
ENDBRANCH  14  39
ENDBRANCH   8   9
ENDBRANCH   7   8
ENDBRANCH   1   7
BRANCH   1  41
ATOM     41  C   UNL     1      17.273  28.289  18.715  1.00  0.00     0.364 C 
ATOM     42  O   UNL     1      18.004  28.022  17.677  1.00  0.00    -0.246 OA
BRANCH  41  43
ATOM     43  O   UNL     1      15.947  28.023  18.500  1.00  0.00    -0.477 OA
ATOM     44  H   UNL     1      15.300  27.700  19.220  1.00  0.00     0.296 HD
ENDBRANCH  41  43
ENDBRANCH   1  41
BRANCH   3  45
ATOM     45  O   UNL     1      17.159  32.453  20.011  1.00  0.00    -0.391 OA
ATOM     46  H   UNL     1      17.191  32.580  20.982  1.00  0.00     0.211 HD
ENDBRANCH   3  45
BRANCH   5  47
ATOM     47  C   UNL     1      15.295  28.959  22.420  1.00  0.00     0.176 C 
BRANCH  47  48
ATOM     48  O   UNL     1      13.911  28.965  22.301  1.00  0.00    -0.388 OA
ATOM     49  H   UNL     1      13.466  28.394  22.961  1.00  0.00     0.211 HD
ENDBRANCH  47  48
BRANCH  47  50
ATOM     50  C   UNL     1      15.766  29.956  23.375  1.00  0.00     0.165 C 
BRANCH  50  51
ATOM     51  O   UNL     1      17.082  29.518  23.793  1.00  0.00    -0.388 OA
ATOM     52  H   UNL     1      17.073  29.367  24.769  1.00  0.00     0.211 HD
ENDBRANCH  50  51
BRANCH  50  53
ATOM     53  C   UNL     1      15.006  30.254  24.595  1.00  0.00     0.154 C 
BRANCH  53  54
ATOM     54  N   UNL     1      13.868  31.073  24.614  1.00  0.00    -0.319 N 
ATOM     55  C   UNL     1      12.519  30.669  24.760  1.00  0.00     0.407 C 
ATOM     56  H   UNL     1      14.026  32.133  24.504  1.00  0.00     0.167 HD
ATOM     57  O   UNL     1      12.213  29.473  24.934  1.00  0.00    -0.225 OA
BRANCH  55  58
ATOM     58  O   UNL     1      11.511  31.658  24.704  1.00  0.00    -0.443 OA
BRANCH  58  59
ATOM     59  C   UNL     1      10.994  32.027  23.452  1.00  0.00     0.294 C 
BRANCH  59  60
ATOM     60  C   UNL     1       9.551  31.687  23.416  1.00  0.00     0.120 A 
ATOM     61  C   UNL     1       8.919  30.701  24.193  1.00  0.00     0.138 A 
ATOM     62  N   UNL     1       8.551  32.208  22.690  1.00  0.00    -0.132 NA
ATOM     63  N   UNL     1       7.606  30.672  23.910  1.00  0.00    -0.249 N 
ATOM     64  N   UNL     1       7.412  31.591  23.001  1.00  0.00    -0.067 NA
BRANCH  63  65
ATOM     65  C   UNL     1       6.620  29.797  24.500  1.00  0.00     0.111 C 
ATOM     66  C   UNL     1       6.949  28.392  24.081  1.00  0.00     0.043 C 
ATOM     67  C   UNL     1       6.611  29.879  26.001  1.00  0.00     0.043 C 
ATOM     68  C   UNL     1       7.606  27.669  25.234  1.00  0.00     0.086 C 
ATOM     69  C   UNL     1       5.965  28.687  26.655  1.00  0.00     0.086 C 
ATOM     70  N   UNL     1       6.582  27.440  26.253  1.00  0.00    -0.306 NA
ATOM     71  C   UNL     1       5.570  26.574  25.673  1.00  0.00     0.105 C 
ENDBRANCH  63  65
ENDBRANCH  59  60
ENDBRANCH  58  59
ENDBRANCH  55  58
ENDBRANCH  53  54
ENDBRANCH  50  53
ENDBRANCH  47  50
ENDBRANCH   5  47
BRANCH   4  72
ATOM     72  N   UNL     1      14.453  30.857  20.050  1.00  0.00    -0.348 N 
ATOM     73  C   UNL     1      13.623  31.835  20.643  1.00  0.00     0.217 C 
ATOM     74  H   UNL     1      14.091  30.333  19.216  1.00  0.00     0.163 HD
ATOM     75  C   UNL     1      12.254  32.126  20.107  1.00  0.00     0.114 C 
ATOM     76  O   UNL     1      14.035  32.488  21.654  1.00  0.00    -0.275 OA
ENDBRANCH   4  72
TORSDOF 30
