REMARK VINA RESULT:    -4.223     23.013     27.732
REMARK INTER + INTRA:         -22.552
REMARK INTER:                 -16.552
REMARK INTRA:                  -6.000
REMARK UNBOUND:               -11.418
REMARK SMILES CC(=O)N[C@@H]1[C@@H](O)C[C@](OC[C@H]2O[C@@H](O[C@H]3[C@H](O)[C@@H](O)[C@H](OCCN=[N+]=[N-])O[C@@H]3CO)[C@H](O)[C@@H](O)[C@H]2O)(C(=O)O)O[C@H]1C(O)[C@H](O)CNC(=O)OCc1cn(CC(=O)NCc2cccs2)nn1
REMARK SMILES IDX 43 1 42 2 9 3 8 4 41 5 6 6 5 7 10 8 11 9 12 10 14 11 13 12
REMARK SMILES IDX 32 13 34 14 36 15 15 16 16 17 29 18 28 19 21 20 17 21 19 22
REMARK SMILES IDX 30 23 31 24 22 26 23 27 24 28 25 29 26 30 27 31 18 32 20 34
REMARK SMILES IDX 33 36 35 38 37 40 38 42 39 43 40 44 7 46 4 48 2 49 1 51 3 52
REMARK SMILES IDX 44 53 45 55 46 56 47 58 48 59 49 60 50 62 51 63 52 64 53 65
REMARK SMILES IDX 54 66 67 67 55 68 66 69 56 70 57 71 58 72 59 73 60 75 61 76
REMARK SMILES IDX 62 77 65 78 63 79 64 80
REMARK H PARENT 31 25 18 33 20 35 33 37 35 39 37 41 40 45 7 47 4 50 44 54
REMARK H PARENT 46 57 48 61 59 74
REMARK Flexibility Score: inf
ROOT
ATOM      1  C   UNL     1      31.482  20.794  26.250  1.00  0.00     0.176 C 
ENDROOT
BRANCH   1   2
ATOM      2  C   UNL     1      32.602  19.798  26.404  1.00  0.00     0.178 C 
ATOM      3  C   UNL     1      32.714  18.186  24.676  1.00  0.00     0.272 C 
ATOM      4  C   UNL     1      31.685  17.368  25.474  1.00  0.00     0.113 C 
ATOM      5  O   UNL     1      32.986  19.398  25.172  1.00  0.00    -0.332 OA
ATOM      6  C   UNL     1      32.069  17.390  26.898  1.00  0.00     0.145 C 
ATOM      7  C   UNL     1      32.407  18.756  27.435  1.00  0.00     0.142 C 
BRANCH   3   8
ATOM      8  O   UNL     1      32.166  18.270  23.418  1.00  0.00    -0.338 OA
BRANCH   8   9
ATOM      9  C   UNL     1      30.925  18.720  23.226  1.00  0.00     0.199 C 
BRANCH   9  10
ATOM     10  C   UNL     1      30.607  19.533  22.004  1.00  0.00     0.179 C 
ATOM     11  C   UNL     1      31.642  20.002  20.010  1.00  0.00     0.282 C 
ATOM     12  O   UNL     1      31.463  19.024  20.997  1.00  0.00    -0.341 OA
ATOM     13  C   UNL     1      30.352  20.652  19.634  1.00  0.00     0.202 C 
ATOM     14  C   UNL     1      29.121  19.957  20.112  1.00  0.00     0.179 C 
ATOM     15  C   UNL     1      29.217  19.303  21.453  1.00  0.00     0.177 C 
BRANCH  11  16
ATOM     16  O   UNL     1      32.287  19.525  18.903  1.00  0.00    -0.341 OA
BRANCH  16  17
ATOM     17  C   UNL     1      32.590  18.167  18.979  1.00  0.00     0.184 C 
ATOM     18  C   UNL     1      34.020  17.865  18.882  1.00  0.00     0.178 C 
ATOM     19  O   UNL     1      34.482  17.236  17.757  1.00  0.00    -0.341 OA
ATOM     20  C   UNL     1      33.644  17.121  16.696  1.00  0.00     0.281 C 
ATOM     21  C   UNL     1      31.670  17.450  18.032  1.00  0.00     0.180 C 
ATOM     22  C   UNL     1      32.376  16.410  17.200  1.00  0.00     0.202 C 
BRANCH  18  23
ATOM     23  C   UNL     1      34.448  16.950  20.047  1.00  0.00     0.191 C 
BRANCH  23  24
ATOM     24  O   UNL     1      33.659  17.120  21.164  1.00  0.00    -0.394 OA
ATOM     25  H   UNL     1      33.678  16.273  21.685  1.00  0.00     0.210 HD
ENDBRANCH  23  24
ENDBRANCH  18  23
BRANCH  20  26
ATOM     26  O   UNL     1      34.203  16.212  15.782  1.00  0.00    -0.350 OA
BRANCH  26  27
ATOM     27  C   UNL     1      34.951  15.240  16.415  1.00  0.00     0.169 C 
BRANCH  27  28
ATOM     28  C   UNL     1      36.233  15.052  15.598  1.00  0.00     0.119 C 
BRANCH  28  29
ATOM     29  N   UNL     1      35.881  14.804  14.208  1.00  0.00    -0.092 NA
ATOM     30  N   UNL     1      36.714  15.003  13.326  1.00  0.00     0.001 N 
ATOM     31  N   UNL     1      37.566  14.993  12.417  1.00  0.00    -0.003 NA
ENDBRANCH  28  29
ENDBRANCH  27  28
ENDBRANCH  26  27
ENDBRANCH  20  26
BRANCH  21  32
ATOM     32  O   UNL     1      30.546  16.909  18.665  1.00  0.00    -0.387 OA
ATOM     33  H   UNL     1      29.908  17.635  18.944  1.00  0.00     0.211 HD
ENDBRANCH  21  32
BRANCH  22  34
ATOM     34  O   UNL     1      31.554  16.064  16.146  1.00  0.00    -0.385 OA
ATOM     35  H   UNL     1      32.052  15.538  15.470  1.00  0.00     0.211 HD
ENDBRANCH  22  34
ENDBRANCH  16  17
ENDBRANCH  11  16
BRANCH  13  36
ATOM     36  O   UNL     1      30.320  22.010  20.027  1.00  0.00    -0.385 OA
ATOM     37  H   UNL     1      30.752  22.178  20.880  1.00  0.00     0.211 HD
ENDBRANCH  13  36
BRANCH  14  38
ATOM     38  O   UNL     1      28.645  19.059  19.127  1.00  0.00    -0.387 OA
ATOM     39  H   UNL     1      29.263  18.291  19.052  1.00  0.00     0.211 HD
ENDBRANCH  14  38
BRANCH  15  40
ATOM     40  O   UNL     1      29.044  17.916  21.232  1.00  0.00    -0.387 OA
ATOM     41  H   UNL     1      28.108  17.683  21.040  1.00  0.00     0.211 HD
ENDBRANCH  15  40
ENDBRANCH   9  10
ENDBRANCH   8   9
ENDBRANCH   3   8
BRANCH   3  42
ATOM     42  C   UNL     1      33.942  17.332  24.683  1.00  0.00     0.364 C 
ATOM     43  O   UNL     1      34.054  16.244  24.074  1.00  0.00    -0.246 OA
BRANCH  42  44
ATOM     44  O   UNL     1      35.054  17.753  25.403  1.00  0.00    -0.477 OA
ATOM     45  H   UNL     1      35.775  18.305  24.957  1.00  0.00     0.296 HD
ENDBRANCH  42  44
ENDBRANCH   3  42
BRANCH   6  46
ATOM     46  O   UNL     1      31.037  16.782  27.670  1.00  0.00    -0.391 OA
ATOM     47  H   UNL     1      31.173  16.934  28.630  1.00  0.00     0.211 HD
ENDBRANCH   6  46
BRANCH   7  48
ATOM     48  N   UNL     1      33.525  18.687  28.354  1.00  0.00    -0.348 N 
ATOM     49  C   UNL     1      33.302  18.469  29.730  1.00  0.00     0.217 C 
ATOM     50  H   UNL     1      34.522  18.800  28.030  1.00  0.00     0.163 HD
ATOM     51  C   UNL     1      34.466  18.401  30.661  1.00  0.00     0.114 C 
ATOM     52  O   UNL     1      32.165  18.326  30.238  1.00  0.00    -0.275 OA
ENDBRANCH   7  48
ENDBRANCH   1   2
BRANCH   1  53
ATOM     53  O   UNL     1      30.490  20.720  27.184  1.00  0.00    -0.388 OA
ATOM     54  H   UNL     1      30.566  21.323  27.954  1.00  0.00     0.211 HD
ENDBRANCH   1  53
BRANCH   1  55
ATOM     55  C   UNL     1      31.923  22.212  25.954  1.00  0.00     0.165 C 
BRANCH  55  56
ATOM     56  O   UNL     1      32.671  22.324  24.822  1.00  0.00    -0.388 OA
ATOM     57  H   UNL     1      32.294  21.893  24.025  1.00  0.00     0.211 HD
ENDBRANCH  55  56
BRANCH  55  58
ATOM     58  C   UNL     1      32.649  22.793  27.155  1.00  0.00     0.154 C 
BRANCH  58  59
ATOM     59  N   UNL     1      31.763  23.171  28.216  1.00  0.00    -0.319 N 
ATOM     60  C   UNL     1      31.341  24.482  28.548  1.00  0.00     0.407 C 
ATOM     61  H   UNL     1      31.338  22.419  28.868  1.00  0.00     0.167 HD
ATOM     62  O   UNL     1      31.713  25.469  27.914  1.00  0.00    -0.225 OA
BRANCH  60  63
ATOM     63  O   UNL     1      30.470  24.718  29.630  1.00  0.00    -0.443 OA
BRANCH  63  64
ATOM     64  C   UNL     1      29.806  25.914  29.875  1.00  0.00     0.294 C 
BRANCH  64  65
ATOM     65  C   UNL     1      28.340  25.829  29.818  1.00  0.00     0.120 A 
ATOM     66  C   UNL     1      27.491  25.427  30.826  1.00  0.00     0.138 A 
ATOM     67  N   UNL     1      27.543  26.137  28.760  1.00  0.00    -0.132 NA
ATOM     68  N   UNL     1      26.232  25.495  30.375  1.00  0.00    -0.243 N 
ATOM     69  N   UNL     1      26.300  25.925  29.137  1.00  0.00    -0.067 NA
BRANCH  68  70
ATOM     70  C   UNL     1      24.980  25.190  31.033  1.00  0.00     0.245 C 
BRANCH  70  71
ATOM     71  C   UNL     1      23.875  25.584  30.140  1.00  0.00     0.242 C 
ATOM     72  O   UNL     1      23.261  26.649  30.333  1.00  0.00    -0.273 OA
ATOM     73  N   UNL     1      23.499  24.756  29.055  1.00  0.00    -0.350 N 
ATOM     74  H   UNL     1      23.995  23.842  28.857  1.00  0.00     0.163 HD
BRANCH  73  75
ATOM     75  C   UNL     1      22.434  25.103  28.165  1.00  0.00     0.162 C 
BRANCH  75  76
ATOM     76  C   UNL     1      22.884  24.923  26.777  1.00  0.00     0.024 A 
ATOM     77  C   UNL     1      22.197  24.712  25.627  1.00  0.00     0.017 A 
ATOM     78  S   UNL     1      24.561  24.953  26.251  1.00  0.00    -0.147 S 
ATOM     79  C   UNL     1      22.868  24.585  24.472  1.00  0.00     0.012 A 
ATOM     80  C   UNL     1      24.210  24.668  24.457  1.00  0.00     0.065 A 
ENDBRANCH  75  76
ENDBRANCH  73  75
ENDBRANCH  70  71
ENDBRANCH  68  70
ENDBRANCH  64  65
ENDBRANCH  63  64
ENDBRANCH  60  63
ENDBRANCH  58  59
ENDBRANCH  55  58
ENDBRANCH   1  55
TORSDOF 33
