REMARK VINA RESULT:    -6.210     11.531     16.498
REMARK INTER + INTRA:         -22.008
REMARK INTER:                 -11.524
REMARK INTRA:                 -10.484
REMARK UNBOUND:                -5.634
REMARK SMILES CC(=O)N[C@@H]1[C@@H](O)C[C@](OC[C@H]2O[C@@H](O[C@H]3[C@H](O)[C@@H](O)[C@H](OCCN=[N+]=[N-])O[C@@H]3CO)[C@H](O)[C@@H](O)[C@H]2O)(C(=O)O)O[C@H]1C(O)[C@H](O)CNC(=O)OCc1cn(Cc2ccccc2OC(C)=O)nn1
REMARK SMILES IDX 43 1 42 2 9 3 8 4 41 5 6 6 5 7 10 8 11 9 12 10 14 11 13 12
REMARK SMILES IDX 32 13 34 14 36 15 15 16 16 17 29 18 28 19 21 20 17 21 19 22
REMARK SMILES IDX 30 23 31 24 22 26 23 27 24 28 25 29 26 30 27 31 18 32 20 34
REMARK SMILES IDX 33 36 35 38 37 40 38 42 39 43 40 44 7 46 4 48 2 49 1 51 3 52
REMARK SMILES IDX 44 53 45 55 46 56 47 58 48 59 49 60 50 62 51 63 52 64 53 65
REMARK SMILES IDX 54 66 68 67 55 68 67 69 56 70 57 71 62 72 58 73 61 74 59 75
REMARK SMILES IDX 60 76 63 77 64 78 66 79 65 80
REMARK H PARENT 31 25 18 33 20 35 33 37 35 39 37 41 40 45 7 47 4 50 44 54
REMARK H PARENT 46 57 48 61
REMARK Flexibility Score: inf
ROOT
ATOM      1  C   UNL     1      27.727  20.118  12.845  1.00  0.00     0.176 C 
ENDROOT
BRANCH   1   2
ATOM      2  C   UNL     1      26.395  20.822  12.640  1.00  0.00     0.178 C 
ATOM      3  C   UNL     1      24.139  20.358  12.273  1.00  0.00     0.272 C 
ATOM      4  C   UNL     1      24.213  21.828  11.874  1.00  0.00     0.113 C 
ATOM      5  O   UNL     1      25.459  19.853  12.353  1.00  0.00    -0.332 OA
ATOM      6  C   UNL     1      25.276  21.921  10.792  1.00  0.00     0.145 C 
ATOM      7  C   UNL     1      26.595  21.752  11.442  1.00  0.00     0.142 C 
BRANCH   3   8
ATOM      8  O   UNL     1      23.499  19.581  11.354  1.00  0.00    -0.338 OA
BRANCH   8   9
ATOM      9  C   UNL     1      23.385  18.248  11.589  1.00  0.00     0.199 C 
BRANCH   9  10
ATOM     10  C   UNL     1      23.539  17.521  10.242  1.00  0.00     0.179 C 
ATOM     11  C   UNL     1      23.298  17.853   7.980  1.00  0.00     0.282 C 
ATOM     12  O   UNL     1      23.291  18.493   9.267  1.00  0.00    -0.341 OA
ATOM     13  C   UNL     1      24.732  17.576   7.696  1.00  0.00     0.202 C 
ATOM     14  C   UNL     1      25.171  16.510   8.715  1.00  0.00     0.179 C 
ATOM     15  C   UNL     1      24.911  16.941  10.119  1.00  0.00     0.177 C 
BRANCH  11  16
ATOM     16  O   UNL     1      22.643  18.744   7.165  1.00  0.00    -0.341 OA
BRANCH  16  17
ATOM     17  C   UNL     1      21.953  19.713   7.916  1.00  0.00     0.184 C 
ATOM     18  C   UNL     1      20.515  19.833   7.574  1.00  0.00     0.178 C 
ATOM     19  O   UNL     1      20.094  21.159   7.433  1.00  0.00    -0.341 OA
ATOM     20  C   UNL     1      20.518  22.002   8.451  1.00  0.00     0.281 C 
ATOM     21  C   UNL     1      22.563  21.099   7.485  1.00  0.00     0.180 C 
ATOM     22  C   UNL     1      22.044  22.079   8.501  1.00  0.00     0.202 C 
BRANCH  18  23
ATOM     23  C   UNL     1      19.568  19.032   8.413  1.00  0.00     0.191 C 
BRANCH  23  24
ATOM     24  O   UNL     1      18.928  18.097   7.613  1.00  0.00    -0.394 OA
ATOM     25  H   UNL     1      18.971  18.365   6.672  1.00  0.00     0.210 HD
ENDBRANCH  23  24
ENDBRANCH  18  23
BRANCH  20  26
ATOM     26  O   UNL     1      20.088  21.579   9.659  1.00  0.00    -0.350 OA
BRANCH  26  27
ATOM     27  C   UNL     1      20.747  21.895  10.789  1.00  0.00     0.169 C 
BRANCH  27  28
ATOM     28  C   UNL     1      20.180  21.467  12.094  1.00  0.00     0.119 C 
BRANCH  28  29
ATOM     29  N   UNL     1      20.221  20.052  12.236  1.00  0.00    -0.092 NA
ATOM     30  N   UNL     1      19.237  19.350  12.153  1.00  0.00     0.001 N 
ATOM     31  N   UNL     1      18.233  18.731  11.789  1.00  0.00    -0.003 NA
ENDBRANCH  28  29
ENDBRANCH  27  28
ENDBRANCH  26  27
ENDBRANCH  20  26
BRANCH  21  32
ATOM     32  O   UNL     1      23.932  21.002   7.445  1.00  0.00    -0.387 OA
ATOM     33  H   UNL     1      24.344  21.683   8.067  1.00  0.00     0.211 HD
ENDBRANCH  21  32
BRANCH  22  34
ATOM     34  O   UNL     1      22.529  23.353   8.307  1.00  0.00    -0.385 OA
ATOM     35  H   UNL     1      23.034  23.347   7.445  1.00  0.00     0.211 HD
ENDBRANCH  22  34
ENDBRANCH  16  17
ENDBRANCH  11  16
BRANCH  13  36
ATOM     36  O   UNL     1      24.954  16.997   6.457  1.00  0.00    -0.385 OA
ATOM     37  H   UNL     1      25.873  16.691   6.310  1.00  0.00     0.211 HD
ENDBRANCH  13  36
BRANCH  14  38
ATOM     38  O   UNL     1      26.510  16.173   8.503  1.00  0.00    -0.387 OA
ATOM     39  H   UNL     1      27.025  17.027   8.571  1.00  0.00     0.211 HD
ENDBRANCH  14  38
BRANCH  15  40
ATOM     40  O   UNL     1      25.912  17.836  10.492  1.00  0.00    -0.387 OA
ATOM     41  H   UNL     1      26.119  17.813  11.445  1.00  0.00     0.211 HD
ENDBRANCH  15  40
ENDBRANCH   9  10
ENDBRANCH   8   9
ENDBRANCH   3   8
BRANCH   3  42
ATOM     42  C   UNL     1      23.539  20.334  13.625  1.00  0.00     0.364 C 
ATOM     43  O   UNL     1      23.748  19.426  14.425  1.00  0.00    -0.246 OA
BRANCH  42  44
ATOM     44  O   UNL     1      22.702  21.388  14.001  1.00  0.00    -0.477 OA
ATOM     45  H   UNL     1      21.712  21.230  14.239  1.00  0.00     0.296 HD
ENDBRANCH  42  44
ENDBRANCH   3  42
BRANCH   6  46
ATOM     46  O   UNL     1      25.059  20.824   9.953  1.00  0.00    -0.391 OA
ATOM     47  H   UNL     1      24.859  21.073   9.020  1.00  0.00     0.211 HD
ENDBRANCH   6  46
BRANCH   7  48
ATOM     48  N   UNL     1      27.294  22.907  11.823  1.00  0.00    -0.348 N 
ATOM     49  C   UNL     1      28.435  23.415  11.140  1.00  0.00     0.217 C 
ATOM     50  H   UNL     1      26.948  23.433  12.676  1.00  0.00     0.163 HD
ATOM     51  C   UNL     1      29.142  24.632  11.571  1.00  0.00     0.114 C 
ATOM     52  O   UNL     1      28.815  22.781  10.147  1.00  0.00    -0.275 OA
ENDBRANCH   7  48
ENDBRANCH   1   2
BRANCH   1  53
ATOM     53  O   UNL     1      28.485  20.938  13.660  1.00  0.00    -0.388 OA
ATOM     54  H   UNL     1      29.342  20.556  13.945  1.00  0.00     0.211 HD
ENDBRANCH   1  53
BRANCH   1  55
ATOM     55  C   UNL     1      27.596  18.707  13.312  1.00  0.00     0.165 C 
BRANCH  55  56
ATOM     56  O   UNL     1      26.711  18.696  14.394  1.00  0.00    -0.388 OA
ATOM     57  H   UNL     1      26.355  17.811  14.568  1.00  0.00     0.211 HD
ENDBRANCH  55  56
BRANCH  55  58
ATOM     58  C   UNL     1      28.919  18.083  13.688  1.00  0.00     0.154 C 
BRANCH  58  59
ATOM     59  N   UNL     1      29.276  18.230  15.061  1.00  0.00    -0.319 N 
ATOM     60  C   UNL     1      30.296  19.095  15.534  1.00  0.00     0.407 C 
ATOM     61  H   UNL     1      28.758  17.667  15.790  1.00  0.00     0.167 HD
ATOM     62  O   UNL     1      30.929  19.772  14.687  1.00  0.00    -0.225 OA
BRANCH  60  63
ATOM     63  O   UNL     1      30.629  19.227  16.861  1.00  0.00    -0.443 OA
BRANCH  63  64
ATOM     64  C   UNL     1      29.708  19.703  17.841  1.00  0.00     0.294 C 
BRANCH  64  65
ATOM     65  C   UNL     1      28.659  20.536  17.235  1.00  0.00     0.120 A 
ATOM     66  C   UNL     1      28.674  21.911  17.236  1.00  0.00     0.138 A 
ATOM     67  N   UNL     1      27.541  20.182  16.591  1.00  0.00    -0.132 NA
ATOM     68  N   UNL     1      27.585  22.355  16.606  1.00  0.00    -0.248 N 
ATOM     69  N   UNL     1      26.906  21.258  16.219  1.00  0.00    -0.067 NA
BRANCH  68  70
ATOM     70  C   UNL     1      27.137  23.711  16.352  1.00  0.00     0.185 C 
BRANCH  70  71
ATOM     71  C   UNL     1      25.894  24.017  17.068  1.00  0.00     0.016 A 
ATOM     72  C   UNL     1      24.681  23.927  16.478  1.00  0.00     0.135 A 
ATOM     73  C   UNL     1      26.015  24.398  18.408  1.00  0.00     0.009 A 
ATOM     74  C   UNL     1      23.542  24.220  17.229  1.00  0.00     0.047 A 
ATOM     75  C   UNL     1      24.889  24.685  19.136  1.00  0.00     0.001 A 
ATOM     76  C   UNL     1      23.645  24.598  18.554  1.00  0.00     0.004 A 
BRANCH  72  77
ATOM     77  O   UNL     1      24.511  23.558  15.159  1.00  0.00    -0.426 OA
BRANCH  77  78
ATOM     78  C   UNL     1      24.041  24.525  14.265  1.00  0.00     0.308 C 
ATOM     79  O   UNL     1      22.864  24.440  13.852  1.00  0.00    -0.252 OA
ATOM     80  C   UNL     1      24.925  25.611  13.832  1.00  0.00     0.139 C 
ENDBRANCH  77  78
ENDBRANCH  72  77
ENDBRANCH  70  71
ENDBRANCH  68  70
ENDBRANCH  64  65
ENDBRANCH  63  64
ENDBRANCH  60  63
ENDBRANCH  58  59
ENDBRANCH  55  58
ENDBRANCH   1  55
TORSDOF 33
