REMARK VINA RESULT:    -6.863      1.423      2.184
REMARK INTER + INTRA:         -22.116
REMARK INTER:                 -15.472
REMARK INTRA:                  -6.643
REMARK UNBOUND:                -4.822
REMARK SMILES CC(=O)N[C@@H]1[C@@H](O)C[C@](OC[C@H]2O[C@@H](O[C@H]3[C@H](O)[C@@H](O)[C@H](OCCN=[N+]=[N-])O[C@@H]3CO)[C@H](O)[C@@H](O)[C@H]2O)(C(=O)O)O[C@H]1C(O)[C@H](O)CNC(=O)OCc1cn(Cc2ccccc2Br)nn1
REMARK SMILES IDX 9 1 8 2 6 3 5 4 42 5 41 6 10 7 11 8 12 9 14 10 13 11 32 12
REMARK SMILES IDX 34 13 36 14 15 15 16 16 29 17 28 18 21 19 17 20 19 21 30 22
REMARK SMILES IDX 31 23 22 25 23 26 24 27 25 28 26 29 27 30 18 31 20 33 33 35
REMARK SMILES IDX 35 37 37 39 38 41 39 42 40 43 7 45 43 47 44 48 45 50 46 51
REMARK SMILES IDX 47 53 48 54 49 55 50 57 51 58 52 59 53 60 54 61 65 62 55 63
REMARK SMILES IDX 64 64 56 65 57 66 58 67 62 68 59 69 61 70 63 71 60 72 4 73
REMARK SMILES IDX 2 74 1 76 3 77
REMARK H PARENT 31 24 18 32 20 34 33 36 35 38 37 40 40 44 7 46 44 49 46 52
REMARK H PARENT 48 56 4 75
REMARK Flexibility Score: inf
ROOT
ATOM      1  C   UNL     1      21.733  22.287  12.403  1.00  0.00     0.272 C 
ATOM      2  C   UNL     1      20.313  21.902  12.539  1.00  0.00     0.113 C 
ATOM      3  C   UNL     1      19.907  20.928  11.491  1.00  0.00     0.145 C 
ATOM      4  C   UNL     1      20.801  19.723  11.559  1.00  0.00     0.142 C 
ATOM      5  C   UNL     1      22.201  20.024  11.932  1.00  0.00     0.178 C 
ATOM      6  O   UNL     1      22.442  21.050  12.777  1.00  0.00    -0.332 OA
ENDROOT
BRANCH   1   7
ATOM      7  O   UNL     1      22.184  23.189  13.294  1.00  0.00    -0.338 OA
BRANCH   7   8
ATOM      8  C   UNL     1      23.298  23.847  13.341  1.00  0.00     0.199 C 
BRANCH   8   9
ATOM      9  C   UNL     1      24.472  23.673  14.199  1.00  0.00     0.179 C 
ATOM     10  C   UNL     1      25.523  23.917  16.223  1.00  0.00     0.282 C 
ATOM     11  O   UNL     1      24.274  23.733  15.582  1.00  0.00    -0.341 OA
ATOM     12  C   UNL     1      26.194  22.571  16.226  1.00  0.00     0.202 C 
ATOM     13  C   UNL     1      26.199  21.958  14.869  1.00  0.00     0.179 C 
ATOM     14  C   UNL     1      25.554  22.752  13.768  1.00  0.00     0.177 C 
BRANCH  10  15
ATOM     15  O   UNL     1      25.253  24.393  17.470  1.00  0.00    -0.341 OA
BRANCH  15  16
ATOM     16  C   UNL     1      23.965  24.716  17.772  1.00  0.00     0.184 C 
ATOM     17  C   UNL     1      23.580  26.141  17.586  1.00  0.00     0.178 C 
ATOM     18  O   UNL     1      22.936  26.575  18.742  1.00  0.00    -0.341 OA
ATOM     19  C   UNL     1      23.913  26.530  19.769  1.00  0.00     0.281 C 
ATOM     20  C   UNL     1      23.531  24.222  19.144  1.00  0.00     0.180 C 
ATOM     21  C   UNL     1      24.082  25.110  20.241  1.00  0.00     0.202 C 
BRANCH  17  22
ATOM     22  C   UNL     1      22.583  26.328  16.445  1.00  0.00     0.191 C 
BRANCH  22  23
ATOM     23  O   UNL     1      21.828  25.169  16.260  1.00  0.00    -0.394 OA
ATOM     24  H   UNL     1      20.860  25.348  16.243  1.00  0.00     0.210 HD
ENDBRANCH  22  23
ENDBRANCH  17  22
BRANCH  19  25
ATOM     25  O   UNL     1      23.457  27.391  20.762  1.00  0.00    -0.350 OA
BRANCH  25  26
ATOM     26  C   UNL     1      22.890  26.695  21.830  1.00  0.00     0.169 C 
BRANCH  26  27
ATOM     27  C   UNL     1      21.380  26.778  21.688  1.00  0.00     0.119 C 
BRANCH  27  28
ATOM     28  N   UNL     1      20.818  25.537  22.159  1.00  0.00    -0.092 NA
ATOM     29  N   UNL     1      21.101  25.077  23.270  1.00  0.00     0.001 N 
ATOM     30  N   UNL     1      21.773  24.525  24.165  1.00  0.00    -0.003 NA
ENDBRANCH  27  28
ENDBRANCH  26  27
ENDBRANCH  25  26
ENDBRANCH  19  25
BRANCH  20  31
ATOM     31  O   UNL     1      22.141  24.266  19.269  1.00  0.00    -0.387 OA
ATOM     32  H   UNL     1      21.933  25.092  19.789  1.00  0.00     0.211 HD
ENDBRANCH  20  31
BRANCH  21  33
ATOM     33  O   UNL     1      25.362  24.786  20.608  1.00  0.00    -0.385 OA
ATOM     34  H   UNL     1      25.799  25.572  21.014  1.00  0.00     0.211 HD
ENDBRANCH  21  33
ENDBRANCH  15  16
ENDBRANCH  10  15
BRANCH  12  35
ATOM     35  O   UNL     1      27.538  22.674  16.618  1.00  0.00    -0.385 OA
ATOM     36  H   UNL     1      27.549  23.200  17.450  1.00  0.00     0.211 HD
ENDBRANCH  12  35
BRANCH  13  37
ATOM     37  O   UNL     1      25.564  20.710  14.932  1.00  0.00    -0.387 OA
ATOM     38  H   UNL     1      24.996  20.542  14.153  1.00  0.00     0.211 HD
ENDBRANCH  13  37
BRANCH  14  39
ATOM     39  O   UNL     1      25.142  21.839  12.809  1.00  0.00    -0.387 OA
ATOM     40  H   UNL     1      25.576  20.974  12.825  1.00  0.00     0.211 HD
ENDBRANCH  14  39
ENDBRANCH   8   9
ENDBRANCH   7   8
ENDBRANCH   1   7
BRANCH   1  41
ATOM     41  C   UNL     1      22.266  22.490  11.040  1.00  0.00     0.364 C 
ATOM     42  O   UNL     1      21.737  23.162  10.126  1.00  0.00    -0.246 OA
BRANCH  41  43
ATOM     43  O   UNL     1      23.466  21.886  10.702  1.00  0.00    -0.477 OA
ATOM     44  H   UNL     1      23.635  20.893  10.868  1.00  0.00     0.296 HD
ENDBRANCH  41  43
ENDBRANCH   1  41
BRANCH   3  45
ATOM     45  O   UNL     1      18.584  20.515  11.857  1.00  0.00    -0.391 OA
ATOM     46  H   UNL     1      18.082  20.230  11.068  1.00  0.00     0.211 HD
ENDBRANCH   3  45
BRANCH   5  47
ATOM     47  C   UNL     1      22.837  18.783  12.565  1.00  0.00     0.176 C 
BRANCH  47  48
ATOM     48  O   UNL     1      23.235  19.133  13.847  1.00  0.00    -0.388 OA
ATOM     49  H   UNL     1      24.132  19.507  13.890  1.00  0.00     0.211 HD
ENDBRANCH  47  48
BRANCH  47  50
ATOM     50  C   UNL     1      24.011  18.283  11.800  1.00  0.00     0.165 C 
BRANCH  50  51
ATOM     51  O   UNL     1      23.633  17.395  10.777  1.00  0.00    -0.388 OA
ATOM     52  H   UNL     1      22.651  17.417  10.651  1.00  0.00     0.211 HD
ENDBRANCH  50  51
BRANCH  50  53
ATOM     53  C   UNL     1      24.933  17.497  12.696  1.00  0.00     0.154 C 
BRANCH  53  54
ATOM     54  N   UNL     1      25.894  18.348  13.302  1.00  0.00    -0.319 N 
ATOM     55  C   UNL     1      27.175  18.605  12.771  1.00  0.00     0.407 C 
ATOM     56  H   UNL     1      25.624  18.819  14.216  1.00  0.00     0.167 HD
ATOM     57  O   UNL     1      27.555  18.082  11.694  1.00  0.00    -0.225 OA
BRANCH  55  58
ATOM     58  O   UNL     1      28.077  19.456  13.423  1.00  0.00    -0.443 OA
BRANCH  58  59
ATOM     59  C   UNL     1      29.093  18.959  14.253  1.00  0.00     0.294 C 
BRANCH  59  60
ATOM     60  C   UNL     1      28.970  19.359  15.673  1.00  0.00     0.120 A 
ATOM     61  C   UNL     1      30.059  19.731  16.477  1.00  0.00     0.138 A 
ATOM     62  N   UNL     1      27.895  19.453  16.460  1.00  0.00    -0.132 NA
ATOM     63  N   UNL     1      29.596  20.025  17.686  1.00  0.00    -0.248 N 
ATOM     64  N   UNL     1      28.271  19.850  17.657  1.00  0.00    -0.067 NA
BRANCH  63  65
ATOM     65  C   UNL     1      30.324  20.478  18.872  1.00  0.00     0.182 C 
BRANCH  65  66
ATOM     66  C   UNL     1      29.472  21.181  19.854  1.00  0.00    -0.012 A 
ATOM     67  C   UNL     1      29.315  22.567  19.689  1.00  0.00     0.007 A 
ATOM     68  C   UNL     1      28.857  20.578  20.917  1.00  0.00     0.023 A 
ATOM     69  C   UNL     1      28.563  23.259  20.588  1.00  0.00     0.000 A 
ATOM     70  C   UNL     1      28.095  21.296  21.824  1.00  0.00     0.016 A 
ATOM     71  Br  UNL     1      28.979  18.698  21.163  1.00  0.00    -0.050 Br
ATOM     72  C   UNL     1      27.953  22.647  21.649  1.00  0.00     0.001 A 
ENDBRANCH  65  66
ENDBRANCH  63  65
ENDBRANCH  59  60
ENDBRANCH  58  59
ENDBRANCH  55  58
ENDBRANCH  53  54
ENDBRANCH  50  53
ENDBRANCH  47  50
ENDBRANCH   5  47
BRANCH   4  73
ATOM     73  N   UNL     1      20.758  19.037  10.293  1.00  0.00    -0.348 N 
ATOM     74  C   UNL     1      19.788  18.040   9.973  1.00  0.00     0.217 C 
ATOM     75  H   UNL     1      21.446  19.234   9.536  1.00  0.00     0.163 HD
ATOM     76  C   UNL     1      19.803  17.366   8.637  1.00  0.00     0.114 C 
ATOM     77  O   UNL     1      18.939  17.754  10.828  1.00  0.00    -0.275 OA
ENDBRANCH   4  73
TORSDOF 31
