REMARK VINA RESULT:    -4.855      2.889      5.862
REMARK INTER + INTRA:         -21.702
REMARK INTER:                 -14.749
REMARK INTRA:                  -6.953
REMARK UNBOUND:                -8.334
REMARK SMILES CC[N+](C)(CC)CCCn1cc(COC(=O)NC[C@@H](O)C(O)[C@@H]2O[C@@](OC[C@H]3O[C@@H](O[C@H]4[C@H](O)[C@@H](O)[C@H](OCCN=[N+]=[N-])O[C@@H]4CO)[C@H](O)[C@@H](O)[C@H]3O)(C(=O)O)C[C@H](O)[C@H]2NC(C)=O)nn1
REMARK SMILES IDX 21 1 23 2 25 3 57 4 24 5 58 6 60 7 26 8 27 9 28 10 30 11
REMARK SMILES IDX 29 12 48 13 50 14 52 15 31 16 32 17 45 18 44 19 37 20 33 21
REMARK SMILES IDX 35 22 46 23 47 24 38 26 39 27 40 28 41 29 42 30 43 31 34 32
REMARK SMILES IDX 36 34 49 36 51 38 53 40 54 42 55 43 56 44 59 46 61 48 62 49
REMARK SMILES IDX 63 51 64 52 22 53 19 55 20 56 18 58 17 59 15 60 16 62 14 63
REMARK SMILES IDX 13 64 12 65 11 66 65 67 10 68 66 69 9 70 8 71 7 72 3 73 4 74
REMARK SMILES IDX 2 75 1 76 5 77 6 78
REMARK H PARENT 47 25 34 33 36 35 49 37 51 39 53 41 56 45 59 47 61 50 22 54
REMARK H PARENT 20 57 17 61
REMARK Flexibility Score: inf
ROOT
ATOM      1  C   UNL     1      13.988  31.513  19.641  1.00  0.00     0.176 C 
ENDROOT
BRANCH   1   2
ATOM      2  C   UNL     1      14.766  30.440  18.885  1.00  0.00     0.178 C 
ATOM      3  C   UNL     1      16.823  29.292  19.004  1.00  0.00     0.272 C 
ATOM      4  C   UNL     1      16.715  29.280  17.516  1.00  0.00     0.113 C 
ATOM      5  O   UNL     1      16.027  30.389  19.436  1.00  0.00    -0.332 OA
ATOM      6  C   UNL     1      16.218  30.588  16.960  1.00  0.00     0.145 C 
ATOM      7  C   UNL     1      14.778  30.778  17.429  1.00  0.00     0.142 C 
BRANCH   3   8
ATOM      8  O   UNL     1      18.077  29.619  19.476  1.00  0.00    -0.338 OA
BRANCH   8   9
ATOM      9  C   UNL     1      19.101  28.761  19.339  1.00  0.00     0.199 C 
BRANCH   9  10
ATOM     10  C   UNL     1      20.462  29.483  19.518  1.00  0.00     0.179 C 
ATOM     11  C   UNL     1      21.966  27.670  19.627  1.00  0.00     0.282 C 
ATOM     12  O   UNL     1      21.355  28.769  20.216  1.00  0.00    -0.341 OA
ATOM     13  C   UNL     1      22.167  27.803  18.165  1.00  0.00     0.202 C 
ATOM     14  C   UNL     1      22.351  29.317  17.925  1.00  0.00     0.179 C 
ATOM     15  C   UNL     1      20.971  29.898  18.138  1.00  0.00     0.177 C 
BRANCH  11  16
ATOM     16  O   UNL     1      21.360  26.483  20.063  1.00  0.00    -0.341 OA
BRANCH  16  17
ATOM     17  C   UNL     1      22.114  25.810  20.979  1.00  0.00     0.184 C 
ATOM     18  C   UNL     1      22.581  24.449  20.696  1.00  0.00     0.178 C 
ATOM     19  O   UNL     1      23.543  24.089  21.622  1.00  0.00    -0.341 OA
ATOM     20  C   UNL     1      23.613  24.743  22.799  1.00  0.00     0.281 C 
ATOM     21  C   UNL     1      21.360  25.713  22.326  1.00  0.00     0.180 C 
ATOM     22  C   UNL     1      22.323  25.254  23.389  1.00  0.00     0.202 C 
BRANCH  18  23
ATOM     23  C   UNL     1      23.163  24.209  19.317  1.00  0.00     0.191 C 
BRANCH  23  24
ATOM     24  O   UNL     1      22.214  24.236  18.304  1.00  0.00    -0.394 OA
ATOM     25  H   UNL     1      21.805  25.161  18.331  1.00  0.00     0.210 HD
ENDBRANCH  23  24
ENDBRANCH  18  23
BRANCH  20  26
ATOM     26  O   UNL     1      24.605  25.707  22.781  1.00  0.00    -0.350 OA
BRANCH  26  27
ATOM     27  C   UNL     1      24.687  26.500  23.877  1.00  0.00     0.169 C 
BRANCH  27  28
ATOM     28  C   UNL     1      24.919  27.963  23.559  1.00  0.00     0.119 C 
BRANCH  28  29
ATOM     29  N   UNL     1      23.701  28.537  23.012  1.00  0.00    -0.092 NA
ATOM     30  N   UNL     1      23.679  29.597  22.391  1.00  0.00     0.001 N 
ATOM     31  N   UNL     1      23.639  30.646  21.744  1.00  0.00    -0.003 NA
ENDBRANCH  28  29
ENDBRANCH  27  28
ENDBRANCH  26  27
ENDBRANCH  20  26
BRANCH  21  32
ATOM     32  O   UNL     1      20.780  26.940  22.545  1.00  0.00    -0.387 OA
ATOM     33  H   UNL     1      19.825  26.991  22.384  1.00  0.00     0.211 HD
ENDBRANCH  21  32
BRANCH  22  34
ATOM     34  O   UNL     1      21.688  24.322  24.194  1.00  0.00    -0.385 OA
ATOM     35  H   UNL     1      21.275  24.709  25.010  1.00  0.00     0.211 HD
ENDBRANCH  22  34
ENDBRANCH  16  17
ENDBRANCH  11  16
BRANCH  13  36
ATOM     36  O   UNL     1      23.347  27.200  17.699  1.00  0.00    -0.385 OA
ATOM     37  H   UNL     1      24.078  27.832  17.869  1.00  0.00     0.211 HD
ENDBRANCH  13  36
BRANCH  14  38
ATOM     38  O   UNL     1      22.775  29.530  16.613  1.00  0.00    -0.387 OA
ATOM     39  H   UNL     1      23.031  30.473  16.547  1.00  0.00     0.211 HD
ENDBRANCH  14  38
BRANCH  15  40
ATOM     40  O   UNL     1      20.146  29.280  17.201  1.00  0.00    -0.387 OA
ATOM     41  H   UNL     1      20.326  28.341  17.042  1.00  0.00     0.211 HD
ENDBRANCH  15  40
ENDBRANCH   9  10
ENDBRANCH   8   9
ENDBRANCH   3   8
BRANCH   3  42
ATOM     42  C   UNL     1      16.351  28.064  19.666  1.00  0.00     0.364 C 
ATOM     43  O   UNL     1      15.956  28.064  20.854  1.00  0.00    -0.246 OA
BRANCH  42  44
ATOM     44  O   UNL     1      16.328  26.864  18.998  1.00  0.00    -0.477 OA
ATOM     45  H   UNL     1      16.247  25.963  19.466  1.00  0.00     0.296 HD
ENDBRANCH  42  44
ENDBRANCH   3  42
BRANCH   6  46
ATOM     46  O   UNL     1      16.972  31.671  17.347  1.00  0.00    -0.391 OA
ATOM     47  H   UNL     1      17.907  31.405  17.605  1.00  0.00     0.211 HD
ENDBRANCH   6  46
BRANCH   7  48
ATOM     48  N   UNL     1      14.013  29.752  16.700  1.00  0.00    -0.348 N 
ATOM     49  C   UNL     1      12.679  29.990  16.267  1.00  0.00     0.217 C 
ATOM     50  H   UNL     1      14.395  28.813  16.469  1.00  0.00     0.163 HD
ATOM     51  C   UNL     1      11.873  28.988  15.527  1.00  0.00     0.114 C 
ATOM     52  O   UNL     1      12.167  31.095  16.519  1.00  0.00    -0.275 OA
ENDBRANCH   7  48
ENDBRANCH   1   2
BRANCH   1  53
ATOM     53  O   UNL     1      13.630  32.546  18.709  1.00  0.00    -0.388 OA
ATOM     54  H   UNL     1      14.112  33.363  19.005  1.00  0.00     0.211 HD
ENDBRANCH   1  53
BRANCH   1  55
ATOM     55  C   UNL     1      14.842  32.164  20.679  1.00  0.00     0.165 C 
BRANCH  55  56
ATOM     56  O   UNL     1      16.023  32.559  19.923  1.00  0.00    -0.388 OA
ATOM     57  H   UNL     1      16.708  32.858  20.597  1.00  0.00     0.211 HD
ENDBRANCH  55  56
BRANCH  55  58
ATOM     58  C   UNL     1      15.306  31.331  21.816  1.00  0.00     0.154 C 
BRANCH  58  59
ATOM     59  N   UNL     1      16.638  30.966  21.991  1.00  0.00    -0.319 N 
ATOM     60  C   UNL     1      17.193  30.095  22.958  1.00  0.00     0.407 C 
ATOM     61  H   UNL     1      17.371  31.405  21.296  1.00  0.00     0.167 HD
ATOM     62  O   UNL     1      16.525  29.510  23.824  1.00  0.00    -0.225 OA
BRANCH  60  63
ATOM     63  O   UNL     1      18.591  29.863  22.976  1.00  0.00    -0.443 OA
BRANCH  63  64
ATOM     64  C   UNL     1      19.380  30.733  23.809  1.00  0.00     0.294 C 
BRANCH  64  65
ATOM     65  C   UNL     1      20.239  29.765  24.587  1.00  0.00     0.120 A 
ATOM     66  C   UNL     1      21.392  30.057  25.277  1.00  0.00     0.138 A 
ATOM     67  N   UNL     1      20.035  28.461  24.804  1.00  0.00    -0.132 NA
ATOM     68  N   UNL     1      21.843  28.916  25.890  1.00  0.00    -0.252 N 
ATOM     69  N   UNL     1      20.983  27.966  25.572  1.00  0.00    -0.067 NA
BRANCH  68  70
ATOM     70  C   UNL     1      23.008  28.821  26.752  1.00  0.00     0.152 C 
BRANCH  70  71
ATOM     71  C   UNL     1      22.952  27.672  27.663  1.00  0.00     0.085 C 
BRANCH  71  72
ATOM     72  C   UNL     1      24.120  27.305  28.481  1.00  0.00     0.265 C 
BRANCH  72  73
ATOM     73  N   UNL     1      24.437  25.927  28.653  1.00  0.00    -0.326 N 
ATOM     74  C   UNL     1      23.810  25.139  27.626  1.00  0.00     0.334 C 
BRANCH  73  75
ATOM     75  C   UNL     1      24.173  25.384  29.955  1.00  0.00     0.260 C 
ATOM     76  C   UNL     1      25.389  25.376  30.850  1.00  0.00     0.071 C 
ENDBRANCH  73  75
BRANCH  73  77
ATOM     77  C   UNL     1      25.883  25.811  28.399  1.00  0.00     0.260 C 
ATOM     78  C   UNL     1      26.433  26.886  27.529  1.00  0.00     0.071 C 
ENDBRANCH  73  77
ENDBRANCH  72  73
ENDBRANCH  71  72
ENDBRANCH  70  71
ENDBRANCH  68  70
ENDBRANCH  64  65
ENDBRANCH  63  64
ENDBRANCH  60  63
ENDBRANCH  58  59
ENDBRANCH  55  58
ENDBRANCH   1  55
TORSDOF 35
