REMARK VINA RESULT:    -6.941      5.749     10.287
REMARK INTER + INTRA:         -23.764
REMARK INTER:                 -17.859
REMARK INTRA:                  -5.905
REMARK UNBOUND:                -5.463
REMARK SMILES CC(=O)N[C@@H]1[C@@H](O)C[C@](OC[C@H]2O[C@@H](O[C@H]3[C@H](O)[C@@H](O)[C@H](OCCN=[N+]=[N-])O[C@@H]3CO)[C@H](O)[C@@H](O)[C@H]2O)(C(=O)O)O[C@H]1C(O)[C@H](O)CNC(=O)OCc1cn(COCc2ccccc2)nn1
REMARK SMILES IDX 43 1 42 2 9 3 8 4 41 5 6 6 5 7 10 8 11 9 12 10 14 11 13 12
REMARK SMILES IDX 32 13 34 14 36 15 15 16 16 17 29 18 28 19 21 20 17 21 19 22
REMARK SMILES IDX 30 23 31 24 22 26 23 27 24 28 25 29 26 30 27 31 18 32 20 34
REMARK SMILES IDX 33 36 35 38 37 40 38 42 39 43 40 44 7 46 4 48 2 49 1 51 3 52
REMARK SMILES IDX 44 53 45 55 46 56 47 58 48 59 49 60 50 62 51 63 52 64 53 65
REMARK SMILES IDX 54 66 66 67 55 68 65 69 56 70 57 71 58 72 59 73 60 74 64 75
REMARK SMILES IDX 61 76 63 77 62 78
REMARK H PARENT 31 25 18 33 20 35 33 37 35 39 37 41 40 45 7 47 4 50 44 54
REMARK H PARENT 46 57 48 61
REMARK Flexibility Score: inf
ROOT
ATOM      1  C   UNL     1      21.606  28.353  22.641  1.00  0.00     0.176 C 
ENDROOT
BRANCH   1   2
ATOM      2  C   UNL     1      22.316  27.036  23.026  1.00  0.00     0.178 C 
ATOM      3  C   UNL     1      23.316  25.267  21.897  1.00  0.00     0.272 C 
ATOM      4  C   UNL     1      22.681  24.293  22.884  1.00  0.00     0.113 C 
ATOM      5  O   UNL     1      22.471  26.331  21.831  1.00  0.00    -0.332 OA
ATOM      6  C   UNL     1      21.324  24.808  23.303  1.00  0.00     0.145 C 
ATOM      7  C   UNL     1      21.500  26.208  23.967  1.00  0.00     0.142 C 
BRANCH   3   8
ATOM      8  O   UNL     1      23.451  24.648  20.639  1.00  0.00    -0.338 OA
BRANCH   8   9
ATOM      9  C   UNL     1      22.736  25.155  19.622  1.00  0.00     0.199 C 
BRANCH   9  10
ATOM     10  C   UNL     1      23.488  25.008  18.319  1.00  0.00     0.179 C 
ATOM     11  C   UNL     1      23.442  24.308  16.165  1.00  0.00     0.282 C 
ATOM     12  O   UNL     1      22.653  24.449  17.330  1.00  0.00    -0.341 OA
ATOM     13  C   UNL     1      23.654  25.666  15.503  1.00  0.00     0.202 C 
ATOM     14  C   UNL     1      23.304  26.706  16.578  1.00  0.00     0.179 C 
ATOM     15  C   UNL     1      24.069  26.277  17.813  1.00  0.00     0.177 C 
BRANCH  11  16
ATOM     16  O   UNL     1      22.752  23.517  15.287  1.00  0.00    -0.341 OA
BRANCH  16  17
ATOM     17  C   UNL     1      23.536  22.979  14.277  1.00  0.00     0.184 C 
ATOM     18  C   UNL     1      22.859  22.945  12.953  1.00  0.00     0.178 C 
ATOM     19  O   UNL     1      21.894  21.983  12.951  1.00  0.00    -0.341 OA
ATOM     20  C   UNL     1      22.357  20.690  13.017  1.00  0.00     0.281 C 
ATOM     21  C   UNL     1      24.009  21.630  14.694  1.00  0.00     0.180 C 
ATOM     22  C   UNL     1      23.501  20.467  13.927  1.00  0.00     0.202 C 
BRANCH  18  23
ATOM     23  C   UNL     1      23.887  22.794  11.856  1.00  0.00     0.191 C 
BRANCH  23  24
ATOM     24  O   UNL     1      23.320  23.016  10.595  1.00  0.00    -0.394 OA
ATOM     25  H   UNL     1      22.555  23.639  10.684  1.00  0.00     0.210 HD
ENDBRANCH  23  24
ENDBRANCH  18  23
BRANCH  20  26
ATOM     26  O   UNL     1      22.730  20.325  11.719  1.00  0.00    -0.350 OA
BRANCH  26  27
ATOM     27  C   UNL     1      21.908  19.393  11.137  1.00  0.00     0.169 C 
BRANCH  27  28
ATOM     28  C   UNL     1      21.189  20.094   9.998  1.00  0.00     0.119 C 
BRANCH  28  29
ATOM     29  N   UNL     1      19.816  19.658   9.869  1.00  0.00    -0.092 NA
ATOM     30  N   UNL     1      19.102  19.533  10.881  1.00  0.00     0.001 N 
ATOM     31  N   UNL     1      18.641  18.916  11.860  1.00  0.00    -0.003 NA
ENDBRANCH  28  29
ENDBRANCH  27  28
ENDBRANCH  26  27
ENDBRANCH  20  26
BRANCH  21  32
ATOM     32  O   UNL     1      25.429  21.576  14.618  1.00  0.00    -0.387 OA
ATOM     33  H   UNL     1      25.831  21.348  15.470  1.00  0.00     0.211 HD
ENDBRANCH  21  32
BRANCH  22  34
ATOM     34  O   UNL     1      23.084  19.483  14.862  1.00  0.00    -0.385 OA
ATOM     35  H   UNL     1      22.247  19.834  15.264  1.00  0.00     0.211 HD
ENDBRANCH  22  34
ENDBRANCH  16  17
ENDBRANCH  11  16
BRANCH  13  36
ATOM     36  O   UNL     1      24.995  25.889  15.190  1.00  0.00    -0.385 OA
ATOM     37  H   UNL     1      25.217  25.306  14.422  1.00  0.00     0.211 HD
ENDBRANCH  13  36
BRANCH  14  38
ATOM     38  O   UNL     1      21.947  26.536  16.819  1.00  0.00    -0.387 OA
ATOM     39  H   UNL     1      21.735  26.319  17.762  1.00  0.00     0.211 HD
ENDBRANCH  14  38
BRANCH  15  40
ATOM     40  O   UNL     1      24.144  27.285  18.761  1.00  0.00    -0.387 OA
ATOM     41  H   UNL     1      24.974  27.824  18.697  1.00  0.00     0.211 HD
ENDBRANCH  15  40
ENDBRANCH   9  10
ENDBRANCH   8   9
ENDBRANCH   3   8
BRANCH   3  42
ATOM     42  C   UNL     1      24.669  25.669  22.281  1.00  0.00     0.364 C 
ATOM     43  O   UNL     1      25.327  25.284  23.283  1.00  0.00    -0.246 OA
BRANCH  42  44
ATOM     44  O   UNL     1      25.361  26.593  21.462  1.00  0.00    -0.477 OA
ATOM     45  H   UNL     1      25.351  27.589  21.682  1.00  0.00     0.296 HD
ENDBRANCH  42  44
ENDBRANCH   3  42
BRANCH   6  46
ATOM     46  O   UNL     1      20.387  24.942  22.340  1.00  0.00    -0.391 OA
ATOM     47  H   UNL     1      19.447  24.871  22.693  1.00  0.00     0.211 HD
ENDBRANCH   6  46
BRANCH   7  48
ATOM     48  N   UNL     1      22.185  25.918  25.203  1.00  0.00    -0.348 N 
ATOM     49  C   UNL     1      21.733  26.530  26.391  1.00  0.00     0.217 C 
ATOM     50  H   UNL     1      22.987  25.284  25.222  1.00  0.00     0.163 HD
ATOM     51  C   UNL     1      22.414  26.237  27.680  1.00  0.00     0.114 C 
ATOM     52  O   UNL     1      20.744  27.329  26.378  1.00  0.00    -0.275 OA
ENDBRANCH   7  48
ENDBRANCH   1   2
BRANCH   1  53
ATOM     53  O   UNL     1      20.551  28.514  23.618  1.00  0.00    -0.388 OA
ATOM     54  H   UNL     1      20.822  29.307  24.169  1.00  0.00     0.211 HD
ENDBRANCH   1  53
BRANCH   1  55
ATOM     55  C   UNL     1      20.929  28.340  21.316  1.00  0.00     0.165 C 
BRANCH  55  56
ATOM     56  O   UNL     1      20.079  27.305  21.050  1.00  0.00    -0.388 OA
ATOM     57  H   UNL     1      20.220  26.500  21.596  1.00  0.00     0.211 HD
ENDBRANCH  55  56
BRANCH  55  58
ATOM     58  C   UNL     1      21.655  28.800  20.111  1.00  0.00     0.154 C 
BRANCH  58  59
ATOM     59  N   UNL     1      21.123  28.444  18.826  1.00  0.00    -0.319 N 
ATOM     60  C   UNL     1      20.620  29.372  17.877  1.00  0.00     0.407 C 
ATOM     61  H   UNL     1      21.100  27.443  18.531  1.00  0.00     0.167 HD
ATOM     62  O   UNL     1      20.630  30.583  18.126  1.00  0.00    -0.225 OA
BRANCH  60  63
ATOM     63  O   UNL     1      20.096  29.006  16.632  1.00  0.00    -0.443 OA
BRANCH  63  64
ATOM     64  C   UNL     1      18.723  29.269  16.335  1.00  0.00     0.294 C 
BRANCH  64  65
ATOM     65  C   UNL     1      17.806  28.699  17.347  1.00  0.00     0.120 A 
ATOM     66  C   UNL     1      16.603  29.275  17.700  1.00  0.00     0.141 A 
ATOM     67  N   UNL     1      17.928  27.595  18.094  1.00  0.00    -0.132 NA
ATOM     68  N   UNL     1      16.037  28.496  18.654  1.00  0.00    -0.226 N 
ATOM     69  N   UNL     1      16.867  27.486  18.869  1.00  0.00    -0.065 NA
BRANCH  68  70
ATOM     70  C   UNL     1      14.773  28.685  19.331  1.00  0.00     0.307 C 
BRANCH  70  71
ATOM     71  O   UNL     1      14.831  29.685  20.264  1.00  0.00    -0.355 OA
BRANCH  71  72
ATOM     72  C   UNL     1      15.295  29.182  21.469  1.00  0.00     0.198 C 
BRANCH  72  73
ATOM     73  C   UNL     1      14.273  29.465  22.538  1.00  0.00    -0.022 A 
ATOM     74  C   UNL     1      14.721  29.620  23.834  1.00  0.00     0.006 A 
ATOM     75  C   UNL     1      12.940  29.562  22.229  1.00  0.00     0.006 A 
ATOM     76  C   UNL     1      13.816  29.878  24.841  1.00  0.00     0.000 A 
ATOM     77  C   UNL     1      12.063  29.818  23.241  1.00  0.00     0.000 A 
ATOM     78  C   UNL     1      12.471  29.981  24.556  1.00  0.00     0.000 A 
ENDBRANCH  72  73
ENDBRANCH  71  72
ENDBRANCH  70  71
ENDBRANCH  68  70
ENDBRANCH  64  65
ENDBRANCH  63  64
ENDBRANCH  60  63
ENDBRANCH  58  59
ENDBRANCH  55  58
ENDBRANCH   1  55
TORSDOF 33
