REMARK VINA RESULT:    -5.171     13.580     17.924
REMARK INTER + INTRA:         -20.547
REMARK INTER:                 -11.493
REMARK INTRA:                  -9.054
REMARK UNBOUND:                -7.364
REMARK SMILES CC(=O)N[C@@H]1[C@@H](O)C[C@](OC[C@H]2O[C@@H](O[C@H]3[C@H](O)[C@@H](O)[C@H](OCCN=[N+]=[N-])O[C@@H]3CO)[C@H](O)[C@@H](O)[C@H]2O)(C(=O)O)O[C@H]1C(O)[C@H](O)CNC(=O)OCc1cn([C@@H](C)C(=O)O)nn1
REMARK SMILES IDX 9 1 8 2 6 3 5 4 42 5 41 6 10 7 11 8 12 9 14 10 13 11 32 12
REMARK SMILES IDX 34 13 36 14 15 15 16 16 29 17 28 18 21 19 17 20 19 21 30 22
REMARK SMILES IDX 31 23 22 25 23 26 24 27 25 28 26 29 27 30 18 31 20 33 33 35
REMARK SMILES IDX 35 37 37 39 38 41 39 42 40 43 7 45 43 47 44 48 45 50 46 51
REMARK SMILES IDX 47 53 48 54 49 55 50 57 51 58 52 59 53 60 54 61 62 62 55 63
REMARK SMILES IDX 61 64 56 65 57 66 58 67 59 68 60 69 4 71 2 72 1 74 3 75
REMARK H PARENT 31 24 18 32 20 34 33 36 35 38 37 40 40 44 7 46 44 49 46 52
REMARK H PARENT 48 56 60 70 4 73
REMARK Flexibility Score: inf
ROOT
ATOM      1  C   UNL     1      15.714  30.186  20.778  1.00  0.00     0.272 C 
ATOM      2  C   UNL     1      14.880  31.169  20.054  1.00  0.00     0.113 C 
ATOM      3  C   UNL     1      14.658  32.337  20.987  1.00  0.00     0.145 C 
ATOM      4  C   UNL     1      13.642  31.752  22.032  1.00  0.00     0.142 C 
ATOM      5  C   UNL     1      14.028  30.407  22.424  1.00  0.00     0.178 C 
ATOM      6  O   UNL     1      15.284  29.975  22.092  1.00  0.00    -0.332 OA
ENDROOT
BRANCH   1   7
ATOM      7  O   UNL     1      17.041  30.488  20.741  1.00  0.00    -0.338 OA
BRANCH   7   8
ATOM      8  C   UNL     1      17.671  30.561  19.555  1.00  0.00     0.199 C 
BRANCH   8   9
ATOM      9  C   UNL     1      19.145  30.102  19.679  1.00  0.00     0.179 C 
ATOM     10  C   UNL     1      20.622  29.348  21.285  1.00  0.00     0.282 C 
ATOM     11  O   UNL     1      19.302  29.641  20.960  1.00  0.00    -0.341 OA
ATOM     12  C   UNL     1      21.534  29.383  20.094  1.00  0.00     0.202 C 
ATOM     13  C   UNL     1      20.919  28.642  18.922  1.00  0.00     0.179 C 
ATOM     14  C   UNL     1      19.475  29.048  18.679  1.00  0.00     0.177 C 
BRANCH  10  15
ATOM     15  O   UNL     1      20.768  28.086  21.878  1.00  0.00    -0.341 OA
BRANCH  15  16
ATOM     16  C   UNL     1      21.980  27.967  22.542  1.00  0.00     0.184 C 
ATOM     17  C   UNL     1      22.185  26.556  22.993  1.00  0.00     0.178 C 
ATOM     18  O   UNL     1      22.110  26.426  24.380  1.00  0.00    -0.341 OA
ATOM     19  C   UNL     1      20.937  27.002  24.879  1.00  0.00     0.281 C 
ATOM     20  C   UNL     1      21.951  28.904  23.726  1.00  0.00     0.180 C 
ATOM     21  C   UNL     1      20.969  28.501  24.790  1.00  0.00     0.202 C 
BRANCH  17  22
ATOM     22  C   UNL     1      23.523  26.008  22.552  1.00  0.00     0.191 C 
BRANCH  22  23
ATOM     23  O   UNL     1      24.570  26.494  23.332  1.00  0.00    -0.394 OA
ATOM     24  H   UNL     1      24.618  25.992  24.172  1.00  0.00     0.210 HD
ENDBRANCH  22  23
ENDBRANCH  17  22
BRANCH  19  25
ATOM     25  O   UNL     1      20.860  26.635  26.211  1.00  0.00    -0.350 OA
BRANCH  25  26
ATOM     26  C   UNL     1      22.059  26.915  26.832  1.00  0.00     0.169 C 
BRANCH  26  27
ATOM     27  C   UNL     1      22.367  25.877  27.892  1.00  0.00     0.119 C 
BRANCH  27  28
ATOM     28  N   UNL     1      23.752  25.446  27.723  1.00  0.00    -0.092 NA
ATOM     29  N   UNL     1      24.122  24.789  26.749  1.00  0.00     0.001 N 
ATOM     30  N   UNL     1      24.434  24.363  25.652  1.00  0.00    -0.003 NA
ENDBRANCH  27  28
ENDBRANCH  26  27
ENDBRANCH  25  26
ENDBRANCH  19  25
BRANCH  20  31
ATOM     31  O   UNL     1      23.212  29.065  24.298  1.00  0.00    -0.387 OA
ATOM     32  H   UNL     1      23.722  28.230  24.373  1.00  0.00     0.211 HD
ENDBRANCH  20  31
BRANCH  21  33
ATOM     33  O   UNL     1      19.691  28.948  24.459  1.00  0.00    -0.385 OA
ATOM     34  H   UNL     1      19.714  29.563  23.690  1.00  0.00     0.211 HD
ENDBRANCH  21  33
ENDBRANCH  15  16
ENDBRANCH  10  15
BRANCH  12  35
ATOM     35  O   UNL     1      21.992  30.636  19.764  1.00  0.00    -0.385 OA
ATOM     36  H   UNL     1      22.062  31.206  20.592  1.00  0.00     0.211 HD
ENDBRANCH  12  35
BRANCH  13  37
ATOM     37  O   UNL     1      20.953  27.269  19.251  1.00  0.00    -0.387 OA
ATOM     38  H   UNL     1      21.320  27.133  20.164  1.00  0.00     0.211 HD
ENDBRANCH  13  37
BRANCH  14  39
ATOM     39  O   UNL     1      18.623  27.950  18.794  1.00  0.00    -0.387 OA
ATOM     40  H   UNL     1      19.063  27.147  18.410  1.00  0.00     0.211 HD
ENDBRANCH  14  39
ENDBRANCH   8   9
ENDBRANCH   7   8
ENDBRANCH   1   7
BRANCH   1  41
ATOM     41  C   UNL     1      15.496  28.859  20.142  1.00  0.00     0.364 C 
ATOM     42  O   UNL     1      14.604  28.715  19.293  1.00  0.00    -0.246 OA
BRANCH  41  43
ATOM     43  O   UNL     1      16.276  27.762  20.479  1.00  0.00    -0.477 OA
ATOM     44  H   UNL     1      15.903  26.805  20.395  1.00  0.00     0.296 HD
ENDBRANCH  41  43
ENDBRANCH   1  41
BRANCH   3  45
ATOM     45  O   UNL     1      15.830  32.537  21.706  1.00  0.00    -0.391 OA
ATOM     46  H   UNL     1      16.634  32.308  21.211  1.00  0.00     0.211 HD
ENDBRANCH   3  45
BRANCH   5  47
ATOM     47  C   UNL     1      13.811  30.036  23.882  1.00  0.00     0.176 C 
BRANCH  47  48
ATOM     48  O   UNL     1      12.593  30.689  24.292  1.00  0.00    -0.388 OA
ATOM     49  H   UNL     1      12.612  31.614  23.997  1.00  0.00     0.211 HD
ENDBRANCH  47  48
BRANCH  47  50
ATOM     50  C   UNL     1      14.839  30.628  24.826  1.00  0.00     0.165 C 
BRANCH  50  51
ATOM     51  O   UNL     1      16.017  29.955  24.919  1.00  0.00    -0.388 OA
ATOM     52  H   UNL     1      16.710  30.162  24.254  1.00  0.00     0.211 HD
ENDBRANCH  50  51
BRANCH  50  53
ATOM     53  C   UNL     1      14.235  31.076  26.114  1.00  0.00     0.154 C 
BRANCH  53  54
ATOM     54  N   UNL     1      15.007  31.934  26.931  1.00  0.00    -0.319 N 
ATOM     55  C   UNL     1      15.237  31.818  28.327  1.00  0.00     0.407 C 
ATOM     56  H   UNL     1      15.467  32.763  26.442  1.00  0.00     0.167 HD
ATOM     57  O   UNL     1      14.736  30.870  28.945  1.00  0.00    -0.225 OA
BRANCH  55  58
ATOM     58  O   UNL     1      16.026  32.775  28.986  1.00  0.00    -0.443 OA
BRANCH  58  59
ATOM     59  C   UNL     1      17.425  32.667  28.997  1.00  0.00     0.294 C 
BRANCH  59  60
ATOM     60  C   UNL     1      17.994  32.313  27.692  1.00  0.00     0.120 A 
ATOM     61  C   UNL     1      18.490  33.135  26.704  1.00  0.00     0.139 A 
ATOM     62  N   UNL     1      18.116  31.032  27.256  1.00  0.00    -0.132 NA
ATOM     63  N   UNL     1      18.896  32.342  25.711  1.00  0.00    -0.238 N 
ATOM     64  N   UNL     1      18.673  31.075  26.037  1.00  0.00    -0.066 NA
BRANCH  63  65
ATOM     65  C   UNL     1      19.486  32.785  24.464  1.00  0.00     0.215 C 
ATOM     66  C   UNL     1      20.905  32.316  24.381  1.00  0.00     0.046 C 
BRANCH  65  67
ATOM     67  C   UNL     1      18.715  32.292  23.298  1.00  0.00     0.328 C 
ATOM     68  O   UNL     1      18.671  33.003  22.265  1.00  0.00    -0.250 OA
BRANCH  67  69
ATOM     69  O   UNL     1      18.045  31.078  23.310  1.00  0.00    -0.480 OA
ATOM     70  H   UNL     1      17.130  30.977  23.732  1.00  0.00     0.296 HD
ENDBRANCH  67  69
ENDBRANCH  65  67
ENDBRANCH  63  65
ENDBRANCH  59  60
ENDBRANCH  58  59
ENDBRANCH  55  58
ENDBRANCH  53  54
ENDBRANCH  50  53
ENDBRANCH  47  50
ENDBRANCH   5  47
BRANCH   4  71
ATOM     71  N   UNL     1      12.314  31.904  21.469  1.00  0.00    -0.348 N 
ATOM     72  C   UNL     1      11.274  32.684  21.971  1.00  0.00     0.217 C 
ATOM     73  H   UNL     1      12.129  31.356  20.580  1.00  0.00     0.163 HD
ATOM     74  C   UNL     1       9.952  32.755  21.302  1.00  0.00     0.114 C 
ATOM     75  O   UNL     1      11.457  33.341  23.013  1.00  0.00    -0.275 OA
ENDBRANCH   4  71
TORSDOF 32
