REMARK VINA RESULT:    -5.238     21.684     26.575
REMARK INTER + INTRA:         -21.455
REMARK INTER:                 -15.567
REMARK INTRA:                  -5.888
REMARK UNBOUND:                -8.561
REMARK SMILES CC(=O)N[C@@H]1[C@@H](O)C[C@](OC[C@H]2O[C@@H](O[C@H]3[C@H](O)[C@@H](O)[C@H](OCCN=[N+]=[N-])O[C@@H]3CO)[C@H](O)[C@@H](O)[C@H]2O)(C(=O)O)O[C@H]1C(O)[C@H](O)CNC(=O)OCc1cn(-c2cnc3ccccc3c2)nn1
REMARK SMILES IDX 9 1 8 2 6 3 5 4 42 5 41 6 10 7 11 8 12 9 14 10 13 11 32 12
REMARK SMILES IDX 34 13 36 14 15 15 16 16 29 17 28 18 21 19 17 20 19 21 30 22
REMARK SMILES IDX 31 23 22 25 23 26 24 27 25 28 26 29 27 30 18 31 20 33 33 35
REMARK SMILES IDX 35 37 37 39 38 41 39 42 40 43 7 45 43 47 44 48 45 50 46 51
REMARK SMILES IDX 47 53 48 54 49 55 50 57 51 58 52 59 53 60 54 61 67 62 55 63
REMARK SMILES IDX 66 64 56 65 57 66 65 67 58 68 64 69 59 70 63 71 60 72 62 73
REMARK SMILES IDX 61 74 4 75 2 76 1 78 3 79
REMARK H PARENT 31 24 18 32 20 34 33 36 35 38 37 40 40 44 7 46 44 49 46 52
REMARK H PARENT 48 56 4 77
REMARK Flexibility Score: inf
ROOT
ATOM      1  C   UNL     1       8.727  23.833  35.907  1.00  0.00     0.272 C 
ATOM      2  C   UNL     1       9.824  23.016  36.489  1.00  0.00     0.113 C 
ATOM      3  C   UNL     1      11.191  23.619  36.229  1.00  0.00     0.145 C 
ATOM      4  C   UNL     1      11.065  25.088  36.635  1.00  0.00     0.142 C 
ATOM      5  C   UNL     1      10.108  25.722  35.613  1.00  0.00     0.178 C 
ATOM      6  O   UNL     1       8.858  25.188  35.992  1.00  0.00    -0.332 OA
ENDROOT
BRANCH   1   7
ATOM      7  O   UNL     1       7.494  23.549  36.533  1.00  0.00    -0.338 OA
BRANCH   7   8
ATOM      8  C   UNL     1       6.619  24.599  36.561  1.00  0.00     0.199 C 
BRANCH   8   9
ATOM      9  C   UNL     1       5.212  24.055  36.443  1.00  0.00     0.179 C 
ATOM     10  C   UNL     1       3.700  23.029  35.054  1.00  0.00     0.282 C 
ATOM     11  O   UNL     1       5.037  23.197  35.377  1.00  0.00    -0.341 OA
ATOM     12  C   UNL     1       2.790  23.246  36.228  1.00  0.00     0.202 C 
ATOM     13  C   UNL     1       3.391  22.880  37.539  1.00  0.00     0.179 C 
ATOM     14  C   UNL     1       4.671  23.638  37.746  1.00  0.00     0.177 C 
BRANCH  10  15
ATOM     15  O   UNL     1       3.526  21.800  34.457  1.00  0.00    -0.341 OA
BRANCH  15  16
ATOM     16  C   UNL     1       3.397  21.883  33.070  1.00  0.00     0.184 C 
ATOM     17  C   UNL     1       2.041  21.439  32.577  1.00  0.00     0.178 C 
ATOM     18  O   UNL     1       2.048  20.566  31.534  1.00  0.00    -0.341 OA
ATOM     19  C   UNL     1       2.902  20.816  30.495  1.00  0.00     0.281 C 
ATOM     20  C   UNL     1       4.546  21.237  32.349  1.00  0.00     0.180 C 
ATOM     21  C   UNL     1       4.286  21.243  30.876  1.00  0.00     0.202 C 
BRANCH  17  22
ATOM     22  C   UNL     1       1.120  22.644  32.373  1.00  0.00     0.191 C 
BRANCH  22  23
ATOM     23  O   UNL     1       1.692  23.607  31.547  1.00  0.00    -0.394 OA
ATOM     24  H   UNL     1       1.585  23.406  30.596  1.00  0.00     0.210 HD
ENDBRANCH  22  23
ENDBRANCH  17  22
BRANCH  19  25
ATOM     25  O   UNL     1       2.352  21.653  29.521  1.00  0.00    -0.350 OA
BRANCH  25  26
ATOM     26  C   UNL     1       1.502  20.986  28.665  1.00  0.00     0.169 C 
BRANCH  26  27
ATOM     27  C   UNL     1       0.946  21.896  27.595  1.00  0.00     0.119 C 
BRANCH  27  28
ATOM     28  N   UNL     1       0.193  21.140  26.615  1.00  0.00    -0.092 NA
ATOM     29  N   UNL     1       0.474  21.151  25.417  1.00  0.00     0.001 N 
ATOM     30  N   UNL     1       0.980  20.846  24.336  1.00  0.00    -0.003 NA
ENDBRANCH  27  28
ENDBRANCH  26  27
ENDBRANCH  25  26
ENDBRANCH  19  25
BRANCH  20  31
ATOM     31  O   UNL     1       5.698  22.021  32.580  1.00  0.00    -0.387 OA
ATOM     32  H   UNL     1       6.468  21.652  32.070  1.00  0.00     0.211 HD
ENDBRANCH  20  31
BRANCH  21  33
ATOM     33  O   UNL     1       5.277  20.426  30.282  1.00  0.00    -0.385 OA
ATOM     34  H   UNL     1       6.185  20.779  30.520  1.00  0.00     0.211 HD
ENDBRANCH  21  33
ENDBRANCH  15  16
ENDBRANCH  10  15
BRANCH  12  35
ATOM     35  O   UNL     1       2.287  24.541  36.311  1.00  0.00    -0.385 OA
ATOM     36  H   UNL     1       3.000  25.220  36.235  1.00  0.00     0.211 HD
ENDBRANCH  12  35
BRANCH  13  37
ATOM     37  O   UNL     1       3.586  21.500  37.630  1.00  0.00    -0.387 OA
ATOM     38  H   UNL     1       4.510  21.312  37.862  1.00  0.00     0.211 HD
ENDBRANCH  13  37
BRANCH  14  39
ATOM     39  O   UNL     1       5.515  22.818  38.487  1.00  0.00    -0.387 OA
ATOM     40  H   UNL     1       5.072  22.023  38.839  1.00  0.00     0.211 HD
ENDBRANCH  14  39
ENDBRANCH   8   9
ENDBRANCH   7   8
ENDBRANCH   1   7
BRANCH   1  41
ATOM     41  C   UNL     1       8.616  23.498  34.445  1.00  0.00     0.364 C 
ATOM     42  O   UNL     1       9.068  24.295  33.560  1.00  0.00    -0.246 OA
BRANCH  41  43
ATOM     43  O   UNL     1       8.038  22.351  33.954  1.00  0.00    -0.477 OA
ATOM     44  H   UNL     1       8.584  21.522  33.675  1.00  0.00     0.296 HD
ENDBRANCH  41  43
ENDBRANCH   1  41
BRANCH   3  45
ATOM     45  O   UNL     1      12.190  22.979  36.922  1.00  0.00    -0.391 OA
ATOM     46  H   UNL     1      11.898  22.062  37.106  1.00  0.00     0.211 HD
ENDBRANCH   3  45
BRANCH   5  47
ATOM     47  C   UNL     1       9.987  27.206  35.821  1.00  0.00     0.176 C 
BRANCH  47  48
ATOM     48  O   UNL     1       8.875  27.416  36.679  1.00  0.00    -0.388 OA
ATOM     49  H   UNL     1       9.172  27.700  37.580  1.00  0.00     0.211 HD
ENDBRANCH  47  48
BRANCH  47  50
ATOM     50  C   UNL     1       9.680  28.000  34.559  1.00  0.00     0.165 C 
BRANCH  50  51
ATOM     51  O   UNL     1      10.074  29.333  34.935  1.00  0.00    -0.388 OA
ATOM     52  H   UNL     1       9.702  29.496  35.833  1.00  0.00     0.211 HD
ENDBRANCH  50  51
BRANCH  50  53
ATOM     53  C   UNL     1       8.184  28.141  34.377  1.00  0.00     0.154 C 
BRANCH  53  54
ATOM     54  N   UNL     1       7.520  27.067  33.741  1.00  0.00    -0.319 N 
ATOM     55  C   UNL     1       6.153  26.755  33.904  1.00  0.00     0.407 C 
ATOM     56  H   UNL     1       8.106  26.451  33.092  1.00  0.00     0.167 HD
ATOM     57  O   UNL     1       5.460  27.454  34.669  1.00  0.00    -0.225 OA
BRANCH  55  58
ATOM     58  O   UNL     1       5.644  25.683  33.209  1.00  0.00    -0.443 OA
BRANCH  58  59
ATOM     59  C   UNL     1       4.327  25.647  32.728  1.00  0.00     0.294 C 
BRANCH  59  60
ATOM     60  C   UNL     1       4.307  26.002  31.273  1.00  0.00     0.121 A 
ATOM     61  C   UNL     1       5.057  26.921  30.619  1.00  0.00     0.144 A 
ATOM     62  N   UNL     1       3.484  25.424  30.367  1.00  0.00    -0.131 NA
ATOM     63  N   UNL     1       4.669  26.878  29.330  1.00  0.00    -0.219 N 
ATOM     64  N   UNL     1       3.710  25.960  29.187  1.00  0.00    -0.062 NA
BRANCH  63  65
ATOM     65  C   UNL     1       5.215  27.696  28.298  1.00  0.00     0.085 A 
ATOM     66  C   UNL     1       5.126  29.048  28.390  1.00  0.00     0.140 A 
ATOM     67  C   UNL     1       5.833  27.083  27.221  1.00  0.00     0.040 A 
ATOM     68  N   UNL     1       5.653  29.808  27.408  1.00  0.00    -0.254 NA
ATOM     69  C   UNL     1       6.361  27.870  26.237  1.00  0.00     0.002 A 
ATOM     70  C   UNL     1       6.252  29.224  26.364  1.00  0.00     0.070 A 
ATOM     71  C   UNL     1       6.983  27.283  25.154  1.00  0.00     0.010 A 
ATOM     72  C   UNL     1       6.795  30.022  25.355  1.00  0.00     0.029 A 
ATOM     73  C   UNL     1       7.514  28.094  24.165  1.00  0.00     0.001 A 
ATOM     74  C   UNL     1       7.419  29.483  24.266  1.00  0.00     0.002 A 
ENDBRANCH  63  65
ENDBRANCH  59  60
ENDBRANCH  58  59
ENDBRANCH  55  58
ENDBRANCH  53  54
ENDBRANCH  50  53
ENDBRANCH  47  50
ENDBRANCH   5  47
BRANCH   4  75
ATOM     75  N   UNL     1      12.325  25.715  36.761  1.00  0.00    -0.348 N 
ATOM     76  C   UNL     1      12.975  25.808  38.048  1.00  0.00     0.217 C 
ATOM     77  H   UNL     1      12.865  26.125  35.971  1.00  0.00     0.163 HD
ATOM     78  C   UNL     1      14.279  26.456  38.196  1.00  0.00     0.114 C 
ATOM     79  O   UNL     1      12.357  25.304  39.033  1.00  0.00    -0.275 OA
ENDBRANCH   4  75
TORSDOF 30
