REMARK VINA RESULT:    -5.115      0.000      0.000
REMARK INTER + INTRA:         -25.244
REMARK INTER:                 -17.821
REMARK INTRA:                  -7.423
REMARK UNBOUND:               -10.710
REMARK SMILES CC(=O)N[C@@H]1[C@@H](O)C[C@](OC[C@H]2O[C@@H](O[C@H]3[C@H](O)[C@@H](O)[C@H](OCCN=[N+]=[N-])O[C@@H]3CO)[C@H](O)[C@@H](O)[C@H]2O)(C(=O)O)O[C@H]1C(O)[C@H](O)CNC(=O)OCc1cn(CC(=O)NCC(O)Cn2ccnc2[N+](=O)[O-])nn1
REMARK SMILES IDX 47 1 45 2 43 3 42 4 9 5 8 6 41 7 6 8 5 9 10 10 11 11 12 12
REMARK SMILES IDX 14 13 13 14 32 15 34 16 36 17 15 18 16 19 29 20 28 21 21 22
REMARK SMILES IDX 17 23 19 24 30 25 31 26 22 28 23 29 24 30 25 31 26 32 27 33
REMARK SMILES IDX 18 34 20 36 33 38 35 40 37 42 38 44 39 45 40 46 7 48 4 50
REMARK SMILES IDX 2 51 1 53 3 54 44 55 46 57 48 59 49 60 50 62 51 63 52 64
REMARK SMILES IDX 53 65 54 66 73 67 55 68 72 69 56 70 57 71 58 72 59 73 60 75
REMARK SMILES IDX 61 76 62 77 63 79 64 80 65 81 68 82 66 83 67 84 69 85 70 86
REMARK SMILES IDX 71 87
REMARK H PARENT 31 27 18 35 20 37 33 39 35 41 37 43 40 47 7 49 4 52 44 56
REMARK H PARENT 46 58 48 61 59 74 62 78
REMARK Flexibility Score: inf
ROOT
ATOM      1  C   UNL     1       4.100  24.218  36.503  1.00  0.00     0.154 C 
ENDROOT
BRANCH   1   2
ATOM      2  C   UNL     1       5.389  24.106  37.245  1.00  0.00     0.165 C 
BRANCH   2   3
ATOM      3  C   UNL     1       6.605  24.546  36.520  1.00  0.00     0.176 C 
BRANCH   3   4
ATOM      4  C   UNL     1       6.752  25.966  36.155  1.00  0.00     0.178 C 
ATOM      5  C   UNL     1       6.918  27.514  34.430  1.00  0.00     0.272 C 
ATOM      6  C   UNL     1       6.463  28.419  35.521  1.00  0.00     0.113 C 
ATOM      7  O   UNL     1       6.924  26.157  34.801  1.00  0.00    -0.332 OA
ATOM      8  C   UNL     1       7.172  28.241  36.822  1.00  0.00     0.145 C 
ATOM      9  C   UNL     1       7.723  26.789  36.914  1.00  0.00     0.142 C 
BRANCH   5  10
ATOM     10  O   UNL     1       8.127  27.791  33.862  1.00  0.00    -0.338 OA
BRANCH  10  11
ATOM     11  C   UNL     1       8.568  29.076  33.897  1.00  0.00     0.199 C 
BRANCH  11  12
ATOM     12  C   UNL     1      10.047  29.188  34.214  1.00  0.00     0.179 C 
ATOM     13  C   UNL     1      11.764  28.088  35.343  1.00  0.00     0.282 C 
ATOM     14  O   UNL     1      10.433  28.487  35.301  1.00  0.00    -0.341 OA
ATOM     15  C   UNL     1      12.679  29.118  34.727  1.00  0.00     0.202 C 
ATOM     16  C   UNL     1      12.290  29.420  33.298  1.00  0.00     0.179 C 
ATOM     17  C   UNL     1      10.900  28.887  33.011  1.00  0.00     0.177 C 
BRANCH  13  18
ATOM     18  O   UNL     1      12.001  26.881  34.788  1.00  0.00    -0.341 OA
BRANCH  18  19
ATOM     19  C   UNL     1      11.641  25.735  35.387  1.00  0.00     0.184 C 
ATOM     20  C   UNL     1      12.738  24.785  35.784  1.00  0.00     0.178 C 
ATOM     21  O   UNL     1      12.188  23.934  36.746  1.00  0.00    -0.341 OA
ATOM     22  C   UNL     1      11.256  23.071  36.179  1.00  0.00     0.281 C 
ATOM     23  C   UNL     1      10.709  24.880  34.512  1.00  0.00     0.180 C 
ATOM     24  C   UNL     1      10.183  23.789  35.416  1.00  0.00     0.202 C 
BRANCH  20  25
ATOM     25  C   UNL     1      13.853  25.539  36.448  1.00  0.00     0.191 C 
BRANCH  25  26
ATOM     26  O   UNL     1      14.724  26.109  35.510  1.00  0.00    -0.394 OA
ATOM     27  H   UNL     1      15.636  26.023  35.933  1.00  0.00     0.210 HD
ENDBRANCH  25  26
ENDBRANCH  20  25
BRANCH  22  28
ATOM     28  O   UNL     1      10.641  22.385  37.224  1.00  0.00    -0.350 OA
BRANCH  28  29
ATOM     29  C   UNL     1      10.058  23.266  38.136  1.00  0.00     0.169 C 
BRANCH  29  30
ATOM     30  C   UNL     1       9.539  22.401  39.287  1.00  0.00     0.119 C 
BRANCH  30  31
ATOM     31  N   UNL     1      10.590  22.180  40.265  1.00  0.00    -0.092 NA
ATOM     32  N   UNL     1      10.427  21.228  41.057  1.00  0.00     0.001 N 
ATOM     33  N   UNL     1      10.469  20.161  41.656  1.00  0.00    -0.003 NA
ENDBRANCH  30  31
ENDBRANCH  29  30
ENDBRANCH  28  29
ENDBRANCH  22  28
BRANCH  23  34
ATOM     34  O   UNL     1       9.609  25.614  34.082  1.00  0.00    -0.387 OA
ATOM     35  H   UNL     1       9.925  26.572  34.084  1.00  0.00     0.211 HD
ENDBRANCH  23  34
BRANCH  24  36
ATOM     36  O   UNL     1       9.432  22.835  34.731  1.00  0.00    -0.385 OA
ATOM     37  H   UNL     1       8.598  23.280  34.400  1.00  0.00     0.211 HD
ENDBRANCH  24  36
ENDBRANCH  18  19
ENDBRANCH  13  18
BRANCH  15  38
ATOM     38  O   UNL     1      12.737  30.285  35.500  1.00  0.00    -0.385 OA
ATOM     39  H   UNL     1      13.717  30.517  35.542  1.00  0.00     0.211 HD
ENDBRANCH  15  38
BRANCH  16  40
ATOM     40  O   UNL     1      13.160  28.805  32.402  1.00  0.00    -0.387 OA
ATOM     41  H   UNL     1      12.675  28.391  31.628  1.00  0.00     0.211 HD
ENDBRANCH  16  40
BRANCH  17  42
ATOM     42  O   UNL     1      10.872  27.572  32.610  1.00  0.00    -0.387 OA
ATOM     43  H   UNL     1      11.648  27.326  32.035  1.00  0.00     0.211 HD
ENDBRANCH  17  42
ENDBRANCH  11  12
ENDBRANCH  10  11
ENDBRANCH   5  10
BRANCH   5  44
ATOM     44  C   UNL     1       5.852  27.560  33.362  1.00  0.00     0.364 C 
ATOM     45  O   UNL     1       4.670  27.592  33.750  1.00  0.00    -0.246 OA
BRANCH  44  46
ATOM     46  O   UNL     1       6.130  27.567  32.016  1.00  0.00    -0.477 OA
ATOM     47  H   UNL     1       6.923  27.016  31.640  1.00  0.00     0.296 HD
ENDBRANCH  44  46
ENDBRANCH   5  44
BRANCH   8  48
ATOM     48  O   UNL     1       8.141  29.138  37.135  1.00  0.00    -0.391 OA
ATOM     49  H   UNL     1       8.800  29.326  36.451  1.00  0.00     0.211 HD
ENDBRANCH   8  48
BRANCH   9  50
ATOM     50  N   UNL     1       7.900  26.510  38.289  1.00  0.00    -0.348 N 
ATOM     51  C   UNL     1       9.197  26.610  38.909  1.00  0.00     0.217 C 
ATOM     52  H   UNL     1       7.114  26.239  38.894  1.00  0.00     0.163 HD
ATOM     53  C   UNL     1       9.406  26.313  40.351  1.00  0.00     0.114 C 
ATOM     54  O   UNL     1      10.162  26.954  38.194  1.00  0.00    -0.275 OA
ENDBRANCH   9  50
ENDBRANCH   3   4
BRANCH   3  55
ATOM     55  O   UNL     1       6.745  23.696  35.394  1.00  0.00    -0.388 OA
ATOM     56  H   UNL     1       5.892  23.253  35.257  1.00  0.00     0.211 HD
ENDBRANCH   3  55
ENDBRANCH   2   3
BRANCH   2  57
ATOM     57  O   UNL     1       5.490  22.957  37.992  1.00  0.00    -0.388 OA
ATOM     58  H   UNL     1       4.857  22.868  38.728  1.00  0.00     0.211 HD
ENDBRANCH   2  57
ENDBRANCH   1   2
BRANCH   1  59
ATOM     59  N   UNL     1       3.803  22.990  35.816  1.00  0.00    -0.319 N 
ATOM     60  C   UNL     1       3.878  22.845  34.408  1.00  0.00     0.407 C 
ATOM     61  H   UNL     1       3.508  22.127  36.361  1.00  0.00     0.167 HD
ATOM     62  O   UNL     1       4.229  23.820  33.712  1.00  0.00    -0.225 OA
BRANCH  60  63
ATOM     63  O   UNL     1       3.584  21.680  33.732  1.00  0.00    -0.443 OA
BRANCH  63  64
ATOM     64  C   UNL     1       4.309  21.271  32.602  1.00  0.00     0.294 C 
BRANCH  64  65
ATOM     65  C   UNL     1       3.610  21.326  31.320  1.00  0.00     0.120 A 
ATOM     66  C   UNL     1       2.921  22.376  30.768  1.00  0.00     0.138 A 
ATOM     67  N   UNL     1       3.496  20.330  30.427  1.00  0.00    -0.132 NA
ATOM     68  N   UNL     1       2.416  21.992  29.573  1.00  0.00    -0.243 N 
ATOM     69  N   UNL     1       2.770  20.760  29.383  1.00  0.00    -0.067 NA
BRANCH  68  70
ATOM     70  C   UNL     1       1.641  22.824  28.659  1.00  0.00     0.245 C 
BRANCH  70  71
ATOM     71  C   UNL     1       2.488  23.188  27.504  1.00  0.00     0.241 C 
ATOM     72  O   UNL     1       2.448  22.517  26.418  1.00  0.00    -0.273 OA
ATOM     73  N   UNL     1       3.387  24.296  27.522  1.00  0.00    -0.352 N 
ATOM     74  H   UNL     1       3.455  24.871  28.379  1.00  0.00     0.163 HD
BRANCH  73  75
ATOM     75  C   UNL     1       4.175  24.576  26.337  1.00  0.00     0.151 C 
BRANCH  75  76
ATOM     76  C   UNL     1       4.347  26.044  26.098  1.00  0.00     0.168 C 
BRANCH  76  77
ATOM     77  O   UNL     1       4.490  26.350  24.757  1.00  0.00    -0.388 OA
ATOM     78  H   UNL     1       3.659  26.079  24.299  1.00  0.00     0.211 HD
ENDBRANCH  76  77
BRANCH  76  79
ATOM     79  C   UNL     1       5.570  26.492  26.884  1.00  0.00     0.239 C 
BRANCH  79  80
ATOM     80  N   UNL     1       6.171  27.662  26.312  1.00  0.00    -0.227 N 
ATOM     81  C   UNL     1       5.653  28.916  26.389  1.00  0.00     0.204 A 
ATOM     82  C   UNL     1       7.312  27.789  25.590  1.00  0.00     0.434 A 
ATOM     83  C   UNL     1       6.474  29.788  25.719  1.00  0.00     0.245 A 
ATOM     84  N   UNL     1       7.487  29.078  25.235  1.00  0.00    -0.074 NA
BRANCH  82  85
ATOM     85  N   UNL     1       8.202  26.723  25.266  1.00  0.00    -0.047 N 
ATOM     86  O   UNL     1       8.131  26.055  24.234  1.00  0.00    -0.390 OA
ATOM     87  O   UNL     1       9.205  26.410  26.173  1.00  0.00    -0.390 OA
ENDBRANCH  82  85
ENDBRANCH  79  80
ENDBRANCH  76  79
ENDBRANCH  75  76
ENDBRANCH  73  75
ENDBRANCH  70  71
ENDBRANCH  68  70
ENDBRANCH  64  65
ENDBRANCH  63  64
ENDBRANCH  60  63
ENDBRANCH   1  59
TORSDOF 37
