REMARK VINA RESULT:    -6.383      4.345     10.378
REMARK INTER + INTRA:         -22.355
REMARK INTER:                 -13.143
REMARK INTRA:                  -9.212
REMARK UNBOUND:                -6.272
REMARK SMILES CC(=O)N[C@@H]1[C@@H](O)C[C@](OC[C@H]2O[C@@H](O[C@H]3[C@H](O)[C@@H](O)[C@H](OCCN=[N+]=[N-])O[C@@H]3CO)[C@H](O)[C@@H](O)[C@H]2O)(C(=O)O)O[C@H]1C(O)[C@H](O)CNC(=O)OCc1cn(Cc2cccc(Br)c2)nn1
REMARK SMILES IDX 9 1 8 2 6 3 5 4 42 5 41 6 10 7 11 8 12 9 14 10 13 11 32 12
REMARK SMILES IDX 34 13 36 14 15 15 16 16 29 17 28 18 21 19 17 20 19 21 30 22
REMARK SMILES IDX 31 23 22 25 23 26 24 27 25 28 26 29 27 30 18 31 20 33 33 35
REMARK SMILES IDX 35 37 37 39 38 41 39 42 40 43 7 45 43 47 44 48 45 50 46 51
REMARK SMILES IDX 47 53 48 54 49 55 50 57 51 58 52 59 53 60 54 61 65 62 55 63
REMARK SMILES IDX 64 64 56 65 57 66 58 67 63 68 59 69 61 70 60 71 62 72 4 73
REMARK SMILES IDX 2 74 1 76 3 77
REMARK H PARENT 31 24 18 32 20 34 33 36 35 38 37 40 40 44 7 46 44 49 46 52
REMARK H PARENT 48 56 4 75
REMARK Flexibility Score: inf
ROOT
ATOM      1  C   UNL     1      22.838  25.855  21.920  1.00  0.00     0.272 C 
ATOM      2  C   UNL     1      24.074  25.530  21.170  1.00  0.00     0.113 C 
ATOM      3  C   UNL     1      24.306  26.354  19.945  1.00  0.00     0.145 C 
ATOM      4  C   UNL     1      23.023  26.765  19.258  1.00  0.00     0.142 C 
ATOM      5  C   UNL     1      21.871  26.912  20.149  1.00  0.00     0.178 C 
ATOM      6  O   UNL     1      22.118  26.933  21.486  1.00  0.00    -0.332 OA
ENDROOT
BRANCH   1   7
ATOM      7  O   UNL     1      23.171  26.032  23.299  1.00  0.00    -0.338 OA
BRANCH   7   8
ATOM      8  C   UNL     1      24.072  25.109  23.745  1.00  0.00     0.199 C 
BRANCH   8   9
ATOM      9  C   UNL     1      24.264  25.234  25.271  1.00  0.00     0.179 C 
ATOM     10  C   UNL     1      23.677  26.763  26.945  1.00  0.00     0.282 C 
ATOM     11  O   UNL     1      23.953  26.517  25.580  1.00  0.00    -0.341 OA
ATOM     12  C   UNL     1      24.097  25.644  27.812  1.00  0.00     0.202 C 
ATOM     13  C   UNL     1      23.511  24.309  27.389  1.00  0.00     0.179 C 
ATOM     14  C   UNL     1      23.249  24.299  25.893  1.00  0.00     0.177 C 
BRANCH  10  15
ATOM     15  O   UNL     1      22.350  27.120  26.956  1.00  0.00    -0.341 OA
BRANCH  15  16
ATOM     16  C   UNL     1      21.993  28.200  26.234  1.00  0.00     0.184 C 
ATOM     17  C   UNL     1      21.558  29.299  27.170  1.00  0.00     0.178 C 
ATOM     18  O   UNL     1      21.358  30.462  26.431  1.00  0.00    -0.341 OA
ATOM     19  C   UNL     1      20.298  30.369  25.527  1.00  0.00     0.281 C 
ATOM     20  C   UNL     1      20.779  27.974  25.338  1.00  0.00     0.180 C 
ATOM     21  C   UNL     1      20.647  29.281  24.541  1.00  0.00     0.202 C 
BRANCH  17  22
ATOM     22  C   UNL     1      22.642  29.565  28.159  1.00  0.00     0.191 C 
BRANCH  22  23
ATOM     23  O   UNL     1      22.934  30.916  28.224  1.00  0.00    -0.394 OA
ATOM     24  H   UNL     1      22.429  31.296  28.989  1.00  0.00     0.210 HD
ENDBRANCH  22  23
ENDBRANCH  17  22
BRANCH  19  25
ATOM     25  O   UNL     1      20.181  31.613  24.944  1.00  0.00    -0.350 OA
BRANCH  25  26
ATOM     26  C   UNL     1      19.000  32.261  25.174  1.00  0.00     0.169 C 
BRANCH  26  27
ATOM     27  C   UNL     1      17.861  31.823  24.282  1.00  0.00     0.119 C 
BRANCH  27  28
ATOM     28  N   UNL     1      18.274  32.059  22.916  1.00  0.00    -0.092 NA
ATOM     29  N   UNL     1      18.283  31.206  22.042  1.00  0.00     0.001 N 
ATOM     30  N   UNL     1      18.126  30.318  21.207  1.00  0.00    -0.003 NA
ENDBRANCH  27  28
ENDBRANCH  26  27
ENDBRANCH  25  26
ENDBRANCH  19  25
BRANCH  20  31
ATOM     31  O   UNL     1      20.932  26.957  24.440  1.00  0.00    -0.387 OA
ATOM     32  H   UNL     1      21.083  26.069  24.832  1.00  0.00     0.211 HD
ENDBRANCH  20  31
BRANCH  21  33
ATOM     33  O   UNL     1      19.701  29.066  23.574  1.00  0.00    -0.385 OA
ATOM     34  H   UNL     1      18.810  28.782  23.959  1.00  0.00     0.211 HD
ENDBRANCH  21  33
ENDBRANCH  15  16
ENDBRANCH  10  15
BRANCH  12  35
ATOM     35  O   UNL     1      25.509  25.546  27.719  1.00  0.00    -0.385 OA
ATOM     36  H   UNL     1      25.909  25.790  28.594  1.00  0.00     0.211 HD
ENDBRANCH  12  35
BRANCH  13  37
ATOM     37  O   UNL     1      22.388  23.960  28.134  1.00  0.00    -0.387 OA
ATOM     38  H   UNL     1      22.583  24.149  29.108  1.00  0.00     0.211 HD
ENDBRANCH  13  37
BRANCH  14  39
ATOM     39  O   UNL     1      21.990  24.731  25.546  1.00  0.00    -0.387 OA
ATOM     40  H   UNL     1      21.989  25.726  25.398  1.00  0.00     0.211 HD
ENDBRANCH  14  39
ENDBRANCH   8   9
ENDBRANCH   7   8
ENDBRANCH   1   7
BRANCH   1  41
ATOM     41  C   UNL     1      21.946  24.657  21.929  1.00  0.00     0.364 C 
ATOM     42  O   UNL     1      22.214  23.678  21.147  1.00  0.00    -0.246 OA
BRANCH  41  43
ATOM     43  O   UNL     1      20.835  24.489  22.708  1.00  0.00    -0.477 OA
ATOM     44  H   UNL     1      20.658  25.185  23.446  1.00  0.00     0.296 HD
ENDBRANCH  41  43
ENDBRANCH   1  41
BRANCH   3  45
ATOM     45  O   UNL     1      25.154  27.423  20.197  1.00  0.00    -0.391 OA
ATOM     46  H   UNL     1      25.483  27.871  19.388  1.00  0.00     0.211 HD
ENDBRANCH   3  45
BRANCH   5  47
ATOM     47  C   UNL     1      20.987  28.115  19.782  1.00  0.00     0.176 C 
BRANCH  47  48
ATOM     48  O   UNL     1      19.859  28.038  20.695  1.00  0.00    -0.388 OA
ATOM     49  H   UNL     1      19.819  27.095  20.996  1.00  0.00     0.211 HD
ENDBRANCH  47  48
BRANCH  47  50
ATOM     50  C   UNL     1      21.610  29.444  20.004  1.00  0.00     0.165 C 
BRANCH  50  51
ATOM     51  O   UNL     1      21.326  29.747  21.388  1.00  0.00    -0.388 OA
ATOM     52  H   UNL     1      21.690  30.667  21.570  1.00  0.00     0.211 HD
ENDBRANCH  50  51
BRANCH  50  53
ATOM     53  C   UNL     1      21.042  30.613  19.271  1.00  0.00     0.154 C 
BRANCH  53  54
ATOM     54  N   UNL     1      19.845  30.304  18.504  1.00  0.00    -0.319 N 
ATOM     55  C   UNL     1      19.904  30.352  17.090  1.00  0.00     0.407 C 
ATOM     56  H   UNL     1      18.954  30.048  18.964  1.00  0.00     0.167 HD
ATOM     57  O   UNL     1      20.981  30.665  16.509  1.00  0.00    -0.225 OA
BRANCH  55  58
ATOM     58  O   UNL     1      18.786  30.056  16.310  1.00  0.00    -0.443 OA
BRANCH  58  59
ATOM     59  C   UNL     1      18.317  28.700  16.284  1.00  0.00     0.294 C 
BRANCH  59  60
ATOM     60  C   UNL     1      17.429  28.494  17.452  1.00  0.00     0.120 A 
ATOM     61  C   UNL     1      16.149  28.951  17.642  1.00  0.00     0.138 A 
ATOM     62  N   UNL     1      17.764  27.797  18.545  1.00  0.00    -0.132 NA
ATOM     63  N   UNL     1      15.748  28.513  18.851  1.00  0.00    -0.248 N 
ATOM     64  N   UNL     1      16.744  27.817  19.379  1.00  0.00    -0.067 NA
BRANCH  63  65
ATOM     65  C   UNL     1      14.441  28.776  19.446  1.00  0.00     0.181 C 
BRANCH  65  66
ATOM     66  C   UNL     1      14.525  29.835  20.485  1.00  0.00    -0.025 A 
ATOM     67  C   UNL     1      14.723  31.153  20.129  1.00  0.00     0.006 A 
ATOM     68  C   UNL     1      14.417  29.571  21.828  1.00  0.00     0.021 A 
ATOM     69  C   UNL     1      14.812  32.180  21.042  1.00  0.00     0.002 A 
ATOM     70  C   UNL     1      14.502  30.573  22.767  1.00  0.00     0.018 A 
ATOM     71  C   UNL     1      14.698  31.881  22.407  1.00  0.00     0.016 A 
ATOM     72  Br  UNL     1      14.350  30.209  24.641  1.00  0.00    -0.051 Br
ENDBRANCH  65  66
ENDBRANCH  63  65
ENDBRANCH  59  60
ENDBRANCH  58  59
ENDBRANCH  55  58
ENDBRANCH  53  54
ENDBRANCH  50  53
ENDBRANCH  47  50
ENDBRANCH   5  47
BRANCH   4  73
ATOM     73  N   UNL     1      22.720  25.795  18.175  1.00  0.00    -0.348 N 
ATOM     74  C   UNL     1      22.629  26.226  16.829  1.00  0.00     0.217 C 
ATOM     75  H   UNL     1      22.569  24.777  18.387  1.00  0.00     0.163 HD
ATOM     76  C   UNL     1      22.323  25.262  15.714  1.00  0.00     0.114 C 
ATOM     77  O   UNL     1      22.810  27.446  16.572  1.00  0.00    -0.275 OA
ENDBRANCH   4  73
TORSDOF 31
