REMARK VINA RESULT:    -5.505      5.576      9.447
REMARK INTER + INTRA:         -21.848
REMARK INTER:                 -13.713
REMARK INTRA:                  -8.135
REMARK UNBOUND:                -7.010
REMARK SMILES CC(=O)N[C@@H]1[C@@H](O)C[C@](OC[C@H]2O[C@@H](O[C@H]3[C@H](O)[C@@H](O)[C@H](OCCN=[N+]=[N-])O[C@@H]3CO)[C@H](O)[C@@H](O)[C@H]2O)(C(=O)O)O[C@H]1C(O)[C@H](O)CNC(=O)OCc1cn([C@@H](CC(=O)O)C(=O)O)nn1
REMARK SMILES IDX 43 1 42 2 9 3 8 4 41 5 6 6 5 7 10 8 11 9 12 10 14 11 13 12
REMARK SMILES IDX 32 13 34 14 36 15 15 16 16 17 29 18 28 19 21 20 17 21 19 22
REMARK SMILES IDX 30 23 31 24 22 26 23 27 24 28 25 29 26 30 27 31 18 32 20 34
REMARK SMILES IDX 33 36 35 38 37 40 38 42 39 43 40 44 7 46 4 48 2 49 1 51 3 52
REMARK SMILES IDX 44 53 45 55 46 56 47 58 48 59 49 60 50 62 51 63 52 64 53 65
REMARK SMILES IDX 54 66 65 67 55 68 64 69 56 70 57 71 58 72 59 73 60 74 61 76
REMARK SMILES IDX 62 77 63 78
REMARK H PARENT 31 25 18 33 20 35 33 37 35 39 37 41 40 45 7 47 4 50 44 54
REMARK H PARENT 46 57 48 61 60 75 63 79
REMARK Flexibility Score: inf
ROOT
ATOM      1  C   UNL     1      13.517  30.435  12.051  1.00  0.00     0.176 C 
ENDROOT
BRANCH   1   2
ATOM      2  C   UNL     1      12.517  30.401  13.194  1.00  0.00     0.178 C 
ATOM      3  C   UNL     1      12.164  31.319  15.330  1.00  0.00     0.272 C 
ATOM      4  C   UNL     1      11.226  30.104  15.302  1.00  0.00     0.113 C 
ATOM      5  O   UNL     1      13.007  31.167  14.206  1.00  0.00    -0.332 OA
ATOM      6  C   UNL     1      12.125  28.905  15.040  1.00  0.00     0.145 C 
ATOM      7  C   UNL     1      12.308  28.932  13.514  1.00  0.00     0.142 C 
BRANCH   3   8
ATOM      8  O   UNL     1      12.809  31.379  16.401  1.00  0.00    -0.338 OA
BRANCH   8   9
ATOM      9  C   UNL     1      13.455  31.448  17.462  1.00  0.00     0.199 C 
BRANCH   9  10
ATOM     10  C   UNL     1      14.245  32.729  17.731  1.00  0.00     0.179 C 
ATOM     11  C   UNL     1      15.766  32.059  19.322  1.00  0.00     0.282 C 
ATOM     12  O   UNL     1      14.721  32.871  18.990  1.00  0.00    -0.341 OA
ATOM     13  C   UNL     1      16.911  32.182  18.393  1.00  0.00     0.202 C 
ATOM     14  C   UNL     1      16.589  33.372  17.475  1.00  0.00     0.179 C 
ATOM     15  C   UNL     1      15.343  32.950  16.718  1.00  0.00     0.177 C 
BRANCH  11  16
ATOM     16  O   UNL     1      15.433  30.777  19.729  1.00  0.00    -0.341 OA
BRANCH  16  17
ATOM     17  C   UNL     1      14.949  30.712  21.015  1.00  0.00     0.184 C 
ATOM     18  C   UNL     1      15.637  29.671  21.823  1.00  0.00     0.178 C 
ATOM     19  O   UNL     1      15.176  29.659  23.134  1.00  0.00    -0.341 OA
ATOM     20  C   UNL     1      13.803  29.897  23.256  1.00  0.00     0.281 C 
ATOM     21  C   UNL     1      13.468  30.365  20.890  1.00  0.00     0.180 C 
ATOM     22  C   UNL     1      13.084  29.432  21.993  1.00  0.00     0.202 C 
BRANCH  18  23
ATOM     23  C   UNL     1      17.112  30.058  21.910  1.00  0.00     0.191 C 
BRANCH  23  24
ATOM     24  O   UNL     1      17.547  29.869  23.238  1.00  0.00    -0.394 OA
ATOM     25  H   UNL     1      18.455  29.454  23.148  1.00  0.00     0.210 HD
ENDBRANCH  23  24
ENDBRANCH  18  23
BRANCH  20  26
ATOM     26  O   UNL     1      13.627  31.265  23.355  1.00  0.00    -0.350 OA
BRANCH  26  27
ATOM     27  C   UNL     1      12.969  31.721  24.455  1.00  0.00     0.169 C 
BRANCH  27  28
ATOM     28  C   UNL     1      11.920  32.722  24.077  1.00  0.00     0.119 C 
BRANCH  28  29
ATOM     29  N   UNL     1      10.896  32.031  23.291  1.00  0.00    -0.092 NA
ATOM     30  N   UNL     1       9.938  31.525  23.909  1.00  0.00     0.001 N 
ATOM     31  N   UNL     1       9.137  30.624  24.222  1.00  0.00    -0.003 NA
ENDBRANCH  28  29
ENDBRANCH  27  28
ENDBRANCH  26  27
ENDBRANCH  20  26
BRANCH  21  32
ATOM     32  O   UNL     1      12.705  31.523  20.967  1.00  0.00    -0.387 OA
ATOM     33  H   UNL     1      12.257  31.583  21.860  1.00  0.00     0.211 HD
ENDBRANCH  21  32
BRANCH  22  34
ATOM     34  O   UNL     1      13.370  28.091  21.729  1.00  0.00    -0.385 OA
ATOM     35  H   UNL     1      12.500  27.711  21.387  1.00  0.00     0.211 HD
ENDBRANCH  22  34
ENDBRANCH  16  17
ENDBRANCH  11  16
BRANCH  13  36
ATOM     36  O   UNL     1      18.113  32.514  19.021  1.00  0.00    -0.385 OA
ATOM     37  H   UNL     1      17.917  33.254  19.666  1.00  0.00     0.211 HD
ENDBRANCH  13  36
BRANCH  14  38
ATOM     38  O   UNL     1      17.621  33.688  16.628  1.00  0.00    -0.387 OA
ATOM     39  H   UNL     1      18.356  34.176  17.095  1.00  0.00     0.211 HD
ENDBRANCH  14  38
BRANCH  15  40
ATOM     40  O   UNL     1      15.618  31.818  15.985  1.00  0.00    -0.387 OA
ATOM     41  H   UNL     1      16.090  31.124  16.475  1.00  0.00     0.211 HD
ENDBRANCH  15  40
ENDBRANCH   9  10
ENDBRANCH   8   9
ENDBRANCH   3   8
BRANCH   3  42
ATOM     42  C   UNL     1      11.236  32.494  15.036  1.00  0.00     0.364 C 
ATOM     43  O   UNL     1      10.215  32.660  15.718  1.00  0.00    -0.246 OA
BRANCH  42  44
ATOM     44  O   UNL     1      11.512  33.384  14.015  1.00  0.00    -0.477 OA
ATOM     45  H   UNL     1      11.876  34.330  14.192  1.00  0.00     0.296 HD
ENDBRANCH  42  44
ENDBRANCH   3  42
BRANCH   6  46
ATOM     46  O   UNL     1      13.426  29.169  15.522  1.00  0.00    -0.391 OA
ATOM     47  H   UNL     1      14.097  29.157  14.819  1.00  0.00     0.211 HD
ENDBRANCH   6  46
BRANCH   7  48
ATOM     48  N   UNL     1      11.091  28.390  12.957  1.00  0.00    -0.348 N 
ATOM     49  C   UNL     1      11.110  27.746  11.682  1.00  0.00     0.217 C 
ATOM     50  H   UNL     1      10.169  28.445  13.446  1.00  0.00     0.163 HD
ATOM     51  C   UNL     1       9.811  27.206  11.157  1.00  0.00     0.114 C 
ATOM     52  O   UNL     1      12.170  27.627  11.012  1.00  0.00    -0.275 OA
ENDBRANCH   7  48
ENDBRANCH   1   2
BRANCH   1  53
ATOM     53  O   UNL     1      14.265  29.265  11.990  1.00  0.00    -0.388 OA
ATOM     54  H   UNL     1      14.003  28.618  12.705  1.00  0.00     0.211 HD
ENDBRANCH   1  53
BRANCH   1  55
ATOM     55  C   UNL     1      14.397  31.626  11.998  1.00  0.00     0.165 C 
BRANCH  55  56
ATOM     56  O   UNL     1      13.780  32.826  11.721  1.00  0.00    -0.388 OA
ATOM     57  H   UNL     1      13.688  33.431  12.504  1.00  0.00     0.211 HD
ENDBRANCH  55  56
BRANCH  55  58
ATOM     58  C   UNL     1      15.622  31.367  11.191  1.00  0.00     0.154 C 
BRANCH  58  59
ATOM     59  N   UNL     1      16.794  30.990  11.918  1.00  0.00    -0.319 N 
ATOM     60  C   UNL     1      17.471  29.795  11.579  1.00  0.00     0.407 C 
ATOM     61  H   UNL     1      17.161  31.572  12.684  1.00  0.00     0.167 HD
ATOM     62  O   UNL     1      17.006  29.098  10.611  1.00  0.00    -0.225 OA
BRANCH  60  63
ATOM     63  O   UNL     1      18.600  29.292  12.202  1.00  0.00    -0.443 OA
BRANCH  63  64
ATOM     64  C   UNL     1      19.120  29.954  13.367  1.00  0.00     0.294 C 
BRANCH  64  65
ATOM     65  C   UNL     1      18.386  29.464  14.557  1.00  0.00     0.120 A 
ATOM     66  C   UNL     1      18.861  29.000  15.763  1.00  0.00     0.139 A 
ATOM     67  N   UNL     1      17.019  29.362  14.661  1.00  0.00    -0.132 NA
ATOM     68  N   UNL     1      17.803  28.638  16.545  1.00  0.00    -0.237 N 
ATOM     69  N   UNL     1      16.736  28.876  15.839  1.00  0.00    -0.066 NA
BRANCH  68  70
ATOM     70  C   UNL     1      17.871  28.088  17.880  1.00  0.00     0.229 C 
BRANCH  70  71
ATOM     71  C   UNL     1      18.706  29.025  18.734  1.00  0.00     0.161 C 
BRANCH  71  72
ATOM     72  C   UNL     1      19.788  28.305  19.432  1.00  0.00     0.306 C 
ATOM     73  O   UNL     1      19.670  27.966  20.637  1.00  0.00    -0.252 OA
BRANCH  72  74
ATOM     74  O   UNL     1      20.955  27.989  18.772  1.00  0.00    -0.481 OA
ATOM     75  H   UNL     1      20.952  27.978  17.745  1.00  0.00     0.296 HD
ENDBRANCH  72  74
ENDBRANCH  71  72
ENDBRANCH  70  71
BRANCH  70  76
ATOM     76  C   UNL     1      16.509  28.000  18.434  1.00  0.00     0.329 C 
ATOM     77  O   UNL     1      16.294  27.227  19.396  1.00  0.00    -0.250 OA
BRANCH  76  78
ATOM     78  O   UNL     1      15.441  28.737  17.940  1.00  0.00    -0.480 OA
ATOM     79  H   UNL     1      14.559  28.257  17.778  1.00  0.00     0.296 HD
ENDBRANCH  76  78
ENDBRANCH  70  76
ENDBRANCH  68  70
ENDBRANCH  64  65
ENDBRANCH  63  64
ENDBRANCH  60  63
ENDBRANCH  58  59
ENDBRANCH  55  58
ENDBRANCH   1  55
TORSDOF 35
