REMARK VINA RESULT:    -5.157      3.114      4.192
REMARK INTER + INTRA:         -22.317
REMARK INTER:                 -14.825
REMARK INTRA:                  -7.491
REMARK UNBOUND:                -8.417
REMARK SMILES CC(=O)N[C@@H]1[C@@H](O)C[C@](OC[C@H]2O[C@@H](O[C@H]3[C@H](O)[C@@H](O)[C@H](OCCN=[N+]=[N-])O[C@@H]3CO)[C@H](O)[C@@H](O)[C@H]2O)(C(=O)O)O[C@H]1C(O)[C@H](O)CNC(=O)OCc1cn(CCNC(=O)NCc2ccco2)nn1
REMARK SMILES IDX 43 1 42 2 9 3 8 4 41 5 6 6 5 7 10 8 11 9 12 10 14 11 13 12
REMARK SMILES IDX 32 13 34 14 36 15 15 16 16 17 29 18 28 19 21 20 17 21 19 22
REMARK SMILES IDX 30 23 31 24 22 26 23 27 24 28 25 29 26 30 27 31 18 32 20 34
REMARK SMILES IDX 33 36 35 38 37 40 38 42 39 43 40 44 7 46 4 48 2 49 1 51 3 52
REMARK SMILES IDX 44 53 45 55 46 56 47 58 48 59 49 60 50 62 51 63 52 64 53 65
REMARK SMILES IDX 54 66 69 67 55 68 68 69 56 70 57 71 58 72 59 73 60 75 61 76
REMARK SMILES IDX 62 78 63 79 64 80 67 81 65 82 66 83
REMARK H PARENT 31 25 18 33 20 35 33 37 35 39 37 41 40 45 7 47 4 50 44 54
REMARK H PARENT 46 57 48 61 58 74 61 77
REMARK Flexibility Score: inf
ROOT
ATOM      1  C   UNL     1      16.868  29.320  20.568  1.00  0.00     0.176 C 
ENDROOT
BRANCH   1   2
ATOM      2  C   UNL     1      16.392  30.560  21.256  1.00  0.00     0.178 C 
ATOM      3  C   UNL     1      17.170  30.471  23.501  1.00  0.00     0.272 C 
ATOM      4  C   UNL     1      15.941  29.516  23.653  1.00  0.00     0.113 C 
ATOM      5  O   UNL     1      17.209  30.988  22.257  1.00  0.00    -0.332 OA
ATOM      6  C   UNL     1      14.733  30.029  22.977  1.00  0.00     0.145 C 
ATOM      7  C   UNL     1      14.947  30.602  21.597  1.00  0.00     0.142 C 
BRANCH   3   8
ATOM      8  O   UNL     1      18.248  29.626  23.656  1.00  0.00    -0.338 OA
BRANCH   8   9
ATOM      9  C   UNL     1      19.419  30.077  24.096  1.00  0.00     0.199 C 
BRANCH   9  10
ATOM     10  C   UNL     1      20.737  29.558  23.784  1.00  0.00     0.179 C 
ATOM     11  C   UNL     1      22.111  27.790  23.289  1.00  0.00     0.282 C 
ATOM     12  O   UNL     1      20.797  28.260  23.308  1.00  0.00    -0.341 OA
ATOM     13  C   UNL     1      23.158  28.841  23.267  1.00  0.00     0.202 C 
ATOM     14  C   UNL     1      22.789  30.122  22.577  1.00  0.00     0.179 C 
ATOM     15  C   UNL     1      21.319  30.414  22.642  1.00  0.00     0.177 C 
BRANCH  11  16
ATOM     16  O   UNL     1      22.332  26.897  22.253  1.00  0.00    -0.341 OA
BRANCH  16  17
ATOM     17  C   UNL     1      22.719  25.621  22.710  1.00  0.00     0.184 C 
ATOM     18  C   UNL     1      22.035  25.392  24.026  1.00  0.00     0.178 C 
ATOM     19  O   UNL     1      22.812  24.636  24.901  1.00  0.00    -0.341 OA
ATOM     20  C   UNL     1      23.910  25.421  25.232  1.00  0.00     0.281 C 
ATOM     21  C   UNL     1      24.211  25.586  22.746  1.00  0.00     0.180 C 
ATOM     22  C   UNL     1      24.852  25.469  24.077  1.00  0.00     0.202 C 
BRANCH  18  23
ATOM     23  C   UNL     1      20.772  24.571  23.765  1.00  0.00     0.191 C 
BRANCH  23  24
ATOM     24  O   UNL     1      20.410  24.791  22.418  1.00  0.00    -0.394 OA
ATOM     25  H   UNL     1      19.475  25.147  22.468  1.00  0.00     0.210 HD
ENDBRANCH  23  24
ENDBRANCH  18  23
BRANCH  20  26
ATOM     26  O   UNL     1      24.559  24.760  26.278  1.00  0.00    -0.350 OA
BRANCH  26  27
ATOM     27  C   UNL     1      24.861  25.632  27.325  1.00  0.00     0.169 C 
BRANCH  27  28
ATOM     28  C   UNL     1      23.664  26.576  27.461  1.00  0.00     0.119 C 
BRANCH  28  29
ATOM     29  N   UNL     1      23.431  26.744  28.884  1.00  0.00    -0.092 NA
ATOM     30  N   UNL     1      22.280  26.772  29.343  1.00  0.00     0.001 N 
ATOM     31  N   UNL     1      21.161  26.487  29.802  1.00  0.00    -0.003 NA
ENDBRANCH  28  29
ENDBRANCH  27  28
ENDBRANCH  26  27
ENDBRANCH  20  26
BRANCH  21  32
ATOM     32  O   UNL     1      24.622  24.523  21.917  1.00  0.00    -0.387 OA
ATOM     33  H   UNL     1      24.208  23.678  22.167  1.00  0.00     0.211 HD
ENDBRANCH  21  32
BRANCH  22  34
ATOM     34  O   UNL     1      25.660  26.616  24.279  1.00  0.00    -0.385 OA
ATOM     35  H   UNL     1      25.100  27.231  24.845  1.00  0.00     0.211 HD
ENDBRANCH  22  34
ENDBRANCH  16  17
ENDBRANCH  11  16
BRANCH  13  36
ATOM     36  O   UNL     1      23.729  29.068  24.526  1.00  0.00    -0.385 OA
ATOM     37  H   UNL     1      24.552  28.545  24.657  1.00  0.00     0.211 HD
ENDBRANCH  13  36
BRANCH  14  38
ATOM     38  O   UNL     1      23.240  30.149  21.251  1.00  0.00    -0.387 OA
ATOM     39  H   UNL     1      23.619  31.063  21.124  1.00  0.00     0.211 HD
ENDBRANCH  14  38
BRANCH  15  40
ATOM     40  O   UNL     1      20.651  30.191  21.462  1.00  0.00    -0.387 OA
ATOM     41  H   UNL     1      20.004  30.910  21.336  1.00  0.00     0.211 HD
ENDBRANCH  15  40
ENDBRANCH   9  10
ENDBRANCH   8   9
ENDBRANCH   3   8
BRANCH   3  42
ATOM     42  C   UNL     1      17.028  31.385  24.632  1.00  0.00     0.364 C 
ATOM     43  O   UNL     1      17.249  32.599  24.516  1.00  0.00    -0.246 OA
BRANCH  42  44
ATOM     44  O   UNL     1      16.640  30.972  25.911  1.00  0.00    -0.477 OA
ATOM     45  H   UNL     1      15.645  30.929  26.136  1.00  0.00     0.296 HD
ENDBRANCH  42  44
ENDBRANCH   3  42
BRANCH   6  46
ATOM     46  O   UNL     1      13.817  28.965  22.883  1.00  0.00    -0.391 OA
ATOM     47  H   UNL     1      13.453  28.933  21.963  1.00  0.00     0.211 HD
ENDBRANCH   6  46
BRANCH   7  48
ATOM     48  N   UNL     1      14.428  31.970  21.576  1.00  0.00    -0.348 N 
ATOM     49  C   UNL     1      13.063  32.229  21.392  1.00  0.00     0.217 C 
ATOM     50  H   UNL     1      15.106  32.751  21.703  1.00  0.00     0.163 HD
ATOM     51  C   UNL     1      12.486  33.606  21.361  1.00  0.00     0.114 C 
ATOM     52  O   UNL     1      12.293  31.227  21.244  1.00  0.00    -0.275 OA
ENDBRANCH   7  48
ENDBRANCH   1   2
BRANCH   1  53
ATOM     53  O   UNL     1      18.225  29.082  20.988  1.00  0.00    -0.388 OA
ATOM     54  H   UNL     1      18.209  29.150  21.955  1.00  0.00     0.211 HD
ENDBRANCH   1  53
BRANCH   1  55
ATOM     55  C   UNL     1      16.999  29.395  19.074  1.00  0.00     0.165 C 
BRANCH  55  56
ATOM     56  O   UNL     1      15.835  29.340  18.345  1.00  0.00    -0.388 OA
ATOM     57  H   UNL     1      15.767  30.044  17.653  1.00  0.00     0.211 HD
ENDBRANCH  55  56
BRANCH  55  58
ATOM     58  C   UNL     1      18.009  28.367  18.555  1.00  0.00     0.154 C 
BRANCH  58  59
ATOM     59  N   UNL     1      19.298  28.977  18.332  1.00  0.00    -0.319 N 
ATOM     60  C   UNL     1      20.484  28.537  18.964  1.00  0.00     0.407 C 
ATOM     61  H   UNL     1      19.357  29.776  17.672  1.00  0.00     0.167 HD
ATOM     62  O   UNL     1      20.433  27.567  19.764  1.00  0.00    -0.225 OA
BRANCH  60  63
ATOM     63  O   UNL     1      21.713  29.146  18.731  1.00  0.00    -0.443 OA
BRANCH  63  64
ATOM     64  C   UNL     1      22.517  28.677  17.654  1.00  0.00     0.294 C 
BRANCH  64  65
ATOM     65  C   UNL     1      23.426  27.656  18.259  1.00  0.00     0.120 A 
ATOM     66  C   UNL     1      23.689  26.420  17.733  1.00  0.00     0.138 A 
ATOM     67  N   UNL     1      24.136  27.777  19.408  1.00  0.00    -0.132 NA
ATOM     68  N   UNL     1      24.536  25.833  18.566  1.00  0.00    -0.250 N 
ATOM     69  N   UNL     1      24.803  26.659  19.577  1.00  0.00    -0.067 NA
BRANCH  68  70
ATOM     70  C   UNL     1      25.075  24.484  18.393  1.00  0.00     0.167 C 
BRANCH  70  71
ATOM     71  C   UNL     1      26.565  24.553  18.732  1.00  0.00     0.141 C 
BRANCH  71  72
ATOM     72  N   UNL     1      26.722  24.000  20.046  1.00  0.00    -0.336 N 
ATOM     73  C   UNL     1      27.430  22.813  20.320  1.00  0.00     0.315 C 
ATOM     74  H   UNL     1      26.269  24.533  20.836  1.00  0.00     0.165 HD
ATOM     75  O   UNL     1      27.960  22.147  19.404  1.00  0.00    -0.249 OA
ATOM     76  N   UNL     1      27.540  22.375  21.683  1.00  0.00    -0.331 N 
ATOM     77  H   UNL     1      27.079  22.967  22.421  1.00  0.00     0.165 HD
BRANCH  76  78
ATOM     78  C   UNL     1      28.256  21.172  22.004  1.00  0.00     0.193 C 
BRANCH  78  79
ATOM     79  C   UNL     1      29.437  21.482  22.853  1.00  0.00     0.122 A 
ATOM     80  C   UNL     1      30.329  22.519  22.605  1.00  0.00     0.047 A 
ATOM     81  O   UNL     1      29.813  20.863  23.920  1.00  0.00    -0.467 OA
ATOM     82  C   UNL     1      31.256  22.463  23.605  1.00  0.00     0.042 A 
ATOM     83  C   UNL     1      30.902  21.414  24.409  1.00  0.00     0.195 A 
ENDBRANCH  78  79
ENDBRANCH  76  78
ENDBRANCH  71  72
ENDBRANCH  70  71
ENDBRANCH  68  70
ENDBRANCH  64  65
ENDBRANCH  63  64
ENDBRANCH  60  63
ENDBRANCH  58  59
ENDBRANCH  55  58
ENDBRANCH   1  55
TORSDOF 34
