REMARK VINA RESULT:    -5.839      8.362     14.664
REMARK INTER + INTRA:         -21.064
REMARK INTER:                 -16.240
REMARK INTRA:                  -4.824
REMARK UNBOUND:                -6.520
REMARK SMILES CC(=O)N[C@@H]1[C@@H](O)C[C@](OC[C@H]2O[C@@H](O[C@H]3[C@H](O)[C@@H](O)[C@H](OCCN=[N+]=[N-])O[C@@H]3CO)[C@H](O)[C@@H](O)[C@H]2O)(C(=O)O)O[C@H]1C(O)[C@H](O)CNC(=O)OCc1cn(-c2nc(C)nc(N)n2)nn1
REMARK SMILES IDX 9 1 8 2 6 3 5 4 42 5 41 6 10 7 11 8 12 9 14 10 13 11 32 12
REMARK SMILES IDX 34 13 36 14 15 15 16 16 29 17 28 18 21 19 17 20 19 21 30 22
REMARK SMILES IDX 31 23 22 25 23 26 24 27 25 28 26 29 27 30 18 31 20 33 33 35
REMARK SMILES IDX 35 37 37 39 38 41 39 42 40 43 7 45 43 47 44 48 45 50 46 51
REMARK SMILES IDX 47 53 48 54 49 55 50 57 51 58 52 59 53 60 54 61 65 62 55 63
REMARK SMILES IDX 64 64 56 65 63 66 57 67 61 68 58 69 60 70 59 71 62 72 4 75
REMARK SMILES IDX 2 76 1 78 3 79
REMARK H PARENT 31 24 18 32 20 34 33 36 35 38 37 40 40 44 7 46 44 49 46 52
REMARK H PARENT 48 56 62 73 62 74 4 77
REMARK Flexibility Score: inf
ROOT
ATOM      1  C   UNL     1      32.356  18.401  24.890  1.00  0.00     0.272 C 
ATOM      2  C   UNL     1      33.701  18.919  24.512  1.00  0.00     0.113 C 
ATOM      3  C   UNL     1      33.599  20.182  23.713  1.00  0.00     0.145 C 
ATOM      4  C   UNL     1      32.738  19.918  22.505  1.00  0.00     0.142 C 
ATOM      5  C   UNL     1      31.478  19.151  22.832  1.00  0.00     0.178 C 
ATOM      6  O   UNL     1      31.646  18.131  23.689  1.00  0.00    -0.332 OA
ENDROOT
BRANCH   1   7
ATOM      7  O   UNL     1      31.670  19.011  25.792  1.00  0.00    -0.338 OA
BRANCH   7   8
ATOM      8  C   UNL     1      31.600  19.274  27.039  1.00  0.00     0.199 C 
BRANCH   8   9
ATOM      9  C   UNL     1      32.631  19.069  28.095  1.00  0.00     0.179 C 
ATOM     10  C   UNL     1      34.097  19.956  29.511  1.00  0.00     0.282 C 
ATOM     11  O   UNL     1      32.936  20.225  28.736  1.00  0.00    -0.341 OA
ATOM     12  C   UNL     1      33.560  19.245  30.727  1.00  0.00     0.202 C 
ATOM     13  C   UNL     1      32.994  17.911  30.309  1.00  0.00     0.179 C 
ATOM     14  C   UNL     1      32.510  17.826  28.915  1.00  0.00     0.177 C 
BRANCH  10  15
ATOM     15  O   UNL     1      34.751  21.110  29.850  1.00  0.00    -0.341 OA
BRANCH  15  16
ATOM     16  C   UNL     1      33.955  22.242  29.805  1.00  0.00     0.184 C 
ATOM     17  C   UNL     1      34.214  23.157  28.657  1.00  0.00     0.178 C 
ATOM     18  O   UNL     1      34.470  24.465  29.043  1.00  0.00    -0.341 OA
ATOM     19  C   UNL     1      33.521  25.004  29.903  1.00  0.00     0.281 C 
ATOM     20  C   UNL     1      34.261  22.993  31.115  1.00  0.00     0.180 C 
ATOM     21  C   UNL     1      33.344  24.192  31.152  1.00  0.00     0.202 C 
BRANCH  17  22
ATOM     22  C   UNL     1      33.184  23.101  27.560  1.00  0.00     0.191 C 
BRANCH  22  23
ATOM     23  O   UNL     1      31.976  22.683  28.160  1.00  0.00    -0.394 OA
ATOM     24  H   UNL     1      31.191  23.129  27.774  1.00  0.00     0.210 HD
ENDBRANCH  22  23
ENDBRANCH  17  22
BRANCH  19  25
ATOM     25  O   UNL     1      32.301  25.198  29.318  1.00  0.00    -0.350 OA
BRANCH  25  26
ATOM     26  C   UNL     1      31.234  25.409  30.140  1.00  0.00     0.169 C 
BRANCH  26  27
ATOM     27  C   UNL     1      30.004  25.891  29.421  1.00  0.00     0.119 C 
BRANCH  27  28
ATOM     28  N   UNL     1      28.886  25.013  29.795  1.00  0.00    -0.092 NA
ATOM     29  N   UNL     1      28.309  25.274  30.849  1.00  0.00     0.001 N 
ATOM     30  N   UNL     1      27.850  25.013  31.982  1.00  0.00    -0.003 NA
ENDBRANCH  27  28
ENDBRANCH  26  27
ENDBRANCH  25  26
ENDBRANCH  19  25
BRANCH  20  31
ATOM     31  O   UNL     1      34.087  22.149  32.191  1.00  0.00    -0.387 OA
ATOM     32  H   UNL     1      34.124  21.193  31.911  1.00  0.00     0.211 HD
ENDBRANCH  20  31
BRANCH  21  33
ATOM     33  O   UNL     1      33.667  24.920  32.298  1.00  0.00    -0.385 OA
ATOM     34  H   UNL     1      34.399  25.561  32.122  1.00  0.00     0.211 HD
ENDBRANCH  21  33
ENDBRANCH  15  16
ENDBRANCH  10  15
BRANCH  12  35
ATOM     35  O   UNL     1      34.516  19.090  31.728  1.00  0.00    -0.385 OA
ATOM     36  H   UNL     1      34.097  18.584  32.470  1.00  0.00     0.211 HD
ENDBRANCH  12  35
BRANCH  13  37
ATOM     37  O   UNL     1      32.033  17.562  31.262  1.00  0.00    -0.387 OA
ATOM     38  H   UNL     1      32.365  17.647  32.191  1.00  0.00     0.211 HD
ENDBRANCH  13  37
BRANCH  14  39
ATOM     39  O   UNL     1      31.261  17.214  28.881  1.00  0.00    -0.387 OA
ATOM     40  H   UNL     1      30.668  17.836  28.362  1.00  0.00     0.211 HD
ENDBRANCH  14  39
ENDBRANCH   8   9
ENDBRANCH   7   8
ENDBRANCH   1   7
BRANCH   1  41
ATOM     41  C   UNL     1      32.672  16.940  25.322  1.00  0.00     0.364 C 
ATOM     42  O   UNL     1      33.824  16.563  25.152  1.00  0.00    -0.246 OA
BRANCH  41  43
ATOM     43  O   UNL     1      31.698  16.156  25.855  1.00  0.00    -0.477 OA
ATOM     44  H   UNL     1      30.705  16.221  25.591  1.00  0.00     0.296 HD
ENDBRANCH  41  43
ENDBRANCH   1  41
BRANCH   3  45
ATOM     45  O   UNL     1      33.031  21.238  24.389  1.00  0.00    -0.391 OA
ATOM     46  H   UNL     1      33.135  22.087  23.925  1.00  0.00     0.211 HD
ENDBRANCH   3  45
BRANCH   5  47
ATOM     47  C   UNL     1      30.293  20.038  23.124  1.00  0.00     0.176 C 
BRANCH  47  48
ATOM     48  O   UNL     1      30.603  21.366  22.886  1.00  0.00    -0.388 OA
ATOM     49  H   UNL     1      30.311  21.992  23.572  1.00  0.00     0.211 HD
ENDBRANCH  47  48
BRANCH  47  50
ATOM     50  C   UNL     1      29.129  19.595  22.295  1.00  0.00     0.165 C 
BRANCH  50  51
ATOM     51  O   UNL     1      29.091  18.188  22.290  1.00  0.00    -0.388 OA
ATOM     52  H   UNL     1      29.681  17.862  22.992  1.00  0.00     0.211 HD
ENDBRANCH  50  51
BRANCH  50  53
ATOM     53  C   UNL     1      29.138  20.060  20.879  1.00  0.00     0.154 C 
BRANCH  53  54
ATOM     54  N   UNL     1      28.391  21.285  20.694  1.00  0.00    -0.319 N 
ATOM     55  C   UNL     1      27.829  21.695  19.470  1.00  0.00     0.407 C 
ATOM     56  H   UNL     1      28.238  21.942  21.514  1.00  0.00     0.167 HD
ATOM     57  O   UNL     1      27.951  20.997  18.458  1.00  0.00    -0.225 OA
BRANCH  55  58
ATOM     58  O   UNL     1      27.122  22.887  19.346  1.00  0.00    -0.443 OA
BRANCH  58  59
ATOM     59  C   UNL     1      27.656  24.150  19.652  1.00  0.00     0.294 C 
BRANCH  59  60
ATOM     60  C   UNL     1      26.888  24.828  20.739  1.00  0.00     0.121 A 
ATOM     61  C   UNL     1      25.932  24.250  21.548  1.00  0.00     0.148 A 
ATOM     62  N   UNL     1      26.985  26.115  21.127  1.00  0.00    -0.131 NA
ATOM     63  N   UNL     1      25.480  25.191  22.394  1.00  0.00    -0.185 N 
ATOM     64  N   UNL     1      26.131  26.303  22.117  1.00  0.00    -0.059 NA
BRANCH  63  65
ATOM     65  C   UNL     1      24.483  24.962  23.380  1.00  0.00     0.257 A 
ATOM     66  N   UNL     1      24.846  24.834  24.670  1.00  0.00    -0.175 NA
ATOM     67  N   UNL     1      23.169  24.865  23.111  1.00  0.00    -0.196 NA
ATOM     68  C   UNL     1      23.937  24.617  25.655  1.00  0.00     0.225 A 
ATOM     69  C   UNL     1      22.244  24.652  24.053  1.00  0.00     0.133 A 
ATOM     70  N   UNL     1      22.632  24.529  25.319  1.00  0.00    -0.198 NA
ATOM     71  C   UNL     1      20.784  24.550  23.706  1.00  0.00     0.090 C 
BRANCH  68  72
ATOM     72  N   UNL     1      24.372  24.490  26.994  1.00  0.00    -0.368 N 
ATOM     73  H   UNL     1      25.150  25.068  27.369  1.00  0.00     0.159 HD
ATOM     74  H   UNL     1      23.919  23.810  27.634  1.00  0.00     0.159 HD
ENDBRANCH  68  72
ENDBRANCH  63  65
ENDBRANCH  59  60
ENDBRANCH  58  59
ENDBRANCH  55  58
ENDBRANCH  53  54
ENDBRANCH  50  53
ENDBRANCH  47  50
ENDBRANCH   5  47
BRANCH   4  75
ATOM     75  N   UNL     1      33.522  19.196  21.526  1.00  0.00    -0.348 N 
ATOM     76  C   UNL     1      33.819  19.773  20.259  1.00  0.00     0.217 C 
ATOM     77  H   UNL     1      33.900  18.232  21.706  1.00  0.00     0.163 HD
ATOM     78  C   UNL     1      34.615  19.025  19.277  1.00  0.00     0.114 C 
ATOM     79  O   UNL     1      33.397  20.918  19.988  1.00  0.00    -0.275 OA
ENDBRANCH   4  75
TORSDOF 31
