REMARK VINA RESULT:    -6.182     14.036     18.542
REMARK INTER + INTRA:         -20.669
REMARK INTER:                 -13.171
REMARK INTRA:                  -7.498
REMARK UNBOUND:                -4.909
REMARK SMILES CC(=O)N[C@@H]1[C@@H](O)C[C@](OC[C@H]2O[C@@H](O[C@H]3[C@H](O)[C@@H](O)[C@H](OCCN=[N+]=[N-])O[C@@H]3CO)[C@H](O)[C@@H](O)[C@H]2O)(C(=O)O)O[C@H]1C(O)[C@H](O)CNC(=O)OCc1cn(CCO)nn1
REMARK SMILES IDX 9 1 8 2 6 3 5 4 42 5 41 6 10 7 11 8 12 9 14 10 13 11 32 12
REMARK SMILES IDX 34 13 36 14 15 15 16 16 29 17 28 18 21 19 17 20 19 21 30 22
REMARK SMILES IDX 31 23 22 25 23 26 24 27 25 28 26 29 27 30 18 31 20 33 33 35
REMARK SMILES IDX 35 37 37 39 38 41 39 42 40 43 7 45 43 47 44 48 45 50 46 51
REMARK SMILES IDX 47 53 48 54 49 55 50 57 51 58 52 59 53 60 54 61 60 62 55 63
REMARK SMILES IDX 59 64 56 65 57 66 58 67 4 69 2 70 1 72 3 73
REMARK H PARENT 31 24 18 32 20 34 33 36 35 38 37 40 40 44 7 46 44 49 46 52
REMARK H PARENT 48 56 58 68 4 71
REMARK Flexibility Score: inf
ROOT
ATOM      1  C   UNL     1      19.302  28.569  19.624  1.00  0.00     0.272 C 
ATOM      2  C   UNL     1      19.524  28.630  18.148  1.00  0.00     0.113 C 
ATOM      3  C   UNL     1      20.994  28.745  17.852  1.00  0.00     0.145 C 
ATOM      4  C   UNL     1      21.653  27.542  18.526  1.00  0.00     0.142 C 
ATOM      5  C   UNL     1      21.470  27.750  20.025  1.00  0.00     0.178 C 
ATOM      6  O   UNL     1      20.074  27.607  20.204  1.00  0.00    -0.332 OA
ENDROOT
BRANCH   1   7
ATOM      7  O   UNL     1      17.952  28.269  19.922  1.00  0.00    -0.338 OA
BRANCH   7   8
ATOM      8  C   UNL     1      17.159  27.996  18.858  1.00  0.00     0.199 C 
BRANCH   8   9
ATOM      9  C   UNL     1      15.724  28.493  19.095  1.00  0.00     0.179 C 
ATOM     10  C   UNL     1      14.208  29.026  20.768  1.00  0.00     0.282 C 
ATOM     11  O   UNL     1      15.424  28.427  20.438  1.00  0.00    -0.341 OA
ATOM     12  C   UNL     1      14.201  30.503  20.475  1.00  0.00     0.202 C 
ATOM     13  C   UNL     1      15.235  30.925  19.462  1.00  0.00     0.179 C 
ATOM     14  C   UNL     1      15.454  29.818  18.470  1.00  0.00     0.177 C 
BRANCH  10  15
ATOM     15  O   UNL     1      14.036  28.835  22.086  1.00  0.00    -0.341 OA
BRANCH  15  16
ATOM     16  C   UNL     1      14.476  29.727  22.987  1.00  0.00     0.184 C 
ATOM     17  C   UNL     1      15.690  29.513  23.775  1.00  0.00     0.178 C 
ATOM     18  O   UNL     1      15.547  30.036  25.048  1.00  0.00    -0.341 OA
ATOM     19  C   UNL     1      14.935  31.242  25.178  1.00  0.00     0.281 C 
ATOM     20  C   UNL     1      13.313  29.868  24.004  1.00  0.00     0.180 C 
ATOM     21  C   UNL     1      13.507  31.241  24.611  1.00  0.00     0.202 C 
BRANCH  17  22
ATOM     22  C   UNL     1      16.935  30.147  23.162  1.00  0.00     0.191 C 
BRANCH  22  23
ATOM     23  O   UNL     1      18.104  29.523  23.599  1.00  0.00    -0.394 OA
ATOM     24  H   UNL     1      17.855  28.790  24.193  1.00  0.00     0.210 HD
ENDBRANCH  22  23
ENDBRANCH  17  22
BRANCH  19  25
ATOM     25  O   UNL     1      15.635  32.343  24.773  1.00  0.00    -0.350 OA
BRANCH  25  26
ATOM     26  C   UNL     1      14.967  33.266  24.025  1.00  0.00     0.169 C 
BRANCH  26  27
ATOM     27  C   UNL     1      15.869  33.912  23.028  1.00  0.00     0.119 C 
BRANCH  27  28
ATOM     28  N   UNL     1      15.289  33.756  21.683  1.00  0.00    -0.092 NA
ATOM     29  N   UNL     1      14.055  33.912  21.628  1.00  0.00     0.001 N 
ATOM     30  N   UNL     1      13.032  34.561  21.348  1.00  0.00    -0.003 NA
ENDBRANCH  27  28
ENDBRANCH  26  27
ENDBRANCH  25  26
ENDBRANCH  19  25
BRANCH  20  31
ATOM     31  O   UNL     1      12.100  29.712  23.386  1.00  0.00    -0.387 OA
ATOM     32  H   UNL     1      12.153  29.155  22.568  1.00  0.00     0.211 HD
ENDBRANCH  20  31
BRANCH  21  33
ATOM     33  O   UNL     1      12.547  31.508  25.550  1.00  0.00    -0.385 OA
ATOM     34  H   UNL     1      12.519  32.462  25.811  1.00  0.00     0.211 HD
ENDBRANCH  21  33
ENDBRANCH  15  16
ENDBRANCH  10  15
BRANCH  12  35
ATOM     35  O   UNL     1      12.959  30.816  19.900  1.00  0.00    -0.385 OA
ATOM     36  H   UNL     1      12.734  30.253  19.134  1.00  0.00     0.211 HD
ENDBRANCH  12  35
BRANCH  13  37
ATOM     37  O   UNL     1      16.376  31.322  20.109  1.00  0.00    -0.387 OA
ATOM     38  H   UNL     1      16.538  32.313  20.014  1.00  0.00     0.211 HD
ENDBRANCH  13  37
BRANCH  14  39
ATOM     39  O   UNL     1      16.594  30.165  17.711  1.00  0.00    -0.387 OA
ATOM     40  H   UNL     1      17.213  30.725  18.242  1.00  0.00     0.211 HD
ENDBRANCH  14  39
ENDBRANCH   8   9
ENDBRANCH   7   8
ENDBRANCH   1   7
BRANCH   1  41
ATOM     41  C   UNL     1      19.503  29.919  20.192  1.00  0.00     0.364 C 
ATOM     42  O   UNL     1      19.166  30.961  19.599  1.00  0.00    -0.246 OA
BRANCH  41  43
ATOM     43  O   UNL     1      20.086  30.082  21.437  1.00  0.00    -0.477 OA
ATOM     44  H   UNL     1      21.055  29.784  21.644  1.00  0.00     0.296 HD
ENDBRANCH  41  43
ENDBRANCH   1  41
BRANCH   3  45
ATOM     45  O   UNL     1      21.234  28.597  16.468  1.00  0.00    -0.391 OA
ATOM     46  H   UNL     1      22.033  29.138  16.222  1.00  0.00     0.211 HD
ENDBRANCH   3  45
BRANCH   5  47
ATOM     47  C   UNL     1      22.060  26.585  20.752  1.00  0.00     0.176 C 
BRANCH  47  48
ATOM     48  O   UNL     1      23.212  26.942  21.454  1.00  0.00    -0.388 OA
ATOM     49  H   UNL     1      23.753  27.618  20.965  1.00  0.00     0.211 HD
ENDBRANCH  47  48
BRANCH  47  50
ATOM     50  C   UNL     1      21.180  25.752  21.599  1.00  0.00     0.165 C 
BRANCH  50  51
ATOM     51  O   UNL     1      20.807  26.682  22.665  1.00  0.00    -0.388 OA
ATOM     52  H   UNL     1      21.468  27.412  22.676  1.00  0.00     0.211 HD
ENDBRANCH  50  51
BRANCH  50  53
ATOM     53  C   UNL     1      21.905  24.682  22.396  1.00  0.00     0.154 C 
BRANCH  53  54
ATOM     54  N   UNL     1      21.535  24.637  23.774  1.00  0.00    -0.319 N 
ATOM     55  C   UNL     1      22.520  24.687  24.793  1.00  0.00     0.407 C 
ATOM     56  H   UNL     1      20.523  24.555  24.076  1.00  0.00     0.167 HD
ATOM     57  O   UNL     1      23.733  24.764  24.400  1.00  0.00    -0.225 OA
BRANCH  55  58
ATOM     58  O   UNL     1      22.289  24.662  26.142  1.00  0.00    -0.443 OA
BRANCH  58  59
ATOM     59  C   UNL     1      22.270  25.881  26.860  1.00  0.00     0.294 C 
BRANCH  59  60
ATOM     60  C   UNL     1      21.566  26.953  26.151  1.00  0.00     0.120 A 
ATOM     61  C   UNL     1      22.014  28.243  26.010  1.00  0.00     0.138 A 
ATOM     62  N   UNL     1      20.386  26.910  25.513  1.00  0.00    -0.132 NA
ATOM     63  N   UNL     1      21.112  28.950  25.301  1.00  0.00    -0.250 N 
ATOM     64  N   UNL     1      20.133  28.125  25.008  1.00  0.00    -0.067 NA
BRANCH  63  65
ATOM     65  C   UNL     1      21.231  30.370  24.940  1.00  0.00     0.174 C 
BRANCH  65  66
ATOM     66  C   UNL     1      20.475  31.181  25.963  1.00  0.00     0.179 C 
BRANCH  66  67
ATOM     67  O   UNL     1      19.145  30.729  25.957  1.00  0.00    -0.394 OA
ATOM     68  H   UNL     1      18.689  30.879  25.111  1.00  0.00     0.210 HD
ENDBRANCH  66  67
ENDBRANCH  65  66
ENDBRANCH  63  65
ENDBRANCH  59  60
ENDBRANCH  58  59
ENDBRANCH  55  58
ENDBRANCH  53  54
ENDBRANCH  50  53
ENDBRANCH  47  50
ENDBRANCH   5  47
BRANCH   4  69
ATOM     69  N   UNL     1      22.965  27.291  18.075  1.00  0.00    -0.348 N 
ATOM     70  C   UNL     1      23.421  26.081  17.501  1.00  0.00     0.217 C 
ATOM     71  H   UNL     1      23.687  28.053  18.140  1.00  0.00     0.163 HD
ATOM     72  C   UNL     1      24.830  25.958  17.075  1.00  0.00     0.114 C 
ATOM     73  O   UNL     1      22.654  25.118  17.351  1.00  0.00    -0.275 OA
ENDBRANCH   4  69
TORSDOF 32
