REMARK VINA RESULT:    -5.807     10.617     16.935
REMARK INTER + INTRA:         -21.232
REMARK INTER:                 -14.138
REMARK INTRA:                  -7.094
REMARK UNBOUND:                -6.939
REMARK SMILES CC(=O)N[C@@H]1[C@@H](O)C[C@](OC[C@H]2O[C@@H](O[C@H]3[C@H](O)[C@@H](O)[C@H](OCCN=[N+]=[N-])O[C@@H]3CO)[C@H](O)[C@@H](O)[C@H]2O)(C(=O)O)O[C@H]1C(O)[C@H](O)CNC(=O)OCc1cn([C@H]2C[C@H]3CC[C@@H](C2)N3C)nn1
REMARK SMILES IDX 9 1 8 2 6 3 5 4 42 5 41 6 10 7 11 8 12 9 14 10 13 11 32 12
REMARK SMILES IDX 34 13 36 14 15 15 16 16 29 17 28 18 21 19 17 20 19 21 30 22
REMARK SMILES IDX 31 23 22 25 23 26 24 27 25 28 26 29 27 30 18 31 20 33 33 35
REMARK SMILES IDX 35 37 37 39 38 41 39 42 40 43 7 45 43 47 44 48 45 50 46 51
REMARK SMILES IDX 47 53 48 54 49 55 50 57 51 58 52 59 53 60 54 61 66 62 55 63
REMARK SMILES IDX 65 64 56 65 62 66 57 67 61 68 58 69 63 70 60 71 59 72 64 73
REMARK SMILES IDX 4 74 2 75 1 77 3 78
REMARK H PARENT 31 24 18 32 20 34 33 36 35 38 37 40 40 44 7 46 44 49 46 52
REMARK H PARENT 48 56 4 76
REMARK Flexibility Score: inf
ROOT
ATOM      1  C   UNL     1      29.112  21.405  21.808  1.00  0.00     0.272 C 
ATOM      2  C   UNL     1      28.171  20.260  21.479  1.00  0.00     0.113 C 
ATOM      3  C   UNL     1      28.841  19.028  20.951  1.00  0.00     0.145 C 
ATOM      4  C   UNL     1      30.046  19.437  20.190  1.00  0.00     0.142 C 
ATOM      5  C   UNL     1      29.786  20.842  19.640  1.00  0.00     0.178 C 
ATOM      6  O   UNL     1      30.028  21.654  20.824  1.00  0.00    -0.332 OA
ENDROOT
BRANCH   1   7
ATOM      7  O   UNL     1      29.650  21.170  23.037  1.00  0.00    -0.338 OA
BRANCH   7   8
ATOM      8  C   UNL     1      30.704  21.890  23.467  1.00  0.00     0.199 C 
BRANCH   8   9
ATOM      9  C   UNL     1      31.947  21.188  23.869  1.00  0.00     0.179 C 
ATOM     10  C   UNL     1      33.125  20.784  25.753  1.00  0.00     0.282 C 
ATOM     11  O   UNL     1      31.821  20.798  25.241  1.00  0.00    -0.341 OA
ATOM     12  C   UNL     1      34.060  19.949  24.987  1.00  0.00     0.202 C 
ATOM     13  C   UNL     1      33.658  19.487  23.638  1.00  0.00     0.179 C 
ATOM     14  C   UNL     1      32.277  19.903  23.182  1.00  0.00     0.177 C 
BRANCH  10  15
ATOM     15  O   UNL     1      33.013  20.423  27.074  1.00  0.00    -0.341 OA
BRANCH  15  16
ATOM     16  C   UNL     1      33.187  19.050  27.271  1.00  0.00     0.184 C 
ATOM     17  C   UNL     1      31.930  18.294  27.547  1.00  0.00     0.178 C 
ATOM     18  O   UNL     1      31.407  18.388  28.797  1.00  0.00    -0.341 OA
ATOM     19  C   UNL     1      32.300  18.303  29.809  1.00  0.00     0.281 C 
ATOM     20  C   UNL     1      34.161  18.940  28.423  1.00  0.00     0.180 C 
ATOM     21  C   UNL     1      33.373  19.380  29.655  1.00  0.00     0.202 C 
BRANCH  17  22
ATOM     22  C   UNL     1      32.014  16.862  27.005  1.00  0.00     0.191 C 
BRANCH  22  23
ATOM     23  O   UNL     1      32.059  16.792  25.631  1.00  0.00    -0.394 OA
ATOM     24  H   UNL     1      31.702  17.594  25.194  1.00  0.00     0.210 HD
ENDBRANCH  22  23
ENDBRANCH  17  22
BRANCH  19  25
ATOM     25  O   UNL     1      32.827  17.081  30.099  1.00  0.00    -0.350 OA
BRANCH  25  26
ATOM     26  C   UNL     1      33.031  16.758  31.405  1.00  0.00     0.169 C 
BRANCH  26  27
ATOM     27  C   UNL     1      34.358  16.120  31.637  1.00  0.00     0.119 C 
BRANCH  27  28
ATOM     28  N   UNL     1      35.450  17.101  31.572  1.00  0.00    -0.092 NA
ATOM     29  N   UNL     1      36.609  16.724  31.324  1.00  0.00     0.001 N 
ATOM     30  N   UNL     1      37.530  16.308  30.593  1.00  0.00    -0.003 NA
ENDBRANCH  27  28
ENDBRANCH  26  27
ENDBRANCH  25  26
ENDBRANCH  19  25
BRANCH  20  31
ATOM     31  O   UNL     1      34.640  17.668  28.624  1.00  0.00    -0.387 OA
ATOM     32  H   UNL     1      35.410  17.632  29.214  1.00  0.00     0.211 HD
ENDBRANCH  20  31
BRANCH  21  33
ATOM     33  O   UNL     1      32.772  20.620  29.449  1.00  0.00    -0.385 OA
ATOM     34  H   UNL     1      32.383  20.600  28.534  1.00  0.00     0.211 HD
ENDBRANCH  21  33
ENDBRANCH  15  16
ENDBRANCH  10  15
BRANCH  12  35
ATOM     35  O   UNL     1      35.262  20.688  24.844  1.00  0.00    -0.385 OA
ATOM     36  H   UNL     1      35.482  20.866  23.905  1.00  0.00     0.211 HD
ENDBRANCH  12  35
BRANCH  13  37
ATOM     37  O   UNL     1      33.692  18.073  23.547  1.00  0.00    -0.387 OA
ATOM     38  H   UNL     1      34.295  17.846  22.768  1.00  0.00     0.211 HD
ENDBRANCH  13  37
BRANCH  14  39
ATOM     39  O   UNL     1      31.402  18.889  23.641  1.00  0.00    -0.387 OA
ATOM     40  H   UNL     1      31.774  18.659  24.549  1.00  0.00     0.211 HD
ENDBRANCH  14  39
ENDBRANCH   8   9
ENDBRANCH   7   8
ENDBRANCH   1   7
BRANCH   1  41
ATOM     41  C   UNL     1      28.212  22.601  21.865  1.00  0.00     0.364 C 
ATOM     42  O   UNL     1      28.614  23.730  21.602  1.00  0.00    -0.246 OA
BRANCH  41  43
ATOM     43  O   UNL     1      26.865  22.458  22.225  1.00  0.00    -0.477 OA
ATOM     44  H   UNL     1      26.284  23.307  22.183  1.00  0.00     0.296 HD
ENDBRANCH  41  43
ENDBRANCH   1  41
BRANCH   3  45
ATOM     45  O   UNL     1      29.159  18.235  22.080  1.00  0.00    -0.391 OA
ATOM     46  H   UNL     1      30.001  17.738  21.921  1.00  0.00     0.211 HD
ENDBRANCH   3  45
BRANCH   5  47
ATOM     47  C   UNL     1      30.751  21.295  18.619  1.00  0.00     0.176 C 
BRANCH  47  48
ATOM     48  O   UNL     1      31.665  22.206  19.307  1.00  0.00    -0.388 OA
ATOM     49  H   UNL     1      31.107  22.875  19.780  1.00  0.00     0.211 HD
ENDBRANCH  47  48
BRANCH  47  50
ATOM     50  C   UNL     1      30.210  22.267  17.580  1.00  0.00     0.165 C 
BRANCH  50  51
ATOM     51  O   UNL     1      30.937  21.999  16.395  1.00  0.00    -0.388 OA
ATOM     52  H   UNL     1      31.265  22.834  15.979  1.00  0.00     0.211 HD
ENDBRANCH  50  51
BRANCH  50  53
ATOM     53  C   UNL     1      30.262  23.707  17.895  1.00  0.00     0.154 C 
BRANCH  53  54
ATOM     54  N   UNL     1      28.967  24.053  18.516  1.00  0.00    -0.319 N 
ATOM     55  C   UNL     1      27.894  24.567  17.748  1.00  0.00     0.407 C 
ATOM     56  H   UNL     1      28.857  23.912  19.536  1.00  0.00     0.167 HD
ATOM     57  O   UNL     1      28.055  24.717  16.495  1.00  0.00    -0.225 OA
BRANCH  55  58
ATOM     58  O   UNL     1      26.690  24.897  18.349  1.00  0.00    -0.443 OA
BRANCH  58  59
ATOM     59  C   UNL     1      26.712  25.780  19.448  1.00  0.00     0.294 C 
BRANCH  59  60
ATOM     60  C   UNL     1      25.860  25.345  20.572  1.00  0.00     0.120 A 
ATOM     61  C   UNL     1      25.707  26.036  21.756  1.00  0.00     0.138 A 
ATOM     62  N   UNL     1      25.109  24.246  20.702  1.00  0.00    -0.132 NA
ATOM     63  N   UNL     1      24.885  25.357  22.566  1.00  0.00    -0.249 N 
ATOM     64  N   UNL     1      24.524  24.258  21.904  1.00  0.00    -0.067 NA
BRANCH  63  65
ATOM     65  C   UNL     1      24.508  25.789  23.904  1.00  0.00     0.112 C 
ATOM     66  C   UNL     1      24.123  24.569  24.669  1.00  0.00     0.046 C 
ATOM     67  C   UNL     1      23.455  26.841  23.778  1.00  0.00     0.046 C 
ATOM     68  C   UNL     1      22.890  24.711  25.502  1.00  0.00     0.058 C 
ATOM     69  C   UNL     1      22.341  26.758  24.775  1.00  0.00     0.058 C 
ATOM     70  N   UNL     1      22.708  26.046  25.981  1.00  0.00    -0.300 NA
ATOM     71  C   UNL     1      21.671  24.506  24.605  1.00  0.00     0.021 C 
ATOM     72  C   UNL     1      21.242  25.894  24.192  1.00  0.00     0.021 C 
ATOM     73  C   UNL     1      23.854  26.618  26.644  1.00  0.00     0.105 C 
ENDBRANCH  63  65
ENDBRANCH  59  60
ENDBRANCH  58  59
ENDBRANCH  55  58
ENDBRANCH  53  54
ENDBRANCH  50  53
ENDBRANCH  47  50
ENDBRANCH   5  47
BRANCH   4  74
ATOM     74  N   UNL     1      30.635  18.479  19.354  1.00  0.00    -0.348 N 
ATOM     75  C   UNL     1      31.699  17.618  19.788  1.00  0.00     0.217 C 
ATOM     76  H   UNL     1      30.295  18.325  18.378  1.00  0.00     0.163 HD
ATOM     77  C   UNL     1      32.255  16.612  18.822  1.00  0.00     0.114 C 
ATOM     78  O   UNL     1      32.161  17.688  20.933  1.00  0.00    -0.275 OA
ENDBRANCH   4  74
TORSDOF 30
