REMARK VINA RESULT:    -5.784      1.971      2.313
REMARK INTER + INTRA:         -23.201
REMARK INTER:                 -16.492
REMARK INTRA:                  -6.710
REMARK UNBOUND:                -8.458
REMARK SMILES CC(=O)N[C@@H]1[C@@H](O)C[C@](OC[C@H]2O[C@@H](O[C@H]3[C@H](O)[C@@H](O)[C@H](OCCN=[N+]=[N-])O[C@@H]3CO)[C@H](O)[C@@H](O)[C@H]2O)(C(=O)O)O[C@H]1C(O)[C@H](O)CNC(=O)OCc1cn(-c2ccc(O)c([N+](=O)[O-])c2)nn1
REMARK SMILES IDX 9 1 8 2 6 3 5 4 42 5 41 6 10 7 11 8 12 9 14 10 13 11 32 12
REMARK SMILES IDX 34 13 36 14 15 15 16 16 29 17 28 18 21 19 17 20 19 21 30 22
REMARK SMILES IDX 31 23 22 25 23 26 24 27 25 28 26 29 27 30 18 31 20 33 33 35
REMARK SMILES IDX 35 37 37 39 38 41 39 42 40 43 7 45 43 47 44 48 45 50 46 51
REMARK SMILES IDX 47 53 48 54 49 55 50 57 51 58 52 59 53 60 54 61 67 62 55 63
REMARK SMILES IDX 66 64 56 65 57 66 65 67 58 68 61 69 59 70 62 71 63 72 64 73
REMARK SMILES IDX 60 74 4 76 2 77 1 79 3 80
REMARK H PARENT 31 24 18 32 20 34 33 36 35 38 37 40 40 44 7 46 44 49 46 52
REMARK H PARENT 48 56 60 75 4 78
REMARK Flexibility Score: inf
ROOT
ATOM      1  C   UNL     1      13.480  31.705  21.454  1.00  0.00     0.272 C 
ATOM      2  C   UNL     1      13.418  30.758  20.241  1.00  0.00     0.113 C 
ATOM      3  C   UNL     1      13.792  29.350  20.696  1.00  0.00     0.145 C 
ATOM      4  C   UNL     1      15.297  29.457  21.050  1.00  0.00     0.142 C 
ATOM      5  C   UNL     1      15.551  30.745  21.781  1.00  0.00     0.178 C 
ATOM      6  O   UNL     1      14.371  31.218  22.384  1.00  0.00    -0.332 OA
ENDROOT
BRANCH   1   7
ATOM      7  O   UNL     1      12.203  31.675  21.985  1.00  0.00    -0.338 OA
BRANCH   7   8
ATOM      8  C   UNL     1      11.883  32.654  22.876  1.00  0.00     0.199 C 
BRANCH   8   9
ATOM      9  C   UNL     1      11.196  31.929  24.059  1.00  0.00     0.179 C 
ATOM     10  C   UNL     1      10.155  29.941  24.390  1.00  0.00     0.282 C 
ATOM     11  O   UNL     1      10.422  30.968  23.482  1.00  0.00    -0.341 OA
ATOM     12  C   UNL     1      11.416  29.167  24.552  1.00  0.00     0.202 C 
ATOM     13  C   UNL     1      12.460  30.051  25.183  1.00  0.00     0.179 C 
ATOM     14  C   UNL     1      12.233  31.508  25.022  1.00  0.00     0.177 C 
BRANCH  10  15
ATOM     15  O   UNL     1       9.072  29.178  23.932  1.00  0.00    -0.341 OA
BRANCH  15  16
ATOM     16  C   UNL     1       8.144  29.080  24.950  1.00  0.00     0.184 C 
ATOM     17  C   UNL     1       7.491  27.749  25.096  1.00  0.00     0.178 C 
ATOM     18  O   UNL     1       6.835  27.741  26.321  1.00  0.00    -0.341 OA
ATOM     19  C   UNL     1       5.691  28.591  26.272  1.00  0.00     0.281 C 
ATOM     20  C   UNL     1       6.979  30.068  24.676  1.00  0.00     0.180 C 
ATOM     21  C   UNL     1       6.071  29.976  25.899  1.00  0.00     0.202 C 
BRANCH  17  22
ATOM     22  C   UNL     1       8.392  26.565  25.001  1.00  0.00     0.191 C 
BRANCH  22  23
ATOM     23  O   UNL     1       9.185  26.446  26.130  1.00  0.00    -0.394 OA
ATOM     24  H   UNL     1       8.575  26.501  26.933  1.00  0.00     0.210 HD
ENDBRANCH  22  23
ENDBRANCH  17  22
BRANCH  19  25
ATOM     25  O   UNL     1       5.209  28.552  27.575  1.00  0.00    -0.350 OA
BRANCH  25  26
ATOM     26  C   UNL     1       4.409  27.458  27.841  1.00  0.00     0.169 C 
BRANCH  26  27
ATOM     27  C   UNL     1       3.142  27.486  27.044  1.00  0.00     0.119 C 
BRANCH  27  28
ATOM     28  N   UNL     1       3.113  26.299  26.192  1.00  0.00    -0.092 NA
ATOM     29  N   UNL     1       3.520  25.208  26.651  1.00  0.00     0.001 N 
ATOM     30  N   UNL     1       3.461  24.027  27.038  1.00  0.00    -0.003 NA
ENDBRANCH  27  28
ENDBRANCH  26  27
ENDBRANCH  25  26
ENDBRANCH  19  25
BRANCH  20  31
ATOM     31  O   UNL     1       7.445  31.371  24.603  1.00  0.00    -0.387 OA
ATOM     32  H   UNL     1       6.954  31.981  25.218  1.00  0.00     0.211 HD
ENDBRANCH  20  31
BRANCH  21  33
ATOM     33  O   UNL     1       4.939  30.713  25.562  1.00  0.00    -0.385 OA
ATOM     34  H   UNL     1       4.418  30.277  24.861  1.00  0.00     0.211 HD
ENDBRANCH  21  33
ENDBRANCH  15  16
ENDBRANCH  10  15
BRANCH  12  35
ATOM     35  O   UNL     1      11.260  28.007  25.304  1.00  0.00    -0.385 OA
ATOM     36  H   UNL     1      11.989  27.351  25.109  1.00  0.00     0.211 HD
ENDBRANCH  12  35
BRANCH  13  37
ATOM     37  O   UNL     1      13.703  29.605  24.720  1.00  0.00    -0.387 OA
ATOM     38  H   UNL     1      13.682  29.675  23.728  1.00  0.00     0.211 HD
ENDBRANCH  13  37
BRANCH  14  39
ATOM     39  O   UNL     1      13.480  32.120  24.768  1.00  0.00    -0.387 OA
ATOM     40  H   UNL     1      13.746  32.053  23.827  1.00  0.00     0.211 HD
ENDBRANCH  14  39
ENDBRANCH   8   9
ENDBRANCH   7   8
ENDBRANCH   1   7
BRANCH   1  41
ATOM     41  C   UNL     1      13.758  33.029  20.908  1.00  0.00     0.364 C 
ATOM     42  O   UNL     1      13.281  33.509  19.846  1.00  0.00    -0.246 OA
BRANCH  41  43
ATOM     43  O   UNL     1      14.628  33.878  21.595  1.00  0.00    -0.477 OA
ATOM     44  H   UNL     1      15.456  34.280  21.167  1.00  0.00     0.296 HD
ENDBRANCH  41  43
ENDBRANCH   1  41
BRANCH   3  45
ATOM     45  O   UNL     1      13.067  28.964  21.792  1.00  0.00    -0.391 OA
ATOM     46  H   UNL     1      12.954  27.983  21.780  1.00  0.00     0.211 HD
ENDBRANCH   3  45
BRANCH   5  47
ATOM     47  C   UNL     1      16.529  30.499  22.904  1.00  0.00     0.176 C 
BRANCH  47  48
ATOM     48  O   UNL     1      17.408  29.507  22.501  1.00  0.00    -0.388 OA
ATOM     49  H   UNL     1      18.173  29.861  21.983  1.00  0.00     0.211 HD
ENDBRANCH  47  48
BRANCH  47  50
ATOM     50  C   UNL     1      17.317  31.716  23.317  1.00  0.00     0.165 C 
BRANCH  50  51
ATOM     51  O   UNL     1      16.339  32.614  23.822  1.00  0.00    -0.388 OA
ATOM     52  H   UNL     1      16.548  32.878  24.761  1.00  0.00     0.211 HD
ENDBRANCH  50  51
BRANCH  50  53
ATOM     53  C   UNL     1      17.940  32.406  22.137  1.00  0.00     0.154 C 
BRANCH  53  54
ATOM     54  N   UNL     1      19.287  31.942  21.941  1.00  0.00    -0.319 N 
ATOM     55  C   UNL     1      19.729  31.112  20.889  1.00  0.00     0.407 C 
ATOM     56  H   UNL     1      20.039  32.236  22.638  1.00  0.00     0.167 HD
ATOM     57  O   UNL     1      18.888  30.741  20.059  1.00  0.00    -0.225 OA
BRANCH  55  58
ATOM     58  O   UNL     1      21.026  30.688  20.718  1.00  0.00    -0.443 OA
BRANCH  58  59
ATOM     59  C   UNL     1      21.323  29.566  19.927  1.00  0.00     0.294 C 
BRANCH  59  60
ATOM     60  C   UNL     1      21.250  28.354  20.796  1.00  0.00     0.121 A 
ATOM     61  C   UNL     1      22.206  27.963  21.737  1.00  0.00     0.144 A 
ATOM     62  N   UNL     1      20.317  27.398  20.881  1.00  0.00    -0.131 NA
ATOM     63  N   UNL     1      21.807  26.834  22.312  1.00  0.00    -0.220 N 
ATOM     64  N   UNL     1      20.643  26.519  21.761  1.00  0.00    -0.062 NA
BRANCH  63  65
ATOM     65  C   UNL     1      22.503  26.093  23.328  1.00  0.00     0.073 A 
ATOM     66  C   UNL     1      23.589  25.331  23.021  1.00  0.00     0.033 A 
ATOM     67  C   UNL     1      22.107  26.125  24.638  1.00  0.00     0.118 A 
ATOM     68  C   UNL     1      24.289  24.607  23.957  1.00  0.00     0.056 A 
ATOM     69  C   UNL     1      22.804  25.393  25.619  1.00  0.00     0.312 A 
ATOM     70  C   UNL     1      23.898  24.627  25.314  1.00  0.00     0.194 A 
BRANCH  69  71
ATOM     71  N   UNL     1      22.332  25.487  26.940  1.00  0.00     0.066 N 
ATOM     72  O   UNL     1      21.761  26.571  27.277  1.00  0.00    -0.258 OA
ATOM     73  O   UNL     1      22.475  24.473  27.830  1.00  0.00    -0.258 OA
ENDBRANCH  69  71
BRANCH  70  74
ATOM     74  O   UNL     1      24.640  23.883  26.216  1.00  0.00    -0.502 OA
ATOM     75  H   UNL     1      24.593  22.917  26.279  1.00  0.00     0.293 HD
ENDBRANCH  70  74
ENDBRANCH  63  65
ENDBRANCH  59  60
ENDBRANCH  58  59
ENDBRANCH  55  58
ENDBRANCH  53  54
ENDBRANCH  50  53
ENDBRANCH  47  50
ENDBRANCH   5  47
BRANCH   4  76
ATOM     76  N   UNL     1      15.965  29.404  19.765  1.00  0.00    -0.348 N 
ATOM     77  C   UNL     1      16.566  28.193  19.287  1.00  0.00     0.217 C 
ATOM     78  H   UNL     1      16.026  30.241  19.156  1.00  0.00     0.163 HD
ATOM     79  C   UNL     1      17.244  28.163  17.970  1.00  0.00     0.114 C 
ATOM     80  O   UNL     1      16.501  27.159  20.017  1.00  0.00    -0.275 OA
ENDBRANCH   4  76
TORSDOF 32
