REMARK VINA RESULT:    -5.649     14.484     18.430
REMARK INTER + INTRA:         -20.669
REMARK INTER:                 -13.571
REMARK INTRA:                  -7.098
REMARK UNBOUND:                -6.268
REMARK SMILES CC(=O)N[C@@H]1[C@@H](O)C[C@](OC[C@H]2O[C@@H](O[C@H]3[C@H](O)[C@@H](O)[C@H](OCCN=[N+]=[N-])O[C@@H]3CO)[C@H](O)[C@@H](O)[C@H]2O)(C(=O)O)O[C@H]1C(O)[C@H](O)CNC(=O)OCc1cn(C(C)(C)CO)nn1
REMARK SMILES IDX 9 1 8 2 6 3 5 4 42 5 41 6 10 7 11 8 12 9 14 10 13 11 32 12
REMARK SMILES IDX 34 13 36 14 15 15 16 16 29 17 28 18 21 19 17 20 19 21 30 22
REMARK SMILES IDX 31 23 22 25 23 26 24 27 25 28 26 29 27 30 18 31 20 33 33 35
REMARK SMILES IDX 35 37 37 39 38 41 39 42 40 43 7 45 43 47 44 48 45 50 46 51
REMARK SMILES IDX 47 53 48 54 49 55 50 57 51 58 52 59 53 60 54 61 62 62 55 63
REMARK SMILES IDX 61 64 56 65 57 66 58 67 59 68 60 69 4 71 2 72 1 74 3 75
REMARK H PARENT 31 24 18 32 20 34 33 36 35 38 37 40 40 44 7 46 44 49 46 52
REMARK H PARENT 48 56 60 70 4 73
REMARK Flexibility Score: inf
ROOT
ATOM      1  C   UNL     1       2.173  22.357  31.320  1.00  0.00     0.272 C 
ATOM      2  C   UNL     1       2.004  20.864  31.412  1.00  0.00     0.113 C 
ATOM      3  C   UNL     1       2.564  20.260  30.147  1.00  0.00     0.145 C 
ATOM      4  C   UNL     1       1.559  20.650  29.038  1.00  0.00     0.142 C 
ATOM      5  C   UNL     1       1.415  22.140  29.096  1.00  0.00     0.178 C 
ATOM      6  O   UNL     1       2.336  22.737  29.934  1.00  0.00    -0.332 OA
ENDROOT
BRANCH   1   7
ATOM      7  O   UNL     1       3.316  22.824  31.883  1.00  0.00    -0.338 OA
BRANCH   7   8
ATOM      8  C   UNL     1       3.413  23.245  33.132  1.00  0.00     0.199 C 
BRANCH   8   9
ATOM      9  C   UNL     1       4.227  24.384  33.592  1.00  0.00     0.179 C 
ATOM     10  C   UNL     1       6.289  24.827  34.526  1.00  0.00     0.282 C 
ATOM     11  O   UNL     1       5.566  23.913  33.806  1.00  0.00    -0.341 OA
ATOM     12  C   UNL     1       5.781  26.224  34.526  1.00  0.00     0.202 C 
ATOM     13  C   UNL     1       5.080  26.629  33.247  1.00  0.00     0.179 C 
ATOM     14  C   UNL     1       4.447  25.471  32.546  1.00  0.00     0.177 C 
BRANCH  10  15
ATOM     15  O   UNL     1       7.625  24.718  34.132  1.00  0.00    -0.341 OA
BRANCH  15  16
ATOM     16  C   UNL     1       8.509  25.341  34.982  1.00  0.00     0.184 C 
ATOM     17  C   UNL     1       9.862  25.606  34.361  1.00  0.00     0.178 C 
ATOM     18  O   UNL     1      10.920  25.260  35.177  1.00  0.00    -0.341 OA
ATOM     19  C   UNL     1      11.005  23.937  35.519  1.00  0.00     0.281 C 
ATOM     20  C   UNL     1       8.715  24.370  36.158  1.00  0.00     0.180 C 
ATOM     21  C   UNL     1       9.636  23.302  35.597  1.00  0.00     0.202 C 
BRANCH  17  22
ATOM     22  C   UNL     1       9.942  27.115  34.166  1.00  0.00     0.191 C 
BRANCH  22  23
ATOM     23  O   UNL     1       8.870  27.541  33.380  1.00  0.00    -0.394 OA
ATOM     24  H   UNL     1       8.728  26.997  32.583  1.00  0.00     0.210 HD
ENDBRANCH  22  23
ENDBRANCH  17  22
BRANCH  19  25
ATOM     25  O   UNL     1      11.694  23.860  36.717  1.00  0.00    -0.350 OA
BRANCH  25  26
ATOM     26  C   UNL     1      12.682  24.777  36.892  1.00  0.00     0.169 C 
BRANCH  26  27
ATOM     27  C   UNL     1      12.962  25.119  38.348  1.00  0.00     0.119 C 
BRANCH  27  28
ATOM     28  N   UNL     1      12.476  24.077  39.231  1.00  0.00    -0.092 NA
ATOM     29  N   UNL     1      11.372  24.253  39.766  1.00  0.00     0.001 N 
ATOM     30  N   UNL     1      10.159  24.156  40.054  1.00  0.00    -0.003 NA
ENDBRANCH  27  28
ENDBRANCH  26  27
ENDBRANCH  25  26
ENDBRANCH  19  25
BRANCH  20  31
ATOM     31  O   UNL     1       9.336  25.128  37.155  1.00  0.00    -0.387 OA
ATOM     32  H   UNL     1       9.483  24.501  37.912  1.00  0.00     0.211 HD
ENDBRANCH  20  31
BRANCH  21  33
ATOM     33  O   UNL     1       9.221  23.053  34.278  1.00  0.00    -0.385 OA
ATOM     34  H   UNL     1       9.996  23.166  33.649  1.00  0.00     0.211 HD
ENDBRANCH  21  33
ENDBRANCH  15  16
ENDBRANCH  10  15
BRANCH  12  35
ATOM     35  O   UNL     1       5.024  26.565  35.648  1.00  0.00    -0.385 OA
ATOM     36  H   UNL     1       4.318  27.168  35.339  1.00  0.00     0.211 HD
ENDBRANCH  12  35
BRANCH  13  37
ATOM     37  O   UNL     1       5.955  27.321  32.392  1.00  0.00    -0.387 OA
ATOM     38  H   UNL     1       5.666  27.237  31.445  1.00  0.00     0.211 HD
ENDBRANCH  13  37
BRANCH  14  39
ATOM     39  O   UNL     1       5.411  24.969  31.642  1.00  0.00    -0.387 OA
ATOM     40  H   UNL     1       5.769  25.701  31.098  1.00  0.00     0.211 HD
ENDBRANCH  14  39
ENDBRANCH   8   9
ENDBRANCH   7   8
ENDBRANCH   1   7
BRANCH   1  41
ATOM     41  C   UNL     1       0.969  23.091  31.710  1.00  0.00     0.364 C 
ATOM     42  O   UNL     1       0.843  24.304  31.526  1.00  0.00    -0.246 OA
BRANCH  41  43
ATOM     43  O   UNL     1      -0.129  22.462  32.324  1.00  0.00    -0.477 OA
ATOM     44  H   UNL     1      -0.189  22.528  33.334  1.00  0.00     0.296 HD
ENDBRANCH  41  43
ENDBRANCH   1  41
BRANCH   3  45
ATOM     45  O   UNL     1       3.729  20.960  29.829  1.00  0.00    -0.391 OA
ATOM     46  H   UNL     1       4.456  20.745  30.449  1.00  0.00     0.211 HD
ENDBRANCH   3  45
BRANCH   5  47
ATOM     47  C   UNL     1       1.807  22.654  27.698  1.00  0.00     0.176 C 
BRANCH  47  48
ATOM     48  O   UNL     1       2.381  21.577  26.979  1.00  0.00    -0.388 OA
ATOM     49  H   UNL     1       2.605  20.829  27.558  1.00  0.00     0.211 HD
ENDBRANCH  47  48
BRANCH  47  50
ATOM     50  C   UNL     1       2.921  23.685  27.766  1.00  0.00     0.165 C 
BRANCH  50  51
ATOM     51  O   UNL     1       2.504  24.901  28.200  1.00  0.00    -0.388 OA
ATOM     52  H   UNL     1       3.098  25.662  28.004  1.00  0.00     0.211 HD
ENDBRANCH  50  51
BRANCH  50  53
ATOM     53  C   UNL     1       3.609  23.792  26.420  1.00  0.00     0.154 C 
BRANCH  53  54
ATOM     54  N   UNL     1       4.615  24.783  26.313  1.00  0.00    -0.319 N 
ATOM     55  C   UNL     1       4.481  25.977  25.598  1.00  0.00     0.407 C 
ATOM     56  H   UNL     1       5.560  24.626  26.809  1.00  0.00     0.167 HD
ATOM     57  O   UNL     1       3.438  26.277  24.994  1.00  0.00    -0.225 OA
BRANCH  55  58
ATOM     58  O   UNL     1       5.539  26.916  25.526  1.00  0.00    -0.443 OA
BRANCH  58  59
ATOM     59  C   UNL     1       6.098  27.480  26.690  1.00  0.00     0.294 C 
BRANCH  59  60
ATOM     60  C   UNL     1       5.173  27.501  27.841  1.00  0.00     0.120 A 
ATOM     61  C   UNL     1       4.188  28.429  28.110  1.00  0.00     0.139 A 
ATOM     62  N   UNL     1       5.113  26.614  28.847  1.00  0.00    -0.132 NA
ATOM     63  N   UNL     1       3.560  28.086  29.262  1.00  0.00    -0.244 N 
ATOM     64  N   UNL     1       4.143  26.979  29.689  1.00  0.00    -0.066 NA
BRANCH  63  65
ATOM     65  C   UNL     1       2.472  28.809  29.871  1.00  0.00     0.082 C 
ATOM     66  C   UNL     1       1.220  27.984  29.813  1.00  0.00     0.039 C 
ATOM     67  C   UNL     1       2.192  30.099  29.087  1.00  0.00     0.039 C 
BRANCH  65  68
ATOM     68  C   UNL     1       2.732  29.210  31.295  1.00  0.00     0.186 C 
BRANCH  68  69
ATOM     69  O   UNL     1       4.045  29.535  31.545  1.00  0.00    -0.394 OA
ATOM     70  H   UNL     1       4.270  29.667  32.480  1.00  0.00     0.210 HD
ENDBRANCH  68  69
ENDBRANCH  65  68
ENDBRANCH  63  65
ENDBRANCH  59  60
ENDBRANCH  58  59
ENDBRANCH  55  58
ENDBRANCH  53  54
ENDBRANCH  50  53
ENDBRANCH  47  50
ENDBRANCH   5  47
BRANCH   4  71
ATOM     71  N   UNL     1       0.374  19.903  29.315  1.00  0.00    -0.348 N 
ATOM     72  C   UNL     1      -0.592  19.484  28.370  1.00  0.00     0.217 C 
ATOM     73  H   UNL     1       0.156  19.618  30.316  1.00  0.00     0.163 HD
ATOM     74  C   UNL     1      -1.801  18.709  28.757  1.00  0.00     0.114 C 
ATOM     75  O   UNL     1      -0.433  19.768  27.171  1.00  0.00    -0.275 OA
ENDBRANCH   4  71
TORSDOF 32
