REMARK VINA RESULT:    -5.724      6.293     11.383
REMARK INTER + INTRA:         -22.199
REMARK INTER:                 -15.810
REMARK INTRA:                  -6.389
REMARK UNBOUND:                -7.606
REMARK SMILES CC(=O)N[C@@H]1[C@@H](O)C[C@](OC[C@H]2O[C@@H](O[C@H]3[C@H](O)[C@@H](O)[C@H](OCCN=[N+]=[N-])O[C@@H]3CO)[C@H](O)[C@@H](O)[C@H]2O)(C(=O)O)O[C@H]1C(O)[C@H](O)CNC(=O)OCc1cn(-c2ccc(CO)cn2)nn1
REMARK SMILES IDX 9 1 8 2 6 3 5 4 42 5 41 6 10 7 11 8 12 9 14 10 13 11 32 12
REMARK SMILES IDX 34 13 36 14 15 15 16 16 29 17 28 18 21 19 17 20 19 21 30 22
REMARK SMILES IDX 31 23 22 25 23 26 24 27 25 28 26 29 27 30 18 31 20 33 33 35
REMARK SMILES IDX 35 37 37 39 38 41 39 42 40 43 7 45 43 47 44 48 45 50 46 51
REMARK SMILES IDX 47 53 48 54 49 55 50 57 51 58 52 59 53 60 54 61 65 62 55 63
REMARK SMILES IDX 64 64 56 65 57 66 63 67 58 68 62 69 59 70 60 71 61 72 4 74
REMARK SMILES IDX 2 75 1 77 3 78
REMARK H PARENT 31 24 18 32 20 34 33 36 35 38 37 40 40 44 7 46 44 49 46 52
REMARK H PARENT 48 56 61 73 4 76
REMARK Flexibility Score: inf
ROOT
ATOM      1  C   UNL     1      31.844  19.217  23.553  1.00  0.00     0.272 C 
ATOM      2  C   UNL     1      31.703  17.801  23.971  1.00  0.00     0.113 C 
ATOM      3  C   UNL     1      32.388  17.516  25.279  1.00  0.00     0.145 C 
ATOM      4  C   UNL     1      32.012  18.570  26.302  1.00  0.00     0.142 C 
ATOM      5  C   UNL     1      32.212  19.922  25.751  1.00  0.00     0.178 C 
ATOM      6  O   UNL     1      31.612  20.124  24.556  1.00  0.00    -0.332 OA
ENDROOT
BRANCH   1   7
ATOM      7  O   UNL     1      31.029  19.571  22.492  1.00  0.00    -0.338 OA
BRANCH   7   8
ATOM      8  C   UNL     1      29.807  20.074  22.887  1.00  0.00     0.199 C 
BRANCH   8   9
ATOM      9  C   UNL     1      29.382  21.163  21.950  1.00  0.00     0.179 C 
ATOM     10  C   UNL     1      27.696  22.609  21.528  1.00  0.00     0.282 C 
ATOM     11  O   UNL     1      28.496  22.068  22.567  1.00  0.00    -0.341 OA
ATOM     12  C   UNL     1      28.551  23.107  20.437  1.00  0.00     0.202 C 
ATOM     13  C   UNL     1      30.030  23.235  20.759  1.00  0.00     0.179 C 
ATOM     14  C   UNL     1      30.534  21.973  21.453  1.00  0.00     0.177 C 
BRANCH  10  15
ATOM     15  O   UNL     1      26.814  23.550  22.070  1.00  0.00    -0.341 OA
BRANCH  15  16
ATOM     16  C   UNL     1      25.941  24.062  21.135  1.00  0.00     0.184 C 
ATOM     17  C   UNL     1      26.068  25.528  20.861  1.00  0.00     0.178 C 
ATOM     18  O   UNL     1      24.979  26.274  21.303  1.00  0.00    -0.341 OA
ATOM     19  C   UNL     1      24.724  26.123  22.643  1.00  0.00     0.281 C 
ATOM     20  C   UNL     1      24.528  23.837  21.705  1.00  0.00     0.180 C 
ATOM     21  C   UNL     1      24.520  24.646  23.010  1.00  0.00     0.202 C 
BRANCH  17  22
ATOM     22  C   UNL     1      26.062  25.697  19.330  1.00  0.00     0.191 C 
BRANCH  22  23
ATOM     23  O   UNL     1      25.746  24.473  18.722  1.00  0.00    -0.394 OA
ATOM     24  H   UNL     1      24.750  24.351  18.675  1.00  0.00     0.210 HD
ENDBRANCH  22  23
ENDBRANCH  17  22
BRANCH  19  25
ATOM     25  O   UNL     1      23.562  26.825  22.949  1.00  0.00    -0.350 OA
BRANCH  25  26
ATOM     26  C   UNL     1      23.104  27.600  21.915  1.00  0.00     0.169 C 
BRANCH  26  27
ATOM     27  C   UNL     1      21.676  28.021  22.237  1.00  0.00     0.119 C 
BRANCH  27  28
ATOM     28  N   UNL     1      20.735  27.004  21.786  1.00  0.00    -0.092 NA
ATOM     29  N   UNL     1      20.968  25.807  21.808  1.00  0.00     0.001 N 
ATOM     30  N   UNL     1      20.952  24.625  22.149  1.00  0.00    -0.003 NA
ENDBRANCH  27  28
ENDBRANCH  26  27
ENDBRANCH  25  26
ENDBRANCH  19  25
BRANCH  20  31
ATOM     31  O   UNL     1      23.537  24.203  20.836  1.00  0.00    -0.387 OA
ATOM     32  H   UNL     1      22.794  24.581  21.328  1.00  0.00     0.211 HD
ENDBRANCH  20  31
BRANCH  21  33
ATOM     33  O   UNL     1      25.604  24.188  23.755  1.00  0.00    -0.385 OA
ATOM     34  H   UNL     1      26.363  24.068  23.130  1.00  0.00     0.211 HD
ENDBRANCH  21  33
ENDBRANCH  15  16
ENDBRANCH  10  15
BRANCH  12  35
ATOM     35  O   UNL     1      28.427  22.240  19.326  1.00  0.00    -0.385 OA
ATOM     36  H   UNL     1      28.008  21.378  19.583  1.00  0.00     0.211 HD
ENDBRANCH  12  35
BRANCH  13  37
ATOM     37  O   UNL     1      30.312  24.389  21.469  1.00  0.00    -0.387 OA
ATOM     38  H   UNL     1      31.258  24.559  21.595  1.00  0.00     0.211 HD
ENDBRANCH  13  37
BRANCH  14  39
ATOM     39  O   UNL     1      31.365  22.371  22.479  1.00  0.00    -0.387 OA
ATOM     40  H   UNL     1      31.254  21.770  23.241  1.00  0.00     0.211 HD
ENDBRANCH  14  39
ENDBRANCH   8   9
ENDBRANCH   7   8
ENDBRANCH   1   7
BRANCH   1  41
ATOM     41  C   UNL     1      33.251  19.516  23.079  1.00  0.00     0.364 C 
ATOM     42  O   UNL     1      34.094  18.620  22.836  1.00  0.00    -0.246 OA
BRANCH  41  43
ATOM     43  O   UNL     1      33.663  20.820  22.894  1.00  0.00    -0.477 OA
ATOM     44  H   UNL     1      34.046  21.108  21.985  1.00  0.00     0.296 HD
ENDBRANCH  41  43
ENDBRANCH   1  41
BRANCH   3  45
ATOM     45  O   UNL     1      31.842  16.308  25.755  1.00  0.00    -0.391 OA
ATOM     46  H   UNL     1      32.002  15.550  25.163  1.00  0.00     0.211 HD
ENDBRANCH   3  45
BRANCH   5  47
ATOM     47  C   UNL     1      31.848  21.032  26.720  1.00  0.00     0.176 C 
BRANCH  47  48
ATOM     48  O   UNL     1      30.526  20.877  27.133  1.00  0.00    -0.388 OA
ATOM     49  H   UNL     1      29.916  20.889  26.359  1.00  0.00     0.211 HD
ENDBRANCH  47  48
BRANCH  47  50
ATOM     50  C   UNL     1      32.018  22.411  26.205  1.00  0.00     0.165 C 
BRANCH  50  51
ATOM     51  O   UNL     1      32.824  22.474  25.060  1.00  0.00    -0.388 OA
ATOM     52  H   UNL     1      33.724  22.789  25.235  1.00  0.00     0.211 HD
ENDBRANCH  50  51
BRANCH  50  53
ATOM     53  C   UNL     1      32.434  23.447  27.209  1.00  0.00     0.154 C 
BRANCH  53  54
ATOM     54  N   UNL     1      31.513  23.492  28.314  1.00  0.00    -0.319 N 
ATOM     55  C   UNL     1      31.325  24.697  29.032  1.00  0.00     0.407 C 
ATOM     56  H   UNL     1      30.971  22.610  28.593  1.00  0.00     0.167 HD
ATOM     57  O   UNL     1      31.927  25.757  28.752  1.00  0.00    -0.225 OA
BRANCH  55  58
ATOM     58  O   UNL     1      30.436  24.762  30.111  1.00  0.00    -0.443 OA
BRANCH  58  59
ATOM     59  C   UNL     1      29.665  25.915  30.294  1.00  0.00     0.294 C 
BRANCH  59  60
ATOM     60  C   UNL     1      28.222  25.741  30.190  1.00  0.00     0.121 A 
ATOM     61  C   UNL     1      27.421  26.100  29.135  1.00  0.00     0.146 A 
ATOM     62  N   UNL     1      27.403  25.201  31.108  1.00  0.00    -0.131 NA
ATOM     63  N   UNL     1      26.147  25.774  29.435  1.00  0.00    -0.202 N 
ATOM     64  N   UNL     1      26.181  25.232  30.638  1.00  0.00    -0.061 NA
BRANCH  63  65
ATOM     65  C   UNL     1      25.033  25.998  28.585  1.00  0.00     0.155 A 
ATOM     66  C   UNL     1      25.031  25.585  27.257  1.00  0.00     0.049 A 
ATOM     67  N   UNL     1      23.934  26.630  29.033  1.00  0.00    -0.237 NA
ATOM     68  C   UNL     1      23.934  25.821  26.439  1.00  0.00     0.011 A 
ATOM     69  C   UNL     1      22.854  26.870  28.252  1.00  0.00     0.119 A 
ATOM     70  C   UNL     1      22.822  26.471  26.926  1.00  0.00    -0.004 A 
BRANCH  70  71
ATOM     71  C   UNL     1      21.651  26.723  26.043  1.00  0.00     0.193 C 
BRANCH  71  72
ATOM     72  O   UNL     1      21.665  25.865  24.943  1.00  0.00    -0.392 OA
ATOM     73  H   UNL     1      21.013  25.139  25.026  1.00  0.00     0.211 HD
ENDBRANCH  71  72
ENDBRANCH  70  71
ENDBRANCH  63  65
ENDBRANCH  59  60
ENDBRANCH  58  59
ENDBRANCH  55  58
ENDBRANCH  53  54
ENDBRANCH  50  53
ENDBRANCH  47  50
ENDBRANCH   5  47
BRANCH   4  74
ATOM     74  N   UNL     1      32.780  18.348  27.528  1.00  0.00    -0.348 N 
ATOM     75  C   UNL     1      32.318  17.545  28.568  1.00  0.00     0.217 C 
ATOM     76  H   UNL     1      33.709  18.808  27.606  1.00  0.00     0.163 HD
ATOM     77  C   UNL     1      33.210  17.407  29.780  1.00  0.00     0.114 C 
ATOM     78  O   UNL     1      31.233  16.947  28.556  1.00  0.00    -0.275 OA
ENDBRANCH   4  74
TORSDOF 32
