REMARK VINA RESULT:    -4.901      3.532     10.709
REMARK INTER + INTRA:         -21.454
REMARK INTER:                 -14.648
REMARK INTRA:                  -6.806
REMARK UNBOUND:                -9.390
REMARK SMILES CC(=O)N[C@@H]1[C@@H](O)C[C@](OC[C@H]2O[C@@H](O[C@H]3[C@H](O)[C@@H](O)[C@H](OCCN=[N+]=[N-])O[C@@H]3CO)[C@H](O)[C@@H](O)[C@H]2O)(C(=O)O)O[C@H]1C(O)[C@H](O)CNC(=O)OCc1cn(-c2ccncc2)nn1
REMARK SMILES IDX 9 1 8 2 6 3 5 4 42 5 41 6 10 7 11 8 12 9 14 10 13 11 32 12
REMARK SMILES IDX 34 13 36 14 15 15 16 16 29 17 28 18 21 19 17 20 19 21 30 22
REMARK SMILES IDX 31 23 22 25 23 26 24 27 25 28 26 29 27 30 18 31 20 33 33 35
REMARK SMILES IDX 35 37 37 39 38 41 39 42 40 43 7 45 43 47 44 48 45 50 46 51
REMARK SMILES IDX 47 53 48 54 49 55 50 57 51 58 52 59 53 60 54 61 63 62 55 63
REMARK SMILES IDX 62 64 56 65 57 66 61 67 58 68 60 69 59 70 4 71 2 72 1 74
REMARK SMILES IDX 3 75
REMARK H PARENT 31 24 18 32 20 34 33 36 35 38 37 40 40 44 7 46 44 49 46 52
REMARK H PARENT 48 56 4 73
REMARK Flexibility Score: inf
ROOT
ATOM      1  C   UNL     1      23.323  24.659  22.337  1.00  0.00     0.272 C 
ATOM      2  C   UNL     1      24.273  23.517  21.923  1.00  0.00     0.113 C 
ATOM      3  C   UNL     1      25.722  23.889  22.259  1.00  0.00     0.145 C 
ATOM      4  C   UNL     1      26.098  25.054  21.282  1.00  0.00     0.142 C 
ATOM      5  C   UNL     1      25.013  26.079  21.438  1.00  0.00     0.178 C 
ATOM      6  O   UNL     1      24.219  25.729  22.522  1.00  0.00    -0.332 OA
ENDROOT
BRANCH   1   7
ATOM      7  O   UNL     1      22.808  24.428  23.529  1.00  0.00    -0.338 OA
BRANCH   7   8
ATOM      8  C   UNL     1      22.965  24.639  24.760  1.00  0.00     0.199 C 
BRANCH   8   9
ATOM      9  C   UNL     1      22.008  25.487  25.540  1.00  0.00     0.179 C 
ATOM     10  C   UNL     1      22.169  27.081  27.260  1.00  0.00     0.282 C 
ATOM     11  O   UNL     1      22.853  26.225  26.429  1.00  0.00    -0.341 OA
ATOM     12  C   UNL     1      21.469  28.147  26.476  1.00  0.00     0.202 C 
ATOM     13  C   UNL     1      20.576  27.499  25.415  1.00  0.00     0.179 C 
ATOM     14  C   UNL     1      21.421  26.555  24.612  1.00  0.00     0.177 C 
BRANCH  10  15
ATOM     15  O   UNL     1      23.192  27.664  28.052  1.00  0.00    -0.341 OA
BRANCH  15  16
ATOM     16  C   UNL     1      24.437  27.257  27.709  1.00  0.00     0.184 C 
ATOM     17  C   UNL     1      25.276  26.829  28.844  1.00  0.00     0.178 C 
ATOM     18  O   UNL     1      26.506  26.318  28.379  1.00  0.00    -0.341 OA
ATOM     19  C   UNL     1      27.239  27.530  28.090  1.00  0.00     0.281 C 
ATOM     20  C   UNL     1      25.149  28.456  27.009  1.00  0.00     0.180 C 
ATOM     21  C   UNL     1      26.621  28.112  26.874  1.00  0.00     0.202 C 
BRANCH  17  22
ATOM     22  C   UNL     1      24.627  25.829  29.724  1.00  0.00     0.191 C 
BRANCH  22  23
ATOM     23  O   UNL     1      23.943  24.839  29.001  1.00  0.00    -0.394 OA
ATOM     24  H   UNL     1      23.397  24.328  29.668  1.00  0.00     0.210 HD
ENDBRANCH  22  23
ENDBRANCH  17  22
BRANCH  19  25
ATOM     25  O   UNL     1      28.520  27.112  27.860  1.00  0.00    -0.350 OA
BRANCH  25  26
ATOM     26  C   UNL     1      28.913  26.105  28.688  1.00  0.00     0.169 C 
BRANCH  26  27
ATOM     27  C   UNL     1      29.938  26.449  29.720  1.00  0.00     0.119 C 
BRANCH  27  28
ATOM     28  N   UNL     1      29.377  26.590  31.048  1.00  0.00    -0.092 NA
ATOM     29  N   UNL     1      28.680  25.746  31.595  1.00  0.00     0.001 N 
ATOM     30  N   UNL     1      27.786  24.971  31.947  1.00  0.00    -0.003 NA
ENDBRANCH  27  28
ENDBRANCH  26  27
ENDBRANCH  25  26
ENDBRANCH  19  25
BRANCH  20  31
ATOM     31  O   UNL     1      24.604  28.545  25.751  1.00  0.00    -0.387 OA
ATOM     32  H   UNL     1      23.888  29.256  25.709  1.00  0.00     0.211 HD
ENDBRANCH  20  31
BRANCH  21  33
ATOM     33  O   UNL     1      27.336  29.226  26.460  1.00  0.00    -0.385 OA
ATOM     34  H   UNL     1      27.268  29.303  25.473  1.00  0.00     0.211 HD
ENDBRANCH  21  33
ENDBRANCH  15  16
ENDBRANCH  10  15
BRANCH  12  35
ATOM     35  O   UNL     1      20.614  28.908  27.308  1.00  0.00    -0.385 OA
ATOM     36  H   UNL     1      20.708  29.839  26.997  1.00  0.00     0.211 HD
ENDBRANCH  12  35
BRANCH  13  37
ATOM     37  O   UNL     1      19.980  28.418  24.586  1.00  0.00    -0.387 OA
ATOM     38  H   UNL     1      20.332  28.332  23.645  1.00  0.00     0.211 HD
ENDBRANCH  13  37
BRANCH  14  39
ATOM     39  O   UNL     1      22.525  27.217  24.053  1.00  0.00    -0.387 OA
ATOM     40  H   UNL     1      22.366  27.352  23.069  1.00  0.00     0.211 HD
ENDBRANCH  14  39
ENDBRANCH   8   9
ENDBRANCH   7   8
ENDBRANCH   1   7
BRANCH   1  41
ATOM     41  C   UNL     1      22.343  24.934  21.281  1.00  0.00     0.364 C 
ATOM     42  O   UNL     1      22.317  24.265  20.197  1.00  0.00    -0.246 OA
BRANCH  41  43
ATOM     43  O   UNL     1      21.390  25.920  21.374  1.00  0.00    -0.477 OA
ATOM     44  H   UNL     1      20.466  25.825  21.735  1.00  0.00     0.296 HD
ENDBRANCH  41  43
ENDBRANCH   1  41
BRANCH   3  45
ATOM     45  O   UNL     1      25.786  24.390  23.530  1.00  0.00    -0.391 OA
ATOM     46  H   UNL     1      25.009  24.145  24.068  1.00  0.00     0.211 HD
ENDBRANCH   3  45
BRANCH   5  47
ATOM     47  C   UNL     1      25.536  27.460  21.855  1.00  0.00     0.176 C 
BRANCH  47  48
ATOM     48  O   UNL     1      25.641  27.275  23.303  1.00  0.00    -0.388 OA
ATOM     49  H   UNL     1      26.182  26.441  23.440  1.00  0.00     0.211 HD
ENDBRANCH  47  48
BRANCH  47  50
ATOM     50  C   UNL     1      24.653  28.609  21.635  1.00  0.00     0.165 C 
BRANCH  50  51
ATOM     51  O   UNL     1      24.133  29.253  22.733  1.00  0.00    -0.388 OA
ATOM     52  H   UNL     1      23.148  29.361  22.658  1.00  0.00     0.211 HD
ENDBRANCH  50  51
BRANCH  50  53
ATOM     53  C   UNL     1      23.809  28.562  20.421  1.00  0.00     0.154 C 
BRANCH  53  54
ATOM     54  N   UNL     1      22.387  28.577  20.639  1.00  0.00    -0.319 N 
ATOM     55  C   UNL     1      21.614  29.726  20.344  1.00  0.00     0.407 C 
ATOM     56  H   UNL     1      21.956  27.722  21.033  1.00  0.00     0.167 HD
ATOM     57  O   UNL     1      22.221  30.719  19.884  1.00  0.00    -0.225 OA
BRANCH  55  58
ATOM     58  O   UNL     1      20.263  29.813  20.528  1.00  0.00    -0.443 OA
BRANCH  58  59
ATOM     59  C   UNL     1      19.274  29.671  19.531  1.00  0.00     0.294 C 
BRANCH  59  60
ATOM     60  C   UNL     1      17.976  29.182  20.102  1.00  0.00     0.121 A 
ATOM     61  C   UNL     1      17.112  29.805  20.974  1.00  0.00     0.144 A 
ATOM     62  N   UNL     1      17.411  27.980  19.839  1.00  0.00    -0.131 NA
ATOM     63  N   UNL     1      16.071  28.988  21.214  1.00  0.00    -0.220 N 
ATOM     64  N   UNL     1      16.277  27.875  20.506  1.00  0.00    -0.062 NA
BRANCH  63  65
ATOM     65  C   UNL     1      14.973  29.282  22.067  1.00  0.00     0.069 A 
ATOM     66  C   UNL     1      13.656  29.282  21.662  1.00  0.00     0.048 A 
ATOM     67  C   UNL     1      15.241  29.579  23.384  1.00  0.00     0.048 A 
ATOM     68  C   UNL     1      12.616  29.570  22.530  1.00  0.00     0.113 A 
ATOM     69  C   UNL     1      14.195  29.866  24.245  1.00  0.00     0.113 A 
ATOM     70  N   UNL     1      12.927  29.856  23.815  1.00  0.00    -0.265 NA
ENDBRANCH  63  65
ENDBRANCH  59  60
ENDBRANCH  58  59
ENDBRANCH  55  58
ENDBRANCH  53  54
ENDBRANCH  50  53
ENDBRANCH  47  50
ENDBRANCH   5  47
BRANCH   4  71
ATOM     71  N   UNL     1      26.104  24.398  19.997  1.00  0.00    -0.348 N 
ATOM     72  C   UNL     1      27.236  23.797  19.404  1.00  0.00     0.217 C 
ATOM     73  H   UNL     1      25.222  24.358  19.454  1.00  0.00     0.163 HD
ATOM     74  C   UNL     1      27.122  23.156  18.085  1.00  0.00     0.114 C 
ATOM     75  O   UNL     1      28.333  23.806  19.997  1.00  0.00    -0.275 OA
ENDBRANCH   4  71
TORSDOF 30
