REMARK VINA RESULT:    -5.234     19.207     24.356
REMARK INTER + INTRA:         -20.706
REMARK INTER:                 -13.816
REMARK INTRA:                  -6.890
REMARK UNBOUND:                -7.364
REMARK SMILES CC(=O)N[C@@H]1[C@@H](O)C[C@](OC[C@H]2O[C@@H](O[C@H]3[C@H](O)[C@@H](O)[C@H](OCCN=[N+]=[N-])O[C@@H]3CO)[C@H](O)[C@@H](O)[C@H]2O)(C(=O)O)O[C@H]1C(O)[C@H](O)CNC(=O)OCc1cn([C@@H](C)C(=O)O)nn1
REMARK SMILES IDX 9 1 8 2 6 3 5 4 42 5 41 6 10 7 11 8 12 9 14 10 13 11 32 12
REMARK SMILES IDX 34 13 36 14 15 15 16 16 29 17 28 18 21 19 17 20 19 21 30 22
REMARK SMILES IDX 31 23 22 25 23 26 24 27 25 28 26 29 27 30 18 31 20 33 33 35
REMARK SMILES IDX 35 37 37 39 38 41 39 42 40 43 7 45 43 47 44 48 45 50 46 51
REMARK SMILES IDX 47 53 48 54 49 55 50 57 51 58 52 59 53 60 54 61 62 62 55 63
REMARK SMILES IDX 61 64 56 65 57 66 58 67 59 68 60 69 4 71 2 72 1 74 3 75
REMARK H PARENT 31 24 18 32 20 34 33 36 35 38 37 40 40 44 7 46 44 49 46 52
REMARK H PARENT 48 56 60 70 4 73
REMARK Flexibility Score: inf
ROOT
ATOM      1  C   UNL     1      27.469  29.208  30.996  1.00  0.00     0.272 C 
ATOM      2  C   UNL     1      28.313  30.260  30.390  1.00  0.00     0.113 C 
ATOM      3  C   UNL     1      28.205  30.109  28.890  1.00  0.00     0.145 C 
ATOM      4  C   UNL     1      29.048  28.813  28.615  1.00  0.00     0.142 C 
ATOM      5  C   UNL     1      28.750  27.789  29.601  1.00  0.00     0.178 C 
ATOM      6  O   UNL     1      27.646  27.959  30.393  1.00  0.00    -0.332 OA
ENDROOT
BRANCH   1   7
ATOM      7  O   UNL     1      26.152  29.547  31.041  1.00  0.00    -0.338 OA
BRANCH   7   8
ATOM      8  C   UNL     1      25.331  28.904  31.892  1.00  0.00     0.199 C 
BRANCH   8   9
ATOM      9  C   UNL     1      24.458  27.865  31.144  1.00  0.00     0.179 C 
ATOM     10  C   UNL     1      23.992  27.187  28.988  1.00  0.00     0.282 C 
ATOM     11  O   UNL     1      24.809  27.942  29.822  1.00  0.00    -0.341 OA
ATOM     12  C   UNL     1      23.063  26.285  29.747  1.00  0.00     0.202 C 
ATOM     13  C   UNL     1      23.804  25.556  30.851  1.00  0.00     0.179 C 
ATOM     14  C   UNL     1      24.665  26.491  31.682  1.00  0.00     0.177 C 
BRANCH  10  15
ATOM     15  O   UNL     1      24.718  26.379  28.102  1.00  0.00    -0.341 OA
BRANCH  15  16
ATOM     16  C   UNL     1      24.671  26.868  26.805  1.00  0.00     0.184 C 
ATOM     17  C   UNL     1      23.304  27.391  26.499  1.00  0.00     0.178 C 
ATOM     18  O   UNL     1      22.626  26.597  25.573  1.00  0.00    -0.341 OA
ATOM     19  C   UNL     1      22.631  25.254  25.961  1.00  0.00     0.281 C 
ATOM     20  C   UNL     1      25.026  25.734  25.872  1.00  0.00     0.180 C 
ATOM     21  C   UNL     1      23.997  24.640  25.833  1.00  0.00     0.202 C 
BRANCH  17  22
ATOM     22  C   UNL     1      23.344  28.801  25.954  1.00  0.00     0.191 C 
BRANCH  22  23
ATOM     23  O   UNL     1      22.259  29.560  26.386  1.00  0.00    -0.394 OA
ATOM     24  H   UNL     1      21.503  28.973  26.587  1.00  0.00     0.210 HD
ENDBRANCH  22  23
ENDBRANCH  17  22
BRANCH  19  25
ATOM     25  O   UNL     1      21.766  24.599  25.102  1.00  0.00    -0.350 OA
BRANCH  25  26
ATOM     26  C   UNL     1      21.544  25.385  23.991  1.00  0.00     0.169 C 
BRANCH  26  27
ATOM     27  C   UNL     1      21.334  24.524  22.761  1.00  0.00     0.119 C 
BRANCH  27  28
ATOM     28  N   UNL     1      22.477  24.711  21.870  1.00  0.00    -0.092 NA
ATOM     29  N   UNL     1      23.615  24.354  22.178  1.00  0.00     0.001 N 
ATOM     30  N   UNL     1      24.637  23.756  22.464  1.00  0.00    -0.003 NA
ENDBRANCH  27  28
ENDBRANCH  26  27
ENDBRANCH  25  26
ENDBRANCH  19  25
BRANCH  20  31
ATOM     31  O   UNL     1      25.275  26.181  24.575  1.00  0.00    -0.387 OA
ATOM     32  H   UNL     1      25.283  27.159  24.488  1.00  0.00     0.211 HD
ENDBRANCH  20  31
BRANCH  21  33
ATOM     33  O   UNL     1      24.185  23.764  26.901  1.00  0.00    -0.385 OA
ATOM     34  H   UNL     1      23.391  23.201  27.047  1.00  0.00     0.211 HD
ENDBRANCH  21  33
ENDBRANCH  15  16
ENDBRANCH  10  15
BRANCH  12  35
ATOM     35  O   UNL     1      21.906  26.891  30.177  1.00  0.00    -0.385 OA
ATOM     36  H   UNL     1      21.341  27.154  29.386  1.00  0.00     0.211 HD
ENDBRANCH  12  35
BRANCH  13  37
ATOM     37  O   UNL     1      24.642  24.612  30.218  1.00  0.00    -0.387 OA
ATOM     38  H   UNL     1      24.132  24.074  29.557  1.00  0.00     0.211 HD
ENDBRANCH  13  37
BRANCH  14  39
ATOM     39  O   UNL     1      26.007  26.116  31.624  1.00  0.00    -0.387 OA
ATOM     40  H   UNL     1      26.536  26.840  31.199  1.00  0.00     0.211 HD
ENDBRANCH  14  39
ENDBRANCH   8   9
ENDBRANCH   7   8
ENDBRANCH   1   7
BRANCH   1  41
ATOM     41  C   UNL     1      27.964  28.980  32.380  1.00  0.00     0.364 C 
ATOM     42  O   UNL     1      28.289  29.941  33.091  1.00  0.00    -0.246 OA
BRANCH  41  43
ATOM     43  O   UNL     1      28.073  27.700  32.903  1.00  0.00    -0.477 OA
ATOM     44  H   UNL     1      28.840  27.457  33.547  1.00  0.00     0.296 HD
ENDBRANCH  41  43
ENDBRANCH   1  41
BRANCH   3  45
ATOM     45  O   UNL     1      26.896  29.749  28.591  1.00  0.00    -0.391 OA
ATOM     46  H   UNL     1      26.271  30.492  28.625  1.00  0.00     0.211 HD
ENDBRANCH   3  45
BRANCH   5  47
ATOM     47  C   UNL     1      28.708  26.354  29.099  1.00  0.00     0.176 C 
BRANCH  47  48
ATOM     48  O   UNL     1      27.319  25.972  29.074  1.00  0.00    -0.388 OA
ATOM     49  H   UNL     1      27.025  25.895  28.152  1.00  0.00     0.211 HD
ENDBRANCH  47  48
BRANCH  47  50
ATOM     50  C   UNL     1      29.313  25.349  30.058  1.00  0.00     0.165 C 
BRANCH  50  51
ATOM     51  O   UNL     1      28.954  25.483  31.364  1.00  0.00    -0.388 OA
ATOM     52  H   UNL     1      29.351  24.857  32.009  1.00  0.00     0.211 HD
ENDBRANCH  50  51
BRANCH  50  53
ATOM     53  C   UNL     1      30.761  25.114  29.796  1.00  0.00     0.154 C 
BRANCH  53  54
ATOM     54  N   UNL     1      31.114  24.534  28.555  1.00  0.00    -0.319 N 
ATOM     55  C   UNL     1      32.239  24.845  27.747  1.00  0.00     0.407 C 
ATOM     56  H   UNL     1      30.458  23.778  28.186  1.00  0.00     0.167 HD
ATOM     57  O   UNL     1      33.038  25.707  28.130  1.00  0.00    -0.225 OA
BRANCH  55  58
ATOM     58  O   UNL     1      32.428  24.173  26.528  1.00  0.00    -0.443 OA
BRANCH  58  59
ATOM     59  C   UNL     1      33.250  23.038  26.454  1.00  0.00     0.294 C 
BRANCH  59  60
ATOM     60  C   UNL     1      32.524  21.777  26.641  1.00  0.00     0.120 A 
ATOM     61  C   UNL     1      33.017  20.504  26.824  1.00  0.00     0.139 A 
ATOM     62  N   UNL     1      31.167  21.695  26.662  1.00  0.00    -0.132 NA
ATOM     63  N   UNL     1      31.963  19.696  26.951  1.00  0.00    -0.238 N 
ATOM     64  N   UNL     1      30.847  20.408  26.854  1.00  0.00    -0.066 NA
BRANCH  63  65
ATOM     65  C   UNL     1      32.017  18.264  27.158  1.00  0.00     0.215 C 
ATOM     66  C   UNL     1      33.373  17.750  26.791  1.00  0.00     0.046 C 
BRANCH  65  67
ATOM     67  C   UNL     1      31.698  17.910  28.562  1.00  0.00     0.328 C 
ATOM     68  O   UNL     1      31.682  16.698  28.886  1.00  0.00    -0.250 OA
BRANCH  67  69
ATOM     69  O   UNL     1      31.419  18.869  29.525  1.00  0.00    -0.480 OA
ATOM     70  H   UNL     1      31.780  18.798  30.469  1.00  0.00     0.296 HD
ENDBRANCH  67  69
ENDBRANCH  65  67
ENDBRANCH  63  65
ENDBRANCH  59  60
ENDBRANCH  58  59
ENDBRANCH  55  58
ENDBRANCH  53  54
ENDBRANCH  50  53
ENDBRANCH  47  50
ENDBRANCH   5  47
BRANCH   4  71
ATOM     71  N   UNL     1      30.436  29.221  28.509  1.00  0.00    -0.348 N 
ATOM     72  C   UNL     1      31.366  28.795  27.562  1.00  0.00     0.217 C 
ATOM     73  H   UNL     1      30.764  29.919  29.237  1.00  0.00     0.163 HD
ATOM     74  C   UNL     1      32.766  29.286  27.560  1.00  0.00     0.114 C 
ATOM     75  O   UNL     1      31.014  27.977  26.692  1.00  0.00    -0.275 OA
ENDBRANCH   4  71
TORSDOF 32
