REMARK VINA RESULT:    -5.669      9.855     15.446
REMARK INTER + INTRA:         -21.389
REMARK INTER:                 -14.433
REMARK INTRA:                  -6.956
REMARK UNBOUND:                -6.938
REMARK SMILES CC(=O)N[C@@H]1[C@@H](O)C[C@](OC[C@H]2O[C@@H](O[C@H]3[C@H](O)[C@@H](O)[C@H](OCCN=[N+]=[N-])O[C@@H]3CO)[C@H](O)[C@@H](O)[C@H]2O)(C(=O)O)O[C@H]1C(O)[C@H](O)CNC(=O)OCc1cn(Cc2cc(Br)cc(Br)c2O)nn1
REMARK SMILES IDX 9 1 8 2 6 3 5 4 42 5 41 6 10 7 11 8 12 9 14 10 13 11 32 12
REMARK SMILES IDX 34 13 36 14 15 15 16 16 29 17 28 18 21 19 17 20 19 21 30 22
REMARK SMILES IDX 31 23 22 25 23 26 24 27 25 28 26 29 27 30 18 31 20 33 33 35
REMARK SMILES IDX 35 37 37 39 38 41 39 42 40 43 7 45 43 47 44 48 45 50 46 51
REMARK SMILES IDX 47 53 48 54 49 55 50 57 51 58 52 59 53 60 54 61 67 62 55 63
REMARK SMILES IDX 66 64 56 65 57 66 58 67 64 68 59 69 62 70 60 71 61 72 63 73
REMARK SMILES IDX 65 74 4 76 2 77 1 79 3 80
REMARK H PARENT 31 24 18 32 20 34 33 36 35 38 37 40 40 44 7 46 44 49 46 52
REMARK H PARENT 48 56 65 75 4 78
REMARK Flexibility Score: inf
ROOT
ATOM      1  C   UNL     1      23.931  20.945  12.844  1.00  0.00     0.272 C 
ATOM      2  C   UNL     1      23.039  21.962  13.704  1.00  0.00     0.113 C 
ATOM      3  C   UNL     1      23.735  22.310  14.956  1.00  0.00     0.145 C 
ATOM      4  C   UNL     1      25.104  22.862  14.657  1.00  0.00     0.142 C 
ATOM      5  C   UNL     1      25.656  22.516  13.307  1.00  0.00     0.178 C 
ATOM      6  O   UNL     1      25.089  21.576  12.560  1.00  0.00    -0.332 OA
ENDROOT
BRANCH   1   7
ATOM      7  O   UNL     1      23.150  20.838  11.744  1.00  0.00    -0.338 OA
BRANCH   7   8
ATOM      8  C   UNL     1      22.050  20.121  11.628  1.00  0.00     0.199 C 
BRANCH   8   9
ATOM      9  C   UNL     1      20.703  20.753  11.553  1.00  0.00     0.179 C 
ATOM     10  C   UNL     1      20.069  19.922   9.471  1.00  0.00     0.282 C 
ATOM     11  O   UNL     1      20.281  20.984  10.289  1.00  0.00    -0.341 OA
ATOM     12  C   UNL     1      19.363  18.797  10.154  1.00  0.00     0.202 C 
ATOM     13  C   UNL     1      18.710  19.270  11.424  1.00  0.00     0.179 C 
ATOM     14  C   UNL     1      19.661  19.968  12.352  1.00  0.00     0.177 C 
BRANCH  10  15
ATOM     15  O   UNL     1      21.256  19.532   8.830  1.00  0.00    -0.341 OA
BRANCH  15  16
ATOM     16  C   UNL     1      21.494  20.177   7.638  1.00  0.00     0.184 C 
ATOM     17  C   UNL     1      21.735  19.197   6.513  1.00  0.00     0.178 C 
ATOM     18  O   UNL     1      22.223  19.758   5.368  1.00  0.00    -0.341 OA
ATOM     19  C   UNL     1      22.145  21.136   5.279  1.00  0.00     0.281 C 
ATOM     20  C   UNL     1      22.784  21.001   7.698  1.00  0.00     0.180 C 
ATOM     21  C   UNL     1      22.789  21.840   6.443  1.00  0.00     0.202 C 
BRANCH  17  22
ATOM     22  C   UNL     1      20.516  18.352   6.205  1.00  0.00     0.191 C 
BRANCH  22  23
ATOM     23  O   UNL     1      19.349  19.060   6.393  1.00  0.00    -0.394 OA
ATOM     24  H   UNL     1      19.435  19.587   7.222  1.00  0.00     0.210 HD
ENDBRANCH  22  23
ENDBRANCH  17  22
BRANCH  19  25
ATOM     25  O   UNL     1      20.820  21.499   5.099  1.00  0.00    -0.350 OA
BRANCH  25  26
ATOM     26  C   UNL     1      20.699  22.844   4.880  1.00  0.00     0.169 C 
BRANCH  26  27
ATOM     27  C   UNL     1      19.338  23.420   5.076  1.00  0.00     0.119 C 
BRANCH  27  28
ATOM     28  N   UNL     1      18.327  22.410   5.318  1.00  0.00    -0.092 NA
ATOM     29  N   UNL     1      17.240  22.668   5.795  1.00  0.00     0.001 N 
ATOM     30  N   UNL     1      16.038  22.801   6.015  1.00  0.00    -0.003 NA
ENDBRANCH  27  28
ENDBRANCH  26  27
ENDBRANCH  25  26
ENDBRANCH  19  25
BRANCH  20  31
ATOM     31  O   UNL     1      22.913  21.738   8.844  1.00  0.00    -0.387 OA
ATOM     32  H   UNL     1      21.978  21.854   9.208  1.00  0.00     0.211 HD
ENDBRANCH  20  31
BRANCH  21  33
ATOM     33  O   UNL     1      24.076  22.230   6.091  1.00  0.00    -0.385 OA
ATOM     34  H   UNL     1      24.305  23.077   6.510  1.00  0.00     0.211 HD
ENDBRANCH  21  33
ENDBRANCH  15  16
ENDBRANCH  10  15
BRANCH  12  35
ATOM     35  O   UNL     1      18.380  18.307   9.260  1.00  0.00    -0.385 OA
ATOM     36  H   UNL     1      18.889  17.974   8.484  1.00  0.00     0.211 HD
ENDBRANCH  12  35
BRANCH  13  37
ATOM     37  O   UNL     1      18.034  18.242  12.079  1.00  0.00    -0.387 OA
ATOM     38  H   UNL     1      17.916  17.524  11.406  1.00  0.00     0.211 HD
ENDBRANCH  13  37
BRANCH  14  39
ATOM     39  O   UNL     1      20.303  19.036  13.149  1.00  0.00    -0.387 OA
ATOM     40  H   UNL     1      19.782  18.191  13.193  1.00  0.00     0.211 HD
ENDBRANCH  14  39
ENDBRANCH   8   9
ENDBRANCH   7   8
ENDBRANCH   1   7
BRANCH   1  41
ATOM     41  C   UNL     1      24.083  19.766  13.691  1.00  0.00     0.364 C 
ATOM     42  O   UNL     1      23.112  19.348  14.427  1.00  0.00    -0.246 OA
BRANCH  41  43
ATOM     43  O   UNL     1      25.222  19.010  13.781  1.00  0.00    -0.477 OA
ATOM     44  H   UNL     1      25.993  19.296  14.366  1.00  0.00     0.296 HD
ENDBRANCH  41  43
ENDBRANCH   1  41
BRANCH   3  45
ATOM     45  O   UNL     1      22.951  23.237  15.666  1.00  0.00    -0.391 OA
ATOM     46  H   UNL     1      22.495  22.785  16.412  1.00  0.00     0.211 HD
ENDBRANCH   3  45
BRANCH   5  47
ATOM     47  C   UNL     1      25.933  23.817  12.578  1.00  0.00     0.176 C 
BRANCH  47  48
ATOM     48  O   UNL     1      26.108  24.855  13.527  1.00  0.00    -0.388 OA
ATOM     49  H   UNL     1      26.873  24.669  14.107  1.00  0.00     0.211 HD
ENDBRANCH  47  48
BRANCH  47  50
ATOM     50  C   UNL     1      27.026  23.784  11.591  1.00  0.00     0.165 C 
BRANCH  50  51
ATOM     51  O   UNL     1      27.143  22.562  10.967  1.00  0.00    -0.388 OA
ATOM     52  H   UNL     1      27.728  21.925  11.449  1.00  0.00     0.211 HD
ENDBRANCH  50  51
BRANCH  50  53
ATOM     53  C   UNL     1      28.363  24.291  12.008  1.00  0.00     0.154 C 
BRANCH  53  54
ATOM     54  N   UNL     1      29.000  23.613  13.083  1.00  0.00    -0.319 N 
ATOM     55  C   UNL     1      29.980  22.616  12.751  1.00  0.00     0.407 C 
ATOM     56  H   UNL     1      28.792  23.769  14.082  1.00  0.00     0.167 HD
ATOM     57  O   UNL     1      30.234  22.388  11.518  1.00  0.00    -0.225 OA
BRANCH  55  58
ATOM     58  O   UNL     1      30.625  21.933  13.742  1.00  0.00    -0.443 OA
BRANCH  58  59
ATOM     59  C   UNL     1      30.486  22.253  15.103  1.00  0.00     0.294 C 
BRANCH  59  60
ATOM     60  C   UNL     1      29.644  21.248  15.790  1.00  0.00     0.120 A 
ATOM     61  C   UNL     1      29.943  20.440  16.880  1.00  0.00     0.138 A 
ATOM     62  N   UNL     1      28.379  20.922  15.478  1.00  0.00    -0.132 NA
ATOM     63  N   UNL     1      28.889  19.671  17.190  1.00  0.00    -0.248 N 
ATOM     64  N   UNL     1      27.942  19.994  16.306  1.00  0.00    -0.067 NA
BRANCH  63  65
ATOM     65  C   UNL     1      28.734  18.670  18.251  1.00  0.00     0.185 C 
BRANCH  65  66
ATOM     66  C   UNL     1      29.049  19.334  19.537  1.00  0.00     0.018 A 
ATOM     67  C   UNL     1      28.352  20.474  19.887  1.00  0.00     0.025 A 
ATOM     68  C   UNL     1      30.021  18.850  20.406  1.00  0.00     0.134 A 
ATOM     69  C   UNL     1      28.594  21.145  21.076  1.00  0.00     0.019 A 
ATOM     70  C   UNL     1      30.286  19.499  21.601  1.00  0.00     0.061 A 
ATOM     71  Br  UNL     1      27.608  22.713  21.516  1.00  0.00    -0.051 Br
ATOM     72  C   UNL     1      29.559  20.647  21.917  1.00  0.00     0.035 A 
ATOM     73  Br  UNL     1      31.610  18.821  22.765  1.00  0.00    -0.047 Br
BRANCH  68  74
ATOM     74  O   UNL     1      30.683  17.709  19.998  1.00  0.00    -0.506 OA
ATOM     75  H   UNL     1      30.211  17.051  19.399  1.00  0.00     0.293 HD
ENDBRANCH  68  74
ENDBRANCH  65  66
ENDBRANCH  63  65
ENDBRANCH  59  60
ENDBRANCH  58  59
ENDBRANCH  55  58
ENDBRANCH  53  54
ENDBRANCH  50  53
ENDBRANCH  47  50
ENDBRANCH   5  47
BRANCH   4  76
ATOM     76  N   UNL     1      25.998  22.575  15.757  1.00  0.00    -0.348 N 
ATOM     77  C   UNL     1      26.225  23.573  16.740  1.00  0.00     0.217 C 
ATOM     78  H   UNL     1      26.495  21.660  15.866  1.00  0.00     0.163 HD
ATOM     79  C   UNL     1      27.149  23.274  17.878  1.00  0.00     0.114 C 
ATOM     80  O   UNL     1      25.641  24.704  16.645  1.00  0.00    -0.275 OA
ENDBRANCH   4  76
TORSDOF 32
