REMARK VINA RESULT:    -5.296      3.042      8.027
REMARK INTER + INTRA:         -21.284
REMARK INTER:                 -11.721
REMARK INTRA:                  -9.563
REMARK UNBOUND:                -7.010
REMARK SMILES CC(=O)N[C@@H]1[C@@H](O)C[C@](OC[C@H]2O[C@@H](O[C@H]3[C@H](O)[C@@H](O)[C@H](OCCN=[N+]=[N-])O[C@@H]3CO)[C@H](O)[C@@H](O)[C@H]2O)(C(=O)O)O[C@H]1C(O)[C@H](O)CNC(=O)OCc1cn([C@@H](CC(=O)O)C(=O)O)nn1
REMARK SMILES IDX 43 1 42 2 9 3 8 4 41 5 6 6 5 7 10 8 11 9 12 10 14 11 13 12
REMARK SMILES IDX 32 13 34 14 36 15 15 16 16 17 29 18 28 19 21 20 17 21 19 22
REMARK SMILES IDX 30 23 31 24 22 26 23 27 24 28 25 29 26 30 27 31 18 32 20 34
REMARK SMILES IDX 33 36 35 38 37 40 38 42 39 43 40 44 7 46 4 48 2 49 1 51 3 52
REMARK SMILES IDX 44 53 45 55 46 56 47 58 48 59 49 60 50 62 51 63 52 64 53 65
REMARK SMILES IDX 54 66 65 67 55 68 64 69 56 70 57 71 58 72 59 73 60 74 61 76
REMARK SMILES IDX 62 77 63 78
REMARK H PARENT 31 25 18 33 20 35 33 37 35 39 37 41 40 45 7 47 4 50 44 54
REMARK H PARENT 46 57 48 61 60 75 63 79
REMARK Flexibility Score: inf
ROOT
ATOM      1  C   UNL     1      24.759  26.854  18.016  1.00  0.00     0.176 C 
ENDROOT
BRANCH   1   2
ATOM      2  C   UNL     1      25.825  26.800  19.097  1.00  0.00     0.178 C 
ATOM      3  C   UNL     1      26.257  25.798  21.179  1.00  0.00     0.272 C 
ATOM      4  C   UNL     1      27.252  26.965  21.130  1.00  0.00     0.113 C 
ATOM      5  O   UNL     1      25.357  26.028  20.114  1.00  0.00    -0.332 OA
ATOM      6  C   UNL     1      26.401  28.215  20.959  1.00  0.00     0.145 C 
ATOM      7  C   UNL     1      26.127  28.246  19.446  1.00  0.00     0.142 C 
BRANCH   3   8
ATOM      8  O   UNL     1      25.674  25.735  22.286  1.00  0.00    -0.338 OA
BRANCH   8   9
ATOM      9  C   UNL     1      25.093  25.662  23.384  1.00  0.00     0.199 C 
BRANCH   9  10
ATOM     10  C   UNL     1      23.903  24.709  23.496  1.00  0.00     0.179 C 
ATOM     11  C   UNL     1      22.647  25.667  25.170  1.00  0.00     0.282 C 
ATOM     12  O   UNL     1      23.361  24.590  24.730  1.00  0.00    -0.341 OA
ATOM     13  C   UNL     1      21.564  26.058  24.241  1.00  0.00     0.202 C 
ATOM     14  C   UNL     1      21.492  24.950  23.178  1.00  0.00     0.179 C 
ATOM     15  C   UNL     1      22.833  25.004  22.471  1.00  0.00     0.177 C 
BRANCH  11  16
ATOM     16  O   UNL     1      23.385  26.696  25.732  1.00  0.00    -0.341 OA
BRANCH  16  17
ATOM     17  C   UNL     1      23.538  26.588  27.094  1.00  0.00     0.184 C 
ATOM     18  C   UNL     1      24.729  25.778  27.463  1.00  0.00     0.178 C 
ATOM     19  O   UNL     1      24.901  25.727  28.841  1.00  0.00    -0.341 OA
ATOM     20  C   UNL     1      23.704  25.644  29.560  1.00  0.00     0.281 C 
ATOM     21  C   UNL     1      22.275  25.899  27.605  1.00  0.00     0.180 C 
ATOM     22  C   UNL     1      22.637  24.960  28.711  1.00  0.00     0.202 C 
BRANCH  18  23
ATOM     23  C   UNL     1      25.961  26.502  26.923  1.00  0.00     0.191 C 
BRANCH  23  24
ATOM     24  O   UNL     1      26.946  26.523  27.932  1.00  0.00    -0.394 OA
ATOM     25  H   UNL     1      27.279  27.469  27.937  1.00  0.00     0.210 HD
ENDBRANCH  23  24
ENDBRANCH  18  23
BRANCH  20  26
ATOM     26  O   UNL     1      23.276  26.936  29.803  1.00  0.00    -0.350 OA
BRANCH  26  27
ATOM     27  C   UNL     1      23.332  27.370  31.092  1.00  0.00     0.169 C 
BRANCH  27  28
ATOM     28  C   UNL     1      24.271  28.529  31.228  1.00  0.00     0.119 C 
BRANCH  28  29
ATOM     29  N   UNL     1      25.464  28.066  31.941  1.00  0.00    -0.092 NA
ATOM     30  N   UNL     1      26.429  27.671  31.256  1.00  0.00     0.001 N 
ATOM     31  N   UNL     1      27.332  26.886  30.913  1.00  0.00    -0.003 NA
ENDBRANCH  28  29
ENDBRANCH  27  28
ENDBRANCH  26  27
ENDBRANCH  20  26
BRANCH  21  32
ATOM     32  O   UNL     1      21.376  26.850  28.071  1.00  0.00    -0.387 OA
ATOM     33  H   UNL     1      20.469  26.688  27.682  1.00  0.00     0.211 HD
ENDBRANCH  21  32
BRANCH  22  34
ATOM     34  O   UNL     1      23.082  23.711  28.273  1.00  0.00    -0.385 OA
ATOM     35  H   UNL     1      22.920  23.098  29.058  1.00  0.00     0.211 HD
ENDBRANCH  22  34
ENDBRANCH  16  17
ENDBRANCH  11  16
BRANCH  13  36
ATOM     36  O   UNL     1      20.299  26.088  24.831  1.00  0.00    -0.385 OA
ATOM     37  H   UNL     1      20.051  25.144  25.050  1.00  0.00     0.211 HD
ENDBRANCH  13  36
BRANCH  14  38
ATOM     38  O   UNL     1      20.445  25.114  22.306  1.00  0.00    -0.387 OA
ATOM     39  H   UNL     1      19.586  24.765  22.678  1.00  0.00     0.211 HD
ENDBRANCH  14  38
BRANCH  15  40
ATOM     40  O   UNL     1      22.989  26.241  21.888  1.00  0.00    -0.387 OA
ATOM     41  H   UNL     1      22.561  26.336  21.020  1.00  0.00     0.211 HD
ENDBRANCH  15  40
ENDBRANCH   9  10
ENDBRANCH   8   9
ENDBRANCH   3   8
BRANCH   3  42
ATOM     42  C   UNL     1      27.104  24.589  20.795  1.00  0.00     0.364 C 
ATOM     43  O   UNL     1      28.312  24.567  21.074  1.00  0.00    -0.246 OA
BRANCH  42  44
ATOM     44  O   UNL     1      26.550  23.508  20.136  1.00  0.00    -0.477 OA
ATOM     45  H   UNL     1      25.567  23.230  20.263  1.00  0.00     0.296 HD
ENDBRANCH  42  44
ENDBRANCH   3  42
BRANCH   6  46
ATOM     46  O   UNL     1      25.119  28.000  21.511  1.00  0.00    -0.391 OA
ATOM     47  H   UNL     1      24.695  27.193  21.173  1.00  0.00     0.211 HD
ENDBRANCH   6  46
BRANCH   7  48
ATOM     48  N   UNL     1      27.335  28.745  18.833  1.00  0.00    -0.348 N 
ATOM     49  C   UNL     1      27.259  29.671  17.747  1.00  0.00     0.217 C 
ATOM     50  H   UNL     1      28.291  28.460  19.145  1.00  0.00     0.163 HD
ATOM     51  C   UNL     1      28.551  30.150  17.150  1.00  0.00     0.114 C 
ATOM     52  O   UNL     1      26.156  30.078  17.295  1.00  0.00    -0.275 OA
ENDBRANCH   7  48
ENDBRANCH   1   2
BRANCH   1  53
ATOM     53  O   UNL     1      25.302  27.157  16.774  1.00  0.00    -0.388 OA
ATOM     54  H   UNL     1      25.510  28.130  16.686  1.00  0.00     0.211 HD
ENDBRANCH   1  53
BRANCH   1  55
ATOM     55  C   UNL     1      23.590  27.717  18.306  1.00  0.00     0.165 C 
BRANCH  55  56
ATOM     56  O   UNL     1      22.894  27.434  19.459  1.00  0.00    -0.388 OA
ATOM     57  H   UNL     1      22.578  28.236  19.956  1.00  0.00     0.211 HD
ENDBRANCH  55  56
BRANCH  55  58
ATOM     58  C   UNL     1      22.731  27.898  17.101  1.00  0.00     0.154 C 
BRANCH  58  59
ATOM     59  N   UNL     1      21.321  27.967  17.331  1.00  0.00    -0.319 N 
ATOM     60  C   UNL     1      20.697  29.230  17.458  1.00  0.00     0.407 C 
ATOM     61  H   UNL     1      20.746  27.116  17.403  1.00  0.00     0.167 HD
ATOM     62  O   UNL     1      21.430  30.274  17.346  1.00  0.00    -0.225 OA
BRANCH  60  63
ATOM     63  O   UNL     1      19.353  29.455  17.701  1.00  0.00    -0.443 OA
BRANCH  63  64
ATOM     64  C   UNL     1      18.682  28.702  18.724  1.00  0.00     0.294 C 
BRANCH  64  65
ATOM     65  C   UNL     1      19.511  28.730  19.953  1.00  0.00     0.120 A 
ATOM     66  C   UNL     1      19.858  29.787  20.764  1.00  0.00     0.139 A 
ATOM     67  N   UNL     1      20.132  27.641  20.518  1.00  0.00    -0.132 NA
ATOM     68  N   UNL     1      20.658  29.327  21.770  1.00  0.00    -0.237 N 
ATOM     69  N   UNL     1      20.785  28.047  21.573  1.00  0.00    -0.066 NA
BRANCH  68  70
ATOM     70  C   UNL     1      21.249  30.118  22.825  1.00  0.00     0.229 C 
BRANCH  70  71
ATOM     71  C   UNL     1      20.598  29.717  24.137  1.00  0.00     0.161 C 
BRANCH  71  72
ATOM     72  C   UNL     1      19.287  30.370  24.315  1.00  0.00     0.306 C 
ATOM     73  O   UNL     1      19.194  31.512  24.832  1.00  0.00    -0.252 OA
BRANCH  72  74
ATOM     74  O   UNL     1      18.132  29.735  23.915  1.00  0.00    -0.481 OA
ATOM     75  H   UNL     1      18.073  29.379  22.953  1.00  0.00     0.296 HD
ENDBRANCH  72  74
ENDBRANCH  71  72
ENDBRANCH  70  71
BRANCH  70  76
ATOM     76  C   UNL     1      22.693  29.835  22.886  1.00  0.00     0.329 C 
ATOM     77  O   UNL     1      23.484  30.579  22.261  1.00  0.00    -0.250 OA
BRANCH  76  78
ATOM     78  O   UNL     1      23.229  28.777  23.608  1.00  0.00    -0.480 OA
ATOM     79  H   UNL     1      24.165  28.880  23.990  1.00  0.00     0.296 HD
ENDBRANCH  76  78
ENDBRANCH  70  76
ENDBRANCH  68  70
ENDBRANCH  64  65
ENDBRANCH  63  64
ENDBRANCH  60  63
ENDBRANCH  58  59
ENDBRANCH  55  58
ENDBRANCH   1  55
TORSDOF 35
