REMARK VINA RESULT:    -4.798      5.889     12.900
REMARK INTER + INTRA:         -20.507
REMARK INTER:                 -13.468
REMARK INTRA:                  -7.039
REMARK UNBOUND:                -8.275
REMARK SMILES CC(=O)N[C@@H]1[C@@H](O)C[C@](OC[C@H]2O[C@@H](O[C@H]3[C@H](O)[C@@H](O)[C@H](OCCN=[N+]=[N-])O[C@@H]3CO)[C@H](O)[C@@H](O)[C@H]2O)(C(=O)O)O[C@H]1C(O)[C@H](O)CNC(=O)OCc1cn(C(C)(C)C(=O)O)nn1
REMARK SMILES IDX 9 1 8 2 6 3 5 4 42 5 41 6 10 7 11 8 12 9 14 10 13 11 32 12
REMARK SMILES IDX 34 13 36 14 15 15 16 16 29 17 28 18 21 19 17 20 19 21 30 22
REMARK SMILES IDX 31 23 22 25 23 26 24 27 25 28 26 29 27 30 18 31 20 33 33 35
REMARK SMILES IDX 35 37 37 39 38 41 39 42 40 43 7 45 43 47 44 48 45 50 46 51
REMARK SMILES IDX 47 53 48 54 49 55 50 57 51 58 52 59 53 60 54 61 63 62 55 63
REMARK SMILES IDX 62 64 56 65 57 66 58 67 59 68 60 69 61 70 4 72 2 73 1 75
REMARK SMILES IDX 3 76
REMARK H PARENT 31 24 18 32 20 34 33 36 35 38 37 40 40 44 7 46 44 49 46 52
REMARK H PARENT 48 56 61 71 4 74
REMARK Flexibility Score: inf
ROOT
ATOM      1  C   UNL     1      15.403  29.621  21.882  1.00  0.00     0.272 C 
ATOM      2  C   UNL     1      14.434  28.723  21.232  1.00  0.00     0.113 C 
ATOM      3  C   UNL     1      14.113  29.058  19.803  1.00  0.00     0.145 C 
ATOM      4  C   UNL     1      14.328  30.520  19.557  1.00  0.00     0.142 C 
ATOM      5  C   UNL     1      14.055  31.209  20.908  1.00  0.00     0.178 C 
ATOM      6  O   UNL     1      15.158  30.986  21.701  1.00  0.00    -0.332 OA
ENDROOT
BRANCH   1   7
ATOM      7  O   UNL     1      16.705  29.391  21.559  1.00  0.00    -0.338 OA
BRANCH   7   8
ATOM      8  C   UNL     1      17.517  30.455  21.322  1.00  0.00     0.199 C 
BRANCH   8   9
ATOM      9  C   UNL     1      18.792  30.034  20.626  1.00  0.00     0.179 C 
ATOM     10  C   UNL     1      20.328  28.311  20.592  1.00  0.00     0.282 C 
ATOM     11  O   UNL     1      18.996  28.702  20.983  1.00  0.00    -0.341 OA
ATOM     12  C   UNL     1      20.319  28.241  19.112  1.00  0.00     0.202 C 
ATOM     13  C   UNL     1      19.035  28.818  18.519  1.00  0.00     0.179 C 
ATOM     14  C   UNL     1      18.694  30.159  19.152  1.00  0.00     0.177 C 
BRANCH  10  15
ATOM     15  O   UNL     1      20.542  27.168  21.300  1.00  0.00    -0.341 OA
BRANCH  15  16
ATOM     16  C   UNL     1      21.861  26.920  21.637  1.00  0.00     0.184 C 
ATOM     17  C   UNL     1      22.045  25.461  21.918  1.00  0.00     0.178 C 
ATOM     18  O   UNL     1      23.179  25.230  22.712  1.00  0.00    -0.341 OA
ATOM     19  C   UNL     1      22.996  25.615  24.032  1.00  0.00     0.281 C 
ATOM     20  C   UNL     1      22.238  27.680  22.909  1.00  0.00     0.180 C 
ATOM     21  C   UNL     1      22.045  26.789  24.110  1.00  0.00     0.202 C 
BRANCH  17  22
ATOM     22  C   UNL     1      22.315  24.669  20.628  1.00  0.00     0.191 C 
BRANCH  22  23
ATOM     23  O   UNL     1      22.355  25.575  19.589  1.00  0.00    -0.394 OA
ATOM     24  H   UNL     1      22.373  25.065  18.725  1.00  0.00     0.210 HD
ENDBRANCH  22  23
ENDBRANCH  17  22
BRANCH  19  25
ATOM     25  O   UNL     1      24.258  25.952  24.518  1.00  0.00    -0.350 OA
BRANCH  25  26
ATOM     26  C   UNL     1      24.372  25.949  25.884  1.00  0.00     0.169 C 
BRANCH  26  27
ATOM     27  C   UNL     1      23.929  24.553  26.344  1.00  0.00     0.119 C 
BRANCH  27  28
ATOM     28  N   UNL     1      23.127  24.606  27.545  1.00  0.00    -0.092 NA
ATOM     29  N   UNL     1      22.291  25.515  27.652  1.00  0.00     0.001 N 
ATOM     30  N   UNL     1      21.657  26.545  27.842  1.00  0.00    -0.003 NA
ENDBRANCH  27  28
ENDBRANCH  26  27
ENDBRANCH  25  26
ENDBRANCH  19  25
BRANCH  20  31
ATOM     31  O   UNL     1      23.582  28.034  22.852  1.00  0.00    -0.387 OA
ATOM     32  H   UNL     1      24.116  27.653  23.592  1.00  0.00     0.211 HD
ENDBRANCH  20  31
BRANCH  21  33
ATOM     33  O   UNL     1      20.717  26.379  24.135  1.00  0.00    -0.385 OA
ATOM     34  H   UNL     1      20.400  26.125  25.034  1.00  0.00     0.211 HD
ENDBRANCH  21  33
ENDBRANCH  15  16
ENDBRANCH  10  15
BRANCH  12  35
ATOM     35  O   UNL     1      21.341  29.086  18.625  1.00  0.00    -0.385 OA
ATOM     36  H   UNL     1      21.037  29.747  17.986  1.00  0.00     0.211 HD
ENDBRANCH  12  35
BRANCH  13  37
ATOM     37  O   UNL     1      17.997  27.915  18.646  1.00  0.00    -0.387 OA
ATOM     38  H   UNL     1      18.055  27.216  17.946  1.00  0.00     0.211 HD
ENDBRANCH  13  37
BRANCH  14  39
ATOM     39  O   UNL     1      17.404  30.473  18.757  1.00  0.00    -0.387 OA
ATOM     40  H   UNL     1      16.934  29.616  18.547  1.00  0.00     0.211 HD
ENDBRANCH  14  39
ENDBRANCH   8   9
ENDBRANCH   7   8
ENDBRANCH   1   7
BRANCH   1  41
ATOM     41  C   UNL     1      15.211  29.446  23.393  1.00  0.00     0.364 C 
ATOM     42  O   UNL     1      14.067  29.512  23.894  1.00  0.00    -0.246 OA
BRANCH  41  43
ATOM     43  O   UNL     1      16.287  29.215  24.227  1.00  0.00    -0.477 OA
ATOM     44  H   UNL     1      16.425  29.678  25.111  1.00  0.00     0.296 HD
ENDBRANCH  41  43
ENDBRANCH   1  41
BRANCH   3  45
ATOM     45  O   UNL     1      14.938  28.332  18.970  1.00  0.00    -0.391 OA
ATOM     46  H   UNL     1      14.435  27.831  18.276  1.00  0.00     0.211 HD
ENDBRANCH   3  45
BRANCH   5  47
ATOM     47  C   UNL     1      13.806  32.680  20.735  1.00  0.00     0.176 C 
BRANCH  47  48
ATOM     48  O   UNL     1      12.435  32.913  20.659  1.00  0.00    -0.388 OA
ATOM     49  H   UNL     1      11.932  32.255  21.224  1.00  0.00     0.211 HD
ENDBRANCH  47  48
BRANCH  47  50
ATOM     50  C   UNL     1      14.344  33.436  21.928  1.00  0.00     0.165 C 
BRANCH  50  51
ATOM     51  O   UNL     1      13.738  32.998  23.114  1.00  0.00    -0.388 OA
ATOM     52  H   UNL     1      14.237  33.378  23.870  1.00  0.00     0.211 HD
ENDBRANCH  50  51
BRANCH  50  53
ATOM     53  C   UNL     1      14.145  34.924  21.816  1.00  0.00     0.154 C 
BRANCH  53  54
ATOM     54  N   UNL     1      13.932  35.529  23.109  1.00  0.00    -0.319 N 
ATOM     55  C   UNL     1      12.702  36.142  23.448  1.00  0.00     0.407 C 
ATOM     56  H   UNL     1      14.691  35.523  23.818  1.00  0.00     0.167 HD
ATOM     57  O   UNL     1      11.735  36.190  22.646  1.00  0.00    -0.225 OA
BRANCH  55  58
ATOM     58  O   UNL     1      12.508  36.731  24.706  1.00  0.00    -0.443 OA
BRANCH  58  59
ATOM     59  C   UNL     1      11.699  36.046  25.668  1.00  0.00     0.294 C 
BRANCH  59  60
ATOM     60  C   UNL     1      12.251  34.730  25.986  1.00  0.00     0.120 A 
ATOM     61  C   UNL     1      13.330  34.470  26.792  1.00  0.00     0.139 A 
ATOM     62  N   UNL     1      11.801  33.553  25.542  1.00  0.00    -0.132 NA
ATOM     63  N   UNL     1      13.518  33.137  26.825  1.00  0.00    -0.235 N 
ATOM     64  N   UNL     1      12.561  32.619  26.049  1.00  0.00    -0.066 NA
BRANCH  63  65
ATOM     65  C   UNL     1      14.521  32.366  27.531  1.00  0.00     0.155 C 
ATOM     66  C   UNL     1      13.869  31.417  28.492  1.00  0.00     0.049 C 
ATOM     67  C   UNL     1      15.444  33.281  28.327  1.00  0.00     0.049 C 
BRANCH  65  68
ATOM     68  C   UNL     1      15.345  31.662  26.523  1.00  0.00     0.331 C 
ATOM     69  O   UNL     1      16.047  30.701  26.875  1.00  0.00    -0.250 OA
BRANCH  68  70
ATOM     70  O   UNL     1      15.313  32.094  25.209  1.00  0.00    -0.479 OA
ATOM     71  H   UNL     1      16.151  32.239  24.658  1.00  0.00     0.296 HD
ENDBRANCH  68  70
ENDBRANCH  65  68
ENDBRANCH  63  65
ENDBRANCH  59  60
ENDBRANCH  58  59
ENDBRANCH  55  58
ENDBRANCH  53  54
ENDBRANCH  50  53
ENDBRANCH  47  50
ENDBRANCH   5  47
BRANCH   4  72
ATOM     72  N   UNL     1      13.378  31.076  18.630  1.00  0.00    -0.348 N 
ATOM     73  C   UNL     1      13.452  30.913  17.218  1.00  0.00     0.217 C 
ATOM     74  H   UNL     1      12.586  31.630  19.011  1.00  0.00     0.163 HD
ATOM     75  C   UNL     1      12.421  31.526  16.324  1.00  0.00     0.114 C 
ATOM     76  O   UNL     1      14.397  30.244  16.725  1.00  0.00    -0.275 OA
ENDBRANCH   4  72
TORSDOF 32
