REMARK VINA RESULT:    -5.285      5.743     10.966
REMARK INTER + INTRA:         -21.079
REMARK INTER:                 -14.421
REMARK INTRA:                  -6.658
REMARK UNBOUND:                -7.606
REMARK SMILES CC(=O)N[C@@H]1[C@@H](O)C[C@](OC[C@H]2O[C@@H](O[C@H]3[C@H](O)[C@@H](O)[C@H](OCCN=[N+]=[N-])O[C@@H]3CO)[C@H](O)[C@@H](O)[C@H]2O)(C(=O)O)O[C@H]1C(O)[C@H](O)CNC(=O)OCc1cn(-c2ccc(CO)cn2)nn1
REMARK SMILES IDX 9 1 8 2 6 3 5 4 42 5 41 6 10 7 11 8 12 9 14 10 13 11 32 12
REMARK SMILES IDX 34 13 36 14 15 15 16 16 29 17 28 18 21 19 17 20 19 21 30 22
REMARK SMILES IDX 31 23 22 25 23 26 24 27 25 28 26 29 27 30 18 31 20 33 33 35
REMARK SMILES IDX 35 37 37 39 38 41 39 42 40 43 7 45 43 47 44 48 45 50 46 51
REMARK SMILES IDX 47 53 48 54 49 55 50 57 51 58 52 59 53 60 54 61 65 62 55 63
REMARK SMILES IDX 64 64 56 65 57 66 63 67 58 68 62 69 59 70 60 71 61 72 4 74
REMARK SMILES IDX 2 75 1 77 3 78
REMARK H PARENT 31 24 18 32 20 34 33 36 35 38 37 40 40 44 7 46 44 49 46 52
REMARK H PARENT 48 56 61 73 4 76
REMARK Flexibility Score: inf
ROOT
ATOM      1  C   UNL     1      20.123  28.681  20.350  1.00  0.00     0.272 C 
ATOM      2  C   UNL     1      20.855  29.798  19.706  1.00  0.00     0.113 C 
ATOM      3  C   UNL     1      20.178  31.124  19.912  1.00  0.00     0.145 C 
ATOM      4  C   UNL     1      19.813  31.300  21.373  1.00  0.00     0.142 C 
ATOM      5  C   UNL     1      19.084  30.120  21.871  1.00  0.00     0.178 C 
ATOM      6  O   UNL     1      19.709  28.945  21.631  1.00  0.00    -0.332 OA
ENDROOT
BRANCH   1   7
ATOM      7  O   UNL     1      20.836  27.495  20.391  1.00  0.00    -0.338 OA
BRANCH   7   8
ATOM      8  C   UNL     1      22.075  27.584  19.792  1.00  0.00     0.199 C 
BRANCH   8   9
ATOM      9  C   UNL     1      23.070  26.777  20.570  1.00  0.00     0.179 C 
ATOM     10  C   UNL     1      23.855  26.431  22.661  1.00  0.00     0.282 C 
ATOM     11  O   UNL     1      22.665  26.594  21.906  1.00  0.00    -0.341 OA
ATOM     12  C   UNL     1      24.708  25.399  22.046  1.00  0.00     0.202 C 
ATOM     13  C   UNL     1      24.046  24.539  20.983  1.00  0.00     0.179 C 
ATOM     14  C   UNL     1      23.271  25.411  19.999  1.00  0.00     0.177 C 
BRANCH  10  15
ATOM     15  O   UNL     1      23.522  26.205  24.001  1.00  0.00    -0.341 OA
BRANCH  15  16
ATOM     16  C   UNL     1      22.598  27.108  24.480  1.00  0.00     0.184 C 
ATOM     17  C   UNL     1      23.131  28.149  25.414  1.00  0.00     0.178 C 
ATOM     18  O   UNL     1      22.677  28.008  26.722  1.00  0.00    -0.341 OA
ATOM     19  C   UNL     1      22.957  26.781  27.267  1.00  0.00     0.281 C 
ATOM     20  C   UNL     1      21.570  26.282  25.275  1.00  0.00     0.180 C 
ATOM     21  C   UNL     1      22.395  25.643  26.401  1.00  0.00     0.202 C 
BRANCH  17  22
ATOM     22  C   UNL     1      22.560  29.501  24.945  1.00  0.00     0.191 C 
BRANCH  22  23
ATOM     23  O   UNL     1      22.143  29.399  23.609  1.00  0.00    -0.394 OA
ATOM     24  H   UNL     1      22.931  29.468  22.990  1.00  0.00     0.210 HD
ENDBRANCH  22  23
ENDBRANCH  17  22
BRANCH  19  25
ATOM     25  O   UNL     1      22.370  26.716  28.528  1.00  0.00    -0.350 OA
BRANCH  25  26
ATOM     26  C   UNL     1      22.936  27.573  29.437  1.00  0.00     0.169 C 
BRANCH  26  27
ATOM     27  C   UNL     1      23.108  26.821  30.750  1.00  0.00     0.119 C 
BRANCH  27  28
ATOM     28  N   UNL     1      23.823  25.571  30.527  1.00  0.00    -0.092 NA
ATOM     29  N   UNL     1      25.039  25.479  30.513  1.00  0.00     0.001 N 
ATOM     30  N   UNL     1      26.191  25.225  30.864  1.00  0.00    -0.003 NA
ENDBRANCH  27  28
ENDBRANCH  26  27
ENDBRANCH  25  26
ENDBRANCH  19  25
BRANCH  20  31
ATOM     31  O   UNL     1      20.520  27.031  25.731  1.00  0.00    -0.387 OA
ATOM     32  H   UNL     1      19.749  26.462  25.872  1.00  0.00     0.211 HD
ENDBRANCH  20  31
BRANCH  21  33
ATOM     33  O   UNL     1      23.437  24.961  25.778  1.00  0.00    -0.385 OA
ATOM     34  H   UNL     1      23.985  24.544  26.489  1.00  0.00     0.211 HD
ENDBRANCH  21  33
ENDBRANCH  15  16
ENDBRANCH  10  15
BRANCH  12  35
ATOM     35  O   UNL     1      25.830  26.027  21.453  1.00  0.00    -0.385 OA
ATOM     36  H   UNL     1      26.121  26.818  21.976  1.00  0.00     0.211 HD
ENDBRANCH  12  35
BRANCH  13  37
ATOM     37  O   UNL     1      23.273  23.532  21.533  1.00  0.00    -0.387 OA
ATOM     38  H   UNL     1      23.662  22.647  21.463  1.00  0.00     0.211 HD
ENDBRANCH  13  37
BRANCH  14  39
ATOM     39  O   UNL     1      22.073  24.779  19.743  1.00  0.00    -0.387 OA
ATOM     40  H   UNL     1      21.531  25.333  19.148  1.00  0.00     0.211 HD
ENDBRANCH  14  39
ENDBRANCH   8   9
ENDBRANCH   7   8
ENDBRANCH   1   7
BRANCH   1  41
ATOM     41  C   UNL     1      18.854  28.344  19.595  1.00  0.00     0.364 C 
ATOM     42  O   UNL     1      18.839  28.076  18.370  1.00  0.00    -0.246 OA
BRANCH  41  43
ATOM     43  O   UNL     1      17.638  28.322  20.248  1.00  0.00    -0.477 OA
ATOM     44  H   UNL     1      17.065  27.469  20.227  1.00  0.00     0.296 HD
ENDBRANCH  41  43
ENDBRANCH   1  41
BRANCH   3  45
ATOM     45  O   UNL     1      21.147  32.110  19.638  1.00  0.00    -0.391 OA
ATOM     46  H   UNL     1      21.409  32.146  18.700  1.00  0.00     0.211 HD
ENDBRANCH   3  45
BRANCH   5  47
ATOM     47  C   UNL     1      18.691  30.221  23.333  1.00  0.00     0.176 C 
BRANCH  47  48
ATOM     48  O   UNL     1      19.341  29.226  24.061  1.00  0.00    -0.388 OA
ATOM     49  H   UNL     1      20.307  29.412  24.119  1.00  0.00     0.211 HD
ENDBRANCH  47  48
BRANCH  47  50
ATOM     50  C   UNL     1      17.239  30.131  23.612  1.00  0.00     0.165 C 
BRANCH  50  51
ATOM     51  O   UNL     1      16.504  29.617  22.535  1.00  0.00    -0.388 OA
ATOM     52  H   UNL     1      16.790  29.953  21.672  1.00  0.00     0.211 HD
ENDBRANCH  50  51
BRANCH  50  53
ATOM     53  C   UNL     1      16.591  31.371  24.159  1.00  0.00     0.154 C 
BRANCH  53  54
ATOM     54  N   UNL     1      15.302  31.586  23.558  1.00  0.00    -0.319 N 
ATOM     55  C   UNL     1      14.129  31.142  24.214  1.00  0.00     0.407 C 
ATOM     56  H   UNL     1      15.231  32.083  22.610  1.00  0.00     0.167 HD
ATOM     57  O   UNL     1      14.149  30.559  25.321  1.00  0.00    -0.225 OA
BRANCH  55  58
ATOM     58  O   UNL     1      12.866  31.340  23.646  1.00  0.00    -0.443 OA
BRANCH  58  59
ATOM     59  C   UNL     1      12.272  30.303  22.920  1.00  0.00     0.294 C 
BRANCH  59  60
ATOM     60  C   UNL     1      13.073  29.737  21.842  1.00  0.00     0.121 A 
ATOM     61  C   UNL     1      13.238  30.249  20.580  1.00  0.00     0.146 A 
ATOM     62  N   UNL     1      13.797  28.606  21.879  1.00  0.00    -0.131 NA
ATOM     63  N   UNL     1      14.049  29.425  19.886  1.00  0.00    -0.202 N 
ATOM     64  N   UNL     1      14.365  28.443  20.710  1.00  0.00    -0.061 NA
BRANCH  63  65
ATOM     65  C   UNL     1      14.445  29.625  18.539  1.00  0.00     0.155 A 
ATOM     66  C   UNL     1      13.633  30.293  17.628  1.00  0.00     0.049 A 
ATOM     67  N   UNL     1      15.624  29.166  18.087  1.00  0.00    -0.237 NA
ATOM     68  C   UNL     1      14.035  30.471  16.311  1.00  0.00     0.011 A 
ATOM     69  C   UNL     1      16.036  29.329  16.806  1.00  0.00     0.119 A 
ATOM     70  C   UNL     1      15.249  29.989  15.877  1.00  0.00    -0.004 A 
BRANCH  70  71
ATOM     71  C   UNL     1      15.672  30.181  14.463  1.00  0.00     0.193 C 
BRANCH  71  72
ATOM     72  O   UNL     1      16.128  28.983  13.914  1.00  0.00    -0.392 OA
ATOM     73  H   UNL     1      16.902  29.110  13.328  1.00  0.00     0.211 HD
ENDBRANCH  71  72
ENDBRANCH  70  71
ENDBRANCH  63  65
ENDBRANCH  59  60
ENDBRANCH  58  59
ENDBRANCH  55  58
ENDBRANCH  53  54
ENDBRANCH  50  53
ENDBRANCH  47  50
ENDBRANCH   5  47
BRANCH   4  74
ATOM     74  N   UNL     1      19.047  32.537  21.534  1.00  0.00    -0.348 N 
ATOM     75  C   UNL     1      17.764  32.698  21.017  1.00  0.00     0.217 C 
ATOM     76  H   UNL     1      19.489  33.313  22.065  1.00  0.00     0.163 HD
ATOM     77  C   UNL     1      17.089  34.031  21.249  1.00  0.00     0.114 C 
ATOM     78  O   UNL     1      17.153  31.825  20.385  1.00  0.00    -0.275 OA
ENDBRANCH   4  74
TORSDOF 32
