REMARK VINA RESULT:    -6.049      0.000      0.000
REMARK INTER + INTRA:         -21.659
REMARK INTER:                 -15.722
REMARK INTRA:                  -5.937
REMARK UNBOUND:                -6.769
REMARK SMILES CC(=O)N[C@@H]1[C@@H](O)C[C@](OC[C@H]2O[C@@H](O[C@H]3[C@H](O)[C@@H](O)[C@H](OCCN=[N+]=[N-])O[C@@H]3CO)[C@H](O)[C@@H](O)[C@H]2O)(C(=O)O)O[C@H]1C(O)[C@H](O)CNC(=O)OCc1cn(-c2cccnc2)nn1
REMARK SMILES IDX 9 1 8 2 6 3 5 4 42 5 41 6 10 7 11 8 12 9 14 10 13 11 32 12
REMARK SMILES IDX 34 13 36 14 15 15 16 16 29 17 28 18 21 19 17 20 19 21 30 22
REMARK SMILES IDX 31 23 22 25 23 26 24 27 25 28 26 29 27 30 18 31 20 33 33 35
REMARK SMILES IDX 35 37 37 39 38 41 39 42 40 43 7 45 43 47 44 48 45 50 46 51
REMARK SMILES IDX 47 53 48 54 49 55 50 57 51 58 52 59 53 60 54 61 63 62 55 63
REMARK SMILES IDX 62 64 56 65 57 66 61 67 58 68 60 69 59 70 4 71 2 72 1 74
REMARK SMILES IDX 3 75
REMARK H PARENT 31 24 18 32 20 34 33 36 35 38 37 40 40 44 7 46 44 49 46 52
REMARK H PARENT 48 56 4 73
REMARK Flexibility Score: inf
ROOT
ATOM      1  C   UNL     1      13.348  30.992  15.970  1.00  0.00     0.272 C 
ATOM      2  C   UNL     1      13.426  29.556  15.643  1.00  0.00     0.113 C 
ATOM      3  C   UNL     1      13.698  29.320  14.198  1.00  0.00     0.145 C 
ATOM      4  C   UNL     1      14.697  30.275  13.595  1.00  0.00     0.142 C 
ATOM      5  C   UNL     1      15.227  31.270  14.565  1.00  0.00     0.178 C 
ATOM      6  O   UNL     1      14.237  31.848  15.347  1.00  0.00    -0.332 OA
ENDROOT
BRANCH   1   7
ATOM      7  O   UNL     1      13.529  31.236  17.330  1.00  0.00    -0.338 OA
BRANCH   7   8
ATOM      8  C   UNL     1      13.941  30.193  18.095  1.00  0.00     0.199 C 
BRANCH   8   9
ATOM      9  C   UNL     1      15.268  30.615  18.754  1.00  0.00     0.179 C 
ATOM     10  C   UNL     1      14.579  30.253  20.963  1.00  0.00     0.282 C 
ATOM     11  O   UNL     1      15.045  31.103  19.984  1.00  0.00    -0.341 OA
ATOM     12  C   UNL     1      15.291  28.946  20.899  1.00  0.00     0.202 C 
ATOM     13  C   UNL     1      16.614  29.176  20.153  1.00  0.00     0.179 C 
ATOM     14  C   UNL     1      16.291  29.494  18.701  1.00  0.00     0.177 C 
BRANCH  10  15
ATOM     15  O   UNL     1      13.200  30.167  20.785  1.00  0.00    -0.341 OA
BRANCH  15  16
ATOM     16  C   UNL     1      12.465  30.667  21.809  1.00  0.00     0.184 C 
ATOM     17  C   UNL     1      11.993  32.080  21.652  1.00  0.00     0.178 C 
ATOM     18  O   UNL     1      10.850  32.226  22.439  1.00  0.00    -0.341 OA
ATOM     19  C   UNL     1      10.968  31.659  23.704  1.00  0.00     0.281 C 
ATOM     20  C   UNL     1      13.204  30.660  23.144  1.00  0.00     0.180 C 
ATOM     21  C   UNL     1      12.402  31.498  24.151  1.00  0.00     0.202 C 
BRANCH  17  22
ATOM     22  C   UNL     1      11.702  32.533  20.270  1.00  0.00     0.191 C 
BRANCH  22  23
ATOM     23  O   UNL     1      12.806  33.034  19.632  1.00  0.00    -0.394 OA
ATOM     24  H   UNL     1      13.305  33.590  20.284  1.00  0.00     0.210 HD
ENDBRANCH  22  23
ENDBRANCH  17  22
BRANCH  19  25
ATOM     25  O   UNL     1      10.324  30.463  23.830  1.00  0.00    -0.350 OA
BRANCH  25  26
ATOM     26  C   UNL     1       9.047  30.425  24.263  1.00  0.00     0.169 C 
BRANCH  26  27
ATOM     27  C   UNL     1       8.456  29.107  24.620  1.00  0.00     0.119 C 
BRANCH  27  28
ATOM     28  N   UNL     1       9.330  27.985  24.621  1.00  0.00    -0.092 NA
ATOM     29  N   UNL     1       9.099  26.951  25.283  1.00  0.00     0.001 N 
ATOM     30  N   UNL     1       9.079  26.262  26.317  1.00  0.00    -0.003 NA
ENDBRANCH  27  28
ENDBRANCH  26  27
ENDBRANCH  25  26
ENDBRANCH  19  25
BRANCH  20  31
ATOM     31  O   UNL     1      13.248  29.365  23.639  1.00  0.00    -0.387 OA
ATOM     32  H   UNL     1      12.371  28.901  23.583  1.00  0.00     0.211 HD
ENDBRANCH  20  31
BRANCH  21  33
ATOM     33  O   UNL     1      12.991  32.741  24.370  1.00  0.00    -0.385 OA
ATOM     34  H   UNL     1      12.335  33.440  24.130  1.00  0.00     0.211 HD
ENDBRANCH  21  33
ENDBRANCH  15  16
ENDBRANCH  10  15
BRANCH  12  35
ATOM     35  O   UNL     1      15.700  28.570  22.193  1.00  0.00    -0.385 OA
ATOM     36  H   UNL     1      15.157  27.770  22.470  1.00  0.00     0.211 HD
ENDBRANCH  12  35
BRANCH  13  37
ATOM     37  O   UNL     1      17.489  28.129  20.285  1.00  0.00    -0.387 OA
ATOM     38  H   UNL     1      18.398  28.415  20.018  1.00  0.00     0.211 HD
ENDBRANCH  13  37
BRANCH  14  39
ATOM     39  O   UNL     1      15.836  28.377  18.030  1.00  0.00    -0.387 OA
ATOM     40  H   UNL     1      15.195  28.684  17.335  1.00  0.00     0.211 HD
ENDBRANCH  14  39
ENDBRANCH   8   9
ENDBRANCH   7   8
ENDBRANCH   1   7
BRANCH   1  41
ATOM     41  C   UNL     1      11.940  31.443  15.634  1.00  0.00     0.364 C 
ATOM     42  O   UNL     1      10.989  30.902  16.221  1.00  0.00    -0.246 OA
BRANCH  41  43
ATOM     43  O   UNL     1      11.672  32.421  14.708  1.00  0.00    -0.477 OA
ATOM     44  H   UNL     1      10.854  32.451  14.111  1.00  0.00     0.296 HD
ENDBRANCH  41  43
ENDBRANCH   1  41
BRANCH   3  45
ATOM     45  O   UNL     1      14.172  27.992  14.096  1.00  0.00    -0.391 OA
ATOM     46  H   UNL     1      13.466  27.365  13.850  1.00  0.00     0.211 HD
ENDBRANCH   3  45
BRANCH   5  47
ATOM     47  C   UNL     1      16.397  30.825  15.376  1.00  0.00     0.176 C 
BRANCH  47  48
ATOM     48  O   UNL     1      17.168  31.977  15.683  1.00  0.00    -0.388 OA
ATOM     49  H   UNL     1      17.733  31.775  16.479  1.00  0.00     0.211 HD
ENDBRANCH  47  48
BRANCH  47  50
ATOM     50  C   UNL     1      17.342  29.863  14.729  1.00  0.00     0.165 C 
BRANCH  50  51
ATOM     51  O   UNL     1      16.943  28.598  15.341  1.00  0.00    -0.388 OA
ATOM     52  H   UNL     1      17.774  28.065  15.368  1.00  0.00     0.211 HD
ENDBRANCH  50  51
BRANCH  50  53
ATOM     53  C   UNL     1      18.773  29.975  15.146  1.00  0.00     0.154 C 
BRANCH  53  54
ATOM     54  N   UNL     1      19.213  29.111  16.194  1.00  0.00    -0.319 N 
ATOM     55  C   UNL     1      20.413  28.338  15.969  1.00  0.00     0.407 C 
ATOM     56  H   UNL     1      18.780  28.987  17.103  1.00  0.00     0.167 HD
ATOM     57  O   UNL     1      20.999  28.471  14.876  1.00  0.00    -0.225 OA
BRANCH  55  58
ATOM     58  O   UNL     1      20.905  27.479  16.919  1.00  0.00    -0.443 OA
BRANCH  58  59
ATOM     59  C   UNL     1      21.903  27.912  17.810  1.00  0.00     0.294 C 
BRANCH  59  60
ATOM     60  C   UNL     1      21.484  27.590  19.190  1.00  0.00     0.121 A 
ATOM     61  C   UNL     1      22.168  26.912  20.173  1.00  0.00     0.144 A 
ATOM     62  N   UNL     1      20.288  27.925  19.760  1.00  0.00    -0.131 NA
ATOM     63  N   UNL     1      21.408  26.850  21.279  1.00  0.00    -0.219 N 
ATOM     64  N   UNL     1      20.278  27.471  20.996  1.00  0.00    -0.062 NA
BRANCH  63  65
ATOM     65  C   UNL     1      21.661  26.266  22.553  1.00  0.00     0.085 A 
ATOM     66  C   UNL     1      21.091  25.076  22.951  1.00  0.00     0.031 A 
ATOM     67  C   UNL     1      22.498  26.882  23.464  1.00  0.00     0.139 A 
ATOM     68  C   UNL     1      21.345  24.534  24.191  1.00  0.00     0.022 A 
ATOM     69  N   UNL     1      22.739  26.339  24.682  1.00  0.00    -0.262 NA
ATOM     70  C   UNL     1      22.183  25.178  25.072  1.00  0.00     0.111 A 
ENDBRANCH  63  65
ENDBRANCH  59  60
ENDBRANCH  58  59
ENDBRANCH  55  58
ENDBRANCH  53  54
ENDBRANCH  50  53
ENDBRANCH  47  50
ENDBRANCH   5  47
BRANCH   4  71
ATOM     71  N   UNL     1      14.120  30.965  12.445  1.00  0.00    -0.348 N 
ATOM     72  C   UNL     1      14.807  31.182  11.226  1.00  0.00     0.217 C 
ATOM     73  H   UNL     1      13.132  31.338  12.489  1.00  0.00     0.163 HD
ATOM     74  C   UNL     1      14.174  31.901  10.075  1.00  0.00     0.114 C 
ATOM     75  O   UNL     1      15.988  30.766  11.081  1.00  0.00    -0.275 OA
ENDBRANCH   4  71
TORSDOF 30
