REMARK VINA RESULT:    -6.852      2.599      6.907
REMARK INTER + INTRA:         -22.459
REMARK INTER:                 -13.918
REMARK INTRA:                  -8.541
REMARK UNBOUND:                -5.593
REMARK SMILES CC(=O)N[C@@H]1[C@@H](O)C[C@](OC[C@H]2O[C@@H](O[C@H]3[C@H](O)[C@@H](O)[C@H](OCCN=[N+]=[N-])O[C@@H]3CO)[C@H](O)[C@@H](O)[C@H]2O)(C(=O)O)O[C@H]1C(O)[C@H](O)CNC(=O)OCc1cn(C2c3ccccc3-c3ccccc32)nn1
REMARK SMILES IDX 9 1 8 2 6 3 5 4 42 5 41 6 10 7 11 8 12 9 14 10 13 11 32 12
REMARK SMILES IDX 34 13 36 14 15 15 16 16 29 17 28 18 21 19 17 20 19 21 30 22
REMARK SMILES IDX 31 23 22 25 23 26 24 27 25 28 26 29 27 30 18 31 20 33 33 35
REMARK SMILES IDX 35 37 37 39 38 41 39 42 40 43 7 45 43 47 44 48 45 50 46 51
REMARK SMILES IDX 47 53 48 54 49 55 50 57 51 58 52 59 53 60 54 61 70 62 55 63
REMARK SMILES IDX 69 64 56 65 57 66 68 67 58 68 62 69 63 70 67 71 59 72 61 73
REMARK SMILES IDX 64 74 66 75 60 76 65 77 4 78 2 79 1 81 3 82
REMARK H PARENT 31 24 18 32 20 34 33 36 35 38 37 40 40 44 7 46 44 49 46 52
REMARK H PARENT 48 56 4 80
REMARK Flexibility Score: inf
ROOT
ATOM      1  C   UNL     1      21.056  30.207  29.921  1.00  0.00     0.272 C 
ATOM      2  C   UNL     1      19.971  30.948  30.590  1.00  0.00     0.113 C 
ATOM      3  C   UNL     1      18.795  31.173  29.717  1.00  0.00     0.145 C 
ATOM      4  C   UNL     1      19.095  31.074  28.247  1.00  0.00     0.142 C 
ATOM      5  C   UNL     1      20.515  31.460  28.018  1.00  0.00     0.178 C 
ATOM      6  O   UNL     1      21.465  30.775  28.705  1.00  0.00    -0.332 OA
ENDROOT
BRANCH   1   7
ATOM      7  O   UNL     1      20.760  28.888  29.697  1.00  0.00    -0.338 OA
BRANCH   7   8
ATOM      8  C   UNL     1      21.647  28.175  28.938  1.00  0.00     0.199 C 
BRANCH   8   9
ATOM      9  C   UNL     1      21.668  26.730  29.387  1.00  0.00     0.179 C 
ATOM     10  C   UNL     1      23.134  26.076  27.679  1.00  0.00     0.282 C 
ATOM     11  O   UNL     1      21.917  25.944  28.286  1.00  0.00    -0.341 OA
ATOM     12  C   UNL     1      24.233  26.106  28.671  1.00  0.00     0.202 C 
ATOM     13  C   UNL     1      23.670  25.426  29.933  1.00  0.00     0.179 C 
ATOM     14  C   UNL     1      22.675  26.475  30.475  1.00  0.00     0.177 C 
BRANCH  10  15
ATOM     15  O   UNL     1      23.122  27.039  26.706  1.00  0.00    -0.341 OA
BRANCH  15  16
ATOM     16  C   UNL     1      22.696  26.657  25.462  1.00  0.00     0.184 C 
ATOM     17  C   UNL     1      23.789  26.767  24.466  1.00  0.00     0.178 C 
ATOM     18  O   UNL     1      23.366  27.242  23.229  1.00  0.00    -0.341 OA
ATOM     19  C   UNL     1      22.107  26.863  22.893  1.00  0.00     0.281 C 
ATOM     20  C   UNL     1      21.524  27.585  25.156  1.00  0.00     0.180 C 
ATOM     21  C   UNL     1      21.133  27.675  23.740  1.00  0.00     0.202 C 
BRANCH  17  22
ATOM     22  C   UNL     1      24.472  25.439  24.221  1.00  0.00     0.191 C 
BRANCH  22  23
ATOM     23  O   UNL     1      24.922  24.883  25.442  1.00  0.00    -0.394 OA
ATOM     24  H   UNL     1      25.903  25.073  25.554  1.00  0.00     0.210 HD
ENDBRANCH  22  23
ENDBRANCH  17  22
BRANCH  19  25
ATOM     25  O   UNL     1      21.785  25.534  23.087  1.00  0.00    -0.350 OA
BRANCH  25  26
ATOM     26  C   UNL     1      21.522  24.841  21.940  1.00  0.00     0.169 C 
BRANCH  26  27
ATOM     27  C   UNL     1      22.684  24.198  21.264  1.00  0.00     0.119 C 
BRANCH  27  28
ATOM     28  N   UNL     1      22.637  24.302  19.820  1.00  0.00    -0.092 NA
ATOM     29  N   UNL     1      22.504  25.442  19.356  1.00  0.00     0.001 N 
ATOM     30  N   UNL     1      22.269  26.531  18.821  1.00  0.00    -0.003 NA
ENDBRANCH  27  28
ENDBRANCH  26  27
ENDBRANCH  25  26
ENDBRANCH  19  25
BRANCH  20  31
ATOM     31  O   UNL     1      20.391  27.152  25.895  1.00  0.00    -0.387 OA
ATOM     32  H   UNL     1      19.710  26.772  25.285  1.00  0.00     0.211 HD
ENDBRANCH  20  31
BRANCH  21  33
ATOM     33  O   UNL     1      21.219  29.000  23.291  1.00  0.00    -0.385 OA
ATOM     34  H   UNL     1      20.416  29.534  23.522  1.00  0.00     0.211 HD
ENDBRANCH  21  33
ENDBRANCH  15  16
ENDBRANCH  10  15
BRANCH  12  35
ATOM     35  O   UNL     1      25.333  25.331  28.308  1.00  0.00    -0.385 OA
ATOM     36  H   UNL     1      25.857  25.828  27.636  1.00  0.00     0.211 HD
ENDBRANCH  12  35
BRANCH  13  37
ATOM     37  O   UNL     1      24.638  25.260  30.895  1.00  0.00    -0.387 OA
ATOM     38  H   UNL     1      25.020  24.353  30.804  1.00  0.00     0.211 HD
ENDBRANCH  13  37
BRANCH  14  39
ATOM     39  O   UNL     1      23.421  27.619  30.686  1.00  0.00    -0.387 OA
ATOM     40  H   UNL     1      23.053  28.194  31.400  1.00  0.00     0.211 HD
ENDBRANCH  14  39
ENDBRANCH   8   9
ENDBRANCH   7   8
ENDBRANCH   1   7
BRANCH   1  41
ATOM     41  C   UNL     1      22.337  30.297  30.750  1.00  0.00     0.364 C 
ATOM     42  O   UNL     1      22.269  29.990  31.944  1.00  0.00    -0.246 OA
BRANCH  41  43
ATOM     43  O   UNL     1      23.526  30.703  30.197  1.00  0.00    -0.477 OA
ATOM     44  H   UNL     1      23.713  30.599  29.192  1.00  0.00     0.296 HD
ENDBRANCH  41  43
ENDBRANCH   1  41
BRANCH   3  45
ATOM     45  O   UNL     1      17.687  30.375  30.006  1.00  0.00    -0.391 OA
ATOM     46  H   UNL     1      16.849  30.758  29.710  1.00  0.00     0.211 HD
ENDBRANCH   3  45
BRANCH   5  47
ATOM     47  C   UNL     1      20.815  31.343  26.524  1.00  0.00     0.176 C 
BRANCH  47  48
ATOM     48  O   UNL     1      20.271  30.182  26.040  1.00  0.00    -0.388 OA
ATOM     49  H   UNL     1      20.120  29.514  26.774  1.00  0.00     0.211 HD
ENDBRANCH  47  48
BRANCH  47  50
ATOM     50  C   UNL     1      22.301  31.394  26.339  1.00  0.00     0.165 C 
BRANCH  50  51
ATOM     51  O   UNL     1      22.832  32.461  27.085  1.00  0.00    -0.388 OA
ATOM     52  H   UNL     1      22.509  33.322  26.736  1.00  0.00     0.211 HD
ENDBRANCH  50  51
BRANCH  50  53
ATOM     53  C   UNL     1      22.552  31.771  24.874  1.00  0.00     0.154 C 
BRANCH  53  54
ATOM     54  N   UNL     1      21.305  32.183  24.306  1.00  0.00    -0.319 N 
ATOM     55  C   UNL     1      21.108  32.164  22.909  1.00  0.00     0.407 C 
ATOM     56  H   UNL     1      20.527  32.500  24.933  1.00  0.00     0.167 HD
ATOM     57  O   UNL     1      22.021  31.798  22.125  1.00  0.00    -0.225 OA
BRANCH  55  58
ATOM     58  O   UNL     1      19.911  32.543  22.335  1.00  0.00    -0.443 OA
BRANCH  58  59
ATOM     59  C   UNL     1      18.743  32.817  23.094  1.00  0.00     0.294 C 
BRANCH  59  60
ATOM     60  C   UNL     1      18.019  31.533  23.272  1.00  0.00     0.120 A 
ATOM     61  C   UNL     1      16.778  31.171  22.765  1.00  0.00     0.139 A 
ATOM     62  N   UNL     1      18.442  30.467  23.967  1.00  0.00    -0.132 NA
ATOM     63  N   UNL     1      16.491  29.920  23.159  1.00  0.00    -0.240 N 
ATOM     64  N   UNL     1      17.522  29.521  23.887  1.00  0.00    -0.066 NA
BRANCH  63  65
ATOM     65  C   UNL     1      15.283  29.156  22.843  1.00  0.00     0.170 C 
ATOM     66  C   UNL     1      15.118  29.144  21.387  1.00  0.00    -0.011 A 
ATOM     67  C   UNL     1      14.085  29.861  23.332  1.00  0.00    -0.011 A 
ATOM     68  C   UNL     1      15.907  28.626  20.367  1.00  0.00     0.007 A 
ATOM     69  C   UNL     1      13.957  29.770  21.022  1.00  0.00    -0.012 A 
ATOM     70  C   UNL     1      13.312  30.219  22.254  1.00  0.00    -0.012 A 
ATOM     71  C   UNL     1      13.644  30.192  24.600  1.00  0.00     0.007 A 
ATOM     72  C   UNL     1      15.524  28.745  19.050  1.00  0.00     0.000 A 
ATOM     73  C   UNL     1      13.572  29.889  19.694  1.00  0.00     0.009 A 
ATOM     74  C   UNL     1      12.124  30.893  22.423  1.00  0.00     0.009 A 
ATOM     75  C   UNL     1      12.459  30.866  24.791  1.00  0.00     0.000 A 
ATOM     76  C   UNL     1      14.347  29.380  18.680  1.00  0.00     0.001 A 
ATOM     77  C   UNL     1      11.696  31.217  23.698  1.00  0.00     0.001 A 
ENDBRANCH  63  65
ENDBRANCH  59  60
ENDBRANCH  58  59
ENDBRANCH  55  58
ENDBRANCH  53  54
ENDBRANCH  50  53
ENDBRANCH  47  50
ENDBRANCH   5  47
BRANCH   4  78
ATOM     78  N   UNL     1      18.278  32.113  27.591  1.00  0.00    -0.348 N 
ATOM     79  C   UNL     1      16.982  31.833  27.088  1.00  0.00     0.217 C 
ATOM     80  H   UNL     1      18.683  33.056  27.506  1.00  0.00     0.163 HD
ATOM     81  C   UNL     1      16.165  32.898  26.424  1.00  0.00     0.114 C 
ATOM     82  O   UNL     1      16.537  30.659  27.218  1.00  0.00    -0.275 OA
ENDBRANCH   4  78
TORSDOF 30
