REMARK VINA RESULT:    -5.575      8.074     11.760
REMARK INTER + INTRA:         -21.252
REMARK INTER:                 -14.777
REMARK INTRA:                  -6.475
REMARK UNBOUND:                -7.203
REMARK SMILES CC(=O)N[C@@H]1[C@@H](O)C[C@](OC[C@H]2O[C@@H](O[C@H]3[C@H](O)[C@@H](O)[C@H](OCCN=[N+]=[N-])O[C@@H]3CO)[C@H](O)[C@@H](O)[C@H]2O)(C(=O)O)O[C@H]1C(O)[C@H](O)CNC(=O)OCc1cn(CC2=CC[C@H]3C[C@@H]2C3(C)C)nn1
REMARK SMILES IDX 9 1 8 2 6 3 5 4 42 5 41 6 10 7 11 8 12 9 14 10 13 11 32 12
REMARK SMILES IDX 34 13 36 14 15 15 16 16 29 17 28 18 21 19 17 20 19 21 30 22
REMARK SMILES IDX 31 23 22 25 23 26 24 27 25 28 26 29 27 30 18 31 20 33 33 35
REMARK SMILES IDX 35 37 37 39 38 41 39 42 40 43 7 45 43 47 44 48 45 50 46 51
REMARK SMILES IDX 47 53 48 54 49 55 50 57 51 58 52 59 53 60 54 61 67 62 55 63
REMARK SMILES IDX 66 64 56 65 57 66 58 67 62 68 59 69 61 70 63 71 60 72 64 73
REMARK SMILES IDX 65 74 4 75 2 76 1 78 3 79
REMARK H PARENT 31 24 18 32 20 34 33 36 35 38 37 40 40 44 7 46 44 49 46 52
REMARK H PARENT 48 56 4 77
REMARK Flexibility Score: inf
ROOT
ATOM      1  C   UNL     1      24.206  22.735  13.802  1.00  0.00     0.272 C 
ATOM      2  C   UNL     1      23.487  23.292  12.618  1.00  0.00     0.113 C 
ATOM      3  C   UNL     1      21.996  22.912  12.677  1.00  0.00     0.145 C 
ATOM      4  C   UNL     1      21.830  21.437  12.617  1.00  0.00     0.142 C 
ATOM      5  C   UNL     1      23.190  20.828  12.889  1.00  0.00     0.178 C 
ATOM      6  O   UNL     1      23.787  21.371  13.968  1.00  0.00    -0.332 OA
ENDROOT
BRANCH   1   7
ATOM      7  O   UNL     1      23.961  23.293  14.977  1.00  0.00    -0.338 OA
BRANCH   7   8
ATOM      8  C   UNL     1      24.187  24.514  15.391  1.00  0.00     0.199 C 
BRANCH   8   9
ATOM      9  C   UNL     1      25.185  24.940  16.382  1.00  0.00     0.179 C 
ATOM     10  C   UNL     1      25.345  25.235  18.671  1.00  0.00     0.282 C 
ATOM     11  O   UNL     1      24.654  24.579  17.659  1.00  0.00    -0.341 OA
ATOM     12  C   UNL     1      26.798  25.296  18.516  1.00  0.00     0.202 C 
ATOM     13  C   UNL     1      27.420  24.809  17.268  1.00  0.00     0.179 C 
ATOM     14  C   UNL     1      26.461  24.075  16.364  1.00  0.00     0.177 C 
BRANCH  10  15
ATOM     15  O   UNL     1      25.023  24.510  19.834  1.00  0.00    -0.341 OA
BRANCH  15  16
ATOM     16  C   UNL     1      24.164  25.200  20.670  1.00  0.00     0.184 C 
ATOM     17  C   UNL     1      24.735  25.271  22.057  1.00  0.00     0.178 C 
ATOM     18  O   UNL     1      23.815  25.611  23.033  1.00  0.00    -0.341 OA
ATOM     19  C   UNL     1      22.598  26.044  22.595  1.00  0.00     0.281 C 
ATOM     20  C   UNL     1      22.883  24.366  20.770  1.00  0.00     0.180 C 
ATOM     21  C   UNL     1      21.911  25.080  21.659  1.00  0.00     0.202 C 
BRANCH  17  22
ATOM     22  C   UNL     1      25.856  26.317  22.052  1.00  0.00     0.191 C 
BRANCH  22  23
ATOM     23  O   UNL     1      25.595  27.225  23.067  1.00  0.00    -0.394 OA
ATOM     24  H   UNL     1      25.933  28.125  22.771  1.00  0.00     0.210 HD
ENDBRANCH  22  23
ENDBRANCH  17  22
BRANCH  19  25
ATOM     25  O   UNL     1      22.680  27.296  21.970  1.00  0.00    -0.350 OA
BRANCH  25  26
ATOM     26  C   UNL     1      21.474  27.993  22.041  1.00  0.00     0.169 C 
BRANCH  26  27
ATOM     27  C   UNL     1      21.012  28.160  20.592  1.00  0.00     0.119 C 
BRANCH  27  28
ATOM     28  N   UNL     1      22.157  28.074  19.711  1.00  0.00    -0.092 NA
ATOM     29  N   UNL     1      22.118  27.488  18.645  1.00  0.00     0.001 N 
ATOM     30  N   UNL     1      22.075  26.768  17.640  1.00  0.00    -0.003 NA
ENDBRANCH  27  28
ENDBRANCH  26  27
ENDBRANCH  25  26
ENDBRANCH  19  25
BRANCH  20  31
ATOM     31  O   UNL     1      22.301  24.238  19.496  1.00  0.00    -0.387 OA
ATOM     32  H   UNL     1      22.606  24.962  18.906  1.00  0.00     0.211 HD
ENDBRANCH  20  31
BRANCH  21  33
ATOM     33  O   UNL     1      21.095  24.205  22.375  1.00  0.00    -0.385 OA
ATOM     34  H   UNL     1      20.978  23.377  21.828  1.00  0.00     0.211 HD
ENDBRANCH  21  33
ENDBRANCH  15  16
ENDBRANCH  10  15
BRANCH  12  35
ATOM     35  O   UNL     1      27.182  26.655  18.680  1.00  0.00    -0.385 OA
ATOM     36  H   UNL     1      26.391  27.246  18.753  1.00  0.00     0.211 HD
ENDBRANCH  12  35
BRANCH  13  37
ATOM     37  O   UNL     1      28.589  24.078  17.509  1.00  0.00    -0.387 OA
ATOM     38  H   UNL     1      29.375  24.689  17.528  1.00  0.00     0.211 HD
ENDBRANCH  13  37
BRANCH  14  39
ATOM     39  O   UNL     1      26.138  22.856  16.995  1.00  0.00    -0.387 OA
ATOM     40  H   UNL     1      25.314  22.961  17.531  1.00  0.00     0.211 HD
ENDBRANCH  14  39
ENDBRANCH   8   9
ENDBRANCH   7   8
ENDBRANCH   1   7
BRANCH   1  41
ATOM     41  C   UNL     1      25.647  22.550  13.487  1.00  0.00     0.364 C 
ATOM     42  O   UNL     1      26.175  23.196  12.515  1.00  0.00    -0.246 OA
BRANCH  41  43
ATOM     43  O   UNL     1      26.467  21.718  14.172  1.00  0.00    -0.477 OA
ATOM     44  H   UNL     1      27.442  21.531  14.008  1.00  0.00     0.296 HD
ENDBRANCH  41  43
ENDBRANCH   1  41
BRANCH   3  45
ATOM     45  O   UNL     1      21.603  23.318  13.961  1.00  0.00    -0.391 OA
ATOM     46  H   UNL     1      22.370  23.176  14.569  1.00  0.00     0.211 HD
ENDBRANCH   3  45
BRANCH   5  47
ATOM     47  C   UNL     1      23.059  19.323  13.140  1.00  0.00     0.176 C 
BRANCH  47  48
ATOM     48  O   UNL     1      23.378  19.021  14.438  1.00  0.00    -0.388 OA
ATOM     49  H   UNL     1      24.292  19.302  14.721  1.00  0.00     0.211 HD
ENDBRANCH  47  48
BRANCH  47  50
ATOM     50  C   UNL     1      23.908  18.550  12.175  1.00  0.00     0.165 C 
BRANCH  50  51
ATOM     51  O   UNL     1      24.193  17.316  12.828  1.00  0.00    -0.388 OA
ATOM     52  H   UNL     1      24.797  17.596  13.585  1.00  0.00     0.211 HD
ENDBRANCH  50  51
BRANCH  50  53
ATOM     53  C   UNL     1      25.234  19.201  11.944  1.00  0.00     0.154 C 
BRANCH  53  54
ATOM     54  N   UNL     1      26.205  18.980  12.966  1.00  0.00    -0.319 N 
ATOM     55  C   UNL     1      27.587  19.020  12.661  1.00  0.00     0.407 C 
ATOM     56  H   UNL     1      25.882  18.795  13.948  1.00  0.00     0.167 HD
ATOM     57  O   UNL     1      27.963  19.247  11.503  1.00  0.00    -0.225 OA
BRANCH  55  58
ATOM     58  O   UNL     1      28.535  18.810  13.643  1.00  0.00    -0.443 OA
BRANCH  58  59
ATOM     59  C   UNL     1      28.316  18.306  14.918  1.00  0.00     0.294 C 
BRANCH  59  60
ATOM     60  C   UNL     1      28.494  19.299  16.017  1.00  0.00     0.120 A 
ATOM     61  C   UNL     1      29.594  19.489  16.819  1.00  0.00     0.138 A 
ATOM     62  N   UNL     1      27.579  20.223  16.423  1.00  0.00    -0.132 NA
ATOM     63  N   UNL     1      29.338  20.487  17.668  1.00  0.00    -0.248 N 
ATOM     64  N   UNL     1      28.117  20.911  17.408  1.00  0.00    -0.067 NA
BRANCH  63  65
ATOM     65  C   UNL     1      30.239  21.027  18.703  1.00  0.00     0.177 C 
BRANCH  65  66
ATOM     66  C   UNL     1      29.905  20.262  19.950  1.00  0.00    -0.049 C 
ATOM     67  C   UNL     1      28.989  19.274  19.925  1.00  0.00    -0.025 C 
ATOM     68  C   UNL     1      30.549  20.539  21.242  1.00  0.00     0.023 C 
ATOM     69  C   UNL     1      28.572  18.650  21.201  1.00  0.00     0.031 C 
ATOM     70  C   UNL     1      30.874  19.176  21.869  1.00  0.00     0.013 C 
ATOM     71  C   UNL     1      29.501  20.700  22.301  1.00  0.00    -0.026 C 
ATOM     72  C   UNL     1      29.412  19.168  22.334  1.00  0.00    -0.000 C 
ATOM     73  C   UNL     1      30.018  21.195  23.630  1.00  0.00     0.012 C 
ATOM     74  C   UNL     1      28.240  21.400  21.921  1.00  0.00     0.012 C 
ENDBRANCH  65  66
ENDBRANCH  63  65
ENDBRANCH  59  60
ENDBRANCH  58  59
ENDBRANCH  55  58
ENDBRANCH  53  54
ENDBRANCH  50  53
ENDBRANCH  47  50
ENDBRANCH   5  47
BRANCH   4  75
ATOM     75  N   UNL     1      21.342  20.890  11.399  1.00  0.00    -0.348 N 
ATOM     76  C   UNL     1      20.090  20.296  11.186  1.00  0.00     0.217 C 
ATOM     77  H   UNL     1      22.008  20.945  10.574  1.00  0.00     0.163 HD
ATOM     78  C   UNL     1      19.707  19.763   9.853  1.00  0.00     0.114 C 
ATOM     79  O   UNL     1      19.321  20.238  12.162  1.00  0.00    -0.275 OA
ENDBRANCH   4  75
TORSDOF 31
