REMARK VINA RESULT:    -5.940      7.986     14.966
REMARK INTER + INTRA:         -24.086
REMARK INTER:                 -18.679
REMARK INTRA:                  -5.407
REMARK UNBOUND:                -8.074
REMARK SMILES CC(=O)N[C@@H]1[C@@H](O)C[C@](OC[C@H]2O[C@@H](O[C@H]3[C@H](O)[C@@H](O)[C@H](OCCN=[N+]=[N-])O[C@@H]3CO)[C@H](O)[C@@H](O)[C@H]2O)(C(=O)O)O[C@H]1C(O)[C@H](O)CNC(=O)OCc1cn(C[C@@H](C)CN2CCN(c3ccc(Cl)cc3)CC2)nn1
REMARK SMILES IDX 43 1 42 2 9 3 8 4 41 5 6 6 5 7 10 8 11 9 12 10 14 11 13 12
REMARK SMILES IDX 32 13 34 14 36 15 15 16 16 17 29 18 28 19 21 20 17 21 19 22
REMARK SMILES IDX 30 23 31 24 22 26 23 27 24 28 25 29 26 30 27 31 18 32 20 34
REMARK SMILES IDX 33 36 35 38 37 40 38 42 39 43 40 44 7 46 4 48 2 49 1 51 3 52
REMARK SMILES IDX 44 53 45 55 46 56 47 58 48 59 49 60 50 62 51 63 52 64 53 65
REMARK SMILES IDX 54 66 74 67 55 68 73 69 56 70 57 71 58 72 59 73 60 74 61 75
REMARK SMILES IDX 72 76 62 77 71 78 63 79 64 80 65 81 70 82 66 83 69 84 67 85
REMARK SMILES IDX 68 86
REMARK H PARENT 31 25 18 33 20 35 33 37 35 39 37 41 40 45 7 47 4 50 44 54
REMARK H PARENT 46 57 48 61
REMARK Flexibility Score: inf
ROOT
ATOM      1  C   UNL     1      24.874  27.534  21.310  1.00  0.00     0.176 C 
ENDROOT
BRANCH   1   2
ATOM      2  C   UNL     1      24.041  26.289  21.579  1.00  0.00     0.178 C 
ATOM      3  C   UNL     1      22.936  25.061  23.268  1.00  0.00     0.272 C 
ATOM      4  C   UNL     1      23.079  23.933  22.372  1.00  0.00     0.113 C 
ATOM      5  O   UNL     1      23.860  26.091  22.908  1.00  0.00    -0.332 OA
ATOM      6  C   UNL     1      24.430  23.883  21.682  1.00  0.00     0.145 C 
ATOM      7  C   UNL     1      24.507  25.121  20.778  1.00  0.00     0.142 C 
BRANCH   3   8
ATOM      8  O   UNL     1      23.097  24.938  24.582  1.00  0.00    -0.338 OA
BRANCH   8   9
ATOM      9  C   UNL     1      24.182  25.059  25.302  1.00  0.00     0.199 C 
BRANCH   9  10
ATOM     10  C   UNL     1      24.198  25.668  26.674  1.00  0.00     0.179 C 
ATOM     11  C   UNL     1      25.908  26.316  28.123  1.00  0.00     0.282 C 
ATOM     12  O   UNL     1      25.278  25.317  27.431  1.00  0.00    -0.341 OA
ATOM     13  C   UNL     1      26.511  27.298  27.136  1.00  0.00     0.202 C 
ATOM     14  C   UNL     1      25.410  27.845  26.287  1.00  0.00     0.179 C 
ATOM     15  C   UNL     1      24.090  27.193  26.521  1.00  0.00     0.177 C 
BRANCH  11  16
ATOM     16  O   UNL     1      26.981  25.699  28.810  1.00  0.00    -0.341 OA
BRANCH  16  17
ATOM     17  C   UNL     1      26.625  25.478  30.116  1.00  0.00     0.184 C 
ATOM     18  C   UNL     1      25.293  26.105  30.472  1.00  0.00     0.178 C 
ATOM     19  O   UNL     1      25.368  27.159  31.331  1.00  0.00    -0.341 OA
ATOM     20  C   UNL     1      26.018  26.931  32.530  1.00  0.00     0.281 C 
ATOM     21  C   UNL     1      27.712  25.930  31.085  1.00  0.00     0.180 C 
ATOM     22  C   UNL     1      27.103  25.891  32.468  1.00  0.00     0.202 C 
BRANCH  18  23
ATOM     23  C   UNL     1      24.263  25.063  30.882  1.00  0.00     0.191 C 
BRANCH  23  24
ATOM     24  O   UNL     1      23.542  24.594  29.812  1.00  0.00    -0.394 OA
ATOM     25  H   UNL     1      24.149  24.637  29.011  1.00  0.00     0.210 HD
ENDBRANCH  23  24
ENDBRANCH  18  23
BRANCH  20  26
ATOM     26  O   UNL     1      25.138  26.630  33.563  1.00  0.00    -0.350 OA
BRANCH  26  27
ATOM     27  C   UNL     1      25.062  27.552  34.566  1.00  0.00     0.169 C 
BRANCH  27  28
ATOM     28  C   UNL     1      24.767  26.916  35.895  1.00  0.00     0.119 C 
BRANCH  28  29
ATOM     29  N   UNL     1      25.510  25.671  36.003  1.00  0.00    -0.092 NA
ATOM     30  N   UNL     1      26.722  25.705  36.285  1.00  0.00     0.001 N 
ATOM     31  N   UNL     1      27.901  25.878  36.566  1.00  0.00    -0.003 NA
ENDBRANCH  28  29
ENDBRANCH  27  28
ENDBRANCH  26  27
ENDBRANCH  20  26
BRANCH  21  32
ATOM     32  O   UNL     1      28.784  25.040  31.074  1.00  0.00    -0.387 OA
ATOM     33  H   UNL     1      28.391  24.147  31.303  1.00  0.00     0.211 HD
ENDBRANCH  21  32
BRANCH  22  34
ATOM     34  O   UNL     1      28.106  26.258  33.398  1.00  0.00    -0.385 OA
ATOM     35  H   UNL     1      28.999  26.256  33.019  1.00  0.00     0.211 HD
ENDBRANCH  22  34
ENDBRANCH  16  17
ENDBRANCH  11  16
BRANCH  13  36
ATOM     36  O   UNL     1      27.189  28.268  27.854  1.00  0.00    -0.385 OA
ATOM     37  H   UNL     1      26.638  28.460  28.668  1.00  0.00     0.211 HD
ENDBRANCH  13  36
BRANCH  14  38
ATOM     38  O   UNL     1      25.725  27.855  24.922  1.00  0.00    -0.387 OA
ATOM     39  H   UNL     1      25.016  27.428  24.390  1.00  0.00     0.211 HD
ENDBRANCH  14  38
BRANCH  15  40
ATOM     40  O   UNL     1      23.210  27.473  25.505  1.00  0.00    -0.387 OA
ATOM     41  H   UNL     1      22.310  27.113  25.674  1.00  0.00     0.211 HD
ENDBRANCH  15  40
ENDBRANCH   9  10
ENDBRANCH   8   9
ENDBRANCH   3   8
BRANCH   3  42
ATOM     42  C   UNL     1      21.625  25.775  22.999  1.00  0.00     0.364 C 
ATOM     43  O   UNL     1      20.824  25.338  22.102  1.00  0.00    -0.246 OA
BRANCH  42  44
ATOM     44  O   UNL     1      21.210  26.903  23.660  1.00  0.00    -0.477 OA
ATOM     45  H   UNL     1      21.843  27.669  23.853  1.00  0.00     0.296 HD
ENDBRANCH  42  44
ENDBRANCH   3  42
BRANCH   6  46
ATOM     46  O   UNL     1      25.401  23.955  22.681  1.00  0.00    -0.391 OA
ATOM     47  H   UNL     1      26.312  23.980  22.301  1.00  0.00     0.211 HD
ENDBRANCH   6  46
BRANCH   7  48
ATOM     48  N   UNL     1      23.665  24.860  19.627  1.00  0.00    -0.348 N 
ATOM     49  C   UNL     1      24.120  25.188  18.325  1.00  0.00     0.217 C 
ATOM     50  H   UNL     1      22.704  24.429  19.712  1.00  0.00     0.163 HD
ATOM     51  C   UNL     1      23.214  24.901  17.156  1.00  0.00     0.114 C 
ATOM     52  O   UNL     1      25.248  25.709  18.096  1.00  0.00    -0.275 OA
ENDBRANCH   7  48
ENDBRANCH   1   2
BRANCH   1  53
ATOM     53  O   UNL     1      26.000  27.130  20.594  1.00  0.00    -0.388 OA
ATOM     54  H   UNL     1      25.763  26.490  19.884  1.00  0.00     0.211 HD
ENDBRANCH   1  53
BRANCH   1  55
ATOM     55  C   UNL     1      24.178  28.564  20.466  1.00  0.00     0.165 C 
BRANCH  55  56
ATOM     56  O   UNL     1      24.925  29.667  20.147  1.00  0.00    -0.388 OA
ATOM     57  H   UNL     1      24.878  29.901  19.205  1.00  0.00     0.211 HD
ENDBRANCH  55  56
BRANCH  55  58
ATOM     58  C   UNL     1      22.823  28.953  20.952  1.00  0.00     0.154 C 
BRANCH  58  59
ATOM     59  N   UNL     1      21.828  28.448  20.002  1.00  0.00    -0.319 N 
ATOM     60  C   UNL     1      20.469  28.307  20.364  1.00  0.00     0.407 C 
ATOM     61  H   UNL     1      22.136  28.190  19.043  1.00  0.00     0.167 HD
ATOM     62  O   UNL     1      20.133  28.623  21.532  1.00  0.00    -0.225 OA
BRANCH  60  63
ATOM     63  O   UNL     1      19.542  27.833  19.446  1.00  0.00    -0.443 OA
BRANCH  63  64
ATOM     64  C   UNL     1      18.617  28.767  18.889  1.00  0.00     0.294 C 
BRANCH  64  65
ATOM     65  C   UNL     1      17.369  28.861  19.680  1.00  0.00     0.120 A 
ATOM     66  C   UNL     1      16.706  30.007  20.056  1.00  0.00     0.138 A 
ATOM     67  N   UNL     1      16.637  27.842  20.190  1.00  0.00    -0.132 NA
ATOM     68  N   UNL     1      15.637  29.639  20.756  1.00  0.00    -0.252 N 
ATOM     69  N   UNL     1      15.599  28.328  20.835  1.00  0.00    -0.067 NA
BRANCH  68  70
ATOM     70  C   UNL     1      14.675  30.570  21.346  1.00  0.00     0.150 C 
BRANCH  70  71
ATOM     71  C   UNL     1      14.547  30.330  22.854  1.00  0.00     0.022 C 
ATOM     72  C   UNL     1      15.950  30.445  23.409  1.00  0.00     0.011 C 
BRANCH  71  73
ATOM     73  C   UNL     1      13.635  31.362  23.438  1.00  0.00     0.089 C 
BRANCH  73  74
ATOM     74  N   UNL     1      12.452  30.937  24.063  1.00  0.00    -0.299 NA
ATOM     75  C   UNL     1      12.465  29.931  25.039  1.00  0.00     0.106 C 
ATOM     76  C   UNL     1      11.270  31.055  23.272  1.00  0.00     0.106 C 
ATOM     77  C   UNL     1      11.466  28.812  24.744  1.00  0.00     0.132 C 
ATOM     78  C   UNL     1      10.054  30.776  24.137  1.00  0.00     0.132 C 
ATOM     79  N   UNL     1      10.142  29.398  24.542  1.00  0.00    -0.369 N 
BRANCH  79  80
ATOM     80  C   UNL     1       9.005  28.605  24.742  1.00  0.00     0.037 A 
ATOM     81  C   UNL     1       9.090  27.282  25.167  1.00  0.00     0.027 A 
ATOM     82  C   UNL     1       7.715  29.080  24.543  1.00  0.00     0.027 A 
ATOM     83  C   UNL     1       7.990  26.485  25.378  1.00  0.00     0.022 A 
ATOM     84  C   UNL     1       6.608  28.282  24.755  1.00  0.00     0.022 A 
ATOM     85  C   UNL     1       6.727  26.976  25.173  1.00  0.00     0.041 A 
ATOM     86  Cl  UNL     1       5.340  25.972  25.440  1.00  0.00    -0.084 Cl
ENDBRANCH  79  80
ENDBRANCH  73  74
ENDBRANCH  71  73
ENDBRANCH  70  71
ENDBRANCH  68  70
ENDBRANCH  64  65
ENDBRANCH  63  64
ENDBRANCH  60  63
ENDBRANCH  58  59
ENDBRANCH  55  58
ENDBRANCH   1  55
TORSDOF 34
