REMARK VINA RESULT:    -5.929     14.483     21.114
REMARK INTER + INTRA:         -20.802
REMARK INTER:                 -14.269
REMARK INTRA:                  -6.533
REMARK UNBOUND:                -5.342
REMARK SMILES CC(=O)N[C@@H]1[C@@H](O)C[C@](OC[C@H]2O[C@@H](O[C@H]3[C@H](O)[C@@H](O)[C@H](OCCN=[N+]=[N-])O[C@@H]3CO)[C@H](O)[C@@H](O)[C@H]2O)(C(=O)O)O[C@H]1C(O)[C@H](O)CNC(=O)OCc1cn(CCC(=O)O)nn1
REMARK SMILES IDX 43 1 42 2 9 3 8 4 41 5 6 6 5 7 10 8 11 9 12 10 14 11 13 12
REMARK SMILES IDX 32 13 34 14 36 15 15 16 16 17 29 18 28 19 21 20 17 21 19 22
REMARK SMILES IDX 30 23 31 24 22 26 23 27 24 28 25 29 26 30 27 31 18 32 20 34
REMARK SMILES IDX 33 36 35 38 37 40 38 42 39 43 40 44 7 46 4 48 2 49 1 51 3 52
REMARK SMILES IDX 44 53 45 55 46 56 47 58 48 59 49 60 50 62 51 63 52 64 53 65
REMARK SMILES IDX 54 66 62 67 55 68 61 69 56 70 57 71 58 72 59 73 60 74
REMARK H PARENT 31 25 18 33 20 35 33 37 35 39 37 41 40 45 7 47 4 50 44 54
REMARK H PARENT 46 57 48 61 60 75
REMARK Flexibility Score: inf
ROOT
ATOM      1  C   UNL     1      24.259  26.954  24.113  1.00  0.00     0.176 C 
ENDROOT
BRANCH   1   2
ATOM      2  C   UNL     1      23.469  26.000  23.249  1.00  0.00     0.178 C 
ATOM      3  C   UNL     1      22.871  25.621  21.012  1.00  0.00     0.272 C 
ATOM      4  C   UNL     1      22.375  24.389  21.747  1.00  0.00     0.113 C 
ATOM      5  O   UNL     1      23.016  26.574  22.090  1.00  0.00    -0.332 OA
ATOM      6  C   UNL     1      21.420  24.773  22.896  1.00  0.00     0.145 C 
ATOM      7  C   UNL     1      22.237  25.473  23.974  1.00  0.00     0.142 C 
BRANCH   3   8
ATOM      8  O   UNL     1      21.939  26.074  20.153  1.00  0.00    -0.338 OA
BRANCH   8   9
ATOM      9  C   UNL     1      21.602  27.301  19.868  1.00  0.00     0.199 C 
BRANCH   9  10
ATOM     10  C   UNL     1      21.100  27.813  18.587  1.00  0.00     0.179 C 
ATOM     11  C   UNL     1      19.382  28.636  17.303  1.00  0.00     0.282 C 
ATOM     12  O   UNL     1      19.756  28.042  18.474  1.00  0.00    -0.341 OA
ATOM     13  C   UNL     1      20.487  28.907  16.321  1.00  0.00     0.202 C 
ATOM     14  C   UNL     1      21.693  29.544  16.984  1.00  0.00     0.179 C 
ATOM     15  C   UNL     1      21.719  29.254  18.467  1.00  0.00     0.177 C 
BRANCH  11  16
ATOM     16  O   UNL     1      18.707  29.843  17.480  1.00  0.00    -0.341 OA
BRANCH  16  17
ATOM     17  C   UNL     1      17.633  29.753  18.363  1.00  0.00     0.184 C 
ATOM     18  C   UNL     1      16.703  28.697  17.877  1.00  0.00     0.178 C 
ATOM     19  O   UNL     1      15.454  29.188  17.458  1.00  0.00    -0.341 OA
ATOM     20  C   UNL     1      15.761  30.210  16.536  1.00  0.00     0.281 C 
ATOM     21  C   UNL     1      17.023  31.119  18.467  1.00  0.00     0.180 C 
ATOM     22  C   UNL     1      16.052  31.435  17.372  1.00  0.00     0.202 C 
BRANCH  18  23
ATOM     23  C   UNL     1      16.455  27.642  18.944  1.00  0.00     0.191 C 
BRANCH  23  24
ATOM     24  O   UNL     1      15.551  28.117  19.891  1.00  0.00    -0.394 OA
ATOM     25  H   UNL     1      16.061  28.502  20.641  1.00  0.00     0.210 HD
ENDBRANCH  23  24
ENDBRANCH  18  23
BRANCH  20  26
ATOM     26  O   UNL     1      14.738  30.418  15.641  1.00  0.00    -0.350 OA
BRANCH  26  27
ATOM     27  C   UNL     1      15.195  30.154  14.353  1.00  0.00     0.169 C 
BRANCH  27  28
ATOM     28  C   UNL     1      14.996  28.676  14.044  1.00  0.00     0.119 C 
BRANCH  28  29
ATOM     29  N   UNL     1      13.630  28.362  14.409  1.00  0.00    -0.092 NA
ATOM     30  N   UNL     1      12.815  28.161  13.511  1.00  0.00     0.001 N 
ATOM     31  N   UNL     1      11.828  27.824  12.822  1.00  0.00    -0.003 NA
ENDBRANCH  28  29
ENDBRANCH  27  28
ENDBRANCH  26  27
ENDBRANCH  20  26
BRANCH  21  32
ATOM     32  O   UNL     1      16.353  31.183  19.684  1.00  0.00    -0.387 OA
ATOM     33  H   UNL     1      16.124  32.116  19.862  1.00  0.00     0.211 HD
ENDBRANCH  21  32
BRANCH  22  34
ATOM     34  O   UNL     1      16.517  32.486  16.578  1.00  0.00    -0.385 OA
ATOM     35  H   UNL     1      16.754  32.152  15.670  1.00  0.00     0.211 HD
ENDBRANCH  22  34
ENDBRANCH  16  17
ENDBRANCH  11  16
BRANCH  13  36
ATOM     36  O   UNL     1      20.842  27.782  15.562  1.00  0.00    -0.385 OA
ATOM     37  H   UNL     1      21.339  27.158  16.114  1.00  0.00     0.211 HD
ENDBRANCH  13  36
BRANCH  14  38
ATOM     38  O   UNL     1      21.750  30.888  16.694  1.00  0.00    -0.387 OA
ATOM     39  H   UNL     1      22.173  31.389  17.421  1.00  0.00     0.211 HD
ENDBRANCH  14  38
BRANCH  15  40
ATOM     40  O   UNL     1      20.879  30.071  19.184  1.00  0.00    -0.387 OA
ATOM     41  H   UNL     1      20.830  31.002  18.865  1.00  0.00     0.211 HD
ENDBRANCH  15  40
ENDBRANCH   9  10
ENDBRANCH   8   9
ENDBRANCH   3   8
BRANCH   3  42
ATOM     42  C   UNL     1      24.210  25.473  20.435  1.00  0.00     0.364 C 
ATOM     43  O   UNL     1      24.802  26.470  19.954  1.00  0.00    -0.246 OA
BRANCH  42  44
ATOM     44  O   UNL     1      24.847  24.259  20.404  1.00  0.00    -0.477 OA
ATOM     45  H   UNL     1      25.799  24.104  20.140  1.00  0.00     0.296 HD
ENDBRANCH  42  44
ENDBRANCH   3  42
BRANCH   6  46
ATOM     46  O   UNL     1      20.513  25.675  22.383  1.00  0.00    -0.391 OA
ATOM     47  H   UNL     1      19.620  25.482  22.793  1.00  0.00     0.211 HD
ENDBRANCH   6  46
BRANCH   7  48
ATOM     48  N   UNL     1      22.572  24.566  25.023  1.00  0.00    -0.348 N 
ATOM     49  C   UNL     1      22.463  24.989  26.374  1.00  0.00     0.217 C 
ATOM     50  H   UNL     1      22.898  23.592  24.846  1.00  0.00     0.163 HD
ATOM     51  C   UNL     1      22.793  24.114  27.524  1.00  0.00     0.114 C 
ATOM     52  O   UNL     1      22.073  26.160  26.657  1.00  0.00    -0.275 OA
ENDBRANCH   7  48
ENDBRANCH   1   2
BRANCH   1  53
ATOM     53  O   UNL     1      25.511  26.385  24.351  1.00  0.00    -0.388 OA
ATOM     54  H   UNL     1      26.233  26.948  24.005  1.00  0.00     0.211 HD
ENDBRANCH   1  53
BRANCH   1  55
ATOM     55  C   UNL     1      24.457  28.314  23.523  1.00  0.00     0.165 C 
BRANCH  55  56
ATOM     56  O   UNL     1      25.715  28.788  23.907  1.00  0.00    -0.388 OA
ATOM     57  H   UNL     1      25.753  28.814  24.893  1.00  0.00     0.211 HD
ENDBRANCH  55  56
BRANCH  55  58
ATOM     58  C   UNL     1      23.412  29.229  24.172  1.00  0.00     0.154 C 
BRANCH  58  59
ATOM     59  N   UNL     1      22.557  29.815  23.177  1.00  0.00    -0.319 N 
ATOM     60  C   UNL     1      21.215  29.415  22.930  1.00  0.00     0.407 C 
ATOM     61  H   UNL     1      22.911  30.608  22.562  1.00  0.00     0.167 HD
ATOM     62  O   UNL     1      20.746  28.483  23.632  1.00  0.00    -0.225 OA
BRANCH  60  63
ATOM     63  O   UNL     1      20.429  30.009  21.959  1.00  0.00    -0.443 OA
BRANCH  63  64
ATOM     64  C   UNL     1      19.569  31.060  22.320  1.00  0.00     0.294 C 
BRANCH  64  65
ATOM     65  C   UNL     1      18.174  30.590  22.416  1.00  0.00     0.120 A 
ATOM     66  C   UNL     1      17.184  31.289  23.093  1.00  0.00     0.138 A 
ATOM     67  N   UNL     1      17.618  29.473  21.886  1.00  0.00    -0.132 NA
ATOM     68  N   UNL     1      16.054  30.558  22.943  1.00  0.00    -0.252 N 
ATOM     69  N   UNL     1      16.345  29.485  22.222  1.00  0.00    -0.067 NA
BRANCH  68  70
ATOM     70  C   UNL     1      14.746  30.887  23.469  1.00  0.00     0.158 C 
BRANCH  70  71
ATOM     71  C   UNL     1      13.656  30.848  22.421  1.00  0.00     0.146 C 
BRANCH  71  72
ATOM     72  C   UNL     1      12.946  29.568  22.545  1.00  0.00     0.305 C 
ATOM     73  O   UNL     1      11.930  29.490  23.271  1.00  0.00    -0.252 OA
BRANCH  72  74
ATOM     74  O   UNL     1      13.372  28.422  21.875  1.00  0.00    -0.481 OA
ATOM     75  H   UNL     1      14.306  28.314  21.493  1.00  0.00     0.296 HD
ENDBRANCH  72  74
ENDBRANCH  71  72
ENDBRANCH  70  71
ENDBRANCH  68  70
ENDBRANCH  64  65
ENDBRANCH  63  64
ENDBRANCH  60  63
ENDBRANCH  58  59
ENDBRANCH  55  58
ENDBRANCH   1  55
TORSDOF 33
