REMARK VINA RESULT:    -6.298     18.646     22.549
REMARK INTER + INTRA:         -22.066
REMARK INTER:                 -14.100
REMARK INTRA:                  -7.966
REMARK UNBOUND:                -5.091
REMARK SMILES C=CCCCCn1cc(COC(=O)NC[C@@H](O)C(O)[C@@H]2O[C@@](OC[C@H]3O[C@@H](O[C@H]4[C@H](O)[C@@H](O)[C@H](OCCN=[N+]=[N-])O[C@@H]4CO)[C@H](O)[C@@H](O)[C@H]3O)(C(=O)O)C[C@H](O)[C@H]2NC(C)=O)nn1
REMARK SMILES IDX 18 1 20 2 22 3 54 4 21 5 55 6 57 7 23 8 24 9 25 10 27 11
REMARK SMILES IDX 26 12 45 13 47 14 49 15 28 16 29 17 42 18 41 19 34 20 30 21
REMARK SMILES IDX 32 22 43 23 44 24 35 26 36 27 37 28 38 29 39 30 40 31 31 32
REMARK SMILES IDX 33 34 46 36 48 38 50 40 51 42 52 43 53 44 56 46 58 48 59 49
REMARK SMILES IDX 60 51 61 52 19 53 16 55 17 56 15 58 14 59 12 60 13 62 11 63
REMARK SMILES IDX 10 64 9 65 8 66 62 67 7 68 63 69 6 70 5 71 4 72 3 73 2 74
REMARK SMILES IDX 1 75
REMARK H PARENT 44 25 31 33 33 35 46 37 48 39 50 41 53 45 56 47 58 50 19 54
REMARK H PARENT 17 57 14 61
REMARK Flexibility Score: inf
ROOT
ATOM      1  C   UNL     1       2.496  19.635  37.426  1.00  0.00     0.176 C 
ENDROOT
BRANCH   1   2
ATOM      2  C   UNL     1       2.186  18.483  36.467  1.00  0.00     0.178 C 
ATOM      3  C   UNL     1       1.232  18.057  34.418  1.00  0.00     0.272 C 
ATOM      4  C   UNL     1       0.623  16.825  34.942  1.00  0.00     0.113 C 
ATOM      5  O   UNL     1       1.337  18.968  35.537  1.00  0.00    -0.332 OA
ATOM      6  C   UNL     1       1.323  16.191  36.064  1.00  0.00     0.145 C 
ATOM      7  C   UNL     1       1.995  17.156  37.027  1.00  0.00     0.142 C 
BRANCH   3   8
ATOM      8  O   UNL     1       0.392  18.801  33.602  1.00  0.00    -0.338 OA
BRANCH   8   9
ATOM      9  C   UNL     1       0.623  19.012  32.322  1.00  0.00     0.199 C 
BRANCH   9  10
ATOM     10  C   UNL     1       1.076  20.326  31.814  1.00  0.00     0.179 C 
ATOM     11  C   UNL     1       2.497  22.086  32.426  1.00  0.00     0.282 C 
ATOM     12  O   UNL     1       1.680  21.076  32.852  1.00  0.00    -0.341 OA
ATOM     13  C   UNL     1       2.301  22.480  31.014  1.00  0.00     0.202 C 
ATOM     14  C   UNL     1       2.359  21.342  30.031  1.00  0.00     0.179 C 
ATOM     15  C   UNL     1       2.165  20.060  30.781  1.00  0.00     0.177 C 
BRANCH  11  16
ATOM     16  O   UNL     1       3.769  21.804  32.848  1.00  0.00    -0.341 OA
BRANCH  16  17
ATOM     17  C   UNL     1       4.783  22.530  32.299  1.00  0.00     0.184 C 
ATOM     18  C   UNL     1       6.095  22.066  32.886  1.00  0.00     0.178 C 
ATOM     19  O   UNL     1       6.955  23.151  33.119  1.00  0.00    -0.341 OA
ATOM     20  C   UNL     1       6.510  23.785  34.275  1.00  0.00     0.281 C 
ATOM     21  C   UNL     1       4.670  24.026  32.673  1.00  0.00     0.180 C 
ATOM     22  C   UNL     1       5.086  24.225  34.113  1.00  0.00     0.202 C 
BRANCH  18  23
ATOM     23  C   UNL     1       6.786  21.012  32.037  1.00  0.00     0.191 C 
BRANCH  23  24
ATOM     24  O   UNL     1       5.982  20.625  30.979  1.00  0.00    -0.394 OA
ATOM     25  H   UNL     1       5.540  21.424  30.606  1.00  0.00     0.210 HD
ENDBRANCH  23  24
ENDBRANCH  18  23
BRANCH  20  26
ATOM     26  O   UNL     1       7.345  24.886  34.473  1.00  0.00    -0.350 OA
BRANCH  26  27
ATOM     27  C   UNL     1       6.755  25.906  35.196  1.00  0.00     0.169 C 
BRANCH  27  28
ATOM     28  C   UNL     1       7.470  27.194  34.829  1.00  0.00     0.119 C 
BRANCH  28  29
ATOM     29  N   UNL     1       7.084  27.669  33.527  1.00  0.00    -0.092 NA
ATOM     30  N   UNL     1       5.918  27.639  33.152  1.00  0.00     0.001 N 
ATOM     31  N   UNL     1       4.703  27.722  32.971  1.00  0.00    -0.003 NA
ENDBRANCH  28  29
ENDBRANCH  27  28
ENDBRANCH  26  27
ENDBRANCH  20  26
BRANCH  21  32
ATOM     32  O   UNL     1       5.603  24.686  31.876  1.00  0.00    -0.387 OA
ATOM     33  H   UNL     1       5.785  24.246  31.022  1.00  0.00     0.211 HD
ENDBRANCH  21  32
BRANCH  22  34
ATOM     34  O   UNL     1       4.203  23.574  34.971  1.00  0.00    -0.385 OA
ATOM     35  H   UNL     1       4.692  22.800  35.362  1.00  0.00     0.211 HD
ENDBRANCH  22  34
ENDBRANCH  16  17
ENDBRANCH  11  16
BRANCH  13  36
ATOM     36  O   UNL     1       1.032  23.068  30.911  1.00  0.00    -0.385 OA
ATOM     37  H   UNL     1       0.352  22.439  30.612  1.00  0.00     0.211 HD
ENDBRANCH  13  36
BRANCH  14  38
ATOM     38  O   UNL     1       3.550  21.333  29.302  1.00  0.00    -0.387 OA
ATOM     39  H   UNL     1       3.490  20.594  28.663  1.00  0.00     0.211 HD
ENDBRANCH  14  38
BRANCH  15  40
ATOM     40  O   UNL     1       3.341  19.628  31.405  1.00  0.00    -0.387 OA
ATOM     41  H   UNL     1       3.522  18.679  31.271  1.00  0.00     0.211 HD
ENDBRANCH  15  40
ENDBRANCH   9  10
ENDBRANCH   8   9
ENDBRANCH   3   8
BRANCH   3  42
ATOM     42  C   UNL     1       2.606  17.866  33.971  1.00  0.00     0.364 C 
ATOM     43  O   UNL     1       2.995  16.761  33.533  1.00  0.00    -0.246 OA
BRANCH  42  44
ATOM     44  O   UNL     1       3.535  18.863  34.013  1.00  0.00    -0.477 OA
ATOM     45  H   UNL     1       4.330  18.831  34.627  1.00  0.00     0.296 HD
ENDBRANCH  42  44
ENDBRANCH   3  42
BRANCH   6  46
ATOM     46  O   UNL     1       0.403  15.376  36.770  1.00  0.00    -0.391 OA
ATOM     47  H   UNL     1      -0.534  15.592  36.535  1.00  0.00     0.211 HD
ENDBRANCH   6  46
BRANCH   7  48
ATOM     48  N   UNL     1       3.299  16.591  37.425  1.00  0.00    -0.348 N 
ATOM     49  C   UNL     1       3.588  16.168  38.743  1.00  0.00     0.217 C 
ATOM     50  H   UNL     1       4.088  16.478  36.733  1.00  0.00     0.163 HD
ATOM     51  C   UNL     1       4.947  15.606  39.091  1.00  0.00     0.114 C 
ATOM     52  O   UNL     1       2.696  16.268  39.622  1.00  0.00    -0.275 OA
ENDBRANCH   7  48
ENDBRANCH   1   2
BRANCH   1  53
ATOM     53  O   UNL     1       3.980  19.553  37.575  1.00  0.00    -0.388 OA
ATOM     54  H   UNL     1       4.085  20.067  38.439  1.00  0.00     0.211 HD
ENDBRANCH   1  53
BRANCH   1  55
ATOM     55  C   UNL     1       2.352  20.979  36.870  1.00  0.00     0.165 C 
BRANCH  55  56
ATOM     56  O   UNL     1       3.049  21.217  35.663  1.00  0.00    -0.388 OA
ATOM     57  H   UNL     1       2.394  21.025  34.948  1.00  0.00     0.211 HD
ENDBRANCH  55  56
BRANCH  55  58
ATOM     58  C   UNL     1       2.479  22.154  37.746  1.00  0.00     0.154 C 
BRANCH  58  59
ATOM     59  N   UNL     1       3.683  22.883  37.639  1.00  0.00    -0.319 N 
ATOM     60  C   UNL     1       4.890  22.796  38.343  1.00  0.00     0.407 C 
ATOM     61  H   UNL     1       3.682  23.655  36.871  1.00  0.00     0.167 HD
ATOM     62  O   UNL     1       5.047  21.967  39.255  1.00  0.00    -0.225 OA
BRANCH  60  63
ATOM     63  O   UNL     1       5.970  23.640  38.047  1.00  0.00    -0.443 OA
BRANCH  63  64
ATOM     64  C   UNL     1       6.976  23.816  39.045  1.00  0.00     0.294 C 
BRANCH  64  65
ATOM     65  C   UNL     1       8.275  23.263  38.584  1.00  0.00     0.120 A 
ATOM     66  C   UNL     1       8.898  23.602  37.384  1.00  0.00     0.138 A 
ATOM     67  N   UNL     1       9.084  22.373  39.178  1.00  0.00    -0.132 NA
ATOM     68  N   UNL     1      10.038  22.906  37.315  1.00  0.00    -0.252 N 
ATOM     69  N   UNL     1      10.146  22.171  38.391  1.00  0.00    -0.067 NA
BRANCH  68  70
ATOM     70  C   UNL     1      10.976  22.997  36.187  1.00  0.00     0.146 C 
BRANCH  70  71
ATOM     71  C   UNL     1      10.529  24.105  35.271  1.00  0.00     0.024 C 
BRANCH  71  72
ATOM     72  C   UNL     1      11.504  25.255  35.404  1.00  0.00     0.006 C 
BRANCH  72  73
ATOM     73  C   UNL     1      12.833  24.745  35.911  1.00  0.00     0.027 C 
BRANCH  73  74
ATOM     74  C   UNL     1      13.544  25.779  36.695  1.00  0.00    -0.035 C 
ATOM     75  C   UNL     1      14.760  26.158  36.353  1.00  0.00     0.004 C 
ENDBRANCH  73  74
ENDBRANCH  72  73
ENDBRANCH  71  72
ENDBRANCH  70  71
ENDBRANCH  68  70
ENDBRANCH  64  65
ENDBRANCH  63  64
ENDBRANCH  60  63
ENDBRANCH  58  59
ENDBRANCH  55  58
ENDBRANCH   1  55
TORSDOF 34
