REMARK VINA RESULT:    -5.534      7.080     12.390
REMARK INTER + INTRA:         -21.872
REMARK INTER:                 -16.207
REMARK INTRA:                  -5.665
REMARK UNBOUND:                -7.602
REMARK SMILES CC(=O)N[C@@H]1[C@@H](O)C[C@](OC[C@H]2O[C@@H](O[C@H]3[C@H](O)[C@@H](O)[C@H](OCCN=[N+]=[N-])O[C@@H]3CO)[C@H](O)[C@@H](O)[C@H]2O)(C(=O)O)O[C@H]1C(O)[C@H](O)CNC(=O)OCc1cn(CC(=O)Nc2ncccn2)nn1
REMARK SMILES IDX 9 1 8 2 6 3 5 4 42 5 41 6 10 7 11 8 12 9 14 10 13 11 32 12
REMARK SMILES IDX 34 13 36 14 15 15 16 16 29 17 28 18 21 19 17 20 19 21 30 22
REMARK SMILES IDX 31 23 22 25 23 26 24 27 25 28 26 29 27 30 18 31 20 33 33 35
REMARK SMILES IDX 35 37 37 39 38 41 39 42 40 43 7 45 43 47 44 48 45 50 46 51
REMARK SMILES IDX 47 53 48 54 49 55 50 57 51 58 52 59 53 60 54 61 67 62 55 63
REMARK SMILES IDX 66 64 56 65 57 66 58 67 59 68 60 70 61 71 65 72 62 73 64 74
REMARK SMILES IDX 63 75 4 76 2 77 1 79 3 80
REMARK H PARENT 31 24 18 32 20 34 33 36 35 38 37 40 40 44 7 46 44 49 46 52
REMARK H PARENT 48 56 59 69 4 78
REMARK Flexibility Score: inf
ROOT
ATOM      1  C   UNL     1      22.524  22.860  13.119  1.00  0.00     0.272 C 
ATOM      2  C   UNL     1      21.008  22.770  13.069  1.00  0.00     0.113 C 
ATOM      3  C   UNL     1      20.572  21.793  12.055  1.00  0.00     0.145 C 
ATOM      4  C   UNL     1      21.319  20.468  12.054  1.00  0.00     0.142 C 
ATOM      5  C   UNL     1      22.686  20.565  12.563  1.00  0.00     0.178 C 
ATOM      6  O   UNL     1      22.823  21.517  13.563  1.00  0.00    -0.332 OA
ENDROOT
BRANCH   1   7
ATOM      7  O   UNL     1      22.875  23.663  14.116  1.00  0.00    -0.338 OA
BRANCH   7   8
ATOM      8  C   UNL     1      22.451  24.685  14.742  1.00  0.00     0.199 C 
BRANCH   8   9
ATOM      9  C   UNL     1      23.210  25.899  15.160  1.00  0.00     0.179 C 
ATOM     10  C   UNL     1      23.875  26.925  17.150  1.00  0.00     0.282 C 
ATOM     11  O   UNL     1      23.115  25.931  16.618  1.00  0.00    -0.341 OA
ATOM     12  C   UNL     1      25.371  26.473  17.186  1.00  0.00     0.202 C 
ATOM     13  C   UNL     1      25.387  25.340  16.179  1.00  0.00     0.179 C 
ATOM     14  C   UNL     1      24.676  25.918  14.934  1.00  0.00     0.177 C 
BRANCH  10  15
ATOM     15  O   UNL     1      23.489  27.149  18.478  1.00  0.00    -0.341 OA
BRANCH  15  16
ATOM     16  C   UNL     1      24.000  26.199  19.353  1.00  0.00     0.184 C 
ATOM     17  C   UNL     1      22.811  25.445  19.964  1.00  0.00     0.178 C 
ATOM     18  O   UNL     1      22.888  25.428  21.349  1.00  0.00    -0.341 OA
ATOM     19  C   UNL     1      22.804  26.725  21.876  1.00  0.00     0.281 C 
ATOM     20  C   UNL     1      24.839  26.848  20.389  1.00  0.00     0.180 C 
ATOM     21  C   UNL     1      24.123  27.385  21.591  1.00  0.00     0.202 C 
BRANCH  17  22
ATOM     22  C   UNL     1      22.833  23.998  19.501  1.00  0.00     0.191 C 
BRANCH  22  23
ATOM     23  O   UNL     1      22.311  23.878  18.212  1.00  0.00    -0.394 OA
ATOM     24  H   UNL     1      22.037  24.758  17.836  1.00  0.00     0.210 HD
ENDBRANCH  22  23
ENDBRANCH  17  22
BRANCH  19  25
ATOM     25  O   UNL     1      22.617  26.567  23.236  1.00  0.00    -0.350 OA
BRANCH  25  26
ATOM     26  C   UNL     1      21.432  25.946  23.567  1.00  0.00     0.169 C 
BRANCH  26  27
ATOM     27  C   UNL     1      21.605  24.644  24.320  1.00  0.00     0.119 C 
BRANCH  27  28
ATOM     28  N   UNL     1      22.847  24.619  25.075  1.00  0.00    -0.092 NA
ATOM     29  N   UNL     1      22.860  24.554  26.308  1.00  0.00     0.001 N 
ATOM     30  N   UNL     1      22.673  24.624  27.518  1.00  0.00    -0.003 NA
ENDBRANCH  27  28
ENDBRANCH  26  27
ENDBRANCH  25  26
ENDBRANCH  19  25
BRANCH  20  31
ATOM     31  O   UNL     1      25.763  25.892  20.894  1.00  0.00    -0.387 OA
ATOM     32  H   UNL     1      26.365  26.336  21.559  1.00  0.00     0.211 HD
ENDBRANCH  20  31
BRANCH  21  33
ATOM     33  O   UNL     1      23.933  28.753  21.424  1.00  0.00    -0.385 OA
ATOM     34  H   UNL     1      24.754  29.159  21.058  1.00  0.00     0.211 HD
ENDBRANCH  21  33
ENDBRANCH  15  16
ENDBRANCH  10  15
BRANCH  12  35
ATOM     35  O   UNL     1      26.137  27.497  16.619  1.00  0.00    -0.385 OA
ATOM     36  H   UNL     1      25.888  27.529  15.656  1.00  0.00     0.211 HD
ENDBRANCH  12  35
BRANCH  13  37
ATOM     37  O   UNL     1      24.812  24.186  16.636  1.00  0.00    -0.387 OA
ATOM     38  H   UNL     1      24.620  24.189  17.594  1.00  0.00     0.211 HD
ENDBRANCH  13  37
BRANCH  14  39
ATOM     39  O   UNL     1      25.214  25.339  13.840  1.00  0.00    -0.387 OA
ATOM     40  H   UNL     1      24.742  24.510  13.579  1.00  0.00     0.211 HD
ENDBRANCH  14  39
ENDBRANCH   8   9
ENDBRANCH   7   8
ENDBRANCH   1   7
BRANCH   1  41
ATOM     41  C   UNL     1      23.190  23.082  11.853  1.00  0.00     0.364 C 
ATOM     42  O   UNL     1      24.463  22.985  11.777  1.00  0.00    -0.246 OA
BRANCH  41  43
ATOM     43  O   UNL     1      22.571  23.407  10.670  1.00  0.00    -0.477 OA
ATOM     44  H   UNL     1      22.807  24.168  10.080  1.00  0.00     0.296 HD
ENDBRANCH  41  43
ENDBRANCH   1  41
BRANCH   3  45
ATOM     45  O   UNL     1      19.194  21.551  12.284  1.00  0.00    -0.391 OA
ATOM     46  H   UNL     1      18.824  21.039  11.502  1.00  0.00     0.211 HD
ENDBRANCH   3  45
BRANCH   5  47
ATOM     47  C   UNL     1      23.231  19.268  13.217  1.00  0.00     0.176 C 
BRANCH  47  48
ATOM     48  O   UNL     1      22.314  18.326  13.487  1.00  0.00    -0.388 OA
ATOM     49  H   UNL     1      22.015  18.277  14.438  1.00  0.00     0.211 HD
ENDBRANCH  47  48
BRANCH  47  50
ATOM     50  C   UNL     1      24.593  18.909  12.879  1.00  0.00     0.165 C 
BRANCH  50  51
ATOM     51  O   UNL     1      24.916  17.820  13.856  1.00  0.00    -0.388 OA
ATOM     52  H   UNL     1      24.700  18.148  14.743  1.00  0.00     0.211 HD
ENDBRANCH  50  51
BRANCH  50  53
ATOM     53  C   UNL     1      25.747  19.784  12.868  1.00  0.00     0.154 C 
BRANCH  53  54
ATOM     54  N   UNL     1      26.371  20.410  13.940  1.00  0.00    -0.319 N 
ATOM     55  C   UNL     1      27.199  19.977  14.996  1.00  0.00     0.407 C 
ATOM     56  H   UNL     1      26.170  21.509  13.976  1.00  0.00     0.167 HD
ATOM     57  O   UNL     1      27.515  18.780  15.118  1.00  0.00    -0.225 OA
BRANCH  55  58
ATOM     58  O   UNL     1      27.694  20.858  15.924  1.00  0.00    -0.443 OA
BRANCH  58  59
ATOM     59  C   UNL     1      28.150  20.635  17.182  1.00  0.00     0.294 C 
BRANCH  59  60
ATOM     60  C   UNL     1      27.775  21.680  18.162  1.00  0.00     0.120 A 
ATOM     61  C   UNL     1      28.073  21.681  19.531  1.00  0.00     0.138 A 
ATOM     62  N   UNL     1      27.027  22.807  17.999  1.00  0.00    -0.132 NA
ATOM     63  N   UNL     1      27.526  22.746  20.126  1.00  0.00    -0.243 N 
ATOM     64  N   UNL     1      26.902  23.403  19.164  1.00  0.00    -0.067 NA
BRANCH  63  65
ATOM     65  C   UNL     1      27.570  23.154  21.517  1.00  0.00     0.246 C 
BRANCH  65  66
ATOM     66  C   UNL     1      28.849  22.605  22.112  1.00  0.00     0.248 C 
ATOM     67  O   UNL     1      29.944  23.207  21.998  1.00  0.00    -0.272 OA
ATOM     68  N   UNL     1      28.829  21.379  22.822  1.00  0.00    -0.293 N 
ATOM     69  H   UNL     1      27.887  20.919  22.887  1.00  0.00     0.173 HD
BRANCH  68  70
ATOM     70  C   UNL     1      29.934  20.754  23.440  1.00  0.00     0.229 A 
ATOM     71  N   UNL     1      30.464  21.133  24.616  1.00  0.00    -0.221 NA
ATOM     72  N   UNL     1      30.504  19.710  22.806  1.00  0.00    -0.221 NA
ATOM     73  C   UNL     1      31.542  20.507  25.175  1.00  0.00     0.117 A 
ATOM     74  C   UNL     1      31.556  19.061  23.307  1.00  0.00     0.117 A 
ATOM     75  C   UNL     1      32.102  19.442  24.502  1.00  0.00     0.040 A 
ENDBRANCH  68  70
ENDBRANCH  65  66
ENDBRANCH  63  65
ENDBRANCH  59  60
ENDBRANCH  58  59
ENDBRANCH  55  58
ENDBRANCH  53  54
ENDBRANCH  50  53
ENDBRANCH  47  50
ENDBRANCH   5  47
BRANCH   4  76
ATOM     76  N   UNL     1      21.134  19.917  10.746  1.00  0.00    -0.348 N 
ATOM     77  C   UNL     1      20.131  18.908  10.490  1.00  0.00     0.217 C 
ATOM     78  H   UNL     1      21.717  20.222   9.921  1.00  0.00     0.163 HD
ATOM     79  C   UNL     1      19.990  18.387   9.114  1.00  0.00     0.114 C 
ATOM     80  O   UNL     1      19.408  18.494  11.419  1.00  0.00    -0.275 OA
ENDBRANCH   4  76
TORSDOF 32
