REMARK VINA RESULT:    -8.093     14.281     20.485
REMARK INTER + INTRA:         -19.685
REMARK INTER:                 -14.161
REMARK INTRA:                  -5.523
REMARK UNBOUND:                 3.076
REMARK SMILES CC(=O)N[C@@H]1[C@@H](O)C[C@](OC[C@H]2O[C@@H](O[C@H]3[C@H](O)[C@@H](O)[C@H](OCCN=[N+]=[N-])O[C@@H]3CO)[C@H](O)[C@@H](O)[C@H]2O)(C(=O)O)O[C@H]1C(O)[C@H](O)CNC(=O)OCc1cn(C2CC(O)C=C[C@@H](O)C2)nn1
REMARK SMILES IDX 43 1 42 2 9 3 8 4 41 5 6 6 5 7 10 8 11 9 12 10 14 11 13 12
REMARK SMILES IDX 32 13 34 14 36 15 15 16 16 17 29 18 28 19 21 20 17 21 19 22
REMARK SMILES IDX 30 23 31 24 22 26 23 27 24 28 25 29 26 30 27 31 18 32 20 34
REMARK SMILES IDX 33 36 35 38 37 40 38 42 39 43 40 44 7 46 4 48 2 49 1 51 3 52
REMARK SMILES IDX 44 53 45 55 46 56 47 58 48 59 49 60 50 62 51 63 52 64 53 65
REMARK SMILES IDX 54 66 66 67 55 68 65 69 56 70 57 71 58 72 59 74 64 76 62 77
REMARK SMILES IDX 61 78 60 79 63 81
REMARK H PARENT 31 25 18 33 20 35 33 37 35 39 37 41 40 45 7 47 4 50 44 54
REMARK H PARENT 46 57 48 61 59 75 63 82
REMARK Flexibility Score: 90.00
ROOT
ATOM      1  C   UNL     1       0.726  23.593  32.173  1.00  0.00     0.176 C 
ENDROOT
BRANCH   1   2
ATOM      2  C   UNL     1       2.240  23.597  32.051  1.00  0.00     0.178 C 
ATOM      3  C   UNL     1       4.056  22.869  33.359  1.00  0.00     0.272 C 
ATOM      4  C   UNL     1       4.999  23.732  32.605  1.00  0.00     0.113 C 
ATOM      5  O   UNL     1       2.737  23.119  33.297  1.00  0.00    -0.332 OA
ATOM      6  C   UNL     1       4.390  24.500  31.489  1.00  0.00     0.145 C 
ATOM      7  C   UNL     1       2.916  24.881  31.836  1.00  0.00     0.142 C 
BRANCH   3   8
ATOM      8  O   UNL     1       4.508  22.792  34.692  1.00  0.00    -0.338 OA
BRANCH   8   9
ATOM      9  C   UNL     1       4.067  23.793  35.507  1.00  0.00     0.199 C 
BRANCH   9  10
ATOM     10  C   UNL     1       5.233  24.443  36.254  1.00  0.00     0.179 C 
ATOM     11  C   UNL     1       7.492  24.571  35.794  1.00  0.00     0.282 C 
ATOM     12  O   UNL     1       6.365  23.761  35.937  1.00  0.00    -0.341 OA
ATOM     13  C   UNL     1       7.192  25.426  34.577  1.00  0.00     0.202 C 
ATOM     14  C   UNL     1       6.163  26.440  35.023  1.00  0.00     0.179 C 
ATOM     15  C   UNL     1       5.251  25.924  36.090  1.00  0.00     0.177 C 
BRANCH  11  16
ATOM     16  O   UNL     1       8.602  23.773  35.653  1.00  0.00    -0.341 OA
BRANCH  16  17
ATOM     17  C   UNL     1       9.236  23.627  36.891  1.00  0.00     0.184 C 
ATOM     18  C   UNL     1       9.790  24.952  37.351  1.00  0.00     0.178 C 
ATOM     19  O   UNL     1      10.936  25.348  36.710  1.00  0.00    -0.341 OA
ATOM     20  C   UNL     1      11.469  24.389  35.850  1.00  0.00     0.281 C 
ATOM     21  C   UNL     1      10.271  22.536  36.890  1.00  0.00     0.180 C 
ATOM     22  C   UNL     1      11.647  23.071  36.595  1.00  0.00     0.202 C 
BRANCH  18  23
ATOM     23  C   UNL     1      10.013  24.948  38.858  1.00  0.00     0.191 C 
BRANCH  23  24
ATOM     24  O   UNL     1       9.010  24.278  39.532  1.00  0.00    -0.394 OA
ATOM     25  H   UNL     1       9.026  24.428  40.491  1.00  0.00     0.210 HD
ENDBRANCH  23  24
ENDBRANCH  18  23
BRANCH  20  26
ATOM     26  O   UNL     1      12.704  24.881  35.443  1.00  0.00    -0.350 OA
BRANCH  26  27
ATOM     27  C   UNL     1      12.963  26.059  36.136  1.00  0.00     0.169 C 
BRANCH  27  28
ATOM     28  C   UNL     1      13.464  27.149  35.204  1.00  0.00     0.119 C 
BRANCH  28  29
ATOM     29  N   UNL     1      12.620  27.253  34.032  1.00  0.00    -0.092 NA
ATOM     30  N   UNL     1      11.485  27.743  34.150  1.00  0.00     0.001 N 
ATOM     31  N   UNL     1      10.347  28.152  34.421  1.00  0.00    -0.003 NA
ENDBRANCH  28  29
ENDBRANCH  27  28
ENDBRANCH  26  27
ENDBRANCH  20  26
BRANCH  21  32
ATOM     32  O   UNL     1      10.275  21.872  38.116  1.00  0.00    -0.387 OA
ATOM     33  H   UNL     1      10.724  20.994  38.060  1.00  0.00     0.211 HD
ENDBRANCH  21  32
BRANCH  22  34
ATOM     34  O   UNL     1      12.370  22.185  35.805  1.00  0.00    -0.385 OA
ATOM     35  H   UNL     1      11.865  21.953  34.983  1.00  0.00     0.211 HD
ENDBRANCH  22  34
ENDBRANCH  16  17
ENDBRANCH  11  16
BRANCH  13  36
ATOM     36  O   UNL     1       8.284  26.057  34.044  1.00  0.00    -0.385 OA
ATOM     37  H   UNL     1       8.103  26.902  33.605  1.00  0.00     0.211 HD
ENDBRANCH  13  36
BRANCH  14  38
ATOM     38  O   UNL     1       5.481  26.849  33.878  1.00  0.00    -0.387 OA
ATOM     39  H   UNL     1       5.712  26.270  33.099  1.00  0.00     0.211 HD
ENDBRANCH  14  38
BRANCH  15  40
ATOM     40  O   UNL     1       3.926  26.324  35.825  1.00  0.00    -0.387 OA
ATOM     41  H   UNL     1       3.301  26.086  36.525  1.00  0.00     0.211 HD
ENDBRANCH  15  40
ENDBRANCH   9  10
ENDBRANCH   8   9
ENDBRANCH   3   8
BRANCH   3  42
ATOM     42  C   UNL     1       4.247  21.473  32.806  1.00  0.00     0.364 C 
ATOM     43  O   UNL     1       3.331  20.853  32.203  1.00  0.00    -0.246 OA
BRANCH  42  44
ATOM     44  O   UNL     1       5.485  20.878  32.984  1.00  0.00    -0.477 OA
ATOM     45  H   UNL     1       5.967  20.922  33.881  1.00  0.00     0.296 HD
ENDBRANCH  42  44
ENDBRANCH   3  42
BRANCH   6  46
ATOM     46  O   UNL     1       5.110  25.630  31.192  1.00  0.00    -0.391 OA
ATOM     47  H   UNL     1       6.044  25.397  31.002  1.00  0.00     0.211 HD
ENDBRANCH   6  46
BRANCH   7  48
ATOM     48  N   UNL     1       2.454  25.811  30.881  1.00  0.00    -0.348 N 
ATOM     49  C   UNL     1       2.454  27.198  31.176  1.00  0.00     0.217 C 
ATOM     50  H   UNL     1       2.138  25.506  29.942  1.00  0.00     0.163 HD
ATOM     51  C   UNL     1       1.972  28.196  30.186  1.00  0.00     0.114 C 
ATOM     52  O   UNL     1       2.866  27.593  32.292  1.00  0.00    -0.275 OA
ENDBRANCH   7  48
ENDBRANCH   1   2
BRANCH   1  53
ATOM     53  O   UNL     1       0.577  23.975  33.579  1.00  0.00    -0.388 OA
ATOM     54  H   UNL     1       0.342  23.138  34.089  1.00  0.00     0.211 HD
ENDBRANCH   1  53
BRANCH   1  55
ATOM     55  C   UNL     1       0.112  22.222  32.176  1.00  0.00     0.165 C 
BRANCH  55  56
ATOM     56  O   UNL     1       0.652  21.411  33.145  1.00  0.00    -0.388 OA
ATOM     57  H   UNL     1       0.032  21.191  33.876  1.00  0.00     0.211 HD
ENDBRANCH  55  56
BRANCH  55  58
ATOM     58  C   UNL     1       0.348  21.521  30.843  1.00  0.00     0.154 C 
BRANCH  58  59
ATOM     59  N   UNL     1       0.536  22.409  29.741  1.00  0.00    -0.319 N 
ATOM     60  C   UNL     1       1.412  22.124  28.657  1.00  0.00     0.407 C 
ATOM     61  H   UNL     1       0.006  23.331  29.712  1.00  0.00     0.167 HD
ATOM     62  O   UNL     1       2.040  21.027  28.705  1.00  0.00    -0.225 OA
BRANCH  60  63
ATOM     63  O   UNL     1       1.551  23.018  27.620  1.00  0.00    -0.443 OA
BRANCH  63  64
ATOM     64  C   UNL     1       2.759  23.072  26.866  1.00  0.00     0.294 C 
BRANCH  64  65
ATOM     65  C   UNL     1       3.371  24.401  27.086  1.00  0.00     0.120 A 
ATOM     66  C   UNL     1       3.968  25.226  26.169  1.00  0.00     0.138 A 
ATOM     67  N   UNL     1       3.449  25.034  28.270  1.00  0.00    -0.132 NA
ATOM     68  N   UNL     1       4.391  26.333  26.829  1.00  0.00    -0.249 N 
ATOM     69  N   UNL     1       4.062  26.186  28.095  1.00  0.00    -0.067 NA
BRANCH  68  70
ATOM     70  C   UNL     1       5.091  27.485  26.244  1.00  0.00     0.115 C 
BRANCH  70  71
ATOM     71  C   UNL     1       5.331  28.491  27.320  1.00  0.00     0.063 C 
BRANCH  71  72
ATOM     72  C   UNL     1       5.420  29.883  26.686  1.00  0.00     0.139 CG0
ATOM     73  G   UNL     1       6.739  30.038  26.051  1.00  0.00     0.000 G0
BRANCH  72  74
ATOM     74  O   UNL     1       5.205  30.860  27.656  1.00  0.00    -0.389 OA
ATOM     75  H   UNL     1       5.948  31.525  27.589  1.00  0.00     0.211 HD
ENDBRANCH  72  74
ENDBRANCH  71  72
ENDBRANCH  70  71
BRANCH  70  76
ATOM     76  C   UNL     1       6.378  27.006  25.648  1.00  0.00     0.063 C 
BRANCH  76  77
ATOM     77  C   UNL     1       6.739  27.995  24.534  1.00  0.00     0.139 C 
BRANCH  77  78
ATOM     78  C   UNL     1       7.326  29.224  25.131  1.00  0.00     0.002 C 
ATOM     79  C   UNL     1       6.746  30.012  26.025  1.00  0.00     0.002 CG0
ATOM     80  G   UNL     1       5.421  29.903  26.656  1.00  0.00     0.000 G0
ENDBRANCH  77  78
BRANCH  77  81
ATOM     81  O   UNL     1       7.592  27.426  23.601  1.00  0.00    -0.389 OA
ATOM     82  H   UNL     1       7.125  27.446  22.719  1.00  0.00     0.211 HD
ENDBRANCH  77  81
ENDBRANCH  76  77
ENDBRANCH  70  76
ENDBRANCH  68  70
ENDBRANCH  64  65
ENDBRANCH  63  64
ENDBRANCH  60  63
ENDBRANCH  58  59
ENDBRANCH  55  58
ENDBRANCH   1  55
TORSDOF 32
