REMARK VINA RESULT:    -5.337      5.053      9.925
REMARK INTER + INTRA:         -20.624
REMARK INTER:                 -12.292
REMARK INTRA:                  -8.332
REMARK UNBOUND:                -6.864
REMARK SMILES CC(=O)N[C@@H]1[C@@H](O)C[C@](OC[C@H]2O[C@@H](O[C@H]3[C@H](O)[C@@H](O)[C@H](OCCN=[N+]=[N-])O[C@@H]3CO)[C@H](O)[C@@H](O)[C@H]2O)(C(=O)O)O[C@H]1C(O)[C@H](O)CNC(=O)OCc1cn(CCC2OCCO2)nn1
REMARK SMILES IDX 9 1 8 2 6 3 5 4 42 5 41 6 10 7 11 8 12 9 14 10 13 11 32 12
REMARK SMILES IDX 34 13 36 14 15 15 16 16 29 17 28 18 21 19 17 20 19 21 30 22
REMARK SMILES IDX 31 23 22 25 23 26 24 27 25 28 26 29 27 30 18 31 20 33 33 35
REMARK SMILES IDX 35 37 37 39 38 41 39 42 40 43 7 45 43 47 44 48 45 50 46 51
REMARK SMILES IDX 47 53 48 54 49 55 50 57 51 58 52 59 53 60 54 61 64 62 55 63
REMARK SMILES IDX 63 64 56 65 57 66 58 67 59 68 62 69 60 70 61 71 4 72 2 73
REMARK SMILES IDX 1 75 3 76
REMARK H PARENT 31 24 18 32 20 34 33 36 35 38 37 40 40 44 7 46 44 49 46 52
REMARK H PARENT 48 56 4 74
REMARK Flexibility Score: inf
ROOT
ATOM      1  C   UNL     1      18.762  30.161  21.384  1.00  0.00     0.272 C 
ATOM      2  C   UNL     1      18.396  31.684  21.531  1.00  0.00     0.113 C 
ATOM      3  C   UNL     1      17.243  31.870  22.422  1.00  0.00     0.145 C 
ATOM      4  C   UNL     1      17.551  31.289  23.787  1.00  0.00     0.142 C 
ATOM      5  C   UNL     1      18.625  30.256  23.734  1.00  0.00     0.178 C 
ATOM      6  O   UNL     1      18.739  29.529  22.603  1.00  0.00    -0.332 OA
ENDROOT
BRANCH   1   7
ATOM      7  O   UNL     1      20.003  30.210  20.901  1.00  0.00    -0.338 OA
BRANCH   7   8
ATOM      8  C   UNL     1      20.427  30.635  19.732  1.00  0.00     0.199 C 
BRANCH   8   9
ATOM      9  C   UNL     1      21.263  29.783  18.832  1.00  0.00     0.179 C 
ATOM     10  C   UNL     1      22.508  27.801  18.853  1.00  0.00     0.282 C 
ATOM     11  O   UNL     1      21.968  28.854  19.562  1.00  0.00    -0.341 OA
ATOM     12  C   UNL     1      22.519  27.951  17.376  1.00  0.00     0.202 C 
ATOM     13  C   UNL     1      21.216  28.437  16.803  1.00  0.00     0.179 C 
ATOM     14  C   UNL     1      20.348  28.943  17.906  1.00  0.00     0.177 C 
BRANCH  10  15
ATOM     15  O   UNL     1      21.950  26.617  19.334  1.00  0.00    -0.341 OA
BRANCH  15  16
ATOM     16  C   UNL     1      22.402  26.260  20.597  1.00  0.00     0.184 C 
ATOM     17  C   UNL     1      23.075  24.923  20.658  1.00  0.00     0.178 C 
ATOM     18  O   UNL     1      23.546  24.741  21.960  1.00  0.00    -0.341 OA
ATOM     19  C   UNL     1      22.532  24.601  22.897  1.00  0.00     0.281 C 
ATOM     20  C   UNL     1      21.180  26.132  21.551  1.00  0.00     0.180 C 
ATOM     21  C   UNL     1      21.794  25.937  22.931  1.00  0.00     0.202 C 
BRANCH  17  22
ATOM     22  C   UNL     1      24.312  24.942  19.777  1.00  0.00     0.191 C 
BRANCH  22  23
ATOM     23  O   UNL     1      23.864  24.524  18.499  1.00  0.00    -0.394 OA
ATOM     24  H   UNL     1      22.886  24.527  18.424  1.00  0.00     0.210 HD
ENDBRANCH  22  23
ENDBRANCH  17  22
BRANCH  19  25
ATOM     25  O   UNL     1      23.089  24.316  24.112  1.00  0.00    -0.350 OA
BRANCH  25  26
ATOM     26  C   UNL     1      24.357  24.779  24.318  1.00  0.00     0.169 C 
BRANCH  26  27
ATOM     27  C   UNL     1      24.715  25.030  25.767  1.00  0.00     0.119 C 
BRANCH  27  28
ATOM     28  N   UNL     1      23.523  24.979  26.593  1.00  0.00    -0.092 NA
ATOM     29  N   UNL     1      22.686  25.878  26.613  1.00  0.00     0.001 N 
ATOM     30  N   UNL     1      21.728  26.645  26.572  1.00  0.00    -0.003 NA
ENDBRANCH  27  28
ENDBRANCH  26  27
ENDBRANCH  25  26
ENDBRANCH  19  25
BRANCH  20  31
ATOM     31  O   UNL     1      20.469  27.307  21.508  1.00  0.00    -0.387 OA
ATOM     32  H   UNL     1      19.659  27.168  20.944  1.00  0.00     0.211 HD
ENDBRANCH  20  31
BRANCH  21  33
ATOM     33  O   UNL     1      20.762  25.937  23.845  1.00  0.00    -0.385 OA
ATOM     34  H   UNL     1      19.910  26.041  23.351  1.00  0.00     0.211 HD
ENDBRANCH  21  33
ENDBRANCH  15  16
ENDBRANCH  10  15
BRANCH  12  35
ATOM     35  O   UNL     1      23.584  28.810  17.004  1.00  0.00    -0.385 OA
ATOM     36  H   UNL     1      23.509  28.895  16.017  1.00  0.00     0.211 HD
ENDBRANCH  12  35
BRANCH  13  37
ATOM     37  O   UNL     1      20.593  27.462  16.024  1.00  0.00    -0.387 OA
ATOM     38  H   UNL     1      20.042  27.929  15.342  1.00  0.00     0.211 HD
ENDBRANCH  13  37
BRANCH  14  39
ATOM     39  O   UNL     1      19.749  27.952  18.656  1.00  0.00    -0.387 OA
ATOM     40  H   UNL     1      19.894  28.041  19.631  1.00  0.00     0.211 HD
ENDBRANCH  14  39
ENDBRANCH   8   9
ENDBRANCH   7   8
ENDBRANCH   1   7
BRANCH   1  41
ATOM     41  C   UNL     1      17.656  29.635  20.585  1.00  0.00     0.364 C 
ATOM     42  O   UNL     1      16.890  28.716  21.092  1.00  0.00    -0.246 OA
BRANCH  41  43
ATOM     43  O   UNL     1      17.277  29.988  19.309  1.00  0.00    -0.477 OA
ATOM     44  H   UNL     1      17.966  30.022  18.571  1.00  0.00     0.296 HD
ENDBRANCH  41  43
ENDBRANCH   1  41
BRANCH   3  45
ATOM     45  O   UNL     1      17.048  33.278  22.534  1.00  0.00    -0.391 OA
ATOM     46  H   UNL     1      17.507  33.682  21.736  1.00  0.00     0.211 HD
ENDBRANCH   3  45
BRANCH   5  47
ATOM     47  C   UNL     1      19.911  30.820  24.259  1.00  0.00     0.176 C 
BRANCH  47  48
ATOM     48  O   UNL     1      19.728  31.672  25.359  1.00  0.00    -0.388 OA
ATOM     49  H   UNL     1      20.598  32.081  25.640  1.00  0.00     0.211 HD
ENDBRANCH  47  48
BRANCH  47  50
ATOM     50  C   UNL     1      20.783  29.675  24.849  1.00  0.00     0.165 C 
BRANCH  50  51
ATOM     51  O   UNL     1      20.025  28.529  24.888  1.00  0.00    -0.388 OA
ATOM     52  H   UNL     1      20.086  28.037  25.727  1.00  0.00     0.211 HD
ENDBRANCH  50  51
BRANCH  50  53
ATOM     53  C   UNL     1      21.372  30.152  26.114  1.00  0.00     0.154 C 
BRANCH  53  54
ATOM     54  N   UNL     1      20.766  29.546  27.257  1.00  0.00    -0.319 N 
ATOM     55  C   UNL     1      20.167  30.246  28.303  1.00  0.00     0.407 C 
ATOM     56  H   UNL     1      20.781  28.496  27.297  1.00  0.00     0.167 HD
ATOM     57  O   UNL     1      20.131  31.487  28.313  1.00  0.00    -0.225 OA
BRANCH  55  58
ATOM     58  O   UNL     1      19.571  29.618  29.406  1.00  0.00    -0.443 OA
BRANCH  58  59
ATOM     59  C   UNL     1      20.323  29.313  30.566  1.00  0.00     0.294 C 
BRANCH  59  60
ATOM     60  C   UNL     1      21.075  28.043  30.444  1.00  0.00     0.120 A 
ATOM     61  C   UNL     1      22.336  27.802  31.000  1.00  0.00     0.138 A 
ATOM     62  N   UNL     1      20.756  26.901  29.815  1.00  0.00    -0.132 NA
ATOM     63  N   UNL     1      22.724  26.535  30.689  1.00  0.00    -0.252 N 
ATOM     64  N   UNL     1      21.751  26.019  29.974  1.00  0.00    -0.067 NA
BRANCH  63  65
ATOM     65  C   UNL     1      23.992  25.973  31.128  1.00  0.00     0.151 C 
BRANCH  65  66
ATOM     66  C   UNL     1      24.789  25.463  29.934  1.00  0.00     0.086 C 
BRANCH  66  67
ATOM     67  C   UNL     1      25.720  26.515  29.405  1.00  0.00     0.251 C 
ATOM     68  O   UNL     1      26.757  25.902  28.701  1.00  0.00    -0.350 OA
ATOM     69  O   UNL     1      25.124  27.380  28.509  1.00  0.00    -0.350 OA
ATOM     70  C   UNL     1      27.298  26.915  27.917  1.00  0.00     0.192 C 
ATOM     71  C   UNL     1      26.266  28.027  27.981  1.00  0.00     0.192 C 
ENDBRANCH  66  67
ENDBRANCH  65  66
ENDBRANCH  63  65
ENDBRANCH  59  60
ENDBRANCH  58  59
ENDBRANCH  55  58
ENDBRANCH  53  54
ENDBRANCH  50  53
ENDBRANCH  47  50
ENDBRANCH   5  47
BRANCH   4  72
ATOM     72  N   UNL     1      16.330  30.812  24.432  1.00  0.00    -0.348 N 
ATOM     73  C   UNL     1      15.533  31.608  25.260  1.00  0.00     0.217 C 
ATOM     74  H   UNL     1      16.062  29.803  24.240  1.00  0.00     0.163 HD
ATOM     75  C   UNL     1      14.292  31.045  25.885  1.00  0.00     0.114 C 
ATOM     76  O   UNL     1      15.897  32.800  25.454  1.00  0.00    -0.275 OA
ENDBRANCH   4  72
TORSDOF 32
