REMARK VINA RESULT:    -6.386      0.000      0.000
REMARK INTER + INTRA:         -21.684
REMARK INTER:                 -16.308
REMARK INTRA:                  -5.376
REMARK UNBOUND:                -5.964
REMARK SMILES CC(=O)N[C@@H]1[C@@H](O)C[C@](OC[C@H]2O[C@@H](O[C@H]3[C@H](O)[C@@H](O)[C@H](OCCN=[N+]=[N-])O[C@@H]3CO)[C@H](O)[C@@H](O)[C@H]2O)(C(=O)O)O[C@H]1C(O)[C@H](O)CNC(=O)OCc1cn(C2CCN(C)CC2)nn1
REMARK SMILES IDX 9 1 8 2 6 3 5 4 42 5 41 6 10 7 11 8 12 9 14 10 13 11 32 12
REMARK SMILES IDX 34 13 36 14 15 15 16 16 29 17 28 18 21 19 17 20 19 21 30 22
REMARK SMILES IDX 31 23 22 25 23 26 24 27 25 28 26 29 27 30 18 31 20 33 33 35
REMARK SMILES IDX 35 37 37 39 38 41 39 42 40 43 7 45 43 47 44 48 45 50 46 51
REMARK SMILES IDX 47 53 48 54 49 55 50 57 51 58 52 59 53 60 54 61 64 62 55 63
REMARK SMILES IDX 63 64 56 65 57 66 62 67 58 68 61 69 59 70 60 71 4 72 2 73
REMARK SMILES IDX 1 75 3 76
REMARK H PARENT 31 24 18 32 20 34 33 36 35 38 37 40 40 44 7 46 44 49 46 52
REMARK H PARENT 48 56 4 74
REMARK Flexibility Score: inf
ROOT
ATOM      1  C   UNL     1      29.641  18.878  18.978  1.00  0.00     0.272 C 
ATOM      2  C   UNL     1      29.018  18.361  20.262  1.00  0.00     0.113 C 
ATOM      3  C   UNL     1      29.638  18.813  21.517  1.00  0.00     0.145 C 
ATOM      4  C   UNL     1      30.091  20.257  21.519  1.00  0.00     0.142 C 
ATOM      5  C   UNL     1      30.304  20.810  20.163  1.00  0.00     0.178 C 
ATOM      6  O   UNL     1      29.669  20.304  19.112  1.00  0.00    -0.332 OA
ENDROOT
BRANCH   1   7
ATOM      7  O   UNL     1      28.761  18.702  17.980  1.00  0.00    -0.338 OA
BRANCH   7   8
ATOM      8  C   UNL     1      28.300  19.476  17.056  1.00  0.00     0.199 C 
BRANCH   8   9
ATOM      9  C   UNL     1      28.582  19.306  15.595  1.00  0.00     0.179 C 
ATOM     10  C   UNL     1      26.992  20.612  14.384  1.00  0.00     0.282 C 
ATOM     11  O   UNL     1      27.385  19.446  14.948  1.00  0.00    -0.341 OA
ATOM     12  C   UNL     1      27.918  21.733  14.578  1.00  0.00     0.202 C 
ATOM     13  C   UNL     1      29.292  21.224  14.111  1.00  0.00     0.179 C 
ATOM     14  C   UNL     1      29.685  20.169  15.080  1.00  0.00     0.177 C 
BRANCH  10  15
ATOM     15  O   UNL     1      25.677  20.768  14.804  1.00  0.00    -0.341 OA
BRANCH  15  16
ATOM     16  C   UNL     1      24.713  20.631  13.893  1.00  0.00     0.184 C 
ATOM     17  C   UNL     1      23.631  21.637  14.088  1.00  0.00     0.178 C 
ATOM     18  O   UNL     1      22.892  21.732  12.903  1.00  0.00    -0.341 OA
ATOM     19  C   UNL     1      22.201  20.562  12.689  1.00  0.00     0.281 C 
ATOM     20  C   UNL     1      23.977  19.284  13.960  1.00  0.00     0.180 C 
ATOM     21  C   UNL     1      23.030  19.309  12.764  1.00  0.00     0.202 C 
BRANCH  17  22
ATOM     22  C   UNL     1      24.078  22.966  14.589  1.00  0.00     0.191 C 
BRANCH  22  23
ATOM     23  O   UNL     1      24.971  23.512  13.677  1.00  0.00    -0.394 OA
ATOM     24  H   UNL     1      25.767  22.936  13.546  1.00  0.00     0.210 HD
ENDBRANCH  22  23
ENDBRANCH  17  22
BRANCH  19  25
ATOM     25  O   UNL     1      21.716  20.624  11.375  1.00  0.00    -0.350 OA
BRANCH  25  26
ATOM     26  C   UNL     1      20.430  21.086  11.272  1.00  0.00     0.169 C 
BRANCH  26  27
ATOM     27  C   UNL     1      19.446  20.348  12.158  1.00  0.00     0.119 C 
BRANCH  27  28
ATOM     28  N   UNL     1      19.354  18.950  11.782  1.00  0.00    -0.092 NA
ATOM     29  N   UNL     1      19.060  18.621  10.633  1.00  0.00     0.001 N 
ATOM     30  N   UNL     1      18.363  18.167   9.724  1.00  0.00    -0.003 NA
ENDBRANCH  27  28
ENDBRANCH  26  27
ENDBRANCH  25  26
ENDBRANCH  19  25
BRANCH  20  31
ATOM     31  O   UNL     1      24.805  18.208  13.783  1.00  0.00    -0.387 OA
ATOM     32  H   UNL     1      25.731  18.482  13.958  1.00  0.00     0.211 HD
ENDBRANCH  20  31
BRANCH  21  33
ATOM     33  O   UNL     1      22.221  18.201  12.803  1.00  0.00    -0.385 OA
ATOM     34  H   UNL     1      21.275  18.420  12.827  1.00  0.00     0.211 HD
ENDBRANCH  21  33
ENDBRANCH  15  16
ENDBRANCH  10  15
BRANCH  12  35
ATOM     35  O   UNL     1      27.692  22.836  13.757  1.00  0.00    -0.385 OA
ATOM     36  H   UNL     1      26.916  22.670  13.166  1.00  0.00     0.211 HD
ENDBRANCH  12  35
BRANCH  13  37
ATOM     37  O   UNL     1      30.220  22.230  14.008  1.00  0.00    -0.387 OA
ATOM     38  H   UNL     1      30.323  22.448  13.047  1.00  0.00     0.211 HD
ENDBRANCH  13  37
BRANCH  14  39
ATOM     39  O   UNL     1      30.322  20.777  16.159  1.00  0.00    -0.387 OA
ATOM     40  H   UNL     1      31.284  20.924  16.009  1.00  0.00     0.211 HD
ENDBRANCH  14  39
ENDBRANCH   8   9
ENDBRANCH   7   8
ENDBRANCH   1   7
BRANCH   1  41
ATOM     41  C   UNL     1      31.011  18.397  18.887  1.00  0.00     0.364 C 
ATOM     42  O   UNL     1      31.215  17.150  19.182  1.00  0.00    -0.246 OA
BRANCH  41  43
ATOM     43  O   UNL     1      32.167  19.045  18.540  1.00  0.00    -0.477 OA
ATOM     44  H   UNL     1      32.208  20.005  18.197  1.00  0.00     0.296 HD
ENDBRANCH  41  43
ENDBRANCH   1  41
BRANCH   3  45
ATOM     45  O   UNL     1      28.702  18.635  22.579  1.00  0.00    -0.391 OA
ATOM     46  H   UNL     1      27.842  18.312  22.237  1.00  0.00     0.211 HD
ENDBRANCH   3  45
BRANCH   5  47
ATOM     47  C   UNL     1      30.051  22.343  20.149  1.00  0.00     0.176 C 
BRANCH  47  48
ATOM     48  O   UNL     1      29.379  22.702  21.310  1.00  0.00    -0.388 OA
ATOM     49  H   UNL     1      28.565  22.178  21.460  1.00  0.00     0.211 HD
ENDBRANCH  47  48
BRANCH  47  50
ATOM     50  C   UNL     1      29.319  22.736  18.949  1.00  0.00     0.165 C 
BRANCH  50  51
ATOM     51  O   UNL     1      29.643  24.131  18.723  1.00  0.00    -0.388 OA
ATOM     52  H   UNL     1      29.386  24.651  19.522  1.00  0.00     0.211 HD
ENDBRANCH  50  51
BRANCH  50  53
ATOM     53  C   UNL     1      27.857  22.619  18.882  1.00  0.00     0.154 C 
BRANCH  53  54
ATOM     54  N   UNL     1      26.999  23.095  19.884  1.00  0.00    -0.319 N 
ATOM     55  C   UNL     1      26.559  24.427  20.078  1.00  0.00     0.407 C 
ATOM     56  H   UNL     1      26.628  22.374  20.593  1.00  0.00     0.167 HD
ATOM     57  O   UNL     1      26.890  25.342  19.299  1.00  0.00    -0.225 OA
BRANCH  55  58
ATOM     58  O   UNL     1      25.726  24.703  21.186  1.00  0.00    -0.443 OA
BRANCH  58  59
ATOM     59  C   UNL     1      24.373  24.330  21.126  1.00  0.00     0.294 C 
BRANCH  59  60
ATOM     60  C   UNL     1      23.796  24.418  22.489  1.00  0.00     0.120 A 
ATOM     61  C   UNL     1      24.516  24.335  23.694  1.00  0.00     0.138 A 
ATOM     62  N   UNL     1      22.529  24.597  22.888  1.00  0.00    -0.132 NA
ATOM     63  N   UNL     1      23.676  24.464  24.735  1.00  0.00    -0.249 N 
ATOM     64  N   UNL     1      22.485  24.621  24.220  1.00  0.00    -0.067 NA
BRANCH  63  65
ATOM     65  C   UNL     1      24.033  24.435  26.134  1.00  0.00     0.111 C 
ATOM     66  C   UNL     1      24.962  25.586  26.391  1.00  0.00     0.043 C 
ATOM     67  C   UNL     1      22.832  24.555  27.031  1.00  0.00     0.043 C 
ATOM     68  C   UNL     1      24.203  26.695  27.084  1.00  0.00     0.086 C 
ATOM     69  C   UNL     1      23.178  24.994  28.428  1.00  0.00     0.086 C 
ATOM     70  N   UNL     1      23.907  26.245  28.444  1.00  0.00    -0.306 NA
ATOM     71  C   UNL     1      25.174  26.048  29.126  1.00  0.00     0.105 C 
ENDBRANCH  63  65
ENDBRANCH  59  60
ENDBRANCH  58  59
ENDBRANCH  55  58
ENDBRANCH  53  54
ENDBRANCH  50  53
ENDBRANCH  47  50
ENDBRANCH   5  47
BRANCH   4  72
ATOM     72  N   UNL     1      31.257  20.449  22.359  1.00  0.00    -0.348 N 
ATOM     73  C   UNL     1      31.091  20.969  23.663  1.00  0.00     0.217 C 
ATOM     74  H   UNL     1      32.227  20.215  22.033  1.00  0.00     0.163 HD
ATOM     75  C   UNL     1      32.264  21.189  24.570  1.00  0.00     0.114 C 
ATOM     76  O   UNL     1      29.927  21.259  24.087  1.00  0.00    -0.275 OA
ENDBRANCH   4  72
TORSDOF 30
