REMARK VINA RESULT:    -4.838     10.588     15.142
REMARK INTER + INTRA:         -24.456
REMARK INTER:                 -19.133
REMARK INTRA:                  -5.323
REMARK UNBOUND:               -10.710
REMARK SMILES CC(=O)N[C@@H]1[C@@H](O)C[C@](OC[C@H]2O[C@@H](O[C@H]3[C@H](O)[C@@H](O)[C@H](OCCN=[N+]=[N-])O[C@@H]3CO)[C@H](O)[C@@H](O)[C@H]2O)(C(=O)O)O[C@H]1C(O)[C@H](O)CNC(=O)OCc1cn(CC(=O)NCC(O)Cn2ccnc2[N+](=O)[O-])nn1
REMARK SMILES IDX 47 1 45 2 43 3 42 4 9 5 8 6 41 7 6 8 5 9 10 10 11 11 12 12
REMARK SMILES IDX 14 13 13 14 32 15 34 16 36 17 15 18 16 19 29 20 28 21 21 22
REMARK SMILES IDX 17 23 19 24 30 25 31 26 22 28 23 29 24 30 25 31 26 32 27 33
REMARK SMILES IDX 18 34 20 36 33 38 35 40 37 42 38 44 39 45 40 46 7 48 4 50
REMARK SMILES IDX 2 51 1 53 3 54 44 55 46 57 48 59 49 60 50 62 51 63 52 64
REMARK SMILES IDX 53 65 54 66 73 67 55 68 72 69 56 70 57 71 58 72 59 73 60 75
REMARK SMILES IDX 61 76 62 77 63 79 64 80 65 81 68 82 66 83 67 84 69 85 70 86
REMARK SMILES IDX 71 87
REMARK H PARENT 31 27 18 35 20 37 33 39 35 41 37 43 40 47 7 49 4 52 44 56
REMARK H PARENT 46 58 48 61 59 74 62 78
REMARK Flexibility Score: inf
ROOT
ATOM      1  C   UNL     1      13.669  29.179  21.057  1.00  0.00     0.154 C 
ENDROOT
BRANCH   1   2
ATOM      2  C   UNL     1      15.123  28.844  21.042  1.00  0.00     0.165 C 
BRANCH   2   3
ATOM      3  C   UNL     1      16.011  29.736  21.826  1.00  0.00     0.176 C 
BRANCH   3   4
ATOM      4  C   UNL     1      17.405  29.927  21.390  1.00  0.00     0.178 C 
ATOM      5  C   UNL     1      19.275  28.963  20.401  1.00  0.00     0.272 C 
ATOM      6  C   UNL     1      19.591  30.398  20.164  1.00  0.00     0.113 C 
ATOM      7  O   UNL     1      17.996  28.760  20.953  1.00  0.00    -0.332 OA
ATOM      8  C   UNL     1      19.390  31.289  21.343  1.00  0.00     0.145 C 
ATOM      9  C   UNL     1      18.327  30.660  22.289  1.00  0.00     0.142 C 
BRANCH   5  10
ATOM     10  O   UNL     1      20.164  28.250  21.151  1.00  0.00    -0.338 OA
BRANCH  10  11
ATOM     11  C   UNL     1      21.479  28.586  21.071  1.00  0.00     0.199 C 
BRANCH  11  12
ATOM     12  C   UNL     1      22.408  27.419  21.342  1.00  0.00     0.179 C 
ATOM     13  C   UNL     1      23.415  26.252  23.091  1.00  0.00     0.282 C 
ATOM     14  O   UNL     1      23.017  27.468  22.546  1.00  0.00    -0.341 OA
ATOM     15  C   UNL     1      23.885  25.288  22.029  1.00  0.00     0.202 C 
ATOM     16  C   UNL     1      22.816  25.046  20.989  1.00  0.00     0.179 C 
ATOM     17  C   UNL     1      21.729  26.098  21.102  1.00  0.00     0.177 C 
BRANCH  13  18
ATOM     18  O   UNL     1      22.483  25.657  23.863  1.00  0.00    -0.341 OA
BRANCH  18  19
ATOM     19  C   UNL     1      22.526  25.707  25.205  1.00  0.00     0.184 C 
ATOM     20  C   UNL     1      22.175  27.015  25.862  1.00  0.00     0.178 C 
ATOM     21  O   UNL     1      21.858  26.711  27.188  1.00  0.00    -0.341 OA
ATOM     22  C   UNL     1      22.989  26.329  27.901  1.00  0.00     0.281 C 
ATOM     23  C   UNL     1      23.919  25.374  25.763  1.00  0.00     0.180 C 
ATOM     24  C   UNL     1      23.734  25.202  27.253  1.00  0.00     0.202 C 
BRANCH  20  25
ATOM     25  C   UNL     1      20.941  27.589  25.232  1.00  0.00     0.191 C 
BRANCH  25  26
ATOM     26  O   UNL     1      20.025  26.590  24.879  1.00  0.00    -0.394 OA
ATOM     27  H   UNL     1      20.584  25.896  24.406  1.00  0.00     0.210 HD
ENDBRANCH  25  26
ENDBRANCH  20  25
BRANCH  22  28
ATOM     28  O   UNL     1      22.558  25.886  29.149  1.00  0.00    -0.350 OA
BRANCH  28  29
ATOM     29  C   UNL     1      22.505  26.934  30.070  1.00  0.00     0.169 C 
BRANCH  29  30
ATOM     30  C   UNL     1      23.795  27.734  29.875  1.00  0.00     0.119 C 
BRANCH  30  31
ATOM     31  N   UNL     1      24.738  27.436  30.938  1.00  0.00    -0.092 NA
ATOM     32  N   UNL     1      25.196  26.274  30.971  1.00  0.00     0.001 N 
ATOM     33  N   UNL     1      25.889  25.268  30.888  1.00  0.00    -0.003 NA
ENDBRANCH  30  31
ENDBRANCH  29  30
ENDBRANCH  28  29
ENDBRANCH  22  28
BRANCH  23  34
ATOM     34  O   UNL     1      24.381  24.158  25.270  1.00  0.00    -0.387 OA
ATOM     35  H   UNL     1      25.294  24.046  25.685  1.00  0.00     0.211 HD
ENDBRANCH  23  34
BRANCH  24  36
ATOM     36  O   UNL     1      24.941  25.038  27.932  1.00  0.00    -0.385 OA
ATOM     37  H   UNL     1      25.418  24.255  27.528  1.00  0.00     0.211 HD
ENDBRANCH  24  36
ENDBRANCH  18  19
ENDBRANCH  13  18
BRANCH  15  38
ATOM     38  O   UNL     1      25.085  25.712  21.441  1.00  0.00    -0.385 OA
ATOM     39  H   UNL     1      25.705  24.921  21.526  1.00  0.00     0.211 HD
ENDBRANCH  15  38
BRANCH  16  40
ATOM     40  O   UNL     1      22.209  23.806  21.173  1.00  0.00    -0.387 OA
ATOM     41  H   UNL     1      21.762  23.476  20.339  1.00  0.00     0.211 HD
ENDBRANCH  16  40
BRANCH  17  42
ATOM     42  O   UNL     1      20.742  25.793  22.008  1.00  0.00    -0.387 OA
ATOM     43  H   UNL     1      19.825  25.918  21.640  1.00  0.00     0.211 HD
ENDBRANCH  17  42
ENDBRANCH  11  12
ENDBRANCH  10  11
ENDBRANCH   5  10
BRANCH   5  44
ATOM     44  C   UNL     1      19.152  28.320  19.041  1.00  0.00     0.364 C 
ATOM     45  O   UNL     1      18.022  27.918  18.709  1.00  0.00    -0.246 OA
BRANCH  44  46
ATOM     46  O   UNL     1      20.212  28.164  18.180  1.00  0.00    -0.477 OA
ATOM     47  H   UNL     1      20.410  27.243  17.750  1.00  0.00     0.296 HD
ENDBRANCH  44  46
ENDBRANCH   5  44
BRANCH   8  48
ATOM     48  O   UNL     1      20.492  31.659  22.043  1.00  0.00    -0.391 OA
ATOM     49  H   UNL     1      21.129  32.228  21.587  1.00  0.00     0.211 HD
ENDBRANCH   8  48
BRANCH   9  50
ATOM     50  N   UNL     1      17.799  31.719  23.063  1.00  0.00    -0.348 N 
ATOM     51  C   UNL     1      17.789  31.656  24.503  1.00  0.00     0.217 C 
ATOM     52  H   UNL     1      17.416  32.570  22.631  1.00  0.00     0.163 HD
ATOM     53  C   UNL     1      17.230  32.754  25.336  1.00  0.00     0.114 C 
ATOM     54  O   UNL     1      18.266  30.638  25.047  1.00  0.00    -0.275 OA
ENDBRANCH   9  50
ENDBRANCH   3   4
BRANCH   3  55
ATOM     55  O   UNL     1      15.935  29.311  23.176  1.00  0.00    -0.388 OA
ATOM     56  H   UNL     1      16.366  28.442  23.232  1.00  0.00     0.211 HD
ENDBRANCH   3  55
ENDBRANCH   2   3
BRANCH   2  57
ATOM     57  O   UNL     1      15.576  28.440  19.808  1.00  0.00    -0.388 OA
ATOM     58  H   UNL     1      14.948  27.924  19.271  1.00  0.00     0.211 HD
ENDBRANCH   2  57
ENDBRANCH   1   2
BRANCH   1  59
ATOM     59  N   UNL     1      13.151  29.126  22.397  1.00  0.00    -0.319 N 
ATOM     60  C   UNL     1      12.283  30.108  22.938  1.00  0.00     0.407 C 
ATOM     61  H   UNL     1      13.413  28.324  23.043  1.00  0.00     0.167 HD
ATOM     62  O   UNL     1      11.931  31.070  22.225  1.00  0.00    -0.225 OA
BRANCH  60  63
ATOM     63  O   UNL     1      11.789  30.081  24.225  1.00  0.00    -0.443 OA
BRANCH  63  64
ATOM     64  C   UNL     1      11.397  28.886  24.847  1.00  0.00     0.294 C 
BRANCH  64  65
ATOM     65  C   UNL     1       9.983  28.528  24.747  1.00  0.00     0.120 A 
ATOM     66  C   UNL     1       8.891  29.358  24.762  1.00  0.00     0.138 A 
ATOM     67  N   UNL     1       9.476  27.290  24.636  1.00  0.00    -0.132 NA
ATOM     68  N   UNL     1       7.768  28.610  24.660  1.00  0.00    -0.243 N 
ATOM     69  N   UNL     1       8.137  27.369  24.586  1.00  0.00    -0.067 NA
BRANCH  68  70
ATOM     70  C   UNL     1       6.400  29.113  24.614  1.00  0.00     0.245 C 
BRANCH  70  71
ATOM     71  C   UNL     1       5.464  27.975  24.724  1.00  0.00     0.241 C 
ATOM     72  O   UNL     1       4.381  27.942  24.048  1.00  0.00    -0.273 OA
ATOM     73  N   UNL     1       5.704  26.855  25.574  1.00  0.00    -0.352 N 
ATOM     74  H   UNL     1       6.568  26.834  26.143  1.00  0.00     0.163 HD
BRANCH  73  75
ATOM     75  C   UNL     1       4.726  25.784  25.612  1.00  0.00     0.151 C 
BRANCH  75  76
ATOM     76  C   UNL     1       3.975  25.742  26.906  1.00  0.00     0.168 C 
BRANCH  76  77
ATOM     77  O   UNL     1       4.772  26.058  27.992  1.00  0.00    -0.388 OA
ATOM     78  H   UNL     1       4.375  26.846  28.434  1.00  0.00     0.211 HD
ENDBRANCH  76  77
BRANCH  76  79
ATOM     79  C   UNL     1       3.399  24.342  27.053  1.00  0.00     0.239 C 
BRANCH  79  80
ATOM     80  N   UNL     1       2.036  24.278  26.612  1.00  0.00    -0.227 N 
ATOM     81  C   UNL     1       1.211  25.352  26.487  1.00  0.00     0.204 A 
ATOM     82  C   UNL     1       1.285  23.206  26.257  1.00  0.00     0.434 A 
ATOM     83  C   UNL     1      -0.024  24.928  26.061  1.00  0.00     0.245 A 
ATOM     84  N   UNL     1       0.042  23.608  25.926  1.00  0.00    -0.074 NA
BRANCH  82  85
ATOM     85  N   UNL     1       1.745  21.856  26.224  1.00  0.00    -0.047 N 
ATOM     86  O   UNL     1       2.032  21.251  25.191  1.00  0.00    -0.390 OA
ATOM     87  O   UNL     1       1.869  21.178  27.429  1.00  0.00    -0.390 OA
ENDBRANCH  82  85
ENDBRANCH  79  80
ENDBRANCH  76  79
ENDBRANCH  75  76
ENDBRANCH  73  75
ENDBRANCH  70  71
ENDBRANCH  68  70
ENDBRANCH  64  65
ENDBRANCH  63  64
ENDBRANCH  60  63
ENDBRANCH   1  59
TORSDOF 37
