REMARK VINA RESULT:    -5.879      3.449      8.382
REMARK INTER + INTRA:         -22.574
REMARK INTER:                 -16.566
REMARK INTRA:                  -6.008
REMARK UNBOUND:                -7.759
REMARK SMILES CC(=O)N[C@@H]1[C@@H](O)C[C@](OC[C@H]2O[C@@H](O[C@H]3[C@H](O)[C@@H](O)[C@H](OCCN=[N+]=[N-])O[C@@H]3CO)[C@H](O)[C@@H](O)[C@H]2O)(C(=O)O)O[C@H]1C(O)[C@H](O)CNC(=O)OCc1cn(-c2cc(Cl)ccc2C(=O)N(C)C)nn1
REMARK SMILES IDX 9 1 8 2 6 3 5 4 42 5 41 6 10 7 11 8 12 9 14 10 13 11 32 12
REMARK SMILES IDX 34 13 36 14 15 15 16 16 29 17 28 18 21 19 17 20 19 21 30 22
REMARK SMILES IDX 31 23 22 25 23 26 24 27 25 28 26 29 27 30 18 31 20 33 33 35
REMARK SMILES IDX 35 37 37 39 38 41 39 42 40 43 7 45 43 47 44 48 45 50 46 51
REMARK SMILES IDX 47 53 48 54 49 55 50 57 51 58 52 59 53 60 54 61 69 62 55 63
REMARK SMILES IDX 68 64 56 65 57 66 62 67 58 68 61 69 59 70 60 71 63 72 64 73
REMARK SMILES IDX 65 74 66 75 67 76 4 77 2 78 1 80 3 81
REMARK H PARENT 31 24 18 32 20 34 33 36 35 38 37 40 40 44 7 46 44 49 46 52
REMARK H PARENT 48 56 4 79
REMARK Flexibility Score: inf
ROOT
ATOM      1  C   UNL     1      22.865  25.190  22.461  1.00  0.00     0.272 C 
ATOM      2  C   UNL     1      23.175  23.953  21.706  1.00  0.00     0.113 C 
ATOM      3  C   UNL     1      24.541  24.055  21.078  1.00  0.00     0.145 C 
ATOM      4  C   UNL     1      24.506  25.252  20.157  1.00  0.00     0.142 C 
ATOM      5  C   UNL     1      24.096  26.472  20.870  1.00  0.00     0.178 C 
ATOM      6  O   UNL     1      23.346  26.374  21.998  1.00  0.00    -0.332 OA
ENDROOT
BRANCH   1   7
ATOM      7  O   UNL     1      23.251  25.091  23.788  1.00  0.00    -0.338 OA
BRANCH   7   8
ATOM      8  C   UNL     1      24.011  26.073  24.319  1.00  0.00     0.199 C 
BRANCH   8   9
ATOM      9  C   UNL     1      24.138  25.862  25.836  1.00  0.00     0.179 C 
ATOM     10  C   UNL     1      23.249  26.825  27.734  1.00  0.00     0.282 C 
ATOM     11  O   UNL     1      23.888  27.050  26.458  1.00  0.00    -0.341 OA
ATOM     12  C   UNL     1      23.996  25.690  28.398  1.00  0.00     0.202 C 
ATOM     13  C   UNL     1      23.738  24.375  27.694  1.00  0.00     0.179 C 
ATOM     14  C   UNL     1      23.389  24.664  26.245  1.00  0.00     0.177 C 
BRANCH  10  15
ATOM     15  O   UNL     1      21.967  26.604  27.462  1.00  0.00    -0.341 OA
BRANCH  15  16
ATOM     16  C   UNL     1      20.990  27.561  27.673  1.00  0.00     0.184 C 
ATOM     17  C   UNL     1      21.183  28.599  26.616  1.00  0.00     0.178 C 
ATOM     18  O   UNL     1      20.237  29.627  26.769  1.00  0.00    -0.341 OA
ATOM     19  C   UNL     1      20.782  30.347  27.887  1.00  0.00     0.281 C 
ATOM     20  C   UNL     1      21.134  28.170  29.044  1.00  0.00     0.180 C 
ATOM     21  C   UNL     1      20.539  29.543  29.110  1.00  0.00     0.202 C 
BRANCH  17  22
ATOM     22  C   UNL     1      21.067  28.002  25.229  1.00  0.00     0.191 C 
BRANCH  22  23
ATOM     23  O   UNL     1      20.099  27.021  25.253  1.00  0.00    -0.394 OA
ATOM     24  H   UNL     1      19.224  27.413  25.498  1.00  0.00     0.210 HD
ENDBRANCH  22  23
ENDBRANCH  17  22
BRANCH  19  25
ATOM     25  O   UNL     1      20.228  31.568  27.902  1.00  0.00    -0.350 OA
BRANCH  25  26
ATOM     26  C   UNL     1      18.963  31.659  27.348  1.00  0.00     0.169 C 
BRANCH  26  27
ATOM     27  C   UNL     1      17.851  31.706  28.376  1.00  0.00     0.119 C 
BRANCH  27  28
ATOM     28  N   UNL     1      16.858  30.689  28.107  1.00  0.00    -0.092 NA
ATOM     29  N   UNL     1      15.681  30.875  28.396  1.00  0.00     0.001 N 
ATOM     30  N   UNL     1      14.531  31.277  28.672  1.00  0.00    -0.003 NA
ENDBRANCH  27  28
ENDBRANCH  26  27
ENDBRANCH  25  26
ENDBRANCH  19  25
BRANCH  20  31
ATOM     31  O   UNL     1      20.490  27.400  30.019  1.00  0.00    -0.387 OA
ATOM     32  H   UNL     1      21.144  27.097  30.714  1.00  0.00     0.211 HD
ENDBRANCH  20  31
BRANCH  21  33
ATOM     33  O   UNL     1      21.060  30.204  30.221  1.00  0.00    -0.385 OA
ATOM     34  H   UNL     1      20.820  29.787  31.075  1.00  0.00     0.211 HD
ENDBRANCH  21  33
ENDBRANCH  15  16
ENDBRANCH  10  15
BRANCH  12  35
ATOM     35  O   UNL     1      25.367  25.973  28.240  1.00  0.00    -0.385 OA
ATOM     36  H   UNL     1      25.598  26.125  27.269  1.00  0.00     0.211 HD
ENDBRANCH  12  35
BRANCH  13  37
ATOM     37  O   UNL     1      22.737  23.619  28.244  1.00  0.00    -0.387 OA
ATOM     38  H   UNL     1      22.203  24.099  28.922  1.00  0.00     0.211 HD
ENDBRANCH  13  37
BRANCH  14  39
ATOM     39  O   UNL     1      22.056  24.601  25.957  1.00  0.00    -0.387 OA
ATOM     40  H   UNL     1      21.783  25.061  25.132  1.00  0.00     0.211 HD
ENDBRANCH  14  39
ENDBRANCH   8   9
ENDBRANCH   7   8
ENDBRANCH   1   7
BRANCH   1  41
ATOM     41  C   UNL     1      21.332  25.318  22.545  1.00  0.00     0.364 C 
ATOM     42  O   UNL     1      20.803  26.089  21.712  1.00  0.00    -0.246 OA
BRANCH  41  43
ATOM     43  O   UNL     1      20.570  24.653  23.453  1.00  0.00    -0.477 OA
ATOM     44  H   UNL     1      20.315  23.692  23.408  1.00  0.00     0.296 HD
ENDBRANCH  41  43
ENDBRANCH   1  41
BRANCH   3  45
ATOM     45  O   UNL     1      25.500  24.099  22.049  1.00  0.00    -0.391 OA
ATOM     46  H   UNL     1      25.707  23.285  22.519  1.00  0.00     0.211 HD
ENDBRANCH   3  45
BRANCH   5  47
ATOM     47  C   UNL     1      25.221  27.448  21.194  1.00  0.00     0.176 C 
BRANCH  47  48
ATOM     48  O   UNL     1      26.478  26.920  21.113  1.00  0.00    -0.388 OA
ATOM     49  H   UNL     1      27.077  27.360  20.453  1.00  0.00     0.211 HD
ENDBRANCH  47  48
BRANCH  47  50
ATOM     50  C   UNL     1      25.157  28.760  20.505  1.00  0.00     0.165 C 
BRANCH  50  51
ATOM     51  O   UNL     1      26.396  29.130  19.930  1.00  0.00    -0.388 OA
ATOM     52  H   UNL     1      26.266  29.572  19.058  1.00  0.00     0.211 HD
ENDBRANCH  50  51
BRANCH  50  53
ATOM     53  C   UNL     1      24.975  29.817  21.619  1.00  0.00     0.154 C 
BRANCH  53  54
ATOM     54  N   UNL     1      23.697  29.657  22.252  1.00  0.00    -0.319 N 
ATOM     55  C   UNL     1      22.639  30.556  22.012  1.00  0.00     0.407 C 
ATOM     56  H   UNL     1      23.505  28.854  22.923  1.00  0.00     0.167 HD
ATOM     57  O   UNL     1      22.775  31.515  21.218  1.00  0.00    -0.225 OA
BRANCH  55  58
ATOM     58  O   UNL     1      21.403  30.408  22.654  1.00  0.00    -0.443 OA
BRANCH  58  59
ATOM     59  C   UNL     1      20.305  31.219  22.340  1.00  0.00     0.294 C 
BRANCH  59  60
ATOM     60  C   UNL     1      19.026  30.590  22.790  1.00  0.00     0.121 A 
ATOM     61  C   UNL     1      17.797  30.730  22.115  1.00  0.00     0.144 A 
ATOM     62  N   UNL     1      18.768  29.819  23.835  1.00  0.00    -0.131 NA
ATOM     63  N   UNL     1      16.870  30.047  22.772  1.00  0.00    -0.219 N 
ATOM     64  N   UNL     1      17.499  29.501  23.822  1.00  0.00    -0.062 NA
BRANCH  63  65
ATOM     65  C   UNL     1      15.489  29.843  22.539  1.00  0.00     0.081 A 
ATOM     66  C   UNL     1      14.562  30.301  23.484  1.00  0.00     0.049 A 
ATOM     67  C   UNL     1      14.966  29.193  21.459  1.00  0.00     0.065 A 
ATOM     68  C   UNL     1      13.229  30.102  23.325  1.00  0.00     0.043 A 
ATOM     69  C   UNL     1      13.584  28.985  21.294  1.00  0.00     0.017 A 
ATOM     70  Cl  UNL     1      12.119  30.702  24.550  1.00  0.00    -0.084 Cl
ATOM     71  C   UNL     1      12.707  29.447  22.243  1.00  0.00     0.021 A 
BRANCH  67  72
ATOM     72  C   UNL     1      15.817  28.706  20.368  1.00  0.00     0.255 C 
ATOM     73  O   UNL     1      16.322  27.570  20.466  1.00  0.00    -0.269 OA
ATOM     74  N   UNL     1      16.051  29.505  19.245  1.00  0.00    -0.345 N 
ATOM     75  C   UNL     1      15.453  30.833  19.145  1.00  0.00     0.146 C 
ATOM     76  C   UNL     1      16.886  29.040  18.140  1.00  0.00     0.146 C 
ENDBRANCH  67  72
ENDBRANCH  63  65
ENDBRANCH  59  60
ENDBRANCH  58  59
ENDBRANCH  55  58
ENDBRANCH  53  54
ENDBRANCH  50  53
ENDBRANCH  47  50
ENDBRANCH   5  47
BRANCH   4  77
ATOM     77  N   UNL     1      23.606  24.897  19.056  1.00  0.00    -0.348 N 
ATOM     78  C   UNL     1      24.066  24.689  17.739  1.00  0.00     0.217 C 
ATOM     79  H   UNL     1      22.589  24.794  19.236  1.00  0.00     0.163 HD
ATOM     80  C   UNL     1      23.162  24.331  16.619  1.00  0.00     0.114 C 
ATOM     81  O   UNL     1      25.297  24.811  17.501  1.00  0.00    -0.275 OA
ENDBRANCH   4  77
TORSDOF 31
