REMARK VINA RESULT:    -6.375     22.818     25.860
REMARK INTER + INTRA:         -21.161
REMARK INTER:                 -16.470
REMARK INTRA:                  -4.691
REMARK UNBOUND:                -4.909
REMARK SMILES CC(=O)N[C@@H]1[C@@H](O)C[C@](OC[C@H]2O[C@@H](O[C@H]3[C@H](O)[C@@H](O)[C@H](OCCN=[N+]=[N-])O[C@@H]3CO)[C@H](O)[C@@H](O)[C@H]2O)(C(=O)O)O[C@H]1C(O)[C@H](O)CNC(=O)OCc1cn(CCO)nn1
REMARK SMILES IDX 9 1 8 2 6 3 5 4 42 5 41 6 10 7 11 8 12 9 14 10 13 11 32 12
REMARK SMILES IDX 34 13 36 14 15 15 16 16 29 17 28 18 21 19 17 20 19 21 30 22
REMARK SMILES IDX 31 23 22 25 23 26 24 27 25 28 26 29 27 30 18 31 20 33 33 35
REMARK SMILES IDX 35 37 37 39 38 41 39 42 40 43 7 45 43 47 44 48 45 50 46 51
REMARK SMILES IDX 47 53 48 54 49 55 50 57 51 58 52 59 53 60 54 61 60 62 55 63
REMARK SMILES IDX 59 64 56 65 57 66 58 67 4 69 2 70 1 72 3 73
REMARK H PARENT 31 24 18 32 20 34 33 36 35 38 37 40 40 44 7 46 44 49 46 52
REMARK H PARENT 48 56 58 68 4 71
REMARK Flexibility Score: inf
ROOT
ATOM      1  C   UNL     1      31.048  19.743  23.544  1.00  0.00     0.272 C 
ATOM      2  C   UNL     1      31.341  18.279  23.586  1.00  0.00     0.113 C 
ATOM      3  C   UNL     1      32.556  18.019  24.433  1.00  0.00     0.145 C 
ATOM      4  C   UNL     1      32.250  18.626  25.802  1.00  0.00     0.142 C 
ATOM      5  C   UNL     1      32.159  20.131  25.581  1.00  0.00     0.178 C 
ATOM      6  O   UNL     1      30.989  20.275  24.798  1.00  0.00    -0.332 OA
ENDROOT
BRANCH   1   7
ATOM      7  O   UNL     1      29.807  19.995  22.916  1.00  0.00    -0.338 OA
BRANCH   7   8
ATOM      8  C   UNL     1      29.323  18.993  22.142  1.00  0.00     0.199 C 
BRANCH   8   9
ATOM      9  C   UNL     1      28.543  19.549  20.940  1.00  0.00     0.179 C 
ATOM     10  C   UNL     1      27.968  21.524  19.866  1.00  0.00     0.282 C 
ATOM     11  O   UNL     1      28.500  20.925  21.008  1.00  0.00    -0.341 OA
ATOM     12  C   UNL     1      28.801  21.255  18.640  1.00  0.00     0.202 C 
ATOM     13  C   UNL     1      29.688  20.042  18.763  1.00  0.00     0.179 C 
ATOM     14  C   UNL     1      29.022  19.014  19.635  1.00  0.00     0.177 C 
BRANCH  10  15
ATOM     15  O   UNL     1      27.945  22.844  20.105  1.00  0.00    -0.341 OA
BRANCH  15  16
ATOM     16  C   UNL     1      26.798  23.490  20.370  1.00  0.00     0.184 C 
ATOM     17  C   UNL     1      26.397  24.703  19.658  1.00  0.00     0.178 C 
ATOM     18  O   UNL     1      25.728  25.569  20.504  1.00  0.00    -0.341 OA
ATOM     19  C   UNL     1      24.829  25.043  21.376  1.00  0.00     0.281 C 
ATOM     20  C   UNL     1      26.900  23.875  21.869  1.00  0.00     0.180 C 
ATOM     21  C   UNL     1      25.462  24.011  22.322  1.00  0.00     0.202 C 
BRANCH  17  22
ATOM     22  C   UNL     1      25.482  24.436  18.466  1.00  0.00     0.191 C 
BRANCH  22  23
ATOM     23  O   UNL     1      26.046  23.523  17.573  1.00  0.00    -0.394 OA
ATOM     24  H   UNL     1      25.424  23.399  16.831  1.00  0.00     0.210 HD
ENDBRANCH  22  23
ENDBRANCH  17  22
BRANCH  19  25
ATOM     25  O   UNL     1      23.648  24.592  20.858  1.00  0.00    -0.350 OA
BRANCH  25  26
ATOM     26  C   UNL     1      22.508  25.214  21.270  1.00  0.00     0.169 C 
BRANCH  26  27
ATOM     27  C   UNL     1      21.571  24.254  21.922  1.00  0.00     0.119 C 
BRANCH  27  28
ATOM     28  N   UNL     1      21.165  24.792  23.231  1.00  0.00    -0.092 NA
ATOM     29  N   UNL     1      21.932  24.511  24.170  1.00  0.00     0.001 N 
ATOM     30  N   UNL     1      22.820  24.788  24.996  1.00  0.00    -0.003 NA
ENDBRANCH  27  28
ENDBRANCH  26  27
ENDBRANCH  25  26
ENDBRANCH  19  25
BRANCH  20  31
ATOM     31  O   UNL     1      27.604  22.932  22.571  1.00  0.00    -0.387 OA
ATOM     32  H   UNL     1      28.082  22.293  21.984  1.00  0.00     0.211 HD
ENDBRANCH  20  31
BRANCH  21  33
ATOM     33  O   UNL     1      25.388  24.365  23.642  1.00  0.00    -0.385 OA
ATOM     34  H   UNL     1      25.140  25.313  23.774  1.00  0.00     0.211 HD
ENDBRANCH  21  33
ENDBRANCH  15  16
ENDBRANCH  10  15
BRANCH  12  35
ATOM     35  O   UNL     1      27.922  20.975  17.582  1.00  0.00    -0.385 OA
ATOM     36  H   UNL     1      26.992  21.204  17.780  1.00  0.00     0.211 HD
ENDBRANCH  12  35
BRANCH  13  37
ATOM     37  O   UNL     1      30.928  20.423  19.206  1.00  0.00    -0.387 OA
ATOM     38  H   UNL     1      31.157  21.363  18.923  1.00  0.00     0.211 HD
ENDBRANCH  13  37
BRANCH  14  39
ATOM     39  O   UNL     1      29.990  18.024  19.916  1.00  0.00    -0.387 OA
ATOM     40  H   UNL     1      29.825  17.209  19.380  1.00  0.00     0.211 HD
ENDBRANCH  14  39
ENDBRANCH   8   9
ENDBRANCH   7   8
ENDBRANCH   1   7
BRANCH   1  41
ATOM     41  C   UNL     1      32.037  20.401  22.663  1.00  0.00     0.364 C 
ATOM     42  O   UNL     1      32.629  19.805  21.744  1.00  0.00    -0.246 OA
BRANCH  41  43
ATOM     43  O   UNL     1      32.349  21.740  22.827  1.00  0.00    -0.477 OA
ATOM     44  H   UNL     1      32.296  22.426  22.055  1.00  0.00     0.296 HD
ENDBRANCH  41  43
ENDBRANCH   1  41
BRANCH   3  45
ATOM     45  O   UNL     1      32.723  16.633  24.649  1.00  0.00    -0.391 OA
ATOM     46  H   UNL     1      32.419  16.415  25.571  1.00  0.00     0.211 HD
ENDBRANCH   3  45
BRANCH   5  47
ATOM     47  C   UNL     1      31.821  20.793  26.878  1.00  0.00     0.176 C 
BRANCH  47  48
ATOM     48  O   UNL     1      30.762  20.155  27.526  1.00  0.00    -0.388 OA
ATOM     49  H   UNL     1      29.881  20.423  27.152  1.00  0.00     0.211 HD
ENDBRANCH  47  48
BRANCH  47  50
ATOM     50  C   UNL     1      32.910  21.083  27.837  1.00  0.00     0.165 C 
BRANCH  50  51
ATOM     51  O   UNL     1      32.456  20.385  29.039  1.00  0.00    -0.388 OA
ATOM     52  H   UNL     1      31.937  21.021  29.582  1.00  0.00     0.211 HD
ENDBRANCH  50  51
BRANCH  50  53
ATOM     53  C   UNL     1      32.940  22.517  28.335  1.00  0.00     0.154 C 
BRANCH  53  54
ATOM     54  N   UNL     1      31.684  23.189  28.240  1.00  0.00    -0.319 N 
ATOM     55  C   UNL     1      31.428  24.361  28.996  1.00  0.00     0.407 C 
ATOM     56  H   UNL     1      30.907  22.830  27.616  1.00  0.00     0.167 HD
ATOM     57  O   UNL     1      32.374  24.758  29.756  1.00  0.00    -0.225 OA
BRANCH  55  58
ATOM     58  O   UNL     1      30.273  25.096  28.982  1.00  0.00    -0.443 OA
BRANCH  58  59
ATOM     59  C   UNL     1      29.780  25.629  30.196  1.00  0.00     0.294 C 
BRANCH  59  60
ATOM     60  C   UNL     1      28.323  25.535  30.313  1.00  0.00     0.120 A 
ATOM     61  C   UNL     1      27.418  25.990  29.386  1.00  0.00     0.138 A 
ATOM     62  N   UNL     1      27.587  25.008  31.305  1.00  0.00    -0.132 NA
ATOM     63  N   UNL     1      26.169  25.736  29.825  1.00  0.00    -0.250 N 
ATOM     64  N   UNL     1      26.292  25.140  30.989  1.00  0.00    -0.067 NA
BRANCH  63  65
ATOM     65  C   UNL     1      24.928  26.073  29.113  1.00  0.00     0.174 C 
BRANCH  65  66
ATOM     66  C   UNL     1      25.142  25.806  27.643  1.00  0.00     0.179 C 
BRANCH  66  67
ATOM     67  O   UNL     1      24.528  24.578  27.346  1.00  0.00    -0.394 OA
ATOM     68  H   UNL     1      23.743  24.664  26.778  1.00  0.00     0.210 HD
ENDBRANCH  66  67
ENDBRANCH  65  66
ENDBRANCH  63  65
ENDBRANCH  59  60
ENDBRANCH  58  59
ENDBRANCH  55  58
ENDBRANCH  53  54
ENDBRANCH  50  53
ENDBRANCH  47  50
ENDBRANCH   5  47
BRANCH   4  69
ATOM     69  N   UNL     1      33.117  18.185  26.822  1.00  0.00    -0.348 N 
ATOM     70  C   UNL     1      32.823  17.186  27.779  1.00  0.00     0.217 C 
ATOM     71  H   UNL     1      34.080  18.602  26.895  1.00  0.00     0.163 HD
ATOM     72  C   UNL     1      33.831  16.826  28.796  1.00  0.00     0.114 C 
ATOM     73  O   UNL     1      31.727  16.605  27.777  1.00  0.00    -0.275 OA
ENDBRANCH   4  69
TORSDOF 32
