REMARK VINA RESULT:    -5.257     18.295     23.016
REMARK INTER + INTRA:         -20.102
REMARK INTER:                 -15.243
REMARK INTRA:                  -4.859
REMARK UNBOUND:                -6.855
REMARK SMILES CC(=O)N[C@@H]1[C@@H](O)C[C@](OC[C@H]2O[C@@H](O[C@H]3[C@H](O)[C@@H](O)[C@H](OCCN=[N+]=[N-])O[C@@H]3CO)[C@H](O)[C@@H](O)[C@H]2O)(C(=O)O)O[C@H]1C(O)[C@H](O)CNC(=O)OCc1cn(Cc2ccsc2)nn1
REMARK SMILES IDX 9 1 8 2 6 3 5 4 42 5 41 6 10 7 11 8 12 9 14 10 13 11 32 12
REMARK SMILES IDX 34 13 36 14 15 15 16 16 29 17 28 18 21 19 17 20 19 21 30 22
REMARK SMILES IDX 31 23 22 25 23 26 24 27 25 28 26 29 27 30 18 31 20 33 33 35
REMARK SMILES IDX 35 37 37 39 38 41 39 42 40 43 7 45 43 47 44 48 45 50 46 51
REMARK SMILES IDX 47 53 48 54 49 55 50 57 51 58 52 59 53 60 54 61 63 62 55 63
REMARK SMILES IDX 62 64 56 65 57 66 58 67 61 68 59 69 60 70 4 71 2 72 1 74
REMARK SMILES IDX 3 75
REMARK H PARENT 31 24 18 32 20 34 33 36 35 38 37 40 40 44 7 46 44 49 46 52
REMARK H PARENT 48 56 4 73
REMARK Flexibility Score: inf
ROOT
ATOM      1  C   UNL     1       5.127  23.905  34.991  1.00  0.00     0.272 C 
ATOM      2  C   UNL     1       4.939  25.076  34.073  1.00  0.00     0.113 C 
ATOM      3  C   UNL     1       5.934  26.190  34.256  1.00  0.00     0.145 C 
ATOM      4  C   UNL     1       7.321  25.709  34.441  1.00  0.00     0.142 C 
ATOM      5  C   UNL     1       7.437  24.329  35.058  1.00  0.00     0.178 C 
ATOM      6  O   UNL     1       6.475  23.444  34.722  1.00  0.00    -0.332 OA
ENDROOT
BRANCH   1   7
ATOM      7  O   UNL     1       4.393  22.859  34.555  1.00  0.00    -0.338 OA
BRANCH   7   8
ATOM      8  C   UNL     1       3.314  22.934  33.799  1.00  0.00     0.199 C 
BRANCH   8   9
ATOM      9  C   UNL     1       3.096  22.179  32.555  1.00  0.00     0.179 C 
ATOM     10  C   UNL     1       2.545  22.647  30.398  1.00  0.00     0.282 C 
ATOM     11  O   UNL     1       3.315  23.124  31.483  1.00  0.00    -0.341 OA
ATOM     12  C   UNL     1       2.772  21.202  30.118  1.00  0.00     0.202 C 
ATOM     13  C   UNL     1       3.849  20.535  30.894  1.00  0.00     0.179 C 
ATOM     14  C   UNL     1       4.146  21.125  32.243  1.00  0.00     0.177 C 
BRANCH  10  15
ATOM     15  O   UNL     1       2.786  23.464  29.323  1.00  0.00    -0.341 OA
BRANCH  15  16
ATOM     16  C   UNL     1       2.399  24.800  29.527  1.00  0.00     0.184 C 
ATOM     17  C   UNL     1       1.503  25.293  28.447  1.00  0.00     0.178 C 
ATOM     18  O   UNL     1       2.073  25.986  27.424  1.00  0.00    -0.341 OA
ATOM     19  C   UNL     1       3.475  26.069  27.472  1.00  0.00     0.281 C 
ATOM     20  C   UNL     1       3.566  25.677  29.855  1.00  0.00     0.180 C 
ATOM     21  C   UNL     1       3.795  26.746  28.777  1.00  0.00     0.202 C 
BRANCH  17  22
ATOM     22  C   UNL     1       0.335  26.106  28.983  1.00  0.00     0.191 C 
BRANCH  22  23
ATOM     23  O   UNL     1       0.047  25.606  30.253  1.00  0.00    -0.394 OA
ATOM     24  H   UNL     1      -0.931  25.414  30.360  1.00  0.00     0.210 HD
ENDBRANCH  22  23
ENDBRANCH  17  22
BRANCH  19  25
ATOM     25  O   UNL     1       3.882  26.734  26.348  1.00  0.00    -0.350 OA
BRANCH  25  26
ATOM     26  C   UNL     1       4.961  26.156  25.707  1.00  0.00     0.169 C 
BRANCH  26  27
ATOM     27  C   UNL     1       6.114  27.063  25.427  1.00  0.00     0.119 C 
BRANCH  27  28
ATOM     28  N   UNL     1       7.297  26.315  25.101  1.00  0.00    -0.092 NA
ATOM     29  N   UNL     1       8.394  26.762  25.472  1.00  0.00     0.001 N 
ATOM     30  N   UNL     1       9.575  26.904  25.788  1.00  0.00    -0.003 NA
ENDBRANCH  27  28
ENDBRANCH  26  27
ENDBRANCH  25  26
ENDBRANCH  19  25
BRANCH  20  31
ATOM     31  O   UNL     1       3.515  26.247  31.109  1.00  0.00    -0.387 OA
ATOM     32  H   UNL     1       3.476  25.565  31.811  1.00  0.00     0.211 HD
ENDBRANCH  20  31
BRANCH  21  33
ATOM     33  O   UNL     1       5.063  27.264  28.810  1.00  0.00    -0.385 OA
ATOM     34  H   UNL     1       5.549  27.146  27.948  1.00  0.00     0.211 HD
ENDBRANCH  21  33
ENDBRANCH  15  16
ENDBRANCH  10  15
BRANCH  12  35
ATOM     35  O   UNL     1       1.559  20.467  30.171  1.00  0.00    -0.385 OA
ATOM     36  H   UNL     1       1.677  19.595  29.710  1.00  0.00     0.211 HD
ENDBRANCH  12  35
BRANCH  13  37
ATOM     37  O   UNL     1       5.046  20.595  30.151  1.00  0.00    -0.387 OA
ATOM     38  H   UNL     1       4.854  20.291  29.235  1.00  0.00     0.211 HD
ENDBRANCH  13  37
BRANCH  14  39
ATOM     39  O   UNL     1       5.370  21.836  32.213  1.00  0.00    -0.387 OA
ATOM     40  H   UNL     1       5.246  22.512  31.477  1.00  0.00     0.211 HD
ENDBRANCH  14  39
ENDBRANCH   8   9
ENDBRANCH   7   8
ENDBRANCH   1   7
BRANCH   1  41
ATOM     41  C   UNL     1       5.144  24.230  36.417  1.00  0.00     0.364 C 
ATOM     42  O   UNL     1       5.705  23.520  37.273  1.00  0.00    -0.246 OA
BRANCH  41  43
ATOM     43  O   UNL     1       4.517  25.383  36.928  1.00  0.00    -0.477 OA
ATOM     44  H   UNL     1       3.564  25.352  37.261  1.00  0.00     0.296 HD
ENDBRANCH  41  43
ENDBRANCH   1  41
BRANCH   3  45
ATOM     45  O   UNL     1       5.881  26.910  33.031  1.00  0.00    -0.391 OA
ATOM     46  H   UNL     1       6.675  27.509  32.956  1.00  0.00     0.211 HD
ENDBRANCH   3  45
BRANCH   5  47
ATOM     47  C   UNL     1       8.758  23.698  34.552  1.00  0.00     0.176 C 
BRANCH  47  48
ATOM     48  O   UNL     1       8.454  22.629  33.712  1.00  0.00    -0.388 OA
ATOM     49  H   UNL     1       9.269  22.115  33.513  1.00  0.00     0.211 HD
ENDBRANCH  47  48
BRANCH  47  50
ATOM     50  C   UNL     1       9.492  23.171  35.733  1.00  0.00     0.165 C 
BRANCH  50  51
ATOM     51  O   UNL     1       8.778  23.482  36.889  1.00  0.00    -0.388 OA
ATOM     52  H   UNL     1       9.324  23.325  37.697  1.00  0.00     0.211 HD
ENDBRANCH  50  51
BRANCH  50  53
ATOM     53  C   UNL     1      10.889  23.710  35.897  1.00  0.00     0.154 C 
BRANCH  53  54
ATOM     54  N   UNL     1      11.476  23.388  37.162  1.00  0.00    -0.319 N 
ATOM     55  C   UNL     1      11.795  24.310  38.167  1.00  0.00     0.407 C 
ATOM     56  H   UNL     1      11.689  22.363  37.353  1.00  0.00     0.167 HD
ATOM     57  O   UNL     1      11.560  25.522  37.979  1.00  0.00    -0.225 OA
BRANCH  55  58
ATOM     58  O   UNL     1      12.361  23.863  39.343  1.00  0.00    -0.443 OA
BRANCH  58  59
ATOM     59  C   UNL     1      11.686  23.798  40.566  1.00  0.00     0.294 C 
BRANCH  59  60
ATOM     60  C   UNL     1      10.445  23.017  40.395  1.00  0.00     0.120 A 
ATOM     61  C   UNL     1       9.300  23.135  41.119  1.00  0.00     0.138 A 
ATOM     62  N   UNL     1      10.259  22.054  39.481  1.00  0.00    -0.132 NA
ATOM     63  N   UNL     1       8.430  22.235  40.627  1.00  0.00    -0.248 N 
ATOM     64  N   UNL     1       9.017  21.588  39.641  1.00  0.00    -0.067 NA
BRANCH  63  65
ATOM     65  C   UNL     1       7.089  22.029  41.110  1.00  0.00     0.182 C 
BRANCH  65  66
ATOM     66  C   UNL     1       6.991  20.608  41.680  1.00  0.00    -0.016 A 
ATOM     67  C   UNL     1       6.236  19.661  41.161  1.00  0.00     0.017 A 
ATOM     68  C   UNL     1       7.753  20.323  42.811  1.00  0.00     0.070 A 
ATOM     69  C   UNL     1       6.186  18.396  41.716  1.00  0.00     0.065 A 
ATOM     70  S   UNL     1       7.341  18.595  43.124  1.00  0.00    -0.152 S 
ENDBRANCH  65  66
ENDBRANCH  63  65
ENDBRANCH  59  60
ENDBRANCH  58  59
ENDBRANCH  55  58
ENDBRANCH  53  54
ENDBRANCH  50  53
ENDBRANCH  47  50
ENDBRANCH   5  47
BRANCH   4  71
ATOM     71  N   UNL     1       8.167  26.588  35.192  1.00  0.00    -0.348 N 
ATOM     72  C   UNL     1       8.914  27.634  34.592  1.00  0.00     0.217 C 
ATOM     73  H   UNL     1       8.252  26.473  36.226  1.00  0.00     0.163 HD
ATOM     74  C   UNL     1       9.799  28.558  35.366  1.00  0.00     0.114 C 
ATOM     75  O   UNL     1       8.786  27.745  33.337  1.00  0.00    -0.275 OA
ENDBRANCH   4  71
TORSDOF 31
