REMARK VINA RESULT:    -5.465      8.981     16.124
REMARK INTER + INTRA:         -20.956
REMARK INTER:                 -14.453
REMARK INTRA:                  -6.503
REMARK UNBOUND:                -6.864
REMARK SMILES CC(=O)N[C@@H]1[C@@H](O)C[C@](OC[C@H]2O[C@@H](O[C@H]3[C@H](O)[C@@H](O)[C@H](OCCN=[N+]=[N-])O[C@@H]3CO)[C@H](O)[C@@H](O)[C@H]2O)(C(=O)O)O[C@H]1C(O)[C@H](O)CNC(=O)OCc1cn(CCC2OCCO2)nn1
REMARK SMILES IDX 9 1 8 2 6 3 5 4 42 5 41 6 10 7 11 8 12 9 14 10 13 11 32 12
REMARK SMILES IDX 34 13 36 14 15 15 16 16 29 17 28 18 21 19 17 20 19 21 30 22
REMARK SMILES IDX 31 23 22 25 23 26 24 27 25 28 26 29 27 30 18 31 20 33 33 35
REMARK SMILES IDX 35 37 37 39 38 41 39 42 40 43 7 45 43 47 44 48 45 50 46 51
REMARK SMILES IDX 47 53 48 54 49 55 50 57 51 58 52 59 53 60 54 61 64 62 55 63
REMARK SMILES IDX 63 64 56 65 57 66 58 67 59 68 62 69 60 70 61 71 4 72 2 73
REMARK SMILES IDX 1 75 3 76
REMARK H PARENT 31 24 18 32 20 34 33 36 35 38 37 40 40 44 7 46 44 49 46 52
REMARK H PARENT 48 56 4 74
REMARK Flexibility Score: inf
ROOT
ATOM      1  C   UNL     1      30.002  19.703  18.382  1.00  0.00     0.272 C 
ATOM      2  C   UNL     1      28.873  18.950  19.176  1.00  0.00     0.113 C 
ATOM      3  C   UNL     1      29.205  18.844  20.603  1.00  0.00     0.145 C 
ATOM      4  C   UNL     1      29.397  20.230  21.187  1.00  0.00     0.142 C 
ATOM      5  C   UNL     1      29.738  21.241  20.147  1.00  0.00     0.178 C 
ATOM      6  O   UNL     1      30.423  20.819  19.063  1.00  0.00    -0.332 OA
ENDROOT
BRANCH   1   7
ATOM      7  O   UNL     1      29.381  20.045  17.254  1.00  0.00    -0.338 OA
BRANCH   7   8
ATOM      8  C   UNL     1      29.886  20.494  16.127  1.00  0.00     0.199 C 
BRANCH   8   9
ATOM      9  C   UNL     1      29.034  21.106  15.062  1.00  0.00     0.179 C 
ATOM     10  C   UNL     1      27.080  20.689  13.842  1.00  0.00     0.282 C 
ATOM     11  O   UNL     1      28.136  20.185  14.573  1.00  0.00    -0.341 OA
ATOM     12  C   UNL     1      27.200  22.108  13.424  1.00  0.00     0.202 C 
ATOM     13  C   UNL     1      27.646  23.033  14.523  1.00  0.00     0.179 C 
ATOM     14  C   UNL     1      28.155  22.227  15.671  1.00  0.00     0.177 C 
BRANCH  10  15
ATOM     15  O   UNL     1      25.895  20.351  14.494  1.00  0.00    -0.341 OA
BRANCH  15  16
ATOM     16  C   UNL     1      24.830  20.121  13.633  1.00  0.00     0.184 C 
ATOM     17  C   UNL     1      23.520  20.667  14.112  1.00  0.00     0.178 C 
ATOM     18  O   UNL     1      22.571  20.435  13.113  1.00  0.00    -0.341 OA
ATOM     19  C   UNL     1      22.280  19.091  12.931  1.00  0.00     0.281 C 
ATOM     20  C   UNL     1      24.602  18.587  13.515  1.00  0.00     0.180 C 
ATOM     21  C   UNL     1      23.560  18.442  12.412  1.00  0.00     0.202 C 
BRANCH  17  22
ATOM     22  C   UNL     1      23.618  22.177  14.237  1.00  0.00     0.191 C 
BRANCH  22  23
ATOM     23  O   UNL     1      24.292  22.404  15.463  1.00  0.00    -0.394 OA
ATOM     24  H   UNL     1      25.207  22.050  15.461  1.00  0.00     0.210 HD
ENDBRANCH  22  23
ENDBRANCH  17  22
BRANCH  19  25
ATOM     25  O   UNL     1      21.267  18.977  12.021  1.00  0.00    -0.350 OA
BRANCH  25  26
ATOM     26  C   UNL     1      20.403  20.031  11.945  1.00  0.00     0.169 C 
BRANCH  26  27
ATOM     27  C   UNL     1      20.370  20.732  10.604  1.00  0.00     0.119 C 
BRANCH  27  28
ATOM     28  N   UNL     1      19.993  19.796   9.560  1.00  0.00    -0.092 NA
ATOM     29  N   UNL     1      19.117  18.948   9.708  1.00  0.00     0.001 N 
ATOM     30  N   UNL     1      18.154  18.187   9.713  1.00  0.00    -0.003 NA
ENDBRANCH  27  28
ENDBRANCH  26  27
ENDBRANCH  25  26
ENDBRANCH  19  25
BRANCH  20  31
ATOM     31  O   UNL     1      25.783  17.999  13.134  1.00  0.00    -0.387 OA
ATOM     32  H   UNL     1      26.344  17.857  13.946  1.00  0.00     0.211 HD
ENDBRANCH  20  31
BRANCH  21  33
ATOM     33  O   UNL     1      23.400  17.094  12.172  1.00  0.00    -0.385 OA
ATOM     34  H   UNL     1      22.597  16.973  11.605  1.00  0.00     0.211 HD
ENDBRANCH  21  33
ENDBRANCH  15  16
ENDBRANCH  10  15
BRANCH  12  35
ATOM     35  O   UNL     1      28.073  22.193  12.310  1.00  0.00    -0.385 OA
ATOM     36  H   UNL     1      27.507  21.965  11.526  1.00  0.00     0.211 HD
ENDBRANCH  12  35
BRANCH  13  37
ATOM     37  O   UNL     1      26.641  23.928  14.892  1.00  0.00    -0.387 OA
ATOM     38  H   UNL     1      25.922  23.406  15.334  1.00  0.00     0.211 HD
ENDBRANCH  13  37
BRANCH  14  39
ATOM     39  O   UNL     1      27.168  21.647  16.440  1.00  0.00    -0.387 OA
ATOM     40  H   UNL     1      26.248  21.895  16.170  1.00  0.00     0.211 HD
ENDBRANCH  14  39
ENDBRANCH   8   9
ENDBRANCH   7   8
ENDBRANCH   1   7
BRANCH   1  41
ATOM     41  C   UNL     1      31.101  18.737  18.381  1.00  0.00     0.364 C 
ATOM     42  O   UNL     1      32.255  19.091  18.861  1.00  0.00    -0.246 OA
BRANCH  41  43
ATOM     43  O   UNL     1      31.097  17.436  17.931  1.00  0.00    -0.477 OA
ATOM     44  H   UNL     1      31.858  16.818  18.172  1.00  0.00     0.296 HD
ENDBRANCH  41  43
ENDBRANCH   1  41
BRANCH   3  45
ATOM     45  O   UNL     1      28.090  18.213  21.228  1.00  0.00    -0.391 OA
ATOM     46  H   UNL     1      28.380  17.267  21.412  1.00  0.00     0.211 HD
ENDBRANCH   3  45
BRANCH   5  47
ATOM     47  C   UNL     1      28.546  22.099  19.850  1.00  0.00     0.176 C 
BRANCH  47  48
ATOM     48  O   UNL     1      27.560  22.032  20.846  1.00  0.00    -0.388 OA
ATOM     49  H   UNL     1      27.916  21.583  21.668  1.00  0.00     0.211 HD
ENDBRANCH  47  48
BRANCH  47  50
ATOM     50  C   UNL     1      28.960  23.598  19.873  1.00  0.00     0.165 C 
BRANCH  50  51
ATOM     51  O   UNL     1      28.800  24.072  21.153  1.00  0.00    -0.388 OA
ATOM     52  H   UNL     1      27.929  23.879  21.546  1.00  0.00     0.211 HD
ENDBRANCH  50  51
BRANCH  50  53
ATOM     53  C   UNL     1      28.238  24.291  18.790  1.00  0.00     0.154 C 
BRANCH  53  54
ATOM     54  N   UNL     1      26.991  24.832  19.228  1.00  0.00    -0.319 N 
ATOM     55  C   UNL     1      25.765  24.611  18.600  1.00  0.00     0.407 C 
ATOM     56  H   UNL     1      27.015  25.437  20.086  1.00  0.00     0.167 HD
ATOM     57  O   UNL     1      25.680  23.914  17.577  1.00  0.00    -0.225 OA
BRANCH  55  58
ATOM     58  O   UNL     1      24.557  25.149  19.065  1.00  0.00    -0.443 OA
BRANCH  58  59
ATOM     59  C   UNL     1      23.649  24.363  19.816  1.00  0.00     0.294 C 
BRANCH  59  60
ATOM     60  C   UNL     1      23.966  24.347  21.263  1.00  0.00     0.120 A 
ATOM     61  C   UNL     1      23.036  24.537  22.289  1.00  0.00     0.138 A 
ATOM     62  N   UNL     1      25.136  24.162  21.893  1.00  0.00    -0.132 NA
ATOM     63  N   UNL     1      23.674  24.460  23.488  1.00  0.00    -0.252 N 
ATOM     64  N   UNL     1      24.938  24.233  23.217  1.00  0.00    -0.067 NA
BRANCH  63  65
ATOM     65  C   UNL     1      22.979  24.609  24.759  1.00  0.00     0.151 C 
BRANCH  65  66
ATOM     66  C   UNL     1      21.613  25.246  24.546  1.00  0.00     0.086 C 
BRANCH  66  67
ATOM     67  C   UNL     1      21.585  26.664  25.041  1.00  0.00     0.251 C 
ATOM     68  O   UNL     1      22.479  27.431  24.292  1.00  0.00    -0.350 OA
ATOM     69  O   UNL     1      20.357  27.276  24.893  1.00  0.00    -0.350 OA
ATOM     70  C   UNL     1      22.086  28.746  24.513  1.00  0.00     0.192 C 
ATOM     71  C   UNL     1      20.711  28.622  25.146  1.00  0.00     0.192 C 
ENDBRANCH  66  67
ENDBRANCH  65  66
ENDBRANCH  63  65
ENDBRANCH  59  60
ENDBRANCH  58  59
ENDBRANCH  55  58
ENDBRANCH  53  54
ENDBRANCH  50  53
ENDBRANCH  47  50
ENDBRANCH   5  47
BRANCH   4  72
ATOM     72  N   UNL     1      30.357  20.195  22.289  1.00  0.00    -0.348 N 
ATOM     73  C   UNL     1      30.356  21.113  23.343  1.00  0.00     0.217 C 
ATOM     74  H   UNL     1      31.080  19.418  22.256  1.00  0.00     0.163 HD
ATOM     75  C   UNL     1      31.376  21.011  24.437  1.00  0.00     0.114 C 
ATOM     76  O   UNL     1      29.475  22.016  23.332  1.00  0.00    -0.275 OA
ENDBRANCH   4  72
TORSDOF 32
