REMARK VINA RESULT:    -6.851      2.827      7.072
REMARK INTER + INTRA:         -23.010
REMARK INTER:                 -14.201
REMARK INTRA:                  -8.809
REMARK UNBOUND:                -5.144
REMARK SMILES CC(=O)N[C@@H]1[C@@H](O)C[C@](OC[C@H]2O[C@@H](O[C@H]3[C@H](O)[C@@H](O)[C@H](OCCN=[N+]=[N-])O[C@@H]3CO)[C@H](O)[C@@H](O)[C@H]2O)(C(=O)O)O[C@H]1C(O)[C@H](O)CNC(=O)OCc1cn(-c2cccc(C=CC(=O)O)c2)nn1
REMARK SMILES IDX 43 1 42 2 9 3 8 4 41 5 6 6 5 7 10 8 11 9 12 10 14 11 13 12
REMARK SMILES IDX 32 13 34 14 36 15 15 16 16 17 29 18 28 19 21 20 17 21 19 22
REMARK SMILES IDX 30 23 31 24 22 26 23 27 24 28 25 29 26 30 27 31 18 32 20 34
REMARK SMILES IDX 33 36 35 38 37 40 38 42 39 43 40 44 7 46 4 48 2 49 1 51 3 52
REMARK SMILES IDX 44 53 45 55 46 56 47 58 48 59 49 60 50 62 51 63 52 64 53 65
REMARK SMILES IDX 54 66 68 67 55 68 67 69 56 70 66 71 57 72 60 73 58 74 59 75
REMARK SMILES IDX 61 76 62 77 63 78 64 79 65 80
REMARK H PARENT 31 25 18 33 20 35 33 37 35 39 37 41 40 45 7 47 4 50 44 54
REMARK H PARENT 46 57 48 61 65 81
REMARK Flexibility Score: inf
ROOT
ATOM      1  C   UNL     1      20.840  29.390  22.761  1.00  0.00     0.176 C 
ENDROOT
BRANCH   1   2
ATOM      2  C   UNL     1      19.862  30.517  23.025  1.00  0.00     0.178 C 
ATOM      3  C   UNL     1      17.524  30.820  23.057  1.00  0.00     0.272 C 
ATOM      4  C   UNL     1      18.127  32.269  23.390  1.00  0.00     0.113 C 
ATOM      5  O   UNL     1      18.612  30.018  22.784  1.00  0.00    -0.332 OA
ATOM      6  C   UNL     1      18.956  32.626  22.208  1.00  0.00     0.145 C 
ATOM      7  C   UNL     1      20.137  31.680  22.112  1.00  0.00     0.142 C 
BRANCH   3   8
ATOM      8  O   UNL     1      16.842  31.050  21.929  1.00  0.00    -0.338 OA
BRANCH   8   9
ATOM      9  C   UNL     1      15.657  30.565  21.608  1.00  0.00     0.199 C 
BRANCH   9  10
ATOM     10  C   UNL     1      15.412  30.071  20.198  1.00  0.00     0.179 C 
ATOM     11  C   UNL     1      16.680  30.465  18.241  1.00  0.00     0.282 C 
ATOM     12  O   UNL     1      15.999  30.931  19.348  1.00  0.00    -0.341 OA
ATOM     13  C   UNL     1      16.056  29.218  17.754  1.00  0.00     0.202 C 
ATOM     14  C   UNL     1      15.943  28.116  18.762  1.00  0.00     0.179 C 
ATOM     15  C   UNL     1      16.080  28.705  20.141  1.00  0.00     0.177 C 
BRANCH  11  16
ATOM     16  O   UNL     1      18.011  30.430  18.591  1.00  0.00    -0.341 OA
BRANCH  16  17
ATOM     17  C   UNL     1      18.882  30.923  17.682  1.00  0.00     0.184 C 
ATOM     18  C   UNL     1      19.984  29.951  17.393  1.00  0.00     0.178 C 
ATOM     19  O   UNL     1      20.572  30.412  16.190  1.00  0.00    -0.341 OA
ATOM     20  C   UNL     1      21.316  31.567  16.446  1.00  0.00     0.281 C 
ATOM     21  C   UNL     1      19.594  32.189  18.171  1.00  0.00     0.180 C 
ATOM     22  C   UNL     1      20.508  32.662  17.060  1.00  0.00     0.202 C 
BRANCH  18  23
ATOM     23  C   UNL     1      19.553  28.539  17.217  1.00  0.00     0.191 C 
BRANCH  23  24
ATOM     24  O   UNL     1      19.410  27.946  18.469  1.00  0.00    -0.394 OA
ATOM     25  H   UNL     1      18.535  27.447  18.517  1.00  0.00     0.210 HD
ENDBRANCH  23  24
ENDBRANCH  18  23
BRANCH  20  26
ATOM     26  O   UNL     1      21.822  32.011  15.228  1.00  0.00    -0.350 OA
BRANCH  26  27
ATOM     27  C   UNL     1      20.870  31.947  14.213  1.00  0.00     0.169 C 
BRANCH  27  28
ATOM     28  C   UNL     1      21.392  31.014  13.144  1.00  0.00     0.119 C 
BRANCH  28  29
ATOM     29  N   UNL     1      20.279  30.410  12.451  1.00  0.00    -0.092 NA
ATOM     30  N   UNL     1      19.319  29.942  13.089  1.00  0.00     0.001 N 
ATOM     31  N   UNL     1      18.584  29.136  13.680  1.00  0.00    -0.003 NA
ENDBRANCH  28  29
ENDBRANCH  27  28
ENDBRANCH  26  27
ENDBRANCH  20  26
BRANCH  21  32
ATOM     32  O   UNL     1      18.706  33.225  18.433  1.00  0.00    -0.387 OA
ATOM     33  H   UNL     1      18.410  33.550  17.546  1.00  0.00     0.211 HD
ENDBRANCH  21  32
BRANCH  22  34
ATOM     34  O   UNL     1      21.419  33.555  17.669  1.00  0.00    -0.385 OA
ATOM     35  H   UNL     1      22.099  33.085  18.201  1.00  0.00     0.211 HD
ENDBRANCH  22  34
ENDBRANCH  16  17
ENDBRANCH  11  16
BRANCH  13  36
ATOM     36  O   UNL     1      14.732  29.504  17.308  1.00  0.00    -0.385 OA
ATOM     37  H   UNL     1      14.480  28.853  16.595  1.00  0.00     0.211 HD
ENDBRANCH  13  36
BRANCH  14  38
ATOM     38  O   UNL     1      16.843  27.067  18.557  1.00  0.00    -0.387 OA
ATOM     39  H   UNL     1      16.733  26.655  17.663  1.00  0.00     0.211 HD
ENDBRANCH  14  38
BRANCH  15  40
ATOM     40  O   UNL     1      17.419  28.797  20.465  1.00  0.00    -0.387 OA
ATOM     41  H   UNL     1      17.663  29.710  20.813  1.00  0.00     0.211 HD
ENDBRANCH  15  40
ENDBRANCH   9  10
ENDBRANCH   8   9
ENDBRANCH   3   8
BRANCH   3  42
ATOM     42  C   UNL     1      16.857  30.401  24.279  1.00  0.00     0.364 C 
ATOM     43  O   UNL     1      15.961  29.551  24.428  1.00  0.00    -0.246 OA
BRANCH  42  44
ATOM     44  O   UNL     1      17.259  31.029  25.483  1.00  0.00    -0.477 OA
ATOM     45  H   UNL     1      17.996  31.747  25.419  1.00  0.00     0.296 HD
ENDBRANCH  42  44
ENDBRANCH   3  42
BRANCH   6  46
ATOM     46  O   UNL     1      18.118  32.412  21.063  1.00  0.00    -0.391 OA
ATOM     47  H   UNL     1      18.499  32.901  20.282  1.00  0.00     0.211 HD
ENDBRANCH   6  46
BRANCH   7  48
ATOM     48  N   UNL     1      21.414  32.284  22.240  1.00  0.00    -0.348 N 
ATOM     49  C   UNL     1      21.958  33.332  21.493  1.00  0.00     0.217 C 
ATOM     50  H   UNL     1      22.088  31.883  22.990  1.00  0.00     0.163 HD
ATOM     51  C   UNL     1      23.366  33.802  21.805  1.00  0.00     0.114 C 
ATOM     52  O   UNL     1      21.354  33.931  20.562  1.00  0.00    -0.275 OA
ENDBRANCH   7  48
ENDBRANCH   1   2
BRANCH   1  53
ATOM     53  O   UNL     1      20.525  28.310  23.565  1.00  0.00    -0.388 OA
ATOM     54  H   UNL     1      20.216  28.537  24.460  1.00  0.00     0.211 HD
ENDBRANCH   1  53
BRANCH   1  55
ATOM     55  C   UNL     1      20.751  28.886  21.320  1.00  0.00     0.165 C 
BRANCH  55  56
ATOM     56  O   UNL     1      20.077  27.703  21.191  1.00  0.00    -0.388 OA
ATOM     57  H   UNL     1      20.601  26.901  21.419  1.00  0.00     0.211 HD
ENDBRANCH  55  56
BRANCH  55  58
ATOM     58  C   UNL     1      22.101  28.833  20.680  1.00  0.00     0.154 C 
BRANCH  58  59
ATOM     59  N   UNL     1      22.745  27.586  20.888  1.00  0.00    -0.319 N 
ATOM     60  C   UNL     1      22.653  26.516  19.970  1.00  0.00     0.407 C 
ATOM     61  H   UNL     1      23.324  27.414  21.753  1.00  0.00     0.167 HD
ATOM     62  O   UNL     1      21.980  26.625  18.908  1.00  0.00    -0.225 OA
BRANCH  60  63
ATOM     63  O   UNL     1      23.292  25.296  20.178  1.00  0.00    -0.443 OA
BRANCH  63  64
ATOM     64  C   UNL     1      22.489  24.238  20.716  1.00  0.00     0.294 C 
BRANCH  64  65
ATOM     65  C   UNL     1      22.014  24.686  22.038  1.00  0.00     0.121 A 
ATOM     66  C   UNL     1      22.699  24.642  23.250  1.00  0.00     0.144 A 
ATOM     67  N   UNL     1      20.818  25.232  22.308  1.00  0.00    -0.131 NA
ATOM     68  N   UNL     1      21.892  25.166  24.202  1.00  0.00    -0.220 N 
ATOM     69  N   UNL     1      20.770  25.510  23.604  1.00  0.00    -0.062 NA
BRANCH  68  70
ATOM     70  C   UNL     1      22.265  25.294  25.564  1.00  0.00     0.067 A 
ATOM     71  C   UNL     1      21.591  26.201  26.383  1.00  0.00     0.036 A 
ATOM     72  C   UNL     1      23.266  24.553  26.097  1.00  0.00     0.028 A 
ATOM     73  C   UNL     1      21.911  26.359  27.695  1.00  0.00    -0.023 A 
ATOM     74  C   UNL     1      23.628  24.680  27.435  1.00  0.00     0.003 A 
ATOM     75  C   UNL     1      22.936  25.587  28.206  1.00  0.00     0.008 A 
BRANCH  73  76
ATOM     76  C   UNL     1      21.216  27.301  28.546  1.00  0.00     0.015 C 
ATOM     77  C   UNL     1      20.728  26.938  29.705  1.00  0.00     0.094 C 
BRANCH  77  78
ATOM     78  C   UNL     1      20.033  27.925  30.533  1.00  0.00     0.328 C 
ATOM     79  O   UNL     1      19.672  27.661  31.686  1.00  0.00    -0.247 OA
BRANCH  78  80
ATOM     80  O   UNL     1      19.761  29.195  30.031  1.00  0.00    -0.478 OA
ATOM     81  H   UNL     1      19.466  29.909  30.701  1.00  0.00     0.297 HD
ENDBRANCH  78  80
ENDBRANCH  77  78
ENDBRANCH  73  76
ENDBRANCH  68  70
ENDBRANCH  64  65
ENDBRANCH  63  64
ENDBRANCH  60  63
ENDBRANCH  58  59
ENDBRANCH  55  58
ENDBRANCH   1  55
TORSDOF 33
