REMARK VINA RESULT:    -5.878      4.964     11.831
REMARK INTER + INTRA:         -21.630
REMARK INTER:                 -12.385
REMARK INTRA:                  -9.245
REMARK UNBOUND:                -6.131
REMARK SMILES COCC(C(N)=O)n1cc(COC(=O)NC[C@@H](O)C(O)[C@@H]2O[C@@](OC[C@H]3O[C@@H](O[C@H]4[C@H](O)[C@@H](O)[C@H](OCCN=[N+]=[N-])O[C@@H]4CO)[C@H](O)[C@@H](O)[C@H]3O)(C(=O)O)C[C@H](O)[C@H]2NC(C)=O)nn1
REMARK SMILES IDX 23 1 55 2 56 3 58 4 21 5 22 6 24 7 25 8 26 9 28 10 27 11
REMARK SMILES IDX 46 12 48 13 50 14 29 15 30 16 43 17 42 18 35 19 31 20 33 21
REMARK SMILES IDX 44 22 45 23 36 25 37 26 38 27 39 28 40 29 41 30 32 31 34 33
REMARK SMILES IDX 47 35 49 37 51 39 52 41 53 42 54 43 57 45 19 47 20 48 17 50
REMARK SMILES IDX 18 51 16 53 15 54 13 55 14 57 12 58 11 59 10 60 9 61 63 62
REMARK SMILES IDX 8 63 64 64 4 65 3 66 2 67 1 68 5 69 7 70 6 71 59 74 60 75
REMARK SMILES IDX 61 77 62 78
REMARK H PARENT 45 24 32 32 34 34 47 36 49 38 51 40 54 44 57 46 20 49 18 52
REMARK H PARENT 15 56 6 72 6 73 59 76
REMARK Flexibility Score: inf
ROOT
ATOM      1  C   UNL     1      14.336  29.908  20.517  1.00  0.00     0.272 C 
ATOM      2  C   UNL     1      13.319  29.304  21.407  1.00  0.00     0.113 C 
ATOM      3  C   UNL     1      13.009  30.022  22.669  1.00  0.00     0.145 C 
ATOM      4  C   UNL     1      14.265  30.613  23.251  1.00  0.00     0.142 C 
ATOM      5  C   UNL     1      15.439  29.919  22.576  1.00  0.00     0.178 C 
ATOM      6  O   UNL     1      15.469  30.263  21.250  1.00  0.00    -0.332 OA
ENDROOT
BRANCH   1   7
ATOM      7  O   UNL     1      13.965  31.003  19.788  1.00  0.00    -0.338 OA
BRANCH   7   8
ATOM      8  C   UNL     1      14.732  32.118  19.870  1.00  0.00     0.199 C 
BRANCH   8   9
ATOM      9  C   UNL     1      14.507  33.073  18.690  1.00  0.00     0.179 C 
ATOM     10  C   UNL     1      15.513  32.125  16.823  1.00  0.00     0.282 C 
ATOM     11  O   UNL     1      15.569  33.078  17.831  1.00  0.00    -0.341 OA
ATOM     12  C   UNL     1      14.244  32.166  16.044  1.00  0.00     0.202 C 
ATOM     13  C   UNL     1      13.039  32.027  16.915  1.00  0.00     0.179 C 
ATOM     14  C   UNL     1      13.157  32.941  18.082  1.00  0.00     0.177 C 
BRANCH  10  15
ATOM     15  O   UNL     1      15.789  30.850  17.282  1.00  0.00    -0.341 OA
BRANCH  15  16
ATOM     16  C   UNL     1      17.046  30.429  16.851  1.00  0.00     0.184 C 
ATOM     17  C   UNL     1      17.072  29.127  16.144  1.00  0.00     0.178 C 
ATOM     18  O   UNL     1      18.303  28.866  15.595  1.00  0.00    -0.341 OA
ATOM     19  C   UNL     1      19.381  29.393  16.308  1.00  0.00     0.281 C 
ATOM     20  C   UNL     1      17.883  30.257  18.130  1.00  0.00     0.180 C 
ATOM     21  C   UNL     1      19.078  29.430  17.798  1.00  0.00     0.202 C 
BRANCH  17  22
ATOM     22  C   UNL     1      16.058  28.992  15.024  1.00  0.00     0.191 C 
BRANCH  22  23
ATOM     23  O   UNL     1      14.787  28.791  15.558  1.00  0.00    -0.394 OA
ATOM     24  H   UNL     1      14.818  28.558  16.516  1.00  0.00     0.210 HD
ENDBRANCH  22  23
ENDBRANCH  17  22
BRANCH  19  25
ATOM     25  O   UNL     1      19.722  30.595  15.798  1.00  0.00    -0.350 OA
BRANCH  25  26
ATOM     26  C   UNL     1      20.997  30.856  15.431  1.00  0.00     0.169 C 
BRANCH  26  27
ATOM     27  C   UNL     1      21.791  31.798  16.266  1.00  0.00     0.119 C 
BRANCH  27  28
ATOM     28  N   UNL     1      21.256  33.122  16.291  1.00  0.00    -0.092 NA
ATOM     29  N   UNL     1      20.487  33.460  17.187  1.00  0.00     0.001 N 
ATOM     30  N   UNL     1      20.127  34.001  18.246  1.00  0.00    -0.003 NA
ENDBRANCH  27  28
ENDBRANCH  26  27
ENDBRANCH  25  26
ENDBRANCH  19  25
BRANCH  20  31
ATOM     31  O   UNL     1      18.245  31.509  18.622  1.00  0.00    -0.387 OA
ATOM     32  H   UNL     1      18.403  31.391  19.587  1.00  0.00     0.211 HD
ENDBRANCH  20  31
BRANCH  21  33
ATOM     33  O   UNL     1      18.889  28.089  18.195  1.00  0.00    -0.385 OA
ATOM     34  H   UNL     1      18.276  28.068  18.986  1.00  0.00     0.211 HD
ENDBRANCH  21  33
ENDBRANCH  15  16
ENDBRANCH  10  15
BRANCH  12  35
ATOM     35  O   UNL     1      14.170  33.441  15.452  1.00  0.00    -0.385 OA
ATOM     36  H   UNL     1      14.447  33.405  14.512  1.00  0.00     0.211 HD
ENDBRANCH  12  35
BRANCH  13  37
ATOM     37  O   UNL     1      12.765  30.702  17.249  1.00  0.00    -0.387 OA
ATOM     38  H   UNL     1      13.569  30.360  17.726  1.00  0.00     0.211 HD
ENDBRANCH  13  37
BRANCH  14  39
ATOM     39  O   UNL     1      12.248  32.593  19.083  1.00  0.00    -0.387 OA
ATOM     40  H   UNL     1      12.724  32.356  19.922  1.00  0.00     0.211 HD
ENDBRANCH  14  39
ENDBRANCH   8   9
ENDBRANCH   7   8
ENDBRANCH   1   7
BRANCH   1  41
ATOM     41  C   UNL     1      14.821  28.815  19.599  1.00  0.00     0.364 C 
ATOM     42  O   UNL     1      15.676  27.988  19.965  1.00  0.00    -0.246 OA
BRANCH  41  43
ATOM     43  O   UNL     1      14.297  28.746  18.334  1.00  0.00    -0.477 OA
ATOM     44  H   UNL     1      14.760  29.132  17.526  1.00  0.00     0.296 HD
ENDBRANCH  41  43
ENDBRANCH   1  41
BRANCH   3  45
ATOM     45  O   UNL     1      11.989  30.961  22.554  1.00  0.00    -0.391 OA
ATOM     46  H   UNL     1      12.308  31.846  22.860  1.00  0.00     0.211 HD
ENDBRANCH   3  45
BRANCH   5  47
ATOM     47  C   UNL     1      16.733  30.349  23.240  1.00  0.00     0.176 C 
BRANCH  47  48
ATOM     48  O   UNL     1      17.192  29.454  24.158  1.00  0.00    -0.388 OA
ATOM     49  H   UNL     1      16.832  28.558  24.149  1.00  0.00     0.211 HD
ENDBRANCH  47  48
BRANCH  47  50
ATOM     50  C   UNL     1      17.784  30.621  22.198  1.00  0.00     0.165 C 
BRANCH  50  51
ATOM     51  O   UNL     1      18.028  29.385  21.550  1.00  0.00    -0.388 OA
ATOM     52  H   UNL     1      17.157  28.941  21.361  1.00  0.00     0.211 HD
ENDBRANCH  50  51
BRANCH  50  53
ATOM     53  C   UNL     1      19.097  31.073  22.742  1.00  0.00     0.154 C 
BRANCH  53  54
ATOM     54  N   UNL     1      20.132  30.093  22.773  1.00  0.00    -0.319 N 
ATOM     55  C   UNL     1      20.545  29.441  23.966  1.00  0.00     0.407 C 
ATOM     56  H   UNL     1      20.639  29.816  21.888  1.00  0.00     0.167 HD
ATOM     57  O   UNL     1      19.990  29.729  25.036  1.00  0.00    -0.225 OA
BRANCH  55  58
ATOM     58  O   UNL     1      21.563  28.481  23.969  1.00  0.00    -0.443 OA
BRANCH  58  59
ATOM     59  C   UNL     1      21.393  27.202  23.436  1.00  0.00     0.294 C 
BRANCH  59  60
ATOM     60  C   UNL     1      21.443  27.127  21.971  1.00  0.00     0.120 A 
ATOM     61  C   UNL     1      22.551  26.753  21.253  1.00  0.00     0.139 A 
ATOM     62  N   UNL     1      20.441  27.404  21.128  1.00  0.00    -0.132 NA
ATOM     63  N   UNL     1      22.192  26.813  19.969  1.00  0.00    -0.237 N 
ATOM     64  N   UNL     1      20.917  27.206  19.910  1.00  0.00    -0.066 NA
BRANCH  63  65
ATOM     65  C   UNL     1      23.052  26.500  18.843  1.00  0.00     0.223 C 
BRANCH  65  66
ATOM     66  C   UNL     1      22.941  25.039  18.552  1.00  0.00     0.197 C 
BRANCH  66  67
ATOM     67  O   UNL     1      24.066  24.550  17.936  1.00  0.00    -0.382 OA
ATOM     68  C   UNL     1      23.755  23.840  16.807  1.00  0.00     0.195 C 
ENDBRANCH  66  67
ENDBRANCH  65  66
BRANCH  65  69
ATOM     69  C   UNL     1      22.546  27.311  17.685  1.00  0.00     0.244 C 
ATOM     70  O   UNL     1      21.882  26.738  16.798  1.00  0.00    -0.273 OA
ATOM     71  N   UNL     1      22.838  28.697  17.637  1.00  0.00    -0.368 N 
ATOM     72  H   UNL     1      23.524  29.125  16.994  1.00  0.00     0.159 HD
ATOM     73  H   UNL     1      22.325  29.320  18.298  1.00  0.00     0.159 HD
ENDBRANCH  65  69
ENDBRANCH  63  65
ENDBRANCH  59  60
ENDBRANCH  58  59
ENDBRANCH  55  58
ENDBRANCH  53  54
ENDBRANCH  50  53
ENDBRANCH  47  50
ENDBRANCH   5  47
BRANCH   4  74
ATOM     74  N   UNL     1      14.302  30.451  24.702  1.00  0.00    -0.348 N 
ATOM     75  C   UNL     1      13.726  31.381  25.609  1.00  0.00     0.217 C 
ATOM     76  H   UNL     1      14.768  29.612  25.131  1.00  0.00     0.163 HD
ATOM     77  C   UNL     1      13.749  31.238  27.074  1.00  0.00     0.114 C 
ATOM     78  O   UNL     1      13.152  32.404  25.103  1.00  0.00    -0.275 OA
ENDBRANCH   4  74
TORSDOF 33
