REMARK VINA RESULT:    -5.207     12.083     16.600
REMARK INTER + INTRA:         -20.121
REMARK INTER:                 -11.512
REMARK INTRA:                  -8.609
REMARK UNBOUND:                -6.390
REMARK SMILES CCOC(=O)Cn1cc(COC(=O)NC[C@@H](O)C(O)[C@@H]2O[C@@](OC[C@H]3O[C@@H](O[C@H]4[C@H](O)[C@@H](O)[C@H](OCCN=[N+]=[N-])O[C@@H]4CO)[C@H](O)[C@@H](O)[C@H]3O)(C(=O)O)C[C@H](O)[C@H]2NC(C)=O)nn1
REMARK SMILES IDX 18 1 20 2 22 3 54 4 21 5 55 6 57 7 23 8 24 9 25 10 27 11
REMARK SMILES IDX 26 12 45 13 47 14 49 15 28 16 29 17 42 18 41 19 34 20 30 21
REMARK SMILES IDX 32 22 43 23 44 24 35 26 36 27 37 28 38 29 39 30 40 31 31 32
REMARK SMILES IDX 33 34 46 36 48 38 50 40 51 42 52 43 53 44 56 46 58 48 59 49
REMARK SMILES IDX 60 51 61 52 19 53 16 55 17 56 15 58 14 59 12 60 13 62 11 63
REMARK SMILES IDX 10 64 9 65 8 66 62 67 7 68 63 69 6 70 4 71 5 72 3 73 2 74
REMARK SMILES IDX 1 75
REMARK H PARENT 44 25 31 33 33 35 46 37 48 39 50 41 53 45 56 47 58 50 19 54
REMARK H PARENT 17 57 14 61
REMARK Flexibility Score: inf
ROOT
ATOM      1  C   UNL     1      20.222  19.685   7.724  1.00  0.00     0.176 C 
ENDROOT
BRANCH   1   2
ATOM      2  C   UNL     1      21.058  20.835   8.212  1.00  0.00     0.178 C 
ATOM      3  C   UNL     1      23.287  21.510   8.422  1.00  0.00     0.272 C 
ATOM      4  C   UNL     1      22.680  22.553   9.295  1.00  0.00     0.113 C 
ATOM      5  O   UNL     1      22.315  20.820   7.666  1.00  0.00    -0.332 OA
ATOM      6  C   UNL     1      21.651  22.032  10.246  1.00  0.00     0.145 C 
ATOM      7  C   UNL     1      21.155  20.694   9.721  1.00  0.00     0.142 C 
BRANCH   3   8
ATOM      8  O   UNL     1      24.083  20.586   9.064  1.00  0.00    -0.338 OA
BRANCH   8   9
ATOM      9  C   UNL     1      24.647  19.599   8.331  1.00  0.00     0.199 C 
BRANCH   9  10
ATOM     10  C   UNL     1      24.878  18.386   9.253  1.00  0.00     0.179 C 
ATOM     11  C   UNL     1      24.817  17.710  11.471  1.00  0.00     0.282 C 
ATOM     12  O   UNL     1      24.874  18.744  10.563  1.00  0.00    -0.341 OA
ATOM     13  C   UNL     1      23.713  16.731  11.208  1.00  0.00     0.202 C 
ATOM     14  C   UNL     1      23.974  16.129   9.851  1.00  0.00     0.179 C 
ATOM     15  C   UNL     1      23.979  17.250   8.866  1.00  0.00     0.177 C 
BRANCH  11  16
ATOM     16  O   UNL     1      24.711  18.143  12.781  1.00  0.00    -0.341 OA
BRANCH  16  17
ATOM     17  C   UNL     1      24.826  19.497  12.965  1.00  0.00     0.184 C 
ATOM     18  C   UNL     1      26.189  19.922  13.469  1.00  0.00     0.178 C 
ATOM     19  O   UNL     1      26.132  20.369  14.782  1.00  0.00    -0.341 OA
ATOM     20  C   UNL     1      25.378  21.559  14.904  1.00  0.00     0.281 C 
ATOM     21  C   UNL     1      23.774  19.965  13.970  1.00  0.00     0.180 C 
ATOM     22  C   UNL     1      24.052  21.439  14.222  1.00  0.00     0.202 C 
BRANCH  18  23
ATOM     23  C   UNL     1      26.808  20.912  12.517  1.00  0.00     0.191 C 
BRANCH  23  24
ATOM     24  O   UNL     1      25.974  21.126  11.404  1.00  0.00    -0.394 OA
ATOM     25  H   UNL     1      26.494  21.352  10.608  1.00  0.00     0.210 HD
ENDBRANCH  23  24
ENDBRANCH  18  23
BRANCH  20  26
ATOM     26  O   UNL     1      26.102  22.638  14.467  1.00  0.00    -0.350 OA
BRANCH  26  27
ATOM     27  C   UNL     1      25.728  23.892  14.812  1.00  0.00     0.169 C 
BRANCH  27  28
ATOM     28  C   UNL     1      25.913  25.003  13.848  1.00  0.00     0.119 C 
BRANCH  28  29
ATOM     29  N   UNL     1      25.121  24.987  12.665  1.00  0.00    -0.092 NA
ATOM     30  N   UNL     1      23.914  24.668  12.698  1.00  0.00     0.001 N 
ATOM     31  N   UNL     1      22.712  24.520  12.981  1.00  0.00    -0.003 NA
ENDBRANCH  28  29
ENDBRANCH  27  28
ENDBRANCH  26  27
ENDBRANCH  20  26
BRANCH  21  32
ATOM     32  O   UNL     1      22.503  19.811  13.410  1.00  0.00    -0.387 OA
ATOM     33  H   UNL     1      22.280  18.831  13.473  1.00  0.00     0.211 HD
ENDBRANCH  21  32
BRANCH  22  34
ATOM     34  O   UNL     1      23.003  21.985  14.966  1.00  0.00    -0.385 OA
ATOM     35  H   UNL     1      23.142  22.934  15.207  1.00  0.00     0.211 HD
ENDBRANCH  22  34
ENDBRANCH  16  17
ENDBRANCH  11  16
BRANCH  13  36
ATOM     36  O   UNL     1      23.749  15.746  12.187  1.00  0.00    -0.385 OA
ATOM     37  H   UNL     1      24.106  14.890  11.906  1.00  0.00     0.211 HD
ENDBRANCH  13  36
BRANCH  14  38
ATOM     38  O   UNL     1      22.901  15.258   9.555  1.00  0.00    -0.387 OA
ATOM     39  H   UNL     1      23.211  14.319   9.563  1.00  0.00     0.211 HD
ENDBRANCH  14  38
BRANCH  15  40
ATOM     40  O   UNL     1      22.641  17.682   8.713  1.00  0.00    -0.387 OA
ATOM     41  H   UNL     1      22.722  18.608   8.353  1.00  0.00     0.211 HD
ENDBRANCH  15  40
ENDBRANCH   9  10
ENDBRANCH   8   9
ENDBRANCH   3   8
BRANCH   3  42
ATOM     42  C   UNL     1      24.093  22.206   7.390  1.00  0.00     0.364 C 
ATOM     43  O   UNL     1      25.036  22.950   7.742  1.00  0.00    -0.246 OA
BRANCH  42  44
ATOM     44  O   UNL     1      23.818  22.048   6.061  1.00  0.00    -0.477 OA
ATOM     45  H   UNL     1      22.867  21.978   5.706  1.00  0.00     0.296 HD
ENDBRANCH  42  44
ENDBRANCH   3  42
BRANCH   6  46
ATOM     46  O   UNL     1      22.053  21.958  11.558  1.00  0.00    -0.391 OA
ATOM     47  H   UNL     1      22.887  21.411  11.605  1.00  0.00     0.211 HD
ENDBRANCH   6  46
BRANCH   7  48
ATOM     48  N   UNL     1      19.864  20.358  10.305  1.00  0.00    -0.348 N 
ATOM     49  C   UNL     1      19.712  19.313  11.247  1.00  0.00     0.217 C 
ATOM     50  H   UNL     1      19.033  20.906  10.023  1.00  0.00     0.163 HD
ATOM     51  C   UNL     1      18.394  18.958  11.852  1.00  0.00     0.114 C 
ATOM     52  O   UNL     1      20.740  18.662  11.580  1.00  0.00    -0.275 OA
ENDBRANCH   7  48
ENDBRANCH   1   2
BRANCH   1  53
ATOM     53  O   UNL     1      18.892  20.048   7.641  1.00  0.00    -0.388 OA
ATOM     54  H   UNL     1      18.319  19.356   7.202  1.00  0.00     0.211 HD
ENDBRANCH   1  53
BRANCH   1  55
ATOM     55  C   UNL     1      20.669  19.157   6.371  1.00  0.00     0.165 C 
BRANCH  55  56
ATOM     56  O   UNL     1      20.409  20.029   5.341  1.00  0.00    -0.388 OA
ATOM     57  H   UNL     1      20.228  19.590   4.478  1.00  0.00     0.211 HD
ENDBRANCH  55  56
BRANCH  55  58
ATOM     58  C   UNL     1      20.024  17.830   6.146  1.00  0.00     0.154 C 
BRANCH  58  59
ATOM     59  N   UNL     1      18.978  17.831   5.185  1.00  0.00    -0.319 N 
ATOM     60  C   UNL     1      19.006  17.154   3.936  1.00  0.00     0.407 C 
ATOM     61  H   UNL     1      18.069  18.379   5.379  1.00  0.00     0.167 HD
ATOM     62  O   UNL     1      19.983  16.477   3.575  1.00  0.00    -0.225 OA
BRANCH  60  63
ATOM     63  O   UNL     1      17.893  17.247   3.083  1.00  0.00    -0.443 OA
BRANCH  63  64
ATOM     64  C   UNL     1      17.887  18.133   2.012  1.00  0.00     0.294 C 
BRANCH  64  65
ATOM     65  C   UNL     1      18.377  19.484   2.343  1.00  0.00     0.120 A 
ATOM     66  C   UNL     1      17.628  20.524   2.861  1.00  0.00     0.139 A 
ATOM     67  N   UNL     1      19.615  19.973   2.203  1.00  0.00    -0.132 NA
ATOM     68  N   UNL     1      18.421  21.610   3.020  1.00  0.00    -0.241 N 
ATOM     69  N   UNL     1      19.616  21.239   2.613  1.00  0.00    -0.066 NA
BRANCH  68  70
ATOM     70  C   UNL     1      17.971  22.897   3.537  1.00  0.00     0.268 C 
BRANCH  70  71
ATOM     71  C   UNL     1      17.511  22.670   4.955  1.00  0.00     0.327 C 
ATOM     72  O   UNL     1      18.296  22.324   5.858  1.00  0.00    -0.250 OA
BRANCH  71  73
ATOM     73  O   UNL     1      16.185  22.840   5.311  1.00  0.00    -0.465 OA
BRANCH  73  74
ATOM     74  C   UNL     1      15.096  22.607   4.465  1.00  0.00     0.229 C 
ATOM     75  C   UNL     1      14.340  23.866   4.118  1.00  0.00     0.049 C 
ENDBRANCH  73  74
ENDBRANCH  71  73
ENDBRANCH  70  71
ENDBRANCH  68  70
ENDBRANCH  64  65
ENDBRANCH  63  64
ENDBRANCH  60  63
ENDBRANCH  58  59
ENDBRANCH  55  58
ENDBRANCH   1  55
TORSDOF 33
