REMARK VINA RESULT:    -5.375      3.897      5.530
REMARK INTER + INTRA:         -20.000
REMARK INTER:                 -12.475
REMARK INTRA:                  -7.525
REMARK UNBOUND:                -6.769
REMARK SMILES CC(=O)N[C@@H]1[C@@H](O)C[C@](OC[C@H]2O[C@@H](O[C@H]3[C@H](O)[C@@H](O)[C@H](OCCN=[N+]=[N-])O[C@@H]3CO)[C@H](O)[C@@H](O)[C@H]2O)(C(=O)O)O[C@H]1C(O)[C@H](O)CNC(=O)OCc1cn(-c2cccnc2)nn1
REMARK SMILES IDX 9 1 8 2 6 3 5 4 42 5 41 6 10 7 11 8 12 9 14 10 13 11 32 12
REMARK SMILES IDX 34 13 36 14 15 15 16 16 29 17 28 18 21 19 17 20 19 21 30 22
REMARK SMILES IDX 31 23 22 25 23 26 24 27 25 28 26 29 27 30 18 31 20 33 33 35
REMARK SMILES IDX 35 37 37 39 38 41 39 42 40 43 7 45 43 47 44 48 45 50 46 51
REMARK SMILES IDX 47 53 48 54 49 55 50 57 51 58 52 59 53 60 54 61 63 62 55 63
REMARK SMILES IDX 62 64 56 65 57 66 61 67 58 68 60 69 59 70 4 71 2 72 1 74
REMARK SMILES IDX 3 75
REMARK H PARENT 31 24 18 32 20 34 33 36 35 38 37 40 40 44 7 46 44 49 46 52
REMARK H PARENT 48 56 4 73
REMARK Flexibility Score: inf
ROOT
ATOM      1  C   UNL     1      15.958  30.398  20.393  1.00  0.00     0.272 C 
ATOM      2  C   UNL     1      16.094  28.931  20.469  1.00  0.00     0.113 C 
ATOM      3  C   UNL     1      15.811  28.271  19.165  1.00  0.00     0.145 C 
ATOM      4  C   UNL     1      16.358  29.007  17.968  1.00  0.00     0.142 C 
ATOM      5  C   UNL     1      17.085  30.254  18.321  1.00  0.00     0.178 C 
ATOM      6  O   UNL     1      16.410  31.033  19.251  1.00  0.00    -0.332 OA
ENDROOT
BRANCH   1   7
ATOM      7  O   UNL     1      16.621  31.046  21.434  1.00  0.00    -0.338 OA
BRANCH   7   8
ATOM      8  C   UNL     1      17.524  30.317  22.139  1.00  0.00     0.199 C 
BRANCH   8   9
ATOM      9  C   UNL     1      18.804  31.169  22.244  1.00  0.00     0.179 C 
ATOM     10  C   UNL     1      18.858  31.253  24.585  1.00  0.00     0.282 C 
ATOM     11  O   UNL     1      18.788  31.899  23.370  1.00  0.00    -0.341 OA
ATOM     12  C   UNL     1      19.866  30.157  24.533  1.00  0.00     0.202 C 
ATOM     13  C   UNL     1      20.822  30.463  23.370  1.00  0.00     0.179 C 
ATOM     14  C   UNL     1      20.049  30.317  22.069  1.00  0.00     0.177 C 
BRANCH  10  15
ATOM     15  O   UNL     1      17.564  30.831  24.881  1.00  0.00    -0.341 OA
BRANCH  15  16
ATOM     16  C   UNL     1      17.000  31.446  25.950  1.00  0.00     0.184 C 
ATOM     17  C   UNL     1      16.213  32.686  25.657  1.00  0.00     0.178 C 
ATOM     18  O   UNL     1      15.282  32.840  26.685  1.00  0.00    -0.341 OA
ATOM     19  C   UNL     1      15.811  32.626  27.953  1.00  0.00     0.281 C 
ATOM     20  C   UNL     1      18.014  31.882  27.003  1.00  0.00     0.180 C 
ATOM     21  C   UNL     1      17.311  32.804  28.008  1.00  0.00     0.202 C 
BRANCH  17  22
ATOM     22  C   UNL     1      15.516  32.736  24.348  1.00  0.00     0.191 C 
BRANCH  22  23
ATOM     23  O   UNL     1      14.919  31.548  24.018  1.00  0.00    -0.394 OA
ATOM     24  H   UNL     1      15.222  31.301  23.107  1.00  0.00     0.210 HD
ENDBRANCH  22  23
ENDBRANCH  17  22
BRANCH  19  25
ATOM     25  O   UNL     1      15.486  31.412  28.483  1.00  0.00    -0.350 OA
BRANCH  25  26
ATOM     26  C   UNL     1      15.412  31.256  29.821  1.00  0.00     0.169 C 
BRANCH  26  27
ATOM     27  C   UNL     1      16.039  30.054  30.434  1.00  0.00     0.119 C 
BRANCH  27  28
ATOM     28  N   UNL     1      17.452  29.935  30.323  1.00  0.00    -0.092 NA
ATOM     29  N   UNL     1      18.157  29.416  31.214  1.00  0.00     0.001 N 
ATOM     30  N   UNL     1      18.776  29.407  32.292  1.00  0.00    -0.003 NA
ENDBRANCH  27  28
ENDBRANCH  26  27
ENDBRANCH  25  26
ENDBRANCH  19  25
BRANCH  20  31
ATOM     31  O   UNL     1      18.449  30.769  27.710  1.00  0.00    -0.387 OA
ATOM     32  H   UNL     1      19.056  31.003  28.460  1.00  0.00     0.211 HD
ENDBRANCH  20  31
BRANCH  21  33
ATOM     33  O   UNL     1      17.654  34.140  27.808  1.00  0.00    -0.385 OA
ATOM     34  H   UNL     1      17.948  34.516  28.673  1.00  0.00     0.211 HD
ENDBRANCH  21  33
ENDBRANCH  15  16
ENDBRANCH  10  15
BRANCH  12  35
ATOM     35  O   UNL     1      20.693  30.224  25.671  1.00  0.00    -0.385 OA
ATOM     36  H   UNL     1      20.106  30.380  26.472  1.00  0.00     0.211 HD
ENDBRANCH  12  35
BRANCH  13  37
ATOM     37  O   UNL     1      21.959  29.697  23.400  1.00  0.00    -0.387 OA
ATOM     38  H   UNL     1      22.459  29.869  24.237  1.00  0.00     0.211 HD
ENDBRANCH  13  37
BRANCH  14  39
ATOM     39  O   UNL     1      19.766  28.994  21.796  1.00  0.00    -0.387 OA
ATOM     40  H   UNL     1      18.777  28.894  21.791  1.00  0.00     0.211 HD
ENDBRANCH  14  39
ENDBRANCH   8   9
ENDBRANCH   7   8
ENDBRANCH   1   7
BRANCH   1  41
ATOM     41  C   UNL     1      14.485  30.711  20.558  1.00  0.00     0.364 C 
ATOM     42  O   UNL     1      13.852  31.119  19.570  1.00  0.00    -0.246 OA
BRANCH  41  43
ATOM     43  O   UNL     1      13.820  30.565  21.751  1.00  0.00    -0.477 OA
ATOM     44  H   UNL     1      13.594  29.681  22.189  1.00  0.00     0.296 HD
ENDBRANCH  41  43
ENDBRANCH   1  41
BRANCH   3  45
ATOM     45  O   UNL     1      16.381  26.979  19.244  1.00  0.00    -0.391 OA
ATOM     46  H   UNL     1      16.760  26.689  18.392  1.00  0.00     0.211 HD
ENDBRANCH   3  45
BRANCH   5  47
ATOM     47  C   UNL     1      18.527  30.090  18.665  1.00  0.00     0.176 C 
BRANCH  47  48
ATOM     48  O   UNL     1      19.219  31.224  18.166  1.00  0.00    -0.388 OA
ATOM     49  H   UNL     1      18.921  32.025  18.678  1.00  0.00     0.211 HD
ENDBRANCH  47  48
BRANCH  47  50
ATOM     50  C   UNL     1      19.227  28.899  18.091  1.00  0.00     0.165 C 
BRANCH  50  51
ATOM     51  O   UNL     1      19.334  28.026  19.257  1.00  0.00    -0.388 OA
ATOM     52  H   UNL     1      18.648  28.365  19.882  1.00  0.00     0.211 HD
ENDBRANCH  50  51
BRANCH  50  53
ATOM     53  C   UNL     1      20.661  29.104  17.720  1.00  0.00     0.154 C 
BRANCH  53  54
ATOM     54  N   UNL     1      21.558  28.024  17.979  1.00  0.00    -0.319 N 
ATOM     55  C   UNL     1      22.401  28.115  19.149  1.00  0.00     0.407 C 
ATOM     56  H   UNL     1      21.662  27.175  17.434  1.00  0.00     0.167 HD
ATOM     57  O   UNL     1      22.296  29.128  19.870  1.00  0.00    -0.225 OA
BRANCH  55  58
ATOM     58  O   UNL     1      23.295  27.126  19.472  1.00  0.00    -0.443 OA
BRANCH  58  59
ATOM     59  C   UNL     1      22.831  25.857  19.863  1.00  0.00     0.294 C 
BRANCH  59  60
ATOM     60  C   UNL     1      22.260  25.956  21.223  1.00  0.00     0.121 A 
ATOM     61  C   UNL     1      22.863  25.734  22.440  1.00  0.00     0.144 A 
ATOM     62  N   UNL     1      20.973  26.301  21.525  1.00  0.00    -0.131 NA
ATOM     63  N   UNL     1      21.970  25.942  23.421  1.00  0.00    -0.219 N 
ATOM     64  N   UNL     1      20.837  26.283  22.834  1.00  0.00    -0.062 NA
BRANCH  63  65
ATOM     65  C   UNL     1      22.100  25.848  24.836  1.00  0.00     0.085 A 
ATOM     66  C   UNL     1      22.645  24.746  25.461  1.00  0.00     0.031 A 
ATOM     67  C   UNL     1      21.672  26.872  25.658  1.00  0.00     0.139 A 
ATOM     68  C   UNL     1      22.753  24.675  26.832  1.00  0.00     0.022 A 
ATOM     69  N   UNL     1      21.784  26.790  27.007  1.00  0.00    -0.262 NA
ATOM     70  C   UNL     1      22.314  25.716  27.617  1.00  0.00     0.111 A 
ENDBRANCH  63  65
ENDBRANCH  59  60
ENDBRANCH  58  59
ENDBRANCH  55  58
ENDBRANCH  53  54
ENDBRANCH  50  53
ENDBRANCH  47  50
ENDBRANCH   5  47
BRANCH   4  71
ATOM     71  N   UNL     1      15.291  29.308  17.018  1.00  0.00    -0.348 N 
ATOM     72  C   UNL     1      15.437  29.226  15.612  1.00  0.00     0.217 C 
ATOM     73  H   UNL     1      14.339  29.608  17.365  1.00  0.00     0.163 HD
ATOM     74  C   UNL     1      14.314  29.551  14.677  1.00  0.00     0.114 C 
ATOM     75  O   UNL     1      16.537  28.871  15.109  1.00  0.00    -0.275 OA
ENDBRANCH   4  71
TORSDOF 30
