REMARK VINA RESULT:    -5.096      5.149     10.933
REMARK INTER + INTRA:         -23.629
REMARK INTER:                 -10.038
REMARK INTRA:                 -13.591
REMARK UNBOUND:                -9.744
REMARK SMILES CC(=O)N[C@@H]1[C@@H](O)C[C@](OC[C@H]2O[C@@H](O[C@H]3[C@H](O)[C@@H](O)[C@H](OCCN=[N+]=[N-])O[C@@H]3CO)[C@H](O)[C@@H](O)[C@H]2O)(C(=O)O)O[C@H]1C(O)[C@H](O)CNC(=O)OCc1cn(CC(O)Cn2ccnc2[N+](=O)[O-])nn1
REMARK SMILES IDX 43 1 42 2 9 3 8 4 41 5 6 6 5 7 10 8 11 9 12 10 14 11 13 12
REMARK SMILES IDX 32 13 34 14 36 15 15 16 16 17 29 18 28 19 21 20 17 21 19 22
REMARK SMILES IDX 30 23 31 24 22 26 23 27 24 28 25 29 26 30 27 31 18 32 20 34
REMARK SMILES IDX 33 36 35 38 37 40 38 42 39 43 40 44 7 46 4 48 2 49 1 51 3 52
REMARK SMILES IDX 44 53 45 55 46 56 47 58 48 59 49 60 50 62 51 63 52 64 53 65
REMARK SMILES IDX 54 66 69 67 55 68 68 69 56 70 57 71 58 72 59 74 60 75 61 76
REMARK SMILES IDX 64 77 62 78 63 79 65 80 66 81 67 82
REMARK H PARENT 31 25 18 33 20 35 33 37 35 39 37 41 40 45 7 47 4 50 44 54
REMARK H PARENT 46 57 48 61 58 73
REMARK Flexibility Score: inf
ROOT
ATOM      1  C   UNL     1      24.581  27.679  30.560  1.00  0.00     0.176 C 
ENDROOT
BRANCH   1   2
ATOM      2  C   UNL     1      23.500  28.533  29.830  1.00  0.00     0.178 C 
ATOM      3  C   UNL     1      21.981  28.133  28.132  1.00  0.00     0.272 C 
ATOM      4  C   UNL     1      22.292  29.469  27.524  1.00  0.00     0.113 C 
ATOM      5  O   UNL     1      23.082  27.650  28.832  1.00  0.00    -0.332 OA
ATOM      6  C   UNL     1      23.754  29.846  27.727  1.00  0.00     0.145 C 
ATOM      7  C   UNL     1      24.139  29.697  29.193  1.00  0.00     0.142 C 
BRANCH   3   8
ATOM      8  O   UNL     1      21.740  27.145  27.185  1.00  0.00    -0.338 OA
BRANCH   8   9
ATOM      9  C   UNL     1      22.349  25.954  27.307  1.00  0.00     0.199 C 
BRANCH   9  10
ATOM     10  C   UNL     1      23.229  25.598  26.124  1.00  0.00     0.179 C 
ATOM     11  C   UNL     1      23.583  26.006  23.957  1.00  0.00     0.282 C 
ATOM     12  O   UNL     1      23.276  26.657  25.177  1.00  0.00    -0.341 OA
ATOM     13  C   UNL     1      24.910  25.295  24.054  1.00  0.00     0.202 C 
ATOM     14  C   UNL     1      25.589  25.796  25.328  1.00  0.00     0.179 C 
ATOM     15  C   UNL     1      24.681  25.387  26.491  1.00  0.00     0.177 C 
BRANCH  11  16
ATOM     16  O   UNL     1      23.600  26.886  22.895  1.00  0.00    -0.341 OA
BRANCH  16  17
ATOM     17  C   UNL     1      22.472  27.668  22.985  1.00  0.00     0.184 C 
ATOM     18  C   UNL     1      21.590  27.621  21.746  1.00  0.00     0.178 C 
ATOM     19  O   UNL     1      20.358  28.122  22.177  1.00  0.00    -0.341 OA
ATOM     20  C   UNL     1      20.372  29.450  22.505  1.00  0.00     0.281 C 
ATOM     21  C   UNL     1      22.806  29.142  23.163  1.00  0.00     0.180 C 
ATOM     22  C   UNL     1      21.582  29.977  23.184  1.00  0.00     0.202 C 
BRANCH  18  23
ATOM     23  C   UNL     1      21.444  26.266  21.153  1.00  0.00     0.191 C 
BRANCH  23  24
ATOM     24  O   UNL     1      20.707  25.481  22.032  1.00  0.00    -0.394 OA
ATOM     25  H   UNL     1      19.739  25.476  21.827  1.00  0.00     0.210 HD
ENDBRANCH  23  24
ENDBRANCH  18  23
BRANCH  20  26
ATOM     26  O   UNL     1      19.284  29.641  23.400  1.00  0.00    -0.350 OA
BRANCH  26  27
ATOM     27  C   UNL     1      18.366  30.546  22.933  1.00  0.00     0.169 C 
BRANCH  27  28
ATOM     28  C   UNL     1      17.588  31.034  24.164  1.00  0.00     0.119 C 
BRANCH  28  29
ATOM     29  N   UNL     1      18.416  31.768  25.071  1.00  0.00    -0.092 NA
ATOM     30  N   UNL     1      18.468  31.482  26.289  1.00  0.00     0.001 N 
ATOM     31  N   UNL     1      18.951  31.139  27.356  1.00  0.00    -0.003 NA
ENDBRANCH  28  29
ENDBRANCH  27  28
ENDBRANCH  26  27
ENDBRANCH  20  26
BRANCH  21  32
ATOM     32  O   UNL     1      23.494  29.312  24.382  1.00  0.00    -0.387 OA
ATOM     33  H   UNL     1      24.287  29.837  24.174  1.00  0.00     0.211 HD
ENDBRANCH  21  32
BRANCH  22  34
ATOM     34  O   UNL     1      21.920  31.187  22.525  1.00  0.00    -0.385 OA
ATOM     35  H   UNL     1      22.609  31.028  21.828  1.00  0.00     0.211 HD
ENDBRANCH  22  34
ENDBRANCH  16  17
ENDBRANCH  11  16
BRANCH  13  36
ATOM     36  O   UNL     1      24.675  23.923  24.125  1.00  0.00    -0.385 OA
ATOM     37  H   UNL     1      25.118  23.438  23.374  1.00  0.00     0.211 HD
ENDBRANCH  13  36
BRANCH  14  38
ATOM     38  O   UNL     1      25.564  27.178  25.291  1.00  0.00    -0.387 OA
ATOM     39  H   UNL     1      25.377  27.536  26.176  1.00  0.00     0.211 HD
ENDBRANCH  14  38
BRANCH  15  40
ATOM     40  O   UNL     1      25.079  26.157  27.561  1.00  0.00    -0.387 OA
ATOM     41  H   UNL     1      25.539  25.625  28.258  1.00  0.00     0.211 HD
ENDBRANCH  15  40
ENDBRANCH   9  10
ENDBRANCH   8   9
ENDBRANCH   3   8
BRANCH   3  42
ATOM     42  C   UNL     1      20.836  28.221  29.048  1.00  0.00     0.364 C 
ATOM     43  O   UNL     1      20.446  27.220  29.744  1.00  0.00    -0.246 OA
BRANCH  42  44
ATOM     44  O   UNL     1      20.087  29.366  29.236  1.00  0.00    -0.477 OA
ATOM     45  H   UNL     1      19.077  29.412  29.073  1.00  0.00     0.296 HD
ENDBRANCH  42  44
ENDBRANCH   3  42
BRANCH   6  46
ATOM     46  O   UNL     1      24.593  29.127  26.898  1.00  0.00    -0.391 OA
ATOM     47  H   UNL     1      24.310  29.182  25.951  1.00  0.00     0.211 HD
ENDBRANCH   6  46
BRANCH   7  48
ATOM     48  N   UNL     1      24.076  30.957  29.862  1.00  0.00    -0.348 N 
ATOM     49  C   UNL     1      24.877  31.435  30.893  1.00  0.00     0.217 C 
ATOM     50  H   UNL     1      23.301  31.671  29.525  1.00  0.00     0.163 HD
ATOM     51  C   UNL     1      24.680  32.830  31.461  1.00  0.00     0.114 C 
ATOM     52  O   UNL     1      25.788  30.788  31.415  1.00  0.00    -0.275 OA
ENDBRANCH   7  48
ENDBRANCH   1   2
BRANCH   1  53
ATOM     53  O   UNL     1      25.832  28.053  30.009  1.00  0.00    -0.388 OA
ATOM     54  H   UNL     1      26.174  27.395  29.385  1.00  0.00     0.211 HD
ENDBRANCH   1  53
BRANCH   1  55
ATOM     55  C   UNL     1      24.396  26.236  30.481  1.00  0.00     0.165 C 
BRANCH  55  56
ATOM     56  O   UNL     1      23.195  25.722  30.898  1.00  0.00    -0.388 OA
ATOM     57  H   UNL     1      22.784  26.212  31.645  1.00  0.00     0.211 HD
ENDBRANCH  55  56
BRANCH  55  58
ATOM     58  C   UNL     1      25.539  25.443  31.160  1.00  0.00     0.154 C 
BRANCH  58  59
ATOM     59  N   UNL     1      26.579  25.309  30.147  1.00  0.00    -0.319 N 
ATOM     60  C   UNL     1      27.964  25.209  30.500  1.00  0.00     0.407 C 
ATOM     61  H   UNL     1      26.329  25.283  29.133  1.00  0.00     0.167 HD
ATOM     62  O   UNL     1      28.298  25.234  31.704  1.00  0.00    -0.225 OA
BRANCH  60  63
ATOM     63  O   UNL     1      28.944  25.088  29.537  1.00  0.00    -0.443 OA
BRANCH  63  64
ATOM     64  C   UNL     1      29.798  26.089  29.073  1.00  0.00     0.294 C 
BRANCH  64  65
ATOM     65  C   UNL     1      29.014  27.151  28.394  1.00  0.00     0.120 A 
ATOM     66  C   UNL     1      29.423  28.447  28.142  1.00  0.00     0.138 A 
ATOM     67  N   UNL     1      27.774  27.083  27.886  1.00  0.00    -0.132 NA
ATOM     68  N   UNL     1      28.425  29.101  27.497  1.00  0.00    -0.249 N 
ATOM     69  N   UNL     1      27.441  28.251  27.357  1.00  0.00    -0.067 NA
BRANCH  68  70
ATOM     70  C   UNL     1      28.542  30.484  27.044  1.00  0.00     0.181 C 
BRANCH  70  71
ATOM     71  C   UNL     1      27.229  31.150  27.448  1.00  0.00     0.170 C 
BRANCH  71  72
ATOM     72  O   UNL     1      27.198  31.262  28.818  1.00  0.00    -0.388 OA
ATOM     73  H   UNL     1      26.874  32.157  29.080  1.00  0.00     0.211 HD
ENDBRANCH  71  72
BRANCH  71  74
ATOM     74  C   UNL     1      27.068  32.460  26.739  1.00  0.00     0.239 C 
BRANCH  74  75
ATOM     75  N   UNL     1      25.789  32.488  26.048  1.00  0.00    -0.227 N 
ATOM     76  C   UNL     1      24.722  33.207  26.525  1.00  0.00     0.204 A 
ATOM     77  C   UNL     1      25.445  31.890  24.907  1.00  0.00     0.434 A 
ATOM     78  C   UNL     1      23.689  33.036  25.631  1.00  0.00     0.245 A 
ATOM     79  N   UNL     1      24.150  32.232  24.654  1.00  0.00    -0.074 NA
BRANCH  77  80
ATOM     80  N   UNL     1      26.257  31.046  24.110  1.00  0.00    -0.047 N 
ATOM     81  O   UNL     1      26.922  31.515  23.133  1.00  0.00    -0.390 OA
ATOM     82  O   UNL     1      26.381  29.700  24.316  1.00  0.00    -0.390 OA
ENDBRANCH  77  80
ENDBRANCH  74  75
ENDBRANCH  71  74
ENDBRANCH  70  71
ENDBRANCH  68  70
ENDBRANCH  64  65
ENDBRANCH  63  64
ENDBRANCH  60  63
ENDBRANCH  58  59
ENDBRANCH  55  58
ENDBRANCH   1  55
TORSDOF 35
