REMARK VINA RESULT:    -6.390      0.000      0.000
REMARK INTER + INTRA:         -23.862
REMARK INTER:                 -14.591
REMARK INTRA:                  -9.271
REMARK UNBOUND:                -7.759
REMARK SMILES CC(=O)N[C@@H]1[C@@H](O)C[C@](OC[C@H]2O[C@@H](O[C@H]3[C@H](O)[C@@H](O)[C@H](OCCN=[N+]=[N-])O[C@@H]3CO)[C@H](O)[C@@H](O)[C@H]2O)(C(=O)O)O[C@H]1C(O)[C@H](O)CNC(=O)OCc1cn(-c2cc(Cl)ccc2C(=O)N(C)C)nn1
REMARK SMILES IDX 9 1 8 2 6 3 5 4 42 5 41 6 10 7 11 8 12 9 14 10 13 11 32 12
REMARK SMILES IDX 34 13 36 14 15 15 16 16 29 17 28 18 21 19 17 20 19 21 30 22
REMARK SMILES IDX 31 23 22 25 23 26 24 27 25 28 26 29 27 30 18 31 20 33 33 35
REMARK SMILES IDX 35 37 37 39 38 41 39 42 40 43 7 45 43 47 44 48 45 50 46 51
REMARK SMILES IDX 47 53 48 54 49 55 50 57 51 58 52 59 53 60 54 61 69 62 55 63
REMARK SMILES IDX 68 64 56 65 57 66 62 67 58 68 61 69 59 70 60 71 63 72 64 73
REMARK SMILES IDX 65 74 66 75 67 76 4 77 2 78 1 80 3 81
REMARK H PARENT 31 24 18 32 20 34 33 36 35 38 37 40 40 44 7 46 44 49 46 52
REMARK H PARENT 48 56 4 79
REMARK Flexibility Score: inf
ROOT
ATOM      1  C   UNL     1      15.569  30.031  19.810  1.00  0.00     0.272 C 
ATOM      2  C   UNL     1      15.234  28.946  18.858  1.00  0.00     0.113 C 
ATOM      3  C   UNL     1      16.306  27.886  18.876  1.00  0.00     0.145 C 
ATOM      4  C   UNL     1      17.594  28.567  18.482  1.00  0.00     0.142 C 
ATOM      5  C   UNL     1      17.890  29.715  19.353  1.00  0.00     0.178 C 
ATOM      6  O   UNL     1      16.877  30.348  20.001  1.00  0.00    -0.332 OA
ENDROOT
BRANCH   1   7
ATOM      7  O   UNL     1      15.026  29.800  21.063  1.00  0.00    -0.338 OA
BRANCH   7   8
ATOM      8  C   UNL     1      13.773  29.304  21.148  1.00  0.00     0.199 C 
BRANCH   8   9
ATOM      9  C   UNL     1      13.231  29.515  22.570  1.00  0.00     0.179 C 
ATOM     10  C   UNL     1      14.119  30.045  24.632  1.00  0.00     0.282 C 
ATOM     11  O   UNL     1      14.221  29.210  23.458  1.00  0.00    -0.341 OA
ATOM     12  C   UNL     1      12.656  30.079  25.013  1.00  0.00     0.202 C 
ATOM     13  C   UNL     1      11.844  30.869  24.008  1.00  0.00     0.179 C 
ATOM     14  C   UNL     1      12.554  30.816  22.667  1.00  0.00     0.177 C 
BRANCH  10  15
ATOM     15  O   UNL     1      14.666  31.209  24.296  1.00  0.00    -0.341 OA
BRANCH  15  16
ATOM     16  C   UNL     1      15.920  31.593  24.737  1.00  0.00     0.184 C 
ATOM     17  C   UNL     1      15.898  33.085  24.816  1.00  0.00     0.178 C 
ATOM     18  O   UNL     1      17.149  33.565  25.241  1.00  0.00    -0.341 OA
ATOM     19  C   UNL     1      17.928  33.419  24.041  1.00  0.00     0.281 C 
ATOM     20  C   UNL     1      16.983  31.131  23.774  1.00  0.00     0.180 C 
ATOM     21  C   UNL     1      18.217  31.976  23.857  1.00  0.00     0.202 C 
BRANCH  17  22
ATOM     22  C   UNL     1      14.819  33.571  25.761  1.00  0.00     0.191 C 
BRANCH  22  23
ATOM     23  O   UNL     1      13.674  33.813  25.033  1.00  0.00    -0.394 OA
ATOM     24  H   UNL     1      13.515  33.074  24.394  1.00  0.00     0.210 HD
ENDBRANCH  22  23
ENDBRANCH  17  22
BRANCH  19  25
ATOM     25  O   UNL     1      19.014  34.196  24.158  1.00  0.00    -0.350 OA
BRANCH  25  26
ATOM     26  C   UNL     1      19.375  34.532  25.451  1.00  0.00     0.169 C 
BRANCH  26  27
ATOM     27  C   UNL     1      20.711  33.960  25.878  1.00  0.00     0.119 C 
BRANCH  27  28
ATOM     28  N   UNL     1      20.557  33.089  27.022  1.00  0.00    -0.092 NA
ATOM     29  N   UNL     1      19.885  32.067  26.943  1.00  0.00     0.001 N 
ATOM     30  N   UNL     1      19.245  31.036  26.647  1.00  0.00    -0.003 NA
ENDBRANCH  27  28
ENDBRANCH  26  27
ENDBRANCH  25  26
ENDBRANCH  19  25
BRANCH  20  31
ATOM     31  O   UNL     1      17.374  29.813  24.034  1.00  0.00    -0.387 OA
ATOM     32  H   UNL     1      17.909  29.767  24.880  1.00  0.00     0.211 HD
ENDBRANCH  20  31
BRANCH  21  33
ATOM     33  O   UNL     1      18.966  31.789  22.697  1.00  0.00    -0.385 OA
ATOM     34  H   UNL     1      19.160  30.848  22.501  1.00  0.00     0.211 HD
ENDBRANCH  21  33
ENDBRANCH  15  16
ENDBRANCH  10  15
BRANCH  12  35
ATOM     35  O   UNL     1      12.199  28.748  24.947  1.00  0.00    -0.385 OA
ATOM     36  H   UNL     1      12.629  28.253  24.179  1.00  0.00     0.211 HD
ENDBRANCH  12  35
BRANCH  13  37
ATOM     37  O   UNL     1      11.637  32.180  24.344  1.00  0.00    -0.387 OA
ATOM     38  H   UNL     1      12.207  32.495  25.086  1.00  0.00     0.211 HD
ENDBRANCH  13  37
BRANCH  14  39
ATOM     39  O   UNL     1      13.261  31.942  22.352  1.00  0.00    -0.387 OA
ATOM     40  H   UNL     1      13.666  32.409  23.116  1.00  0.00     0.211 HD
ENDBRANCH  14  39
ENDBRANCH   8   9
ENDBRANCH   7   8
ENDBRANCH   1   7
BRANCH   1  41
ATOM     41  C   UNL     1      14.850  31.309  19.339  1.00  0.00     0.364 C 
ATOM     42  O   UNL     1      14.228  31.216  18.257  1.00  0.00    -0.246 OA
BRANCH  41  43
ATOM     43  O   UNL     1      14.871  32.480  20.027  1.00  0.00    -0.477 OA
ATOM     44  H   UNL     1      15.431  33.274  19.809  1.00  0.00     0.296 HD
ENDBRANCH  41  43
ENDBRANCH   1  41
BRANCH   3  45
ATOM     45  O   UNL     1      16.327  27.265  20.092  1.00  0.00    -0.391 OA
ATOM     46  H   UNL     1      15.920  27.714  20.839  1.00  0.00     0.211 HD
ENDBRANCH   3  45
BRANCH   5  47
ATOM     47  C   UNL     1      18.977  29.481  20.395  1.00  0.00     0.176 C 
BRANCH  47  48
ATOM     48  O   UNL     1      18.517  29.228  21.656  1.00  0.00    -0.388 OA
ATOM     49  H   UNL     1      17.528  29.230  21.751  1.00  0.00     0.211 HD
ENDBRANCH  47  48
BRANCH  47  50
ATOM     50  C   UNL     1      20.037  28.513  20.018  1.00  0.00     0.165 C 
BRANCH  50  51
ATOM     51  O   UNL     1      20.400  27.665  21.091  1.00  0.00    -0.388 OA
ATOM     52  H   UNL     1      20.270  28.115  21.959  1.00  0.00     0.211 HD
ENDBRANCH  50  51
BRANCH  50  53
ATOM     53  C   UNL     1      21.320  29.349  19.804  1.00  0.00     0.154 C 
BRANCH  53  54
ATOM     54  N   UNL     1      21.476  30.301  20.868  1.00  0.00    -0.319 N 
ATOM     55  C   UNL     1      22.686  30.415  21.581  1.00  0.00     0.407 C 
ATOM     56  H   UNL     1      20.685  30.951  21.154  1.00  0.00     0.167 HD
ATOM     57  O   UNL     1      23.674  29.702  21.293  1.00  0.00    -0.225 OA
BRANCH  55  58
ATOM     58  O   UNL     1      22.822  31.326  22.636  1.00  0.00    -0.443 OA
BRANCH  58  59
ATOM     59  C   UNL     1      21.940  31.333  23.724  1.00  0.00     0.294 C 
BRANCH  59  60
ATOM     60  C   UNL     1      21.575  29.942  24.130  1.00  0.00     0.121 A 
ATOM     61  C   UNL     1      22.354  29.139  24.988  1.00  0.00     0.144 A 
ATOM     62  N   UNL     1      20.526  29.200  23.811  1.00  0.00    -0.131 NA
ATOM     63  N   UNL     1      21.748  27.971  25.145  1.00  0.00    -0.219 N 
ATOM     64  N   UNL     1      20.630  28.041  24.409  1.00  0.00    -0.062 NA
BRANCH  63  65
ATOM     65  C   UNL     1      22.080  26.815  25.891  1.00  0.00     0.081 A 
ATOM     66  C   UNL     1      21.825  26.793  27.268  1.00  0.00     0.049 A 
ATOM     67  C   UNL     1      22.672  25.697  25.378  1.00  0.00     0.065 A 
ATOM     68  C   UNL     1      22.154  25.724  28.035  1.00  0.00     0.043 A 
ATOM     69  C   UNL     1      23.015  24.587  26.173  1.00  0.00     0.017 A 
ATOM     70  Cl  UNL     1      21.807  25.762  29.758  1.00  0.00    -0.084 Cl
ATOM     71  C   UNL     1      22.750  24.605  27.520  1.00  0.00     0.021 A 
BRANCH  67  72
ATOM     72  C   UNL     1      22.949  25.562  23.945  1.00  0.00     0.255 C 
ATOM     73  O   UNL     1      24.042  25.975  23.506  1.00  0.00    -0.269 OA
ATOM     74  N   UNL     1      22.005  24.981  23.094  1.00  0.00    -0.345 N 
ATOM     75  C   UNL     1      20.730  24.503  23.622  1.00  0.00     0.146 C 
ATOM     76  C   UNL     1      22.260  24.825  21.664  1.00  0.00     0.146 C 
ENDBRANCH  67  72
ENDBRANCH  63  65
ENDBRANCH  59  60
ENDBRANCH  58  59
ENDBRANCH  55  58
ENDBRANCH  53  54
ENDBRANCH  50  53
ENDBRANCH  47  50
ENDBRANCH   5  47
BRANCH   4  77
ATOM     77  N   UNL     1      17.448  28.936  17.071  1.00  0.00    -0.348 N 
ATOM     78  C   UNL     1      18.466  28.714  16.120  1.00  0.00     0.217 C 
ATOM     79  H   UNL     1      16.569  29.382  16.745  1.00  0.00     0.163 HD
ATOM     80  C   UNL     1      18.326  29.085  14.691  1.00  0.00     0.114 C 
ATOM     81  O   UNL     1      19.540  28.175  16.498  1.00  0.00    -0.275 OA
ENDBRANCH   4  77
TORSDOF 31
