REMARK VINA RESULT:    -4.870      9.840     13.980
REMARK INTER + INTRA:         -21.118
REMARK INTER:                 -11.259
REMARK INTRA:                  -9.859
REMARK UNBOUND:                -8.562
REMARK SMILES CC(=O)N[C@@H]1[C@@H](O)C[C@](OC[C@H]2O[C@@H](O[C@H]3[C@H](O)[C@@H](O)[C@H](OCCN=[N+]=[N-])O[C@@H]3CO)[C@H](O)[C@@H](O)[C@H]2O)(C(=O)O)O[C@H]1C(O)[C@H](O)CNC(=O)OCc1cn(Cc2ccc(C#N)cc2)nn1
REMARK SMILES IDX 9 1 8 2 6 3 5 4 42 5 41 6 10 7 11 8 12 9 14 10 13 11 32 12
REMARK SMILES IDX 34 13 36 14 15 15 16 16 29 17 28 18 21 19 17 20 19 21 30 22
REMARK SMILES IDX 31 23 22 25 23 26 24 27 25 28 26 29 27 30 18 31 20 33 33 35
REMARK SMILES IDX 35 37 37 39 38 41 39 42 40 43 7 45 43 47 44 48 45 50 46 51
REMARK SMILES IDX 47 53 48 54 49 55 50 57 51 58 52 59 53 60 54 61 66 62 55 63
REMARK SMILES IDX 65 64 56 65 57 66 58 67 64 68 59 69 63 70 60 71 61 72 62 73
REMARK SMILES IDX 4 74 2 75 1 77 3 78
REMARK H PARENT 31 24 18 32 20 34 33 36 35 38 37 40 40 44 7 46 44 49 46 52
REMARK H PARENT 48 56 4 76
REMARK Flexibility Score: inf
ROOT
ATOM      1  C   UNL     1      22.724  18.048   9.053  1.00  0.00     0.272 C 
ATOM      2  C   UNL     1      22.421  17.573   7.675  1.00  0.00     0.113 C 
ATOM      3  C   UNL     1      21.766  18.570   6.787  1.00  0.00     0.145 C 
ATOM      4  C   UNL     1      20.915  19.499   7.668  1.00  0.00     0.142 C 
ATOM      5  C   UNL     1      20.529  18.693   8.871  1.00  0.00     0.178 C 
ATOM      6  O   UNL     1      21.597  18.563   9.713  1.00  0.00    -0.332 OA
ENDROOT
BRANCH   1   7
ATOM      7  O   UNL     1      23.784  18.921   9.173  1.00  0.00    -0.338 OA
BRANCH   7   8
ATOM      8  C   UNL     1      24.916  18.545   8.533  1.00  0.00     0.199 C 
BRANCH   8   9
ATOM      9  C   UNL     1      26.142  19.348   9.002  1.00  0.00     0.179 C 
ATOM     10  C   UNL     1      26.633  21.307  10.118  1.00  0.00     0.282 C 
ATOM     11  O   UNL     1      25.644  20.562   9.476  1.00  0.00    -0.341 OA
ATOM     12  C   UNL     1      27.194  20.624  11.322  1.00  0.00     0.202 C 
ATOM     13  C   UNL     1      26.564  19.259  11.464  1.00  0.00     0.179 C 
ATOM     14  C   UNL     1      26.773  18.567  10.124  1.00  0.00     0.177 C 
BRANCH  10  15
ATOM     15  O   UNL     1      26.036  22.496  10.532  1.00  0.00    -0.341 OA
BRANCH  15  16
ATOM     16  C   UNL     1      24.820  22.750   9.901  1.00  0.00     0.184 C 
ATOM     17  C   UNL     1      24.838  24.115   9.312  1.00  0.00     0.178 C 
ATOM     18  O   UNL     1      24.271  25.107  10.059  1.00  0.00    -0.341 OA
ATOM     19  C   UNL     1      23.939  24.791  11.352  1.00  0.00     0.281 C 
ATOM     20  C   UNL     1      23.644  22.440  10.770  1.00  0.00     0.180 C 
ATOM     21  C   UNL     1      22.947  23.650  11.335  1.00  0.00     0.202 C 
BRANCH  17  22
ATOM     22  C   UNL     1      24.265  24.059   7.898  1.00  0.00     0.191 C 
BRANCH  22  23
ATOM     23  O   UNL     1      24.473  22.768   7.410  1.00  0.00    -0.394 OA
ATOM     24  H   UNL     1      23.665  22.437   6.912  1.00  0.00     0.210 HD
ENDBRANCH  22  23
ENDBRANCH  17  22
BRANCH  19  25
ATOM     25  O   UNL     1      23.278  25.921  11.876  1.00  0.00    -0.350 OA
BRANCH  25  26
ATOM     26  C   UNL     1      24.157  26.712  12.603  1.00  0.00     0.169 C 
BRANCH  26  27
ATOM     27  C   UNL     1      23.419  27.508  13.661  1.00  0.00     0.119 C 
BRANCH  27  28
ATOM     28  N   UNL     1      23.398  26.830  14.943  1.00  0.00    -0.092 NA
ATOM     29  N   UNL     1      22.697  25.845  15.105  1.00  0.00     0.001 N 
ATOM     30  N   UNL     1      22.409  24.660  15.335  1.00  0.00    -0.003 NA
ENDBRANCH  27  28
ENDBRANCH  26  27
ENDBRANCH  25  26
ENDBRANCH  19  25
BRANCH  20  31
ATOM     31  O   UNL     1      22.726  21.577  10.159  1.00  0.00    -0.387 OA
ATOM     32  H   UNL     1      23.035  21.348   9.234  1.00  0.00     0.211 HD
ENDBRANCH  20  31
BRANCH  21  33
ATOM     33  O   UNL     1      22.443  23.411  12.615  1.00  0.00    -0.385 OA
ATOM     34  H   UNL     1      22.570  22.442  12.793  1.00  0.00     0.211 HD
ENDBRANCH  21  33
ENDBRANCH  15  16
ENDBRANCH  10  15
BRANCH  12  35
ATOM     35  O   UNL     1      28.563  20.475  11.314  1.00  0.00    -0.385 OA
ATOM     36  H   UNL     1      28.914  20.640  10.394  1.00  0.00     0.211 HD
ENDBRANCH  12  35
BRANCH  13  37
ATOM     37  O   UNL     1      25.223  19.429  11.767  1.00  0.00    -0.387 OA
ATOM     38  H   UNL     1      24.603  18.940  11.184  1.00  0.00     0.211 HD
ENDBRANCH  13  37
BRANCH  14  39
ATOM     39  O   UNL     1      26.412  17.242  10.131  1.00  0.00    -0.387 OA
ATOM     40  H   UNL     1      26.487  16.869   9.227  1.00  0.00     0.211 HD
ENDBRANCH  14  39
ENDBRANCH   8   9
ENDBRANCH   7   8
ENDBRANCH   1   7
BRANCH   1  41
ATOM     41  C   UNL     1      23.053  16.824   9.857  1.00  0.00     0.364 C 
ATOM     42  O   UNL     1      22.934  15.701   9.356  1.00  0.00    -0.246 OA
BRANCH  41  43
ATOM     43  O   UNL     1      23.486  16.983  11.152  1.00  0.00    -0.477 OA
ATOM     44  H   UNL     1      24.379  17.389  11.404  1.00  0.00     0.296 HD
ENDBRANCH  41  43
ENDBRANCH   1  41
BRANCH   3  45
ATOM     45  O   UNL     1      22.581  19.252   5.929  1.00  0.00    -0.391 OA
ATOM     46  H   UNL     1      22.793  20.145   6.269  1.00  0.00     0.211 HD
ENDBRANCH   3  45
BRANCH   5  47
ATOM     47  C   UNL     1      19.305  19.256   9.605  1.00  0.00     0.176 C 
BRANCH  47  48
ATOM     48  O   UNL     1      18.201  18.607   9.003  1.00  0.00    -0.388 OA
ATOM     49  H   UNL     1      17.748  18.070   9.699  1.00  0.00     0.211 HD
ENDBRANCH  47  48
BRANCH  47  50
ATOM     50  C   UNL     1      19.327  18.938  11.033  1.00  0.00     0.165 C 
BRANCH  50  51
ATOM     51  O   UNL     1      18.151  18.226  11.419  1.00  0.00    -0.388 OA
ATOM     52  H   UNL     1      17.630  18.905  11.953  1.00  0.00     0.211 HD
ENDBRANCH  50  51
BRANCH  50  53
ATOM     53  C   UNL     1      19.560  20.047  11.981  1.00  0.00     0.154 C 
BRANCH  53  54
ATOM     54  N   UNL     1      20.838  20.503  12.312  1.00  0.00    -0.319 N 
ATOM     55  C   UNL     1      21.938  19.810  12.852  1.00  0.00     0.407 C 
ATOM     56  H   UNL     1      21.039  21.548  12.134  1.00  0.00     0.167 HD
ATOM     57  O   UNL     1      21.923  18.597  13.105  1.00  0.00    -0.225 OA
BRANCH  55  58
ATOM     58  O   UNL     1      23.141  20.476  13.135  1.00  0.00    -0.443 OA
BRANCH  58  59
ATOM     59  C   UNL     1      23.445  20.854  14.467  1.00  0.00     0.294 C 
BRANCH  59  60
ATOM     60  C   UNL     1      24.808  21.494  14.471  1.00  0.00     0.120 A 
ATOM     61  C   UNL     1      25.967  20.840  14.837  1.00  0.00     0.138 A 
ATOM     62  N   UNL     1      25.166  22.751  14.154  1.00  0.00    -0.132 NA
ATOM     63  N   UNL     1      26.994  21.724  14.730  1.00  0.00    -0.248 N 
ATOM     64  N   UNL     1      26.467  22.832  14.325  1.00  0.00    -0.067 NA
BRANCH  63  65
ATOM     65  C   UNL     1      28.365  21.369  15.060  1.00  0.00     0.181 C 
BRANCH  65  66
ATOM     66  C   UNL     1      28.345  21.101  16.545  1.00  0.00    -0.026 A 
ATOM     67  C   UNL     1      27.990  22.127  17.385  1.00  0.00     0.007 A 
ATOM     68  C   UNL     1      28.685  19.837  17.031  1.00  0.00     0.007 A 
ATOM     69  C   UNL     1      27.948  21.977  18.753  1.00  0.00     0.020 A 
ATOM     70  C   UNL     1      28.643  19.687  18.394  1.00  0.00     0.020 A 
ATOM     71  C   UNL     1      28.292  20.704  19.221  1.00  0.00     0.052 A 
BRANCH  71  72
ATOM     72  C   UNL     1      28.274  20.525  20.668  1.00  0.00     0.099 C 
ATOM     73  N   UNL     1      28.268  20.400  21.825  1.00  0.00    -0.192 NA
ENDBRANCH  71  72
ENDBRANCH  65  66
ENDBRANCH  63  65
ENDBRANCH  59  60
ENDBRANCH  58  59
ENDBRANCH  55  58
ENDBRANCH  53  54
ENDBRANCH  50  53
ENDBRANCH  47  50
ENDBRANCH   5  47
BRANCH   4  74
ATOM     74  N   UNL     1      19.806  20.021   6.909  1.00  0.00    -0.348 N 
ATOM     75  C   UNL     1      19.927  21.310   6.327  1.00  0.00     0.217 C 
ATOM     76  H   UNL     1      18.929  19.495   6.771  1.00  0.00     0.163 HD
ATOM     77  C   UNL     1      18.837  21.909   5.537  1.00  0.00     0.114 C 
ATOM     78  O   UNL     1      20.994  21.996   6.470  1.00  0.00    -0.275 OA
ENDBRANCH   4  74
TORSDOF 32
