REMARK VINA RESULT:    -6.441      3.405      6.482
REMARK INTER + INTRA:         -21.716
REMARK INTER:                 -15.734
REMARK INTRA:                  -5.982
REMARK UNBOUND:                -5.485
REMARK SMILES CC(=O)N[C@@H]1[C@@H](O)C[C@](OC[C@H]2O[C@@H](O[C@H]3[C@H](O)[C@@H](O)[C@H](OCCN=[N+]=[N-])O[C@@H]3CO)[C@H](O)[C@@H](O)[C@H]2O)(C(=O)O)O[C@H]1C(O)[C@H](O)CNC(=O)OCc1cn(Cc2ccc(Br)cc2)nn1
REMARK SMILES IDX 9 1 8 2 6 3 5 4 42 5 41 6 10 7 11 8 12 9 14 10 13 11 32 12
REMARK SMILES IDX 34 13 36 14 15 15 16 16 29 17 28 18 21 19 17 20 19 21 30 22
REMARK SMILES IDX 31 23 22 25 23 26 24 27 25 28 26 29 27 30 18 31 20 33 33 35
REMARK SMILES IDX 35 37 37 39 38 41 39 42 40 43 7 45 43 47 44 48 45 50 46 51
REMARK SMILES IDX 47 53 48 54 49 55 50 57 51 58 52 59 53 60 54 61 65 62 55 63
REMARK SMILES IDX 64 64 56 65 57 66 58 67 63 68 59 69 62 70 60 71 61 72 4 73
REMARK SMILES IDX 2 74 1 76 3 77
REMARK H PARENT 31 24 18 32 20 34 33 36 35 38 37 40 40 44 7 46 44 49 46 52
REMARK H PARENT 48 56 4 75
REMARK Flexibility Score: inf
ROOT
ATOM      1  C   UNL     1      22.519  26.198  22.988  1.00  0.00     0.272 C 
ATOM      2  C   UNL     1      22.644  24.949  23.782  1.00  0.00     0.113 C 
ATOM      3  C   UNL     1      23.923  24.211  23.748  1.00  0.00     0.145 C 
ATOM      4  C   UNL     1      24.814  24.553  22.524  1.00  0.00     0.142 C 
ATOM      5  C   UNL     1      23.795  24.919  21.480  1.00  0.00     0.178 C 
ATOM      6  O   UNL     1      23.390  26.223  21.885  1.00  0.00    -0.332 OA
ENDROOT
BRANCH   1   7
ATOM      7  O   UNL     1      22.397  27.377  23.588  1.00  0.00    -0.338 OA
BRANCH   7   8
ATOM      8  C   UNL     1      23.046  28.478  23.640  1.00  0.00     0.199 C 
BRANCH   8   9
ATOM      9  C   UNL     1      23.775  28.773  24.929  1.00  0.00     0.179 C 
ATOM     10  C   UNL     1      24.074  28.156  27.092  1.00  0.00     0.282 C 
ATOM     11  O   UNL     1      23.295  28.056  25.993  1.00  0.00    -0.341 OA
ATOM     12  C   UNL     1      25.135  29.242  27.078  1.00  0.00     0.202 C 
ATOM     13  C   UNL     1      25.954  29.206  25.807  1.00  0.00     0.179 C 
ATOM     14  C   UNL     1      25.246  28.362  24.757  1.00  0.00     0.177 C 
BRANCH  10  15
ATOM     15  O   UNL     1      24.666  27.030  27.558  1.00  0.00    -0.341 OA
BRANCH  15  16
ATOM     16  C   UNL     1      24.556  26.584  28.817  1.00  0.00     0.184 C 
ATOM     17  C   UNL     1      23.737  27.409  29.757  1.00  0.00     0.178 C 
ATOM     18  O   UNL     1      24.451  27.952  30.789  1.00  0.00    -0.341 OA
ATOM     19  C   UNL     1      25.053  27.023  31.625  1.00  0.00     0.281 C 
ATOM     20  C   UNL     1      25.938  26.400  29.407  1.00  0.00     0.180 C 
ATOM     21  C   UNL     1      25.776  25.949  30.836  1.00  0.00     0.202 C 
BRANCH  17  22
ATOM     22  C   UNL     1      22.566  26.590  30.247  1.00  0.00     0.191 C 
BRANCH  22  23
ATOM     23  O   UNL     1      21.639  27.388  30.948  1.00  0.00    -0.394 OA
ATOM     24  H   UNL     1      21.526  28.256  30.521  1.00  0.00     0.210 HD
ENDBRANCH  22  23
ENDBRANCH  17  22
BRANCH  19  25
ATOM     25  O   UNL     1      24.200  26.467  32.563  1.00  0.00    -0.350 OA
BRANCH  25  26
ATOM     26  C   UNL     1      24.148  27.109  33.771  1.00  0.00     0.169 C 
BRANCH  26  27
ATOM     27  C   UNL     1      24.276  26.197  34.956  1.00  0.00     0.119 C 
BRANCH  27  28
ATOM     28  N   UNL     1      25.617  26.295  35.519  1.00  0.00    -0.092 NA
ATOM     29  N   UNL     1      26.590  25.956  34.849  1.00  0.00     0.001 N 
ATOM     30  N   UNL     1      27.631  25.449  34.371  1.00  0.00    -0.003 NA
ENDBRANCH  27  28
ENDBRANCH  26  27
ENDBRANCH  25  26
ENDBRANCH  19  25
BRANCH  20  31
ATOM     31  O   UNL     1      26.534  25.334  28.704  1.00  0.00    -0.387 OA
ATOM     32  H   UNL     1      26.903  24.669  29.350  1.00  0.00     0.211 HD
ENDBRANCH  20  31
BRANCH  21  33
ATOM     33  O   UNL     1      26.989  25.604  31.421  1.00  0.00    -0.385 OA
ATOM     34  H   UNL     1      27.667  25.583  30.698  1.00  0.00     0.211 HD
ENDBRANCH  21  33
ENDBRANCH  15  16
ENDBRANCH  10  15
BRANCH  12  35
ATOM     35  O   UNL     1      24.626  30.517  27.256  1.00  0.00    -0.385 OA
ATOM     36  H   UNL     1      24.360  30.729  28.180  1.00  0.00     0.211 HD
ENDBRANCH  12  35
BRANCH  13  37
ATOM     37  O   UNL     1      27.253  28.757  26.007  1.00  0.00    -0.387 OA
ATOM     38  H   UNL     1      27.325  28.493  26.957  1.00  0.00     0.211 HD
ENDBRANCH  13  37
BRANCH  14  39
ATOM     39  O   UNL     1      25.305  26.999  25.071  1.00  0.00    -0.387 OA
ATOM     40  H   UNL     1      25.039  26.862  26.001  1.00  0.00     0.211 HD
ENDBRANCH  14  39
ENDBRANCH   8   9
ENDBRANCH   7   8
ENDBRANCH   1   7
BRANCH   1  41
ATOM     41  C   UNL     1      21.158  26.075  22.282  1.00  0.00     0.364 C 
ATOM     42  O   UNL     1      20.540  25.019  22.401  1.00  0.00    -0.246 OA
BRANCH  41  43
ATOM     43  O   UNL     1      20.618  27.090  21.537  1.00  0.00    -0.477 OA
ATOM     44  H   UNL     1      19.619  27.327  21.650  1.00  0.00     0.296 HD
ENDBRANCH  41  43
ENDBRANCH   1  41
BRANCH   3  45
ATOM     45  O   UNL     1      24.669  24.212  24.916  1.00  0.00    -0.391 OA
ATOM     46  H   UNL     1      24.062  24.362  25.672  1.00  0.00     0.211 HD
ENDBRANCH   3  45
BRANCH   5  47
ATOM     47  C   UNL     1      24.236  24.958  20.065  1.00  0.00     0.176 C 
BRANCH  47  48
ATOM     48  O   UNL     1      23.408  24.290  19.225  1.00  0.00    -0.388 OA
ATOM     49  H   UNL     1      22.475  24.465  19.392  1.00  0.00     0.211 HD
ENDBRANCH  47  48
BRANCH  47  50
ATOM     50  C   UNL     1      24.798  26.199  19.511  1.00  0.00     0.165 C 
BRANCH  50  51
ATOM     51  O   UNL     1      25.602  26.888  20.433  1.00  0.00    -0.388 OA
ATOM     52  H   UNL     1      25.948  27.736  20.118  1.00  0.00     0.211 HD
ENDBRANCH  50  51
BRANCH  50  53
ATOM     53  C   UNL     1      23.938  27.125  18.749  1.00  0.00     0.154 C 
BRANCH  53  54
ATOM     54  N   UNL     1      22.510  26.957  18.952  1.00  0.00    -0.319 N 
ATOM     55  C   UNL     1      21.571  27.914  18.486  1.00  0.00     0.407 C 
ATOM     56  H   UNL     1      22.101  26.125  19.447  1.00  0.00     0.167 HD
ATOM     57  O   UNL     1      21.976  28.946  17.861  1.00  0.00    -0.225 OA
BRANCH  55  58
ATOM     58  O   UNL     1      20.198  27.798  18.675  1.00  0.00    -0.443 OA
BRANCH  58  59
ATOM     59  C   UNL     1      19.359  28.967  18.606  1.00  0.00     0.294 C 
BRANCH  59  60
ATOM     60  C   UNL     1      18.052  28.756  19.250  1.00  0.00     0.120 A 
ATOM     61  C   UNL     1      16.826  29.007  18.664  1.00  0.00     0.138 A 
ATOM     62  N   UNL     1      17.807  28.307  20.481  1.00  0.00    -0.132 NA
ATOM     63  N   UNL     1      15.875  28.701  19.555  1.00  0.00    -0.248 N 
ATOM     64  N   UNL     1      16.496  28.283  20.639  1.00  0.00    -0.067 NA
BRANCH  63  65
ATOM     65  C   UNL     1      14.436  28.775  19.401  1.00  0.00     0.181 C 
BRANCH  65  66
ATOM     66  C   UNL     1      13.759  29.545  20.468  1.00  0.00    -0.026 A 
ATOM     67  C   UNL     1      13.356  28.858  21.617  1.00  0.00     0.007 A 
ATOM     68  C   UNL     1      13.516  30.888  20.412  1.00  0.00     0.007 A 
ATOM     69  C   UNL     1      12.732  29.536  22.651  1.00  0.00     0.016 A 
ATOM     70  C   UNL     1      12.888  31.583  21.448  1.00  0.00     0.016 A 
ATOM     71  C   UNL     1      12.500  30.897  22.566  1.00  0.00     0.017 A 
ATOM     72  Br  UNL     1      11.634  31.805  24.025  1.00  0.00    -0.051 Br
ENDBRANCH  65  66
ENDBRANCH  63  65
ENDBRANCH  59  60
ENDBRANCH  58  59
ENDBRANCH  55  58
ENDBRANCH  53  54
ENDBRANCH  50  53
ENDBRANCH  47  50
ENDBRANCH   5  47
BRANCH   4  73
ATOM     73  N   UNL     1      25.670  23.460  22.239  1.00  0.00    -0.348 N 
ATOM     74  C   UNL     1      27.000  23.682  21.802  1.00  0.00     0.217 C 
ATOM     75  H   UNL     1      25.340  22.489  22.363  1.00  0.00     0.163 HD
ATOM     76  C   UNL     1      27.971  22.632  21.486  1.00  0.00     0.114 C 
ATOM     77  O   UNL     1      27.394  24.895  21.672  1.00  0.00    -0.275 OA
ENDBRANCH   4  73
TORSDOF 31
