REMARK VINA RESULT:    -6.335     12.819     19.277
REMARK INTER + INTRA:         -22.339
REMARK INTER:                 -16.706
REMARK INTRA:                  -5.634
REMARK UNBOUND:                -5.634
REMARK SMILES CC(=O)N[C@@H]1[C@@H](O)C[C@](OC[C@H]2O[C@@H](O[C@H]3[C@H](O)[C@@H](O)[C@H](OCCN=[N+]=[N-])O[C@@H]3CO)[C@H](O)[C@@H](O)[C@H]2O)(C(=O)O)O[C@H]1C(O)[C@H](O)CNC(=O)OCc1cn(Cc2ccccc2OC(C)=O)nn1
REMARK SMILES IDX 43 1 42 2 9 3 8 4 41 5 6 6 5 7 10 8 11 9 12 10 14 11 13 12
REMARK SMILES IDX 32 13 34 14 36 15 15 16 16 17 29 18 28 19 21 20 17 21 19 22
REMARK SMILES IDX 30 23 31 24 22 26 23 27 24 28 25 29 26 30 27 31 18 32 20 34
REMARK SMILES IDX 33 36 35 38 37 40 38 42 39 43 40 44 7 46 4 48 2 49 1 51 3 52
REMARK SMILES IDX 44 53 45 55 46 56 47 58 48 59 49 60 50 62 51 63 52 64 53 65
REMARK SMILES IDX 54 66 68 67 55 68 67 69 56 70 57 71 62 72 58 73 61 74 59 75
REMARK SMILES IDX 60 76 63 77 64 78 66 79 65 80
REMARK H PARENT 31 25 18 33 20 35 33 37 35 39 37 41 40 45 7 47 4 50 44 54
REMARK H PARENT 46 57 48 61
REMARK Flexibility Score: inf
ROOT
ATOM      1  C   UNL     1       4.697  21.399  32.311  1.00  0.00     0.176 C 
ENDROOT
BRANCH   1   2
ATOM      2  C   UNL     1       4.001  22.590  32.951  1.00  0.00     0.178 C 
ATOM      3  C   UNL     1       4.461  24.706  33.816  1.00  0.00     0.272 C 
ATOM      4  C   UNL     1       3.073  24.443  34.389  1.00  0.00     0.113 C 
ATOM      5  O   UNL     1       4.980  23.483  33.327  1.00  0.00    -0.332 OA
ATOM      6  C   UNL     1       3.174  23.139  35.162  1.00  0.00     0.145 C 
ATOM      7  C   UNL     1       3.272  22.038  34.177  1.00  0.00     0.142 C 
BRANCH   3   8
ATOM      8  O   UNL     1       5.355  25.143  34.748  1.00  0.00    -0.338 OA
BRANCH   8   9
ATOM      9  C   UNL     1       5.602  26.475  34.846  1.00  0.00     0.199 C 
BRANCH   9  10
ATOM     10  C   UNL     1       7.112  26.654  35.081  1.00  0.00     0.179 C 
ATOM     11  C   UNL     1       9.079  25.466  35.130  1.00  0.00     0.282 C 
ATOM     12  O   UNL     1       7.679  25.404  34.812  1.00  0.00    -0.341 OA
ATOM     13  C   UNL     1       9.689  26.258  34.029  1.00  0.00     0.202 C 
ATOM     14  C   UNL     1       9.145  27.690  34.178  1.00  0.00     0.179 C 
ATOM     15  C   UNL     1       7.654  27.720  34.183  1.00  0.00     0.177 C 
BRANCH  11  16
ATOM     16  O   UNL     1       9.448  24.149  35.254  1.00  0.00    -0.341 OA
BRANCH  16  17
ATOM     17  C   UNL     1       9.744  23.824  36.590  1.00  0.00     0.184 C 
ATOM     18  C   UNL     1       8.899  24.528  37.586  1.00  0.00     0.178 C 
ATOM     19  O   UNL     1       9.633  25.059  38.651  1.00  0.00    -0.341 OA
ATOM     20  C   UNL     1      10.559  24.180  39.196  1.00  0.00     0.281 C 
ATOM     21  C   UNL     1      11.191  24.387  36.854  1.00  0.00     0.180 C 
ATOM     22  C   UNL     1      11.608  23.773  38.162  1.00  0.00     0.202 C 
BRANCH  18  23
ATOM     23  C   UNL     1       7.683  23.794  38.057  1.00  0.00     0.191 C 
BRANCH  23  24
ATOM     24  O   UNL     1       6.763  23.720  37.021  1.00  0.00    -0.394 OA
ATOM     25  H   UNL     1       5.895  23.411  37.355  1.00  0.00     0.210 HD
ENDBRANCH  23  24
ENDBRANCH  18  23
BRANCH  20  26
ATOM     26  O   UNL     1       9.969  23.053  39.648  1.00  0.00    -0.350 OA
BRANCH  26  27
ATOM     27  C   UNL     1      10.016  22.709  40.949  1.00  0.00     0.169 C 
BRANCH  27  28
ATOM     28  C   UNL     1      11.262  22.969  41.716  1.00  0.00     0.119 C 
BRANCH  28  29
ATOM     29  N   UNL     1      12.140  21.849  41.670  1.00  0.00    -0.092 NA
ATOM     30  N   UNL     1      11.818  20.742  42.041  1.00  0.00     0.001 N 
ATOM     31  N   UNL     1      11.301  19.631  42.193  1.00  0.00    -0.003 NA
ENDBRANCH  28  29
ENDBRANCH  27  28
ENDBRANCH  26  27
ENDBRANCH  20  26
BRANCH  21  32
ATOM     32  O   UNL     1      12.005  24.065  35.796  1.00  0.00    -0.387 OA
ATOM     33  H   UNL     1      11.484  23.539  35.109  1.00  0.00     0.211 HD
ENDBRANCH  21  32
BRANCH  22  34
ATOM     34  O   UNL     1      12.890  24.118  38.526  1.00  0.00    -0.385 OA
ATOM     35  H   UNL     1      13.092  23.643  39.382  1.00  0.00     0.211 HD
ENDBRANCH  22  34
ENDBRANCH  16  17
ENDBRANCH  11  16
BRANCH  13  36
ATOM     36  O   UNL     1      11.064  26.388  34.130  1.00  0.00    -0.385 OA
ATOM     37  H   UNL     1      11.389  26.593  35.031  1.00  0.00     0.211 HD
ENDBRANCH  13  36
BRANCH  14  38
ATOM     38  O   UNL     1       9.688  28.512  33.188  1.00  0.00    -0.387 OA
ATOM     39  H   UNL     1       9.627  29.446  33.539  1.00  0.00     0.211 HD
ENDBRANCH  14  38
BRANCH  15  40
ATOM     40  O   UNL     1       7.211  27.596  32.868  1.00  0.00    -0.387 OA
ATOM     41  H   UNL     1       6.316  27.955  32.723  1.00  0.00     0.211 HD
ENDBRANCH  15  40
ENDBRANCH   9  10
ENDBRANCH   8   9
ENDBRANCH   3   8
BRANCH   3  42
ATOM     42  C   UNL     1       4.262  25.627  32.675  1.00  0.00     0.364 C 
ATOM     43  O   UNL     1       5.090  25.755  31.776  1.00  0.00    -0.246 OA
BRANCH  42  44
ATOM     44  O   UNL     1       3.084  26.377  32.623  1.00  0.00    -0.477 OA
ATOM     45  H   UNL     1       2.918  27.163  33.269  1.00  0.00     0.296 HD
ENDBRANCH  42  44
ENDBRANCH   3  42
BRANCH   6  46
ATOM     46  O   UNL     1       4.382  23.207  35.863  1.00  0.00    -0.391 OA
ATOM     47  H   UNL     1       5.139  22.789  35.387  1.00  0.00     0.211 HD
ENDBRANCH   6  46
BRANCH   7  48
ATOM     48  N   UNL     1       2.089  21.386  33.798  1.00  0.00    -0.348 N 
ATOM     49  C   UNL     1       1.763  20.047  34.156  1.00  0.00     0.217 C 
ATOM     50  H   UNL     1       1.396  21.928  33.207  1.00  0.00     0.163 HD
ATOM     51  C   UNL     1       0.510  19.397  33.739  1.00  0.00     0.114 C 
ATOM     52  O   UNL     1       2.591  19.440  34.848  1.00  0.00    -0.275 OA
ENDBRANCH   7  48
ENDBRANCH   1   2
BRANCH   1  53
ATOM     53  O   UNL     1       4.941  20.492  33.326  1.00  0.00    -0.388 OA
ATOM     54  H   UNL     1       5.089  20.893  34.208  1.00  0.00     0.211 HD
ENDBRANCH   1  53
BRANCH   1  55
ATOM     55  C   UNL     1       3.976  20.847  31.127  1.00  0.00     0.165 C 
BRANCH  55  56
ATOM     56  O   UNL     1       4.936  20.459  30.187  1.00  0.00    -0.388 OA
ATOM     57  H   UNL     1       5.502  19.744  30.514  1.00  0.00     0.211 HD
ENDBRANCH  55  56
BRANCH  55  58
ATOM     58  C   UNL     1       2.992  21.821  30.526  1.00  0.00     0.154 C 
BRANCH  58  59
ATOM     59  N   UNL     1       3.206  22.107  29.146  1.00  0.00    -0.319 N 
ATOM     60  C   UNL     1       2.333  22.887  28.344  1.00  0.00     0.407 C 
ATOM     61  H   UNL     1       4.067  21.723  28.669  1.00  0.00     0.167 HD
ATOM     62  O   UNL     1       1.300  23.352  28.887  1.00  0.00    -0.225 OA
BRANCH  60  63
ATOM     63  O   UNL     1       2.552  23.155  27.015  1.00  0.00    -0.443 OA
BRANCH  63  64
ATOM     64  C   UNL     1       1.870  24.197  26.318  1.00  0.00     0.294 C 
BRANCH  64  65
ATOM     65  C   UNL     1       2.802  25.236  25.857  1.00  0.00     0.120 A 
ATOM     66  C   UNL     1       4.106  25.341  26.280  1.00  0.00     0.138 A 
ATOM     67  N   UNL     1       2.617  26.237  24.987  1.00  0.00    -0.132 NA
ATOM     68  N   UNL     1       4.675  26.383  25.671  1.00  0.00    -0.248 N 
ATOM     69  N   UNL     1       3.725  26.914  24.878  1.00  0.00    -0.067 NA
BRANCH  68  70
ATOM     70  C   UNL     1       6.020  26.914  25.784  1.00  0.00     0.185 C 
BRANCH  70  71
ATOM     71  C   UNL     1       6.029  28.251  26.387  1.00  0.00     0.016 A 
ATOM     72  C   UNL     1       6.571  29.320  25.761  1.00  0.00     0.135 A 
ATOM     73  C   UNL     1       5.434  28.380  27.645  1.00  0.00     0.009 A 
ATOM     74  C   UNL     1       6.529  30.564  26.392  1.00  0.00     0.047 A 
ATOM     75  C   UNL     1       5.399  29.607  28.256  1.00  0.00     0.001 A 
ATOM     76  C   UNL     1       5.944  30.708  27.636  1.00  0.00     0.004 A 
BRANCH  72  77
ATOM     77  O   UNL     1       7.171  29.242  24.521  1.00  0.00    -0.426 OA
BRANCH  77  78
ATOM     78  C   UNL     1       8.569  29.201  24.472  1.00  0.00     0.308 C 
ATOM     79  O   UNL     1       9.144  28.102  24.627  1.00  0.00    -0.252 OA
ATOM     80  C   UNL     1       9.328  30.434  24.242  1.00  0.00     0.139 C 
ENDBRANCH  77  78
ENDBRANCH  72  77
ENDBRANCH  70  71
ENDBRANCH  68  70
ENDBRANCH  64  65
ENDBRANCH  63  64
ENDBRANCH  60  63
ENDBRANCH  58  59
ENDBRANCH  55  58
ENDBRANCH   1  55
TORSDOF 33
