REMARK VINA RESULT:    -6.217     14.362     20.570
REMARK INTER + INTRA:         -21.602
REMARK INTER:                 -17.020
REMARK INTRA:                  -4.583
REMARK UNBOUND:                -6.298
REMARK SMILES CC(=O)N[C@@H]1[C@@H](O)C[C@](OC[C@H]2O[C@@H](O[C@H]3[C@H](O)[C@@H](O)[C@H](OCCN=[N+]=[N-])O[C@@H]3CO)[C@H](O)[C@@H](O)[C@H]2O)(C(=O)O)O[C@H]1C(O)[C@H](O)CNC(=O)OCc1cn(-c2c(C)cc(C)cc2C)nn1
REMARK SMILES IDX 9 1 8 2 6 3 5 4 42 5 41 6 10 7 11 8 12 9 14 10 13 11 32 12
REMARK SMILES IDX 34 13 36 14 15 15 16 16 29 17 28 18 21 19 17 20 19 21 30 22
REMARK SMILES IDX 31 23 22 25 23 26 24 27 25 28 26 29 27 30 18 31 20 33 33 35
REMARK SMILES IDX 35 37 37 39 38 41 39 42 40 43 7 45 43 47 44 48 45 50 46 51
REMARK SMILES IDX 47 53 48 54 49 55 50 57 51 58 52 59 53 60 54 61 66 62 55 63
REMARK SMILES IDX 65 64 56 65 57 66 63 67 58 68 59 69 62 70 64 71 60 72 61 73
REMARK SMILES IDX 4 74 2 75 1 77 3 78
REMARK H PARENT 31 24 18 32 20 34 33 36 35 38 37 40 40 44 7 46 44 49 46 52
REMARK H PARENT 48 56 4 76
REMARK Flexibility Score: inf
ROOT
ATOM      1  C   UNL     1       2.624  23.544  33.149  1.00  0.00     0.272 C 
ATOM      2  C   UNL     1       1.289  23.181  33.669  1.00  0.00     0.113 C 
ATOM      3  C   UNL     1       1.210  21.929  34.508  1.00  0.00     0.145 C 
ATOM      4  C   UNL     1       2.193  20.918  34.009  1.00  0.00     0.142 C 
ATOM      5  C   UNL     1       2.443  21.282  32.540  1.00  0.00     0.178 C 
ATOM      6  O   UNL     1       3.264  22.442  32.563  1.00  0.00    -0.332 OA
ENDROOT
BRANCH   1   7
ATOM      7  O   UNL     1       3.483  24.182  33.992  1.00  0.00    -0.338 OA
BRANCH   7   8
ATOM      8  C   UNL     1       4.536  23.531  34.519  1.00  0.00     0.199 C 
BRANCH   8   9
ATOM      9  C   UNL     1       5.787  24.381  34.251  1.00  0.00     0.179 C 
ATOM     10  C   UNL     1       7.867  24.660  35.197  1.00  0.00     0.282 C 
ATOM     11  O   UNL     1       6.501  24.578  35.418  1.00  0.00    -0.341 OA
ATOM     12  C   UNL     1       8.309  23.273  34.805  1.00  0.00     0.202 C 
ATOM     13  C   UNL     1       7.677  22.999  33.448  1.00  0.00     0.179 C 
ATOM     14  C   UNL     1       6.577  23.931  33.079  1.00  0.00     0.177 C 
BRANCH  10  15
ATOM     15  O   UNL     1       8.554  25.242  36.193  1.00  0.00    -0.341 OA
BRANCH  15  16
ATOM     16  C   UNL     1       9.334  26.309  35.929  1.00  0.00     0.184 C 
ATOM     17  C   UNL     1       9.389  26.535  34.429  1.00  0.00     0.178 C 
ATOM     18  O   UNL     1      10.552  26.106  33.863  1.00  0.00    -0.341 OA
ATOM     19  C   UNL     1      11.689  26.762  34.306  1.00  0.00     0.281 C 
ATOM     20  C   UNL     1      10.747  26.027  36.446  1.00  0.00     0.180 C 
ATOM     21  C   UNL     1      11.742  26.958  35.777  1.00  0.00     0.202 C 
BRANCH  17  22
ATOM     22  C   UNL     1       9.049  27.976  34.083  1.00  0.00     0.191 C 
BRANCH  22  23
ATOM     23  O   UNL     1       8.299  28.036  32.911  1.00  0.00    -0.394 OA
ATOM     24  H   UNL     1       8.372  28.897  32.440  1.00  0.00     0.210 HD
ENDBRANCH  22  23
ENDBRANCH  17  22
BRANCH  19  25
ATOM     25  O   UNL     1      11.838  28.002  33.667  1.00  0.00    -0.350 OA
BRANCH  25  26
ATOM     26  C   UNL     1      13.145  28.388  33.509  1.00  0.00     0.169 C 
BRANCH  26  27
ATOM     27  C   UNL     1      13.345  29.701  32.817  1.00  0.00     0.119 C 
BRANCH  27  28
ATOM     28  N   UNL     1      14.742  29.958  32.518  1.00  0.00    -0.092 NA
ATOM     29  N   UNL     1      15.162  29.916  31.344  1.00  0.00     0.001 N 
ATOM     30  N   UNL     1      15.363  29.888  30.124  1.00  0.00    -0.003 NA
ENDBRANCH  27  28
ENDBRANCH  26  27
ENDBRANCH  25  26
ENDBRANCH  19  25
BRANCH  20  31
ATOM     31  O   UNL     1      10.867  26.182  37.804  1.00  0.00    -0.387 OA
ATOM     32  H   UNL     1      11.768  25.986  38.168  1.00  0.00     0.211 HD
ENDBRANCH  20  31
BRANCH  21  33
ATOM     33  O   UNL     1      13.006  26.600  36.240  1.00  0.00    -0.385 OA
ATOM     34  H   UNL     1      13.225  27.074  37.090  1.00  0.00     0.211 HD
ENDBRANCH  21  33
ENDBRANCH  15  16
ENDBRANCH  10  15
BRANCH  12  35
ATOM     35  O   UNL     1       9.688  23.176  34.642  1.00  0.00    -0.385 OA
ATOM     36  H   UNL     1      10.040  22.685  35.446  1.00  0.00     0.211 HD
ENDBRANCH  12  35
BRANCH  13  37
ATOM     37  O   UNL     1       7.206  21.690  33.365  1.00  0.00    -0.387 OA
ATOM     38  H   UNL     1       7.813  21.028  33.786  1.00  0.00     0.211 HD
ENDBRANCH  13  37
BRANCH  14  39
ATOM     39  O   UNL     1       5.733  23.246  32.171  1.00  0.00    -0.387 OA
ATOM     40  H   UNL     1       4.791  23.322  32.447  1.00  0.00     0.211 HD
ENDBRANCH  14  39
ENDBRANCH   8   9
ENDBRANCH   7   8
ENDBRANCH   1   7
BRANCH   1  41
ATOM     41  C   UNL     1       2.377  24.443  31.957  1.00  0.00     0.364 C 
ATOM     42  O   UNL     1       3.297  24.637  31.156  1.00  0.00    -0.246 OA
BRANCH  41  43
ATOM     43  O   UNL     1       1.152  25.047  31.750  1.00  0.00    -0.477 OA
ATOM     44  H   UNL     1       0.807  25.356  30.859  1.00  0.00     0.296 HD
ENDBRANCH  41  43
ENDBRANCH   1  41
BRANCH   3  45
ATOM     45  O   UNL     1       1.415  22.311  35.833  1.00  0.00    -0.391 OA
ATOM     46  H   UNL     1       1.573  21.478  36.384  1.00  0.00     0.211 HD
ENDBRANCH   3  45
BRANCH   5  47
ATOM     47  C   UNL     1       3.230  20.292  31.776  1.00  0.00     0.176 C 
BRANCH  47  48
ATOM     48  O   UNL     1       4.613  20.670  31.934  1.00  0.00    -0.388 OA
ATOM     49  H   UNL     1       4.721  21.602  31.612  1.00  0.00     0.211 HD
ENDBRANCH  47  48
BRANCH  47  50
ATOM     50  C   UNL     1       3.083  20.291  30.268  1.00  0.00     0.165 C 
BRANCH  50  51
ATOM     51  O   UNL     1       4.453  20.483  29.841  1.00  0.00    -0.388 OA
ATOM     52  H   UNL     1       4.809  21.285  30.270  1.00  0.00     0.211 HD
ENDBRANCH  50  51
BRANCH  50  53
ATOM     53  C   UNL     1       2.407  21.545  29.770  1.00  0.00     0.154 C 
BRANCH  53  54
ATOM     54  N   UNL     1       3.190  22.393  28.924  1.00  0.00    -0.319 N 
ATOM     55  C   UNL     1       2.708  22.729  27.623  1.00  0.00     0.407 C 
ATOM     56  H   UNL     1       4.125  22.771  29.248  1.00  0.00     0.167 HD
ATOM     57  O   UNL     1       1.596  22.235  27.288  1.00  0.00    -0.225 OA
BRANCH  55  58
ATOM     58  O   UNL     1       3.411  23.556  26.755  1.00  0.00    -0.443 OA
BRANCH  58  59
ATOM     59  C   UNL     1       3.014  24.881  26.494  1.00  0.00     0.294 C 
BRANCH  59  60
ATOM     60  C   UNL     1       4.099  25.882  26.681  1.00  0.00     0.121 A 
ATOM     61  C   UNL     1       4.844  26.525  25.719  1.00  0.00     0.144 A 
ATOM     62  N   UNL     1       4.569  26.356  27.871  1.00  0.00    -0.131 NA
ATOM     63  N   UNL     1       5.720  27.347  26.321  1.00  0.00    -0.220 N 
ATOM     64  N   UNL     1       5.513  27.209  27.630  1.00  0.00    -0.062 NA
BRANCH  63  65
ATOM     65  C   UNL     1       6.703  28.212  25.720  1.00  0.00     0.072 A 
ATOM     66  C   UNL     1       6.429  29.557  25.719  1.00  0.00    -0.025 A 
ATOM     67  C   UNL     1       7.830  27.690  25.187  1.00  0.00    -0.025 A 
ATOM     68  C   UNL     1       5.161  30.097  26.321  1.00  0.00     0.047 C 
ATOM     69  C   UNL     1       7.357  30.401  25.144  1.00  0.00     0.009 A 
ATOM     70  C   UNL     1       8.741  28.585  24.615  1.00  0.00     0.009 A 
ATOM     71  C   UNL     1       8.162  26.242  25.172  1.00  0.00     0.047 C 
ATOM     72  C   UNL     1       8.522  29.941  24.585  1.00  0.00    -0.050 A 
ATOM     73  C   UNL     1       9.481  30.901  23.985  1.00  0.00     0.044 C 
ENDBRANCH  63  65
ENDBRANCH  59  60
ENDBRANCH  58  59
ENDBRANCH  55  58
ENDBRANCH  53  54
ENDBRANCH  50  53
ENDBRANCH  47  50
ENDBRANCH   5  47
BRANCH   4  74
ATOM     74  N   UNL     1       1.871  19.573  34.213  1.00  0.00    -0.348 N 
ATOM     75  C   UNL     1       2.772  18.626  34.780  1.00  0.00     0.217 C 
ATOM     76  H   UNL     1       0.928  19.221  33.968  1.00  0.00     0.163 HD
ATOM     77  C   UNL     1       2.395  17.194  34.986  1.00  0.00     0.114 C 
ATOM     78  O   UNL     1       3.900  19.032  35.106  1.00  0.00    -0.275 OA
ENDBRANCH   4  74
TORSDOF 30
