REMARK VINA RESULT:    -5.888      5.619     10.687
REMARK INTER + INTRA:         -21.948
REMARK INTER:                 -15.689
REMARK INTRA:                  -6.259
REMARK UNBOUND:                -6.938
REMARK SMILES CC(=O)N[C@@H]1[C@@H](O)C[C@](OC[C@H]2O[C@@H](O[C@H]3[C@H](O)[C@@H](O)[C@H](OCCN=[N+]=[N-])O[C@@H]3CO)[C@H](O)[C@@H](O)[C@H]2O)(C(=O)O)O[C@H]1C(O)[C@H](O)CNC(=O)OCc1cn(Cc2cc(Br)cc(Br)c2O)nn1
REMARK SMILES IDX 9 1 8 2 6 3 5 4 42 5 41 6 10 7 11 8 12 9 14 10 13 11 32 12
REMARK SMILES IDX 34 13 36 14 15 15 16 16 29 17 28 18 21 19 17 20 19 21 30 22
REMARK SMILES IDX 31 23 22 25 23 26 24 27 25 28 26 29 27 30 18 31 20 33 33 35
REMARK SMILES IDX 35 37 37 39 38 41 39 42 40 43 7 45 43 47 44 48 45 50 46 51
REMARK SMILES IDX 47 53 48 54 49 55 50 57 51 58 52 59 53 60 54 61 67 62 55 63
REMARK SMILES IDX 66 64 56 65 57 66 58 67 64 68 59 69 62 70 60 71 61 72 63 73
REMARK SMILES IDX 65 74 4 76 2 77 1 79 3 80
REMARK H PARENT 31 24 18 32 20 34 33 36 35 38 37 40 40 44 7 46 44 49 46 52
REMARK H PARENT 48 56 65 75 4 78
REMARK Flexibility Score: inf
ROOT
ATOM      1  C   UNL     1      29.415  19.253  18.059  1.00  0.00     0.272 C 
ATOM      2  C   UNL     1      28.694  18.583  19.324  1.00  0.00     0.113 C 
ATOM      3  C   UNL     1      29.417  18.933  20.561  1.00  0.00     0.145 C 
ATOM      4  C   UNL     1      29.531  20.429  20.694  1.00  0.00     0.142 C 
ATOM      5  C   UNL     1      29.360  21.203  19.421  1.00  0.00     0.178 C 
ATOM      6  O   UNL     1      29.379  20.589  18.244  1.00  0.00    -0.332 OA
ENDROOT
BRANCH   1   7
ATOM      7  O   UNL     1      28.557  18.872  17.085  1.00  0.00    -0.338 OA
BRANCH   7   8
ATOM      8  C   UNL     1      28.202  19.578  16.029  1.00  0.00     0.199 C 
BRANCH   8   9
ATOM      9  C   UNL     1      28.704  19.257  14.664  1.00  0.00     0.179 C 
ATOM     10  C   UNL     1      27.132  20.469  13.445  1.00  0.00     0.282 C 
ATOM     11  O   UNL     1      27.746  19.288  13.711  1.00  0.00    -0.341 OA
ATOM     12  C   UNL     1      28.087  21.617  13.389  1.00  0.00     0.202 C 
ATOM     13  C   UNL     1      29.501  21.128  13.231  1.00  0.00     0.179 C 
ATOM     14  C   UNL     1      29.900  20.131  14.279  1.00  0.00     0.177 C 
BRANCH  10  15
ATOM     15  O   UNL     1      26.049  20.683  14.312  1.00  0.00    -0.341 OA
BRANCH  15  16
ATOM     16  C   UNL     1      24.820  20.681  13.693  1.00  0.00     0.184 C 
ATOM     17  C   UNL     1      23.946  21.810  14.189  1.00  0.00     0.178 C 
ATOM     18  O   UNL     1      22.637  21.719  13.811  1.00  0.00    -0.341 OA
ATOM     19  C   UNL     1      22.350  20.815  12.804  1.00  0.00     0.281 C 
ATOM     20  C   UNL     1      24.027  19.415  14.034  1.00  0.00     0.180 C 
ATOM     21  C   UNL     1      22.835  19.423  13.107  1.00  0.00     0.202 C 
BRANCH  17  22
ATOM     22  C   UNL     1      24.500  23.175  13.839  1.00  0.00     0.191 C 
BRANCH  22  23
ATOM     23  O   UNL     1      25.459  23.578  14.743  1.00  0.00    -0.394 OA
ATOM     24  H   UNL     1      25.099  24.337  15.260  1.00  0.00     0.210 HD
ENDBRANCH  22  23
ENDBRANCH  17  22
BRANCH  19  25
ATOM     25  O   UNL     1      22.844  21.306  11.607  1.00  0.00    -0.350 OA
BRANCH  25  26
ATOM     26  C   UNL     1      21.830  21.695  10.773  1.00  0.00     0.169 C 
BRANCH  26  27
ATOM     27  C   UNL     1      21.263  20.634   9.893  1.00  0.00     0.119 C 
BRANCH  27  28
ATOM     28  N   UNL     1      19.882  20.325  10.199  1.00  0.00    -0.092 NA
ATOM     29  N   UNL     1      19.555  19.610  11.125  1.00  0.00     0.001 N 
ATOM     30  N   UNL     1      19.068  19.136  12.149  1.00  0.00    -0.003 NA
ENDBRANCH  27  28
ENDBRANCH  26  27
ENDBRANCH  25  26
ENDBRANCH  19  25
BRANCH  20  31
ATOM     31  O   UNL     1      24.766  18.267  13.959  1.00  0.00    -0.387 OA
ATOM     32  H   UNL     1      25.687  18.505  14.298  1.00  0.00     0.211 HD
ENDBRANCH  20  31
BRANCH  21  33
ATOM     33  O   UNL     1      21.784  18.670  13.617  1.00  0.00    -0.385 OA
ATOM     34  H   UNL     1      20.938  19.139  13.507  1.00  0.00     0.211 HD
ENDBRANCH  21  33
ENDBRANCH  15  16
ENDBRANCH  10  15
BRANCH  12  35
ATOM     35  O   UNL     1      27.726  22.415  12.276  1.00  0.00    -0.385 OA
ATOM     36  H   UNL     1      27.776  23.343  12.605  1.00  0.00     0.211 HD
ENDBRANCH  12  35
BRANCH  13  37
ATOM     37  O   UNL     1      30.414  22.180  13.166  1.00  0.00    -0.387 OA
ATOM     38  H   UNL     1      31.184  21.904  13.724  1.00  0.00     0.211 HD
ENDBRANCH  13  37
BRANCH  14  39
ATOM     39  O   UNL     1      30.362  20.794  15.402  1.00  0.00    -0.387 OA
ATOM     40  H   UNL     1      31.246  20.435  15.685  1.00  0.00     0.211 HD
ENDBRANCH  14  39
ENDBRANCH   8   9
ENDBRANCH   7   8
ENDBRANCH   1   7
BRANCH   1  41
ATOM     41  C   UNL     1      30.760  18.686  18.045  1.00  0.00     0.364 C 
ATOM     42  O   UNL     1      31.797  19.441  17.926  1.00  0.00    -0.246 OA
BRANCH  41  43
ATOM     43  O   UNL     1      31.046  17.351  18.160  1.00  0.00    -0.477 OA
ATOM     44  H   UNL     1      31.047  16.747  17.352  1.00  0.00     0.296 HD
ENDBRANCH  41  43
ENDBRANCH   1  41
BRANCH   3  45
ATOM     45  O   UNL     1      28.736  18.370  21.656  1.00  0.00    -0.391 OA
ATOM     46  H   UNL     1      28.185  17.613  21.351  1.00  0.00     0.211 HD
ENDBRANCH   3  45
BRANCH   5  47
ATOM     47  C   UNL     1      28.195  22.153  19.616  1.00  0.00     0.176 C 
BRANCH  47  48
ATOM     48  O   UNL     1      28.131  22.540  20.979  1.00  0.00    -0.388 OA
ATOM     49  H   UNL     1      27.203  22.586  21.284  1.00  0.00     0.211 HD
ENDBRANCH  47  48
BRANCH  47  50
ATOM     50  C   UNL     1      28.152  23.316  18.714  1.00  0.00     0.165 C 
BRANCH  50  51
ATOM     51  O   UNL     1      28.798  24.417  19.232  1.00  0.00    -0.388 OA
ATOM     52  H   UNL     1      29.119  24.287  20.160  1.00  0.00     0.211 HD
ENDBRANCH  50  51
BRANCH  50  53
ATOM     53  C   UNL     1      26.836  23.705  18.132  1.00  0.00     0.154 C 
BRANCH  53  54
ATOM     54  N   UNL     1      25.872  24.240  19.030  1.00  0.00    -0.319 N 
ATOM     55  C   UNL     1      24.654  24.753  18.466  1.00  0.00     0.407 C 
ATOM     56  H   UNL     1      25.994  24.307  20.053  1.00  0.00     0.167 HD
ATOM     57  O   UNL     1      24.493  24.704  17.199  1.00  0.00    -0.225 OA
BRANCH  55  58
ATOM     58  O   UNL     1      23.691  25.278  19.281  1.00  0.00    -0.443 OA
BRANCH  58  59
ATOM     59  C   UNL     1      22.715  24.490  19.914  1.00  0.00     0.294 C 
BRANCH  59  60
ATOM     60  C   UNL     1      22.955  24.438  21.373  1.00  0.00     0.120 A 
ATOM     61  C   UNL     1      22.063  24.620  22.423  1.00  0.00     0.138 A 
ATOM     62  N   UNL     1      24.127  24.186  21.979  1.00  0.00    -0.132 NA
ATOM     63  N   UNL     1      22.695  24.481  23.597  1.00  0.00    -0.248 N 
ATOM     64  N   UNL     1      23.966  24.214  23.287  1.00  0.00    -0.067 NA
BRANCH  63  65
ATOM     65  C   UNL     1      22.174  24.587  24.964  1.00  0.00     0.185 C 
BRANCH  65  66
ATOM     66  C   UNL     1      22.932  25.660  25.647  1.00  0.00     0.018 A 
ATOM     67  C   UNL     1      22.655  26.976  25.329  1.00  0.00     0.025 A 
ATOM     68  C   UNL     1      23.911  25.392  26.596  1.00  0.00     0.134 A 
ATOM     69  C   UNL     1      23.325  28.031  25.931  1.00  0.00     0.019 A 
ATOM     70  C   UNL     1      24.598  26.424  27.215  1.00  0.00     0.061 A 
ATOM     71  Br  UNL     1      22.911  29.829  25.461  1.00  0.00    -0.051 Br
ATOM     72  C   UNL     1      24.288  27.739  26.866  1.00  0.00     0.035 A 
ATOM     73  Br  UNL     1      25.923  26.033  28.502  1.00  0.00    -0.047 Br
BRANCH  68  74
ATOM     74  O   UNL     1      24.140  24.057  26.868  1.00  0.00    -0.506 OA
ATOM     75  H   UNL     1      23.377  23.476  27.174  1.00  0.00     0.293 HD
ENDBRANCH  68  74
ENDBRANCH  65  66
ENDBRANCH  63  65
ENDBRANCH  59  60
ENDBRANCH  58  59
ENDBRANCH  55  58
ENDBRANCH  53  54
ENDBRANCH  50  53
ENDBRANCH  47  50
ENDBRANCH   5  47
BRANCH   4  76
ATOM     76  N   UNL     1      30.726  20.764  21.438  1.00  0.00    -0.348 N 
ATOM     77  C   UNL     1      30.618  21.039  22.826  1.00  0.00     0.217 C 
ATOM     78  H   UNL     1      31.675  20.817  21.001  1.00  0.00     0.163 HD
ATOM     79  C   UNL     1      31.855  21.384  23.595  1.00  0.00     0.114 C 
ATOM     80  O   UNL     1      29.479  20.988  23.400  1.00  0.00    -0.275 OA
ENDBRANCH   4  76
TORSDOF 32
