REMARK VINA RESULT:    -5.922      5.079     10.992
REMARK INTER + INTRA:         -25.378
REMARK INTER:                 -15.988
REMARK INTRA:                  -9.391
REMARK UNBOUND:                -7.166
REMARK SMILES CC(=O)N[C@@H]1[C@@H](O)C[C@](OC[C@H]2O[C@@H](O[C@H]3[C@H](O)[C@@H](O)[C@H](OCCN=[N+]=[N-])O[C@@H]3CO)[C@H](O)[C@@H](O)[C@H]2O)(C(=O)O)O[C@H]1C(O)[C@H](O)CNC(=O)OCc1cn(CCCCCCCCCCC(=O)O)nn1
REMARK SMILES IDX 51 1 49 2 48 3 50 5 47 6 45 7 43 8 42 9 9 10 8 11 41 12 6 13
REMARK SMILES IDX 5 14 10 15 11 16 12 17 14 18 13 19 32 20 34 21 36 22 15 23
REMARK SMILES IDX 16 24 29 25 28 26 21 27 17 28 19 29 30 30 31 31 22 33 23 34
REMARK SMILES IDX 24 35 25 36 26 37 27 38 18 39 20 41 33 43 35 45 37 47 38 49
REMARK SMILES IDX 39 50 40 51 7 53 4 55 2 56 1 58 3 59 44 60 46 62 52 64 53 65
REMARK SMILES IDX 54 66 70 67 55 68 69 69 56 70 57 71 58 72 59 73 60 74 61 75
REMARK SMILES IDX 62 76 63 77 64 78 65 79 66 80 67 81 68 82
REMARK H PARENT 48 4 31 32 18 40 20 42 33 44 35 46 37 48 40 52 7 54 4 57 44 61
REMARK H PARENT 46 63 68 83
REMARK Flexibility Score: inf
ROOT
ATOM      1  O   UNL     1      19.378  29.999  18.267  1.00  0.00    -0.443 OA
ENDROOT
BRANCH   1   2
ATOM      2  C   UNL     1      20.421  30.043  19.218  1.00  0.00     0.407 C 
ATOM      3  N   UNL     1      20.138  30.083  20.606  1.00  0.00    -0.319 N 
ATOM      4  H   UNL     1      19.129  30.088  20.912  1.00  0.00     0.167 HD
ATOM      5  O   UNL     1      21.621  30.044  18.859  1.00  0.00    -0.225 OA
BRANCH   3   6
ATOM      6  C   UNL     1      21.164  30.119  21.604  1.00  0.00     0.154 C 
BRANCH   6   7
ATOM      7  C   UNL     1      21.816  28.769  21.884  1.00  0.00     0.165 C 
BRANCH   7   8
ATOM      8  C   UNL     1      21.605  28.504  23.333  1.00  0.00     0.176 C 
BRANCH   8   9
ATOM      9  C   UNL     1      22.186  27.214  23.865  1.00  0.00     0.178 C 
ATOM     10  C   UNL     1      23.483  25.424  23.145  1.00  0.00     0.272 C 
ATOM     11  C   UNL     1      22.626  24.557  24.042  1.00  0.00     0.113 C 
ATOM     12  O   UNL     1      22.737  26.538  22.812  1.00  0.00    -0.332 OA
ATOM     13  C   UNL     1      21.211  25.025  24.160  1.00  0.00     0.145 C 
ATOM     14  C   UNL     1      21.214  26.440  24.699  1.00  0.00     0.142 C 
BRANCH  10  15
ATOM     15  O   UNL     1      23.856  24.722  21.987  1.00  0.00    -0.338 OA
BRANCH  15  16
ATOM     16  C   UNL     1      23.301  25.131  20.822  1.00  0.00     0.199 C 
BRANCH  16  17
ATOM     17  C   UNL     1      24.371  25.983  20.107  1.00  0.00     0.179 C 
ATOM     18  C   UNL     1      25.926  24.500  19.114  1.00  0.00     0.282 C 
ATOM     19  O   UNL     1      25.576  25.402  20.064  1.00  0.00    -0.341 OA
ATOM     20  C   UNL     1      25.021  24.473  17.941  1.00  0.00     0.202 C 
ATOM     21  C   UNL     1      24.583  25.898  17.623  1.00  0.00     0.179 C 
ATOM     22  C   UNL     1      23.828  26.496  18.792  1.00  0.00     0.177 C 
BRANCH  18  23
ATOM     23  O   UNL     1      26.046  23.249  19.771  1.00  0.00    -0.341 OA
BRANCH  23  24
ATOM     24  C   UNL     1      27.384  23.086  20.105  1.00  0.00     0.184 C 
ATOM     25  C   UNL     1      28.070  21.938  19.440  1.00  0.00     0.178 C 
ATOM     26  O   UNL     1      29.318  21.755  19.957  1.00  0.00    -0.341 OA
ATOM     27  C   UNL     1      29.859  22.649  20.803  1.00  0.00     0.281 C 
ATOM     28  C   UNL     1      27.511  22.840  21.617  1.00  0.00     0.180 C 
ATOM     29  C   UNL     1      28.969  23.061  21.952  1.00  0.00     0.202 C 
BRANCH  25  30
ATOM     30  C   UNL     1      28.154  22.071  17.930  1.00  0.00     0.191 C 
BRANCH  30  31
ATOM     31  O   UNL     1      28.742  23.235  17.509  1.00  0.00    -0.394 OA
ATOM     32  H   UNL     1      28.613  23.316  16.528  1.00  0.00     0.210 HD
ENDBRANCH  30  31
ENDBRANCH  25  30
BRANCH  27  33
ATOM     33  O   UNL     1      30.232  23.796  20.116  1.00  0.00    -0.350 OA
BRANCH  33  34
ATOM     34  C   UNL     1      30.592  24.832  20.977  1.00  0.00     0.169 C 
BRANCH  34  35
ATOM     35  C   UNL     1      30.568  26.171  20.294  1.00  0.00     0.119 C 
BRANCH  35  36
ATOM     36  N   UNL     1      29.221  26.402  19.769  1.00  0.00    -0.092 NA
ATOM     37  N   UNL     1      28.418  27.143  20.377  1.00  0.00     0.001 N 
ATOM     38  N   UNL     1      27.836  27.898  21.186  1.00  0.00    -0.003 NA
ENDBRANCH  35  36
ENDBRANCH  34  35
ENDBRANCH  33  34
ENDBRANCH  27  33
BRANCH  28  39
ATOM     39  O   UNL     1      26.726  23.695  22.361  1.00  0.00    -0.387 OA
ATOM     40  H   UNL     1      25.770  23.438  22.383  1.00  0.00     0.211 HD
ENDBRANCH  28  39
BRANCH  29  41
ATOM     41  O   UNL     1      29.275  22.242  23.035  1.00  0.00    -0.385 OA
ATOM     42  H   UNL     1      30.249  21.998  22.958  1.00  0.00     0.211 HD
ENDBRANCH  29  41
ENDBRANCH  23  24
ENDBRANCH  18  23
BRANCH  20  43
ATOM     43  O   UNL     1      25.661  24.028  16.776  1.00  0.00    -0.385 OA
ATOM     44  H   UNL     1      26.334  23.351  17.081  1.00  0.00     0.211 HD
ENDBRANCH  20  43
BRANCH  21  45
ATOM     45  O   UNL     1      23.777  25.922  16.487  1.00  0.00    -0.387 OA
ATOM     46  H   UNL     1      23.388  26.831  16.440  1.00  0.00     0.211 HD
ENDBRANCH  21  45
BRANCH  22  47
ATOM     47  O   UNL     1      22.504  26.157  18.657  1.00  0.00    -0.387 OA
ATOM     48  H   UNL     1      22.295  26.083  17.690  1.00  0.00     0.211 HD
ENDBRANCH  22  47
ENDBRANCH  16  17
ENDBRANCH  15  16
ENDBRANCH  10  15
BRANCH  10  49
ATOM     49  C   UNL     1      24.750  25.794  23.783  1.00  0.00     0.364 C 
ATOM     50  O   UNL     1      24.993  25.573  24.981  1.00  0.00    -0.246 OA
BRANCH  49  51
ATOM     51  O   UNL     1      25.747  26.421  23.054  1.00  0.00    -0.477 OA
ATOM     52  H   UNL     1      26.664  25.994  22.903  1.00  0.00     0.296 HD
ENDBRANCH  49  51
ENDBRANCH  10  49
BRANCH  13  53
ATOM     53  O   UNL     1      20.441  24.892  23.026  1.00  0.00    -0.391 OA
ATOM     54  H   UNL     1      19.461  24.808  23.210  1.00  0.00     0.211 HD
ENDBRANCH  13  53
BRANCH  14  55
ATOM     55  N   UNL     1      21.527  26.368  26.088  1.00  0.00    -0.348 N 
ATOM     56  C   UNL     1      21.218  27.384  27.036  1.00  0.00     0.217 C 
ATOM     57  H   UNL     1      22.019  25.528  26.478  1.00  0.00     0.163 HD
ATOM     58  C   UNL     1      21.575  27.236  28.458  1.00  0.00     0.114 C 
ATOM     59  O   UNL     1      20.634  28.402  26.622  1.00  0.00    -0.275 OA
ENDBRANCH  14  55
ENDBRANCH   8   9
BRANCH   8  60
ATOM     60  O   UNL     1      20.285  28.699  23.636  1.00  0.00    -0.388 OA
ATOM     61  H   UNL     1      19.688  28.775  22.874  1.00  0.00     0.211 HD
ENDBRANCH   8  60
ENDBRANCH   7   8
BRANCH   7  62
ATOM     62  O   UNL     1      23.148  28.876  21.499  1.00  0.00    -0.388 OA
ATOM     63  H   UNL     1      23.353  29.760  21.107  1.00  0.00     0.211 HD
ENDBRANCH   7  62
ENDBRANCH   6   7
ENDBRANCH   3   6
ENDBRANCH   1   2
BRANCH   1  64
ATOM     64  C   UNL     1      18.827  28.706  17.984  1.00  0.00     0.294 C 
BRANCH  64  65
ATOM     65  C   UNL     1      17.630  28.547  18.836  1.00  0.00     0.120 A 
ATOM     66  C   UNL     1      16.357  28.974  18.503  1.00  0.00     0.138 A 
ATOM     67  N   UNL     1      17.544  27.974  20.045  1.00  0.00    -0.132 NA
ATOM     68  N   UNL     1      15.561  28.636  19.533  1.00  0.00    -0.252 N 
ATOM     69  N   UNL     1      16.312  28.023  20.469  1.00  0.00    -0.067 NA
BRANCH  68  70
ATOM     70  C   UNL     1      14.155  28.847  19.689  1.00  0.00     0.146 C 
BRANCH  70  71
ATOM     71  C   UNL     1      13.725  30.258  19.881  1.00  0.00     0.024 C 
BRANCH  71  72
ATOM     72  C   UNL     1      13.018  30.564  21.154  1.00  0.00     0.002 C 
BRANCH  72  73
ATOM     73  C   UNL     1      12.842  29.420  22.091  1.00  0.00     0.000 C 
BRANCH  73  74
ATOM     74  C   UNL     1      12.087  29.717  23.340  1.00  0.00     0.000 C 
BRANCH  74  75
ATOM     75  C   UNL     1      12.128  31.191  23.634  1.00  0.00     0.000 C 
BRANCH  75  76
ATOM     76  C   UNL     1      12.996  31.536  24.825  1.00  0.00     0.000 C 
BRANCH  76  77
ATOM     77  C   UNL     1      14.445  31.663  24.488  1.00  0.00     0.001 C 
BRANCH  77  78
ATOM     78  C   UNL     1      15.311  30.560  25.014  1.00  0.00     0.012 C 
BRANCH  78  79
ATOM     79  C   UNL     1      15.773  29.715  23.839  1.00  0.00     0.122 C 
BRANCH  79  80
ATOM     80  C   UNL     1      17.178  30.040  23.539  1.00  0.00     0.303 C 
ATOM     81  O   UNL     1      17.922  30.521  24.418  1.00  0.00    -0.252 OA
BRANCH  80  82
ATOM     82  O   UNL     1      17.717  29.826  22.278  1.00  0.00    -0.481 OA
ATOM     83  H   UNL     1      17.603  30.483  21.528  1.00  0.00     0.296 HD
ENDBRANCH  80  82
ENDBRANCH  79  80
ENDBRANCH  78  79
ENDBRANCH  77  78
ENDBRANCH  76  77
ENDBRANCH  75  76
ENDBRANCH  74  75
ENDBRANCH  73  74
ENDBRANCH  72  73
ENDBRANCH  71  72
ENDBRANCH  70  71
ENDBRANCH  68  70
ENDBRANCH  64  65
ENDBRANCH   1  64
TORSDOF 41
