REMARK VINA RESULT:    -6.799      2.681     10.042
REMARK INTER + INTRA:         -22.619
REMARK INTER:                 -15.281
REMARK INTRA:                  -7.338
REMARK UNBOUND:                -5.087
REMARK SMILES CC(=O)N[C@@H]1[C@@H](O)C[C@](OC[C@H]2O[C@@H](O[C@H]3[C@H](O)[C@@H](O)[C@H](OCCN=[N+]=[N-])O[C@@H]3CO)[C@H](O)[C@@H](O)[C@H]2O)(C(=O)O)O[C@H]1C(O)[C@H](O)CNC(=O)OCc1cn(CS(=O)(=O)c2ccccc2)nn1
REMARK SMILES IDX 9 1 8 2 6 3 5 4 42 5 41 6 10 7 11 8 12 9 14 10 13 11 32 12
REMARK SMILES IDX 34 13 36 14 15 15 16 16 29 17 28 18 21 19 17 20 19 21 30 22
REMARK SMILES IDX 31 23 22 25 23 26 24 27 25 28 26 29 27 30 18 31 20 33 33 35
REMARK SMILES IDX 35 37 37 39 38 41 39 42 40 43 7 45 43 47 44 48 45 50 46 51
REMARK SMILES IDX 47 53 48 54 49 55 50 57 51 58 52 59 53 60 54 61 67 62 55 63
REMARK SMILES IDX 66 64 56 65 57 66 58 67 59 68 60 69 61 70 65 71 62 72 64 73
REMARK SMILES IDX 63 74 4 75 2 76 1 78 3 79
REMARK H PARENT 31 24 18 32 20 34 33 36 35 38 37 40 40 44 7 46 44 49 46 52
REMARK H PARENT 48 56 4 77
REMARK Flexibility Score: inf
ROOT
ATOM      1  C   UNL     1      23.541  25.396  22.309  1.00  0.00     0.272 C 
ATOM      2  C   UNL     1      22.551  24.325  22.523  1.00  0.00     0.113 C 
ATOM      3  C   UNL     1      21.230  24.780  23.112  1.00  0.00     0.145 C 
ATOM      4  C   UNL     1      21.557  25.606  24.307  1.00  0.00     0.142 C 
ATOM      5  C   UNL     1      22.581  26.672  24.035  1.00  0.00     0.178 C 
ATOM      6  O   UNL     1      23.676  26.319  23.333  1.00  0.00    -0.332 OA
ENDROOT
BRANCH   1   7
ATOM      7  O   UNL     1      23.455  25.990  21.067  1.00  0.00    -0.338 OA
BRANCH   7   8
ATOM      8  C   UNL     1      23.768  25.229  19.989  1.00  0.00     0.199 C 
BRANCH   8   9
ATOM      9  C   UNL     1      22.696  25.372  18.887  1.00  0.00     0.179 C 
ATOM     10  C   UNL     1      22.140  27.589  18.273  1.00  0.00     0.282 C 
ATOM     11  O   UNL     1      22.038  26.517  19.113  1.00  0.00    -0.341 OA
ATOM     12  C   UNL     1      23.466  27.657  17.615  1.00  0.00     0.202 C 
ATOM     13  C   UNL     1      23.833  26.365  16.949  1.00  0.00     0.179 C 
ATOM     14  C   UNL     1      23.198  25.163  17.519  1.00  0.00     0.177 C 
BRANCH  10  15
ATOM     15  O   UNL     1      21.878  28.707  19.081  1.00  0.00    -0.341 OA
BRANCH  15  16
ATOM     16  C   UNL     1      20.602  29.159  19.094  1.00  0.00     0.184 C 
ATOM     17  C   UNL     1      20.504  30.634  18.841  1.00  0.00     0.178 C 
ATOM     18  O   UNL     1      19.196  30.898  18.447  1.00  0.00    -0.341 OA
ATOM     19  C   UNL     1      18.227  30.330  19.226  1.00  0.00     0.281 C 
ATOM     20  C   UNL     1      19.965  28.999  20.497  1.00  0.00     0.180 C 
ATOM     21  C   UNL     1      18.681  29.732  20.501  1.00  0.00     0.202 C 
BRANCH  17  22
ATOM     22  C   UNL     1      21.434  31.185  17.818  1.00  0.00     0.191 C 
BRANCH  22  23
ATOM     23  O   UNL     1      21.249  30.509  16.617  1.00  0.00    -0.394 OA
ATOM     24  H   UNL     1      20.714  29.696  16.768  1.00  0.00     0.210 HD
ENDBRANCH  22  23
ENDBRANCH  17  22
BRANCH  19  25
ATOM     25  O   UNL     1      17.620  29.342  18.454  1.00  0.00    -0.350 OA
BRANCH  25  26
ATOM     26  C   UNL     1      17.316  29.817  17.157  1.00  0.00     0.169 C 
BRANCH  26  27
ATOM     27  C   UNL     1      16.467  28.789  16.442  1.00  0.00     0.119 C 
BRANCH  27  28
ATOM     28  N   UNL     1      16.427  29.155  15.028  1.00  0.00    -0.092 NA
ATOM     29  N   UNL     1      17.473  29.009  14.365  1.00  0.00     0.001 N 
ATOM     30  N   UNL     1      18.596  29.090  13.834  1.00  0.00    -0.003 NA
ENDBRANCH  27  28
ENDBRANCH  26  27
ENDBRANCH  25  26
ENDBRANCH  19  25
BRANCH  20  31
ATOM     31  O   UNL     1      19.763  27.659  20.782  1.00  0.00    -0.387 OA
ATOM     32  H   UNL     1      19.325  27.597  21.668  1.00  0.00     0.211 HD
ENDBRANCH  20  31
BRANCH  21  33
ATOM     33  O   UNL     1      18.798  30.793  21.434  1.00  0.00    -0.385 OA
ATOM     34  H   UNL     1      18.225  31.556  21.206  1.00  0.00     0.211 HD
ENDBRANCH  21  33
ENDBRANCH  15  16
ENDBRANCH  10  15
BRANCH  12  35
ATOM     35  O   UNL     1      23.458  28.608  16.545  1.00  0.00    -0.385 OA
ATOM     36  H   UNL     1      23.742  29.457  16.961  1.00  0.00     0.211 HD
ENDBRANCH  12  35
BRANCH  13  37
ATOM     37  O   UNL     1      25.242  26.217  16.891  1.00  0.00    -0.387 OA
ATOM     38  H   UNL     1      25.602  26.793  16.157  1.00  0.00     0.211 HD
ENDBRANCH  13  37
BRANCH  14  39
ATOM     39  O   UNL     1      24.092  24.080  17.429  1.00  0.00    -0.387 OA
ATOM     40  H   UNL     1      23.863  23.443  18.154  1.00  0.00     0.211 HD
ENDBRANCH  14  39
ENDBRANCH   8   9
ENDBRANCH   7   8
ENDBRANCH   1   7
BRANCH   1  41
ATOM     41  C   UNL     1      24.892  24.699  22.351  1.00  0.00     0.364 C 
ATOM     42  O   UNL     1      24.906  23.457  22.333  1.00  0.00    -0.246 OA
BRANCH  41  43
ATOM     43  O   UNL     1      26.061  25.439  22.404  1.00  0.00    -0.477 OA
ATOM     44  H   UNL     1      26.958  25.010  22.132  1.00  0.00     0.296 HD
ENDBRANCH  41  43
ENDBRANCH   1  41
BRANCH   3  45
ATOM     45  O   UNL     1      20.505  25.418  22.144  1.00  0.00    -0.391 OA
ATOM     46  H   UNL     1      19.850  26.015  22.600  1.00  0.00     0.211 HD
ENDBRANCH   3  45
BRANCH   5  47
ATOM     47  C   UNL     1      21.962  27.976  23.590  1.00  0.00     0.176 C 
BRANCH  47  48
ATOM     48  O   UNL     1      20.574  28.005  23.709  1.00  0.00    -0.388 OA
ATOM     49  H   UNL     1      20.159  28.828  23.413  1.00  0.00     0.211 HD
ENDBRANCH  47  48
BRANCH  47  50
ATOM     50  C   UNL     1      22.553  29.183  24.304  1.00  0.00     0.165 C 
BRANCH  50  51
ATOM     51  O   UNL     1      22.145  29.284  25.614  1.00  0.00    -0.388 OA
ATOM     52  H   UNL     1      21.444  29.931  25.788  1.00  0.00     0.211 HD
ENDBRANCH  50  51
BRANCH  50  53
ATOM     53  C   UNL     1      22.406  30.462  23.571  1.00  0.00     0.154 C 
BRANCH  53  54
ATOM     54  N   UNL     1      21.081  30.979  23.404  1.00  0.00    -0.319 N 
ATOM     55  C   UNL     1      20.372  31.784  24.324  1.00  0.00     0.407 C 
ATOM     56  H   UNL     1      20.575  30.734  22.499  1.00  0.00     0.167 HD
ATOM     57  O   UNL     1      20.883  32.132  25.405  1.00  0.00    -0.225 OA
BRANCH  55  58
ATOM     58  O   UNL     1      19.085  32.184  24.001  1.00  0.00    -0.443 OA
BRANCH  58  59
ATOM     59  C   UNL     1      18.005  32.175  24.887  1.00  0.00     0.294 C 
BRANCH  59  60
ATOM     60  C   UNL     1      17.074  31.091  24.523  1.00  0.00     0.120 A 
ATOM     61  C   UNL     1      15.723  31.097  24.826  1.00  0.00     0.139 A 
ATOM     62  N   UNL     1      17.283  29.941  23.864  1.00  0.00    -0.132 NA
ATOM     63  N   UNL     1      15.159  29.972  24.350  1.00  0.00    -0.237 N 
ATOM     64  N   UNL     1      16.142  29.291  23.771  1.00  0.00    -0.066 NA
BRANCH  63  65
ATOM     65  C   UNL     1      13.777  29.591  24.445  1.00  0.00     0.287 C 
BRANCH  65  66
ATOM     66  S   UNL     1      12.866  30.689  23.360  1.00  0.00     0.198 S 
ATOM     67  O   UNL     1      13.154  32.105  23.681  1.00  0.00    -0.222 OA
ATOM     68  O   UNL     1      11.393  30.361  23.545  1.00  0.00    -0.222 OA
BRANCH  66  69
ATOM     69  C   UNL     1      13.339  30.311  21.724  1.00  0.00     0.069 A 
ATOM     70  C   UNL     1      13.365  31.266  20.731  1.00  0.00     0.020 A 
ATOM     71  C   UNL     1      13.707  29.032  21.370  1.00  0.00     0.020 A 
ATOM     72  C   UNL     1      13.736  30.971  19.445  1.00  0.00     0.001 A 
ATOM     73  C   UNL     1      14.080  28.720  20.088  1.00  0.00     0.001 A 
ATOM     74  C   UNL     1      14.094  29.696  19.124  1.00  0.00     0.000 A 
ENDBRANCH  66  69
ENDBRANCH  65  66
ENDBRANCH  63  65
ENDBRANCH  59  60
ENDBRANCH  58  59
ENDBRANCH  55  58
ENDBRANCH  53  54
ENDBRANCH  50  53
ENDBRANCH  47  50
ENDBRANCH   5  47
BRANCH   4  75
ATOM     75  N   UNL     1      22.114  24.733  25.334  1.00  0.00    -0.348 N 
ATOM     76  C   UNL     1      22.297  25.177  26.674  1.00  0.00     0.217 C 
ATOM     77  H   UNL     1      22.409  23.730  25.128  1.00  0.00     0.163 HD
ATOM     78  C   UNL     1      22.877  24.235  27.696  1.00  0.00     0.114 C 
ATOM     79  O   UNL     1      21.978  26.352  27.015  1.00  0.00    -0.275 OA
ENDBRANCH   4  75
TORSDOF 32
