REMARK VINA RESULT:    -6.013     18.745     26.451
REMARK INTER + INTRA:         -22.289
REMARK INTER:                 -15.105
REMARK INTRA:                  -7.184
REMARK UNBOUND:                -6.784
REMARK SMILES COc1ccc(Cn2cc(COC(=O)NC[C@@H](O)C(O)[C@@H]3O[C@@](OC[C@H]4O[C@@H](O[C@H]5[C@H](O)[C@@H](O)[C@H](OCCN=[N+]=[N-])O[C@@H]5CO)[C@H](O)[C@@H](O)[C@H]4O)(C(=O)O)C[C@H](O)[C@H]3NC(C)=O)nn2)cc1
REMARK SMILES IDX 23 1 55 2 56 3 58 4 21 5 22 6 24 7 25 8 26 9 28 10 27 11
REMARK SMILES IDX 46 12 48 13 50 14 29 15 30 16 43 17 42 18 35 19 31 20 33 21
REMARK SMILES IDX 44 22 45 23 36 25 37 26 38 27 39 28 40 29 41 30 32 31 34 33
REMARK SMILES IDX 47 35 49 37 51 39 52 41 53 42 54 43 57 45 19 47 20 48 17 50
REMARK SMILES IDX 18 51 16 53 15 54 13 55 14 57 12 58 11 59 10 60 9 61 63 62
REMARK SMILES IDX 8 63 64 64 7 65 6 66 5 67 65 68 4 69 66 70 3 71 2 72 1 73
REMARK SMILES IDX 59 74 60 75 61 77 62 78
REMARK H PARENT 45 24 32 32 34 34 47 36 49 38 51 40 54 44 57 46 20 49 18 52
REMARK H PARENT 15 56 59 76
REMARK Flexibility Score: inf
ROOT
ATOM      1  C   UNL     1       3.456  21.845  33.401  1.00  0.00     0.272 C 
ATOM      2  C   UNL     1       4.494  21.360  32.410  1.00  0.00     0.113 C 
ATOM      3  C   UNL     1       3.808  20.748  31.206  1.00  0.00     0.145 C 
ATOM      4  C   UNL     1       2.676  21.576  30.672  1.00  0.00     0.142 C 
ATOM      5  C   UNL     1       2.387  22.811  31.508  1.00  0.00     0.178 C 
ATOM      6  O   UNL     1       2.457  22.548  32.862  1.00  0.00    -0.332 OA
ENDROOT
BRANCH   1   7
ATOM      7  O   UNL     1       4.017  22.298  34.547  1.00  0.00    -0.338 OA
BRANCH   7   8
ATOM      8  C   UNL     1       3.415  23.149  35.384  1.00  0.00     0.199 C 
BRANCH   8   9
ATOM      9  C   UNL     1       4.366  24.149  36.006  1.00  0.00     0.179 C 
ATOM     10  C   UNL     1       6.358  24.145  37.108  1.00  0.00     0.282 C 
ATOM     11  O   UNL     1       5.688  23.622  35.980  1.00  0.00    -0.341 OA
ATOM     12  C   UNL     1       6.047  25.580  37.322  1.00  0.00     0.202 C 
ATOM     13  C   UNL     1       5.403  26.308  36.191  1.00  0.00     0.179 C 
ATOM     14  C   UNL     1       4.443  25.480  35.360  1.00  0.00     0.177 C 
BRANCH  10  15
ATOM     15  O   UNL     1       7.670  23.768  37.146  1.00  0.00    -0.341 OA
BRANCH  15  16
ATOM     16  C   UNL     1       8.522  24.387  36.256  1.00  0.00     0.184 C 
ATOM     17  C   UNL     1       9.079  23.490  35.176  1.00  0.00     0.178 C 
ATOM     18  O   UNL     1      10.333  23.936  34.759  1.00  0.00    -0.341 OA
ATOM     19  C   UNL     1      10.467  25.333  34.832  1.00  0.00     0.281 C 
ATOM     20  C   UNL     1       9.771  24.748  37.084  1.00  0.00     0.180 C 
ATOM     21  C   UNL     1      10.505  25.801  36.299  1.00  0.00     0.202 C 
BRANCH  17  22
ATOM     22  C   UNL     1       8.227  23.370  33.953  1.00  0.00     0.191 C 
BRANCH  22  23
ATOM     23  O   UNL     1       7.354  24.454  33.889  1.00  0.00    -0.394 OA
ATOM     24  H   UNL     1       6.933  24.439  32.983  1.00  0.00     0.210 HD
ENDBRANCH  22  23
ENDBRANCH  17  22
BRANCH  19  25
ATOM     25  O   UNL     1       9.541  26.028  34.124  1.00  0.00    -0.350 OA
BRANCH  25  26
ATOM     26  C   UNL     1       9.859  27.254  33.626  1.00  0.00     0.169 C 
BRANCH  26  27
ATOM     27  C   UNL     1       9.195  28.440  34.218  1.00  0.00     0.119 C 
BRANCH  27  28
ATOM     28  N   UNL     1       8.178  29.018  33.410  1.00  0.00    -0.092 NA
ATOM     29  N   UNL     1       7.316  28.373  32.796  1.00  0.00     0.001 N 
ATOM     30  N   UNL     1       6.193  27.900  32.506  1.00  0.00    -0.003 NA
ENDBRANCH  27  28
ENDBRANCH  26  27
ENDBRANCH  25  26
ENDBRANCH  19  25
BRANCH  20  31
ATOM     31  O   UNL     1       9.461  25.100  38.367  1.00  0.00    -0.387 OA
ATOM     32  H   UNL     1       9.509  24.313  38.999  1.00  0.00     0.211 HD
ENDBRANCH  20  31
BRANCH  21  33
ATOM     33  O   UNL     1      11.816  25.955  36.752  1.00  0.00    -0.385 OA
ATOM     34  H   UNL     1      12.437  25.845  35.985  1.00  0.00     0.211 HD
ENDBRANCH  21  33
ENDBRANCH  15  16
ENDBRANCH  10  15
BRANCH  12  35
ATOM     35  O   UNL     1       5.311  25.791  38.516  1.00  0.00    -0.385 OA
ATOM     36  H   UNL     1       4.658  25.035  38.636  1.00  0.00     0.211 HD
ENDBRANCH  12  35
BRANCH  13  37
ATOM     37  O   UNL     1       6.361  26.947  35.367  1.00  0.00    -0.387 OA
ATOM     38  H   UNL     1       5.880  27.346  34.598  1.00  0.00     0.211 HD
ENDBRANCH  13  37
BRANCH  14  39
ATOM     39  O   UNL     1       4.833  25.425  34.026  1.00  0.00    -0.387 OA
ATOM     40  H   UNL     1       4.255  25.976  33.443  1.00  0.00     0.211 HD
ENDBRANCH  14  39
ENDBRANCH   8   9
ENDBRANCH   7   8
ENDBRANCH   1   7
BRANCH   1  41
ATOM     41  C   UNL     1       2.878  20.491  33.931  1.00  0.00     0.364 C 
ATOM     42  O   UNL     1       3.606  19.730  34.603  1.00  0.00    -0.246 OA
BRANCH  41  43
ATOM     43  O   UNL     1       1.606  20.093  33.698  1.00  0.00    -0.477 OA
ATOM     44  H   UNL     1       1.220  19.661  32.896  1.00  0.00     0.296 HD
ENDBRANCH  41  43
ENDBRANCH   1  41
BRANCH   3  45
ATOM     45  O   UNL     1       4.847  20.670  30.232  1.00  0.00    -0.391 OA
ATOM     46  H   UNL     1       4.557  21.106  29.390  1.00  0.00     0.211 HD
ENDBRANCH   3  45
BRANCH   5  47
ATOM     47  C   UNL     1       3.205  23.919  30.968  1.00  0.00     0.176 C 
BRANCH  47  48
ATOM     48  O   UNL     1       3.142  25.110  31.748  1.00  0.00    -0.388 OA
ATOM     49  H   UNL     1       2.314  25.074  32.272  1.00  0.00     0.211 HD
ENDBRANCH  47  48
BRANCH  47  50
ATOM     50  C   UNL     1       2.650  24.516  29.642  1.00  0.00     0.165 C 
BRANCH  50  51
ATOM     51  O   UNL     1       3.517  24.736  28.648  1.00  0.00    -0.388 OA
ATOM     52  H   UNL     1       3.050  24.910  27.793  1.00  0.00     0.211 HD
ENDBRANCH  50  51
BRANCH  50  53
ATOM     53  C   UNL     1       1.904  25.811  30.032  1.00  0.00     0.154 C 
BRANCH  53  54
ATOM     54  N   UNL     1       2.430  26.970  29.390  1.00  0.00    -0.319 N 
ATOM     55  C   UNL     1       2.997  28.021  30.182  1.00  0.00     0.407 C 
ATOM     56  H   UNL     1       2.412  27.073  28.370  1.00  0.00     0.167 HD
ATOM     57  O   UNL     1       3.022  27.898  31.438  1.00  0.00    -0.225 OA
BRANCH  55  58
ATOM     58  O   UNL     1       3.499  29.134  29.531  1.00  0.00    -0.443 OA
BRANCH  58  59
ATOM     59  C   UNL     1       4.920  29.253  29.327  1.00  0.00     0.294 C 
BRANCH  59  60
ATOM     60  C   UNL     1       5.256  28.585  28.053  1.00  0.00     0.120 A 
ATOM     61  C   UNL     1       5.684  29.196  26.870  1.00  0.00     0.138 A 
ATOM     62  N   UNL     1       5.206  27.276  27.780  1.00  0.00    -0.132 NA
ATOM     63  N   UNL     1       5.862  28.226  25.964  1.00  0.00    -0.248 N 
ATOM     64  N   UNL     1       5.569  27.066  26.530  1.00  0.00    -0.067 NA
BRANCH  63  65
ATOM     65  C   UNL     1       6.296  28.409  24.602  1.00  0.00     0.181 C 
BRANCH  65  66
ATOM     66  C   UNL     1       7.740  28.731  24.595  1.00  0.00    -0.026 A 
ATOM     67  C   UNL     1       8.667  27.742  24.913  1.00  0.00     0.009 A 
ATOM     68  C   UNL     1       8.225  29.970  24.269  1.00  0.00     0.009 A 
ATOM     69  C   UNL     1      10.025  27.982  24.905  1.00  0.00     0.047 A 
ATOM     70  C   UNL     1       9.603  30.212  24.262  1.00  0.00     0.047 A 
ATOM     71  C   UNL     1      10.511  29.238  24.574  1.00  0.00     0.118 A 
BRANCH  71  72
ATOM     72  O   UNL     1      11.881  29.428  24.581  1.00  0.00    -0.497 OA
ATOM     73  C   UNL     1      12.630  29.887  23.494  1.00  0.00     0.278 C 
ENDBRANCH  71  72
ENDBRANCH  65  66
ENDBRANCH  63  65
ENDBRANCH  59  60
ENDBRANCH  58  59
ENDBRANCH  55  58
ENDBRANCH  53  54
ENDBRANCH  50  53
ENDBRANCH  47  50
ENDBRANCH   5  47
BRANCH   4  74
ATOM     74  N   UNL     1       1.471  20.839  30.356  1.00  0.00    -0.348 N 
ATOM     75  C   UNL     1       1.026  20.546  29.038  1.00  0.00     0.217 C 
ATOM     76  H   UNL     1       0.873  20.509  31.128  1.00  0.00     0.163 HD
ATOM     77  C   UNL     1      -0.257  19.771  28.827  1.00  0.00     0.114 C 
ATOM     78  O   UNL     1       1.698  20.930  28.052  1.00  0.00    -0.275 OA
ENDBRANCH   4  74
TORSDOF 32
