REMARK VINA RESULT:    -4.950      5.396      8.810
REMARK INTER + INTRA:         -20.894
REMARK INTER:                 -12.619
REMARK INTRA:                  -8.275
REMARK UNBOUND:                -8.275
REMARK SMILES CC(=O)N[C@@H]1[C@@H](O)C[C@](OC[C@H]2O[C@@H](O[C@H]3[C@H](O)[C@@H](O)[C@H](OCCN=[N+]=[N-])O[C@@H]3CO)[C@H](O)[C@@H](O)[C@H]2O)(C(=O)O)O[C@H]1C(O)[C@H](O)CNC(=O)OCc1cn(C(C)(C)C(=O)O)nn1
REMARK SMILES IDX 9 1 8 2 6 3 5 4 42 5 41 6 10 7 11 8 12 9 14 10 13 11 32 12
REMARK SMILES IDX 34 13 36 14 15 15 16 16 29 17 28 18 21 19 17 20 19 21 30 22
REMARK SMILES IDX 31 23 22 25 23 26 24 27 25 28 26 29 27 30 18 31 20 33 33 35
REMARK SMILES IDX 35 37 37 39 38 41 39 42 40 43 7 45 43 47 44 48 45 50 46 51
REMARK SMILES IDX 47 53 48 54 49 55 50 57 51 58 52 59 53 60 54 61 63 62 55 63
REMARK SMILES IDX 62 64 56 65 57 66 58 67 59 68 60 69 61 70 4 72 2 73 1 75
REMARK SMILES IDX 3 76
REMARK H PARENT 31 24 18 32 20 34 33 36 35 38 37 40 40 44 7 46 44 49 46 52
REMARK H PARENT 48 56 61 71 4 74
REMARK Flexibility Score: inf
ROOT
ATOM      1  C   UNL     1      23.471  25.902  27.087  1.00  0.00     0.272 C 
ATOM      2  C   UNL     1      23.522  24.524  26.570  1.00  0.00     0.113 C 
ATOM      3  C   UNL     1      23.682  24.406  25.081  1.00  0.00     0.145 C 
ATOM      4  C   UNL     1      23.134  25.627  24.408  1.00  0.00     0.142 C 
ATOM      5  C   UNL     1      22.008  26.134  25.329  1.00  0.00     0.178 C 
ATOM      6  O   UNL     1      22.613  26.762  26.393  1.00  0.00    -0.332 OA
ENDROOT
BRANCH   1   7
ATOM      7  O   UNL     1      24.678  26.521  27.191  1.00  0.00    -0.338 OA
BRANCH   7   8
ATOM      8  C   UNL     1      25.673  25.899  27.879  1.00  0.00     0.199 C 
BRANCH   8   9
ATOM      9  C   UNL     1      26.284  26.815  28.916  1.00  0.00     0.179 C 
ATOM     10  C   UNL     1      26.200  29.003  29.645  1.00  0.00     0.282 C 
ATOM     11  O   UNL     1      25.519  27.979  28.892  1.00  0.00    -0.341 OA
ATOM     12  C   UNL     1      26.108  28.597  31.067  1.00  0.00     0.202 C 
ATOM     13  C   UNL     1      25.566  27.178  31.225  1.00  0.00     0.179 C 
ATOM     14  C   UNL     1      26.263  26.218  30.273  1.00  0.00     0.177 C 
BRANCH  10  15
ATOM     15  O   UNL     1      25.580  30.150  29.250  1.00  0.00    -0.341 OA
BRANCH  15  16
ATOM     16  C   UNL     1      24.659  30.001  28.228  1.00  0.00     0.184 C 
ATOM     17  C   UNL     1      24.959  30.974  27.132  1.00  0.00     0.178 C 
ATOM     18  O   UNL     1      23.831  31.213  26.333  1.00  0.00    -0.341 OA
ATOM     19  C   UNL     1      22.880  31.997  26.971  1.00  0.00     0.281 C 
ATOM     20  C   UNL     1      23.248  30.307  28.734  1.00  0.00     0.180 C 
ATOM     21  C   UNL     1      22.913  31.751  28.464  1.00  0.00     0.202 C 
BRANCH  17  22
ATOM     22  C   UNL     1      26.006  30.415  26.154  1.00  0.00     0.191 C 
BRANCH  22  23
ATOM     23  O   UNL     1      25.932  29.038  26.214  1.00  0.00    -0.394 OA
ATOM     24  H   UNL     1      25.952  28.762  27.178  1.00  0.00     0.210 HD
ENDBRANCH  22  23
ENDBRANCH  17  22
BRANCH  19  25
ATOM     25  O   UNL     1      21.649  31.635  26.425  1.00  0.00    -0.350 OA
BRANCH  25  26
ATOM     26  C   UNL     1      21.015  32.627  25.724  1.00  0.00     0.169 C 
BRANCH  26  27
ATOM     27  C   UNL     1      19.531  32.539  26.107  1.00  0.00     0.119 C 
BRANCH  27  28
ATOM     28  N   UNL     1      19.287  31.524  27.106  1.00  0.00    -0.092 NA
ATOM     29  N   UNL     1      18.111  31.220  27.358  1.00  0.00     0.001 N 
ATOM     30  N   UNL     1      16.960  31.113  27.759  1.00  0.00    -0.003 NA
ENDBRANCH  27  28
ENDBRANCH  26  27
ENDBRANCH  25  26
ENDBRANCH  19  25
BRANCH  20  31
ATOM     31  O   UNL     1      22.332  29.519  28.044  1.00  0.00    -0.387 OA
ATOM     32  H   UNL     1      22.001  29.946  27.215  1.00  0.00     0.211 HD
ENDBRANCH  20  31
BRANCH  21  33
ATOM     33  O   UNL     1      23.864  32.542  29.097  1.00  0.00    -0.385 OA
ATOM     34  H   UNL     1      23.545  32.942  29.941  1.00  0.00     0.211 HD
ENDBRANCH  21  33
ENDBRANCH  15  16
ENDBRANCH  10  15
BRANCH  12  35
ATOM     35  O   UNL     1      27.418  28.534  31.592  1.00  0.00    -0.385 OA
ATOM     36  H   UNL     1      27.639  27.683  31.999  1.00  0.00     0.211 HD
ENDBRANCH  12  35
BRANCH  13  37
ATOM     37  O   UNL     1      24.195  27.164  31.051  1.00  0.00    -0.387 OA
ATOM     38  H   UNL     1      23.816  28.069  31.192  1.00  0.00     0.211 HD
ENDBRANCH  13  37
BRANCH  14  39
ATOM     39  O   UNL     1      25.540  25.036  30.293  1.00  0.00    -0.387 OA
ATOM     40  H   UNL     1      24.901  25.085  31.060  1.00  0.00     0.211 HD
ENDBRANCH  14  39
ENDBRANCH   8   9
ENDBRANCH   7   8
ENDBRANCH   1   7
BRANCH   1  41
ATOM     41  C   UNL     1      22.814  25.822  28.470  1.00  0.00     0.364 C 
ATOM     42  O   UNL     1      22.985  24.815  29.191  1.00  0.00    -0.246 OA
BRANCH  41  43
ATOM     43  O   UNL     1      22.027  26.852  28.947  1.00  0.00    -0.477 OA
ATOM     44  H   UNL     1      21.168  27.152  28.514  1.00  0.00     0.296 HD
ENDBRANCH  41  43
ENDBRANCH   1  41
BRANCH   3  45
ATOM     45  O   UNL     1      25.022  24.285  24.777  1.00  0.00    -0.391 OA
ATOM     46  H   UNL     1      25.320  24.944  24.097  1.00  0.00     0.211 HD
ENDBRANCH   3  45
BRANCH   5  47
ATOM     47  C   UNL     1      21.085  27.073  24.605  1.00  0.00     0.176 C 
BRANCH  47  48
ATOM     48  O   UNL     1      19.794  26.936  25.107  1.00  0.00    -0.388 OA
ATOM     49  H   UNL     1      19.203  27.673  24.772  1.00  0.00     0.211 HD
ENDBRANCH  47  48
BRANCH  47  50
ATOM     50  C   UNL     1      21.525  28.502  24.830  1.00  0.00     0.165 C 
BRANCH  50  51
ATOM     51  O   UNL     1      20.746  29.116  25.820  1.00  0.00    -0.388 OA
ATOM     52  H   UNL     1      21.177  28.958  26.689  1.00  0.00     0.211 HD
ENDBRANCH  50  51
BRANCH  50  53
ATOM     53  C   UNL     1      21.453  29.340  23.582  1.00  0.00     0.154 C 
BRANCH  53  54
ATOM     54  N   UNL     1      20.446  28.850  22.672  1.00  0.00    -0.319 N 
ATOM     55  C   UNL     1      20.777  28.398  21.372  1.00  0.00     0.407 C 
ATOM     56  H   UNL     1      19.449  28.823  22.964  1.00  0.00     0.167 HD
ATOM     57  O   UNL     1      21.959  28.398  20.945  1.00  0.00    -0.225 OA
BRANCH  55  58
ATOM     58  O   UNL     1      19.789  27.927  20.495  1.00  0.00    -0.443 OA
BRANCH  58  59
ATOM     59  C   UNL     1      18.960  28.879  19.818  1.00  0.00     0.294 C 
BRANCH  59  60
ATOM     60  C   UNL     1      17.577  28.804  20.285  1.00  0.00     0.120 A 
ATOM     61  C   UNL     1      16.880  29.791  20.934  1.00  0.00     0.139 A 
ATOM     62  N   UNL     1      16.753  27.760  20.161  1.00  0.00    -0.132 NA
ATOM     63  N   UNL     1      15.641  29.329  21.195  1.00  0.00    -0.235 N 
ATOM     64  N   UNL     1      15.611  28.086  20.704  1.00  0.00    -0.066 NA
BRANCH  63  65
ATOM     65  C   UNL     1      14.534  29.986  21.858  1.00  0.00     0.155 C 
ATOM     66  C   UNL     1      13.299  29.138  21.777  1.00  0.00     0.049 C 
ATOM     67  C   UNL     1      14.228  31.326  21.199  1.00  0.00     0.049 C 
BRANCH  65  68
ATOM     68  C   UNL     1      14.937  30.254  23.257  1.00  0.00     0.331 C 
ATOM     69  O   UNL     1      15.036  29.308  24.053  1.00  0.00    -0.250 OA
BRANCH  68  70
ATOM     70  O   UNL     1      15.193  31.558  23.643  1.00  0.00    -0.479 OA
ATOM     71  H   UNL     1      15.723  31.790  24.475  1.00  0.00     0.296 HD
ENDBRANCH  68  70
ENDBRANCH  65  68
ENDBRANCH  63  65
ENDBRANCH  59  60
ENDBRANCH  58  59
ENDBRANCH  55  58
ENDBRANCH  53  54
ENDBRANCH  50  53
ENDBRANCH  47  50
ENDBRANCH   5  47
BRANCH   4  72
ATOM     72  N   UNL     1      22.510  25.335  23.144  1.00  0.00    -0.348 N 
ATOM     73  C   UNL     1      23.219  25.200  21.916  1.00  0.00     0.217 C 
ATOM     74  H   UNL     1      21.478  25.211  23.122  1.00  0.00     0.163 HD
ATOM     75  C   UNL     1      22.492  24.895  20.645  1.00  0.00     0.114 C 
ATOM     76  O   UNL     1      24.470  25.340  21.910  1.00  0.00    -0.275 OA
ENDBRANCH   4  72
TORSDOF 32
