REMARK VINA RESULT:    -5.726      5.046     12.716
REMARK INTER + INTRA:         -21.284
REMARK INTER:                 -15.073
REMARK INTRA:                  -6.212
REMARK UNBOUND:                -6.855
REMARK SMILES CC(=O)N[C@@H]1[C@@H](O)C[C@](OC[C@H]2O[C@@H](O[C@H]3[C@H](O)[C@@H](O)[C@H](OCCN=[N+]=[N-])O[C@@H]3CO)[C@H](O)[C@@H](O)[C@H]2O)(C(=O)O)O[C@H]1C(O)[C@H](O)CNC(=O)OCc1cn(Cc2ccsc2)nn1
REMARK SMILES IDX 9 1 8 2 6 3 5 4 42 5 41 6 10 7 11 8 12 9 14 10 13 11 32 12
REMARK SMILES IDX 34 13 36 14 15 15 16 16 29 17 28 18 21 19 17 20 19 21 30 22
REMARK SMILES IDX 31 23 22 25 23 26 24 27 25 28 26 29 27 30 18 31 20 33 33 35
REMARK SMILES IDX 35 37 37 39 38 41 39 42 40 43 7 45 43 47 44 48 45 50 46 51
REMARK SMILES IDX 47 53 48 54 49 55 50 57 51 58 52 59 53 60 54 61 63 62 55 63
REMARK SMILES IDX 62 64 56 65 57 66 58 67 61 68 59 69 60 70 4 71 2 72 1 74
REMARK SMILES IDX 3 75
REMARK H PARENT 31 24 18 32 20 34 33 36 35 38 37 40 40 44 7 46 44 49 46 52
REMARK H PARENT 48 56 4 73
REMARK Flexibility Score: inf
ROOT
ATOM      1  C   UNL     1      22.322  22.767  13.270  1.00  0.00     0.272 C 
ATOM      2  C   UNL     1      20.883  22.502  12.941  1.00  0.00     0.113 C 
ATOM      3  C   UNL     1      20.658  21.513  11.830  1.00  0.00     0.145 C 
ATOM      4  C   UNL     1      21.546  20.333  11.910  1.00  0.00     0.142 C 
ATOM      5  C   UNL     1      22.875  20.585  12.596  1.00  0.00     0.178 C 
ATOM      6  O   UNL     1      22.861  21.466  13.618  1.00  0.00    -0.332 OA
ENDROOT
BRANCH   1   7
ATOM      7  O   UNL     1      22.410  23.418  14.449  1.00  0.00    -0.338 OA
BRANCH   7   8
ATOM      8  C   UNL     1      22.919  24.622  14.629  1.00  0.00     0.199 C 
BRANCH   8   9
ATOM      9  C   UNL     1      23.960  24.965  15.612  1.00  0.00     0.179 C 
ATOM     10  C   UNL     1      24.066  25.385  17.845  1.00  0.00     0.282 C 
ATOM     11  O   UNL     1      23.433  24.551  16.894  1.00  0.00    -0.341 OA
ATOM     12  C   UNL     1      25.545  25.438  17.677  1.00  0.00     0.202 C 
ATOM     13  C   UNL     1      26.132  24.521  16.665  1.00  0.00     0.179 C 
ATOM     14  C   UNL     1      25.230  24.135  15.528  1.00  0.00     0.177 C 
BRANCH  10  15
ATOM     15  O   UNL     1      23.665  24.974  19.092  1.00  0.00    -0.341 OA
BRANCH  15  16
ATOM     16  C   UNL     1      23.341  26.031  19.960  1.00  0.00     0.184 C 
ATOM     17  C   UNL     1      24.347  26.192  21.044  1.00  0.00     0.178 C 
ATOM     18  O   UNL     1      24.083  25.599  22.240  1.00  0.00    -0.341 OA
ATOM     19  C   UNL     1      22.916  24.817  22.270  1.00  0.00     0.281 C 
ATOM     20  C   UNL     1      21.913  25.975  20.401  1.00  0.00     0.180 C 
ATOM     21  C   UNL     1      21.793  25.753  21.916  1.00  0.00     0.202 C 
BRANCH  17  22
ATOM     22  C   UNL     1      24.700  27.649  21.300  1.00  0.00     0.191 C 
BRANCH  22  23
ATOM     23  O   UNL     1      25.356  28.110  20.160  1.00  0.00    -0.394 OA
ATOM     24  H   UNL     1      24.795  27.991  19.338  1.00  0.00     0.210 HD
ENDBRANCH  22  23
ENDBRANCH  17  22
BRANCH  19  25
ATOM     25  O   UNL     1      22.839  24.247  23.512  1.00  0.00    -0.350 OA
BRANCH  25  26
ATOM     26  C   UNL     1      23.171  25.099  24.547  1.00  0.00     0.169 C 
BRANCH  26  27
ATOM     27  C   UNL     1      24.065  24.528  25.598  1.00  0.00     0.119 C 
BRANCH  27  28
ATOM     28  N   UNL     1      24.043  25.330  26.792  1.00  0.00    -0.092 NA
ATOM     29  N   UNL     1      25.120  25.555  27.365  1.00  0.00     0.001 N 
ATOM     30  N   UNL     1      26.018  26.016  28.069  1.00  0.00    -0.003 NA
ENDBRANCH  27  28
ENDBRANCH  26  27
ENDBRANCH  25  26
ENDBRANCH  19  25
BRANCH  20  31
ATOM     31  O   UNL     1      21.150  27.051  20.001  1.00  0.00    -0.387 OA
ATOM     32  H   UNL     1      20.580  27.377  20.728  1.00  0.00     0.211 HD
ENDBRANCH  20  31
BRANCH  21  33
ATOM     33  O   UNL     1      20.564  25.271  22.282  1.00  0.00    -0.385 OA
ATOM     34  H   UNL     1      20.168  25.771  23.047  1.00  0.00     0.211 HD
ENDBRANCH  21  33
ENDBRANCH  15  16
ENDBRANCH  10  15
BRANCH  12  35
ATOM     35  O   UNL     1      25.998  26.771  17.499  1.00  0.00    -0.385 OA
ATOM     36  H   UNL     1      25.262  27.327  17.130  1.00  0.00     0.211 HD
ENDBRANCH  12  35
BRANCH  13  37
ATOM     37  O   UNL     1      26.514  23.325  17.306  1.00  0.00    -0.387 OA
ATOM     38  H   UNL     1      27.141  23.552  18.031  1.00  0.00     0.211 HD
ENDBRANCH  13  37
BRANCH  14  39
ATOM     39  O   UNL     1      24.794  22.796  15.677  1.00  0.00    -0.387 OA
ATOM     40  H   UNL     1      24.823  22.634  16.671  1.00  0.00     0.211 HD
ENDBRANCH  14  39
ENDBRANCH   8   9
ENDBRANCH   7   8
ENDBRANCH   1   7
BRANCH   1  41
ATOM     41  C   UNL     1      23.147  23.199  12.142  1.00  0.00     0.364 C 
ATOM     42  O   UNL     1      22.675  23.698  11.102  1.00  0.00    -0.246 OA
BRANCH  41  43
ATOM     43  O   UNL     1      24.549  23.079  12.154  1.00  0.00    -0.477 OA
ATOM     44  H   UNL     1      25.133  23.758  11.686  1.00  0.00     0.296 HD
ENDBRANCH  41  43
ENDBRANCH   1  41
BRANCH   3  45
ATOM     45  O   UNL     1      19.321  21.069  12.022  1.00  0.00    -0.391 OA
ATOM     46  H   UNL     1      19.099  21.076  12.995  1.00  0.00     0.211 HD
ENDBRANCH   3  45
BRANCH   5  47
ATOM     47  C   UNL     1      23.340  19.248  13.224  1.00  0.00     0.176 C 
BRANCH  47  48
ATOM     48  O   UNL     1      22.801  19.140  14.504  1.00  0.00    -0.388 OA
ATOM     49  H   UNL     1      23.377  18.572  15.065  1.00  0.00     0.211 HD
ENDBRANCH  47  48
BRANCH  47  50
ATOM     50  C   UNL     1      24.822  19.291  13.342  1.00  0.00     0.165 C 
BRANCH  50  51
ATOM     51  O   UNL     1      25.168  20.102  14.422  1.00  0.00    -0.388 OA
ATOM     52  H   UNL     1      24.462  20.094  15.113  1.00  0.00     0.211 HD
ENDBRANCH  50  51
BRANCH  50  53
ATOM     53  C   UNL     1      25.534  19.819  12.125  1.00  0.00     0.154 C 
BRANCH  53  54
ATOM     54  N   UNL     1      26.448  20.881  12.418  1.00  0.00    -0.319 N 
ATOM     55  C   UNL     1      27.841  20.814  12.284  1.00  0.00     0.407 C 
ATOM     56  H   UNL     1      26.034  21.797  12.768  1.00  0.00     0.167 HD
ATOM     57  O   UNL     1      28.363  19.755  11.877  1.00  0.00    -0.225 OA
BRANCH  55  58
ATOM     58  O   UNL     1      28.607  21.915  12.604  1.00  0.00    -0.443 OA
BRANCH  58  59
ATOM     59  C   UNL     1      29.440  21.996  13.724  1.00  0.00     0.294 C 
BRANCH  59  60
ATOM     60  C   UNL     1      28.803  21.292  14.855  1.00  0.00     0.120 A 
ATOM     61  C   UNL     1      29.373  20.354  15.658  1.00  0.00     0.138 A 
ATOM     62  N   UNL     1      27.541  21.479  15.268  1.00  0.00    -0.132 NA
ATOM     63  N   UNL     1      28.439  19.984  16.552  1.00  0.00    -0.248 N 
ATOM     64  N   UNL     1      27.339  20.667  16.310  1.00  0.00    -0.067 NA
BRANCH  63  65
ATOM     65  C   UNL     1      28.629  19.005  17.593  1.00  0.00     0.182 C 
BRANCH  65  66
ATOM     66  C   UNL     1      28.591  19.724  18.947  1.00  0.00    -0.016 A 
ATOM     67  C   UNL     1      28.250  20.988  19.096  1.00  0.00     0.017 A 
ATOM     68  C   UNL     1      28.941  18.980  20.073  1.00  0.00     0.070 A 
ATOM     69  C   UNL     1      28.232  21.586  20.343  1.00  0.00     0.065 A 
ATOM     70  S   UNL     1      28.761  20.187  21.400  1.00  0.00    -0.152 S 
ENDBRANCH  65  66
ENDBRANCH  63  65
ENDBRANCH  59  60
ENDBRANCH  58  59
ENDBRANCH  55  58
ENDBRANCH  53  54
ENDBRANCH  50  53
ENDBRANCH  47  50
ENDBRANCH   5  47
BRANCH   4  71
ATOM     71  N   UNL     1      21.823  19.702  10.654  1.00  0.00    -0.348 N 
ATOM     72  C   UNL     1      21.050  18.625  10.149  1.00  0.00     0.217 C 
ATOM     73  H   UNL     1      22.622  20.032  10.069  1.00  0.00     0.163 HD
ATOM     74  C   UNL     1      21.329  17.960   8.839  1.00  0.00     0.114 C 
ATOM     75  O   UNL     1      20.090  18.251  10.884  1.00  0.00    -0.275 OA
ENDBRANCH   4  71
TORSDOF 31
