REMARK VINA RESULT:    -6.010      8.725     14.725
REMARK INTER + INTRA:         -24.274
REMARK INTER:                 -14.348
REMARK INTRA:                  -9.926
REMARK UNBOUND:                -8.074
REMARK SMILES CC(=O)N[C@@H]1[C@@H](O)C[C@](OC[C@H]2O[C@@H](O[C@H]3[C@H](O)[C@@H](O)[C@H](OCCN=[N+]=[N-])O[C@@H]3CO)[C@H](O)[C@@H](O)[C@H]2O)(C(=O)O)O[C@H]1C(O)[C@H](O)CNC(=O)OCc1cn(C[C@@H](C)CN2CCN(c3ccc(Cl)cc3)CC2)nn1
REMARK SMILES IDX 43 1 42 2 9 3 8 4 41 5 6 6 5 7 10 8 11 9 12 10 14 11 13 12
REMARK SMILES IDX 32 13 34 14 36 15 15 16 16 17 29 18 28 19 21 20 17 21 19 22
REMARK SMILES IDX 30 23 31 24 22 26 23 27 24 28 25 29 26 30 27 31 18 32 20 34
REMARK SMILES IDX 33 36 35 38 37 40 38 42 39 43 40 44 7 46 4 48 2 49 1 51 3 52
REMARK SMILES IDX 44 53 45 55 46 56 47 58 48 59 49 60 50 62 51 63 52 64 53 65
REMARK SMILES IDX 54 66 74 67 55 68 73 69 56 70 57 71 58 72 59 73 60 74 61 75
REMARK SMILES IDX 72 76 62 77 71 78 63 79 64 80 65 81 70 82 66 83 69 84 67 85
REMARK SMILES IDX 68 86
REMARK H PARENT 31 25 18 33 20 35 33 37 35 39 37 41 40 45 7 47 4 50 44 54
REMARK H PARENT 46 57 48 61
REMARK Flexibility Score: inf
ROOT
ATOM      1  C   UNL     1      22.990  25.590  27.443  1.00  0.00     0.176 C 
ENDROOT
BRANCH   1   2
ATOM      2  C   UNL     1      22.377  26.906  26.987  1.00  0.00     0.178 C 
ATOM      3  C   UNL     1      22.103  28.342  25.131  1.00  0.00     0.272 C 
ATOM      4  C   UNL     1      21.895  29.380  26.119  1.00  0.00     0.113 C 
ATOM      5  O   UNL     1      22.767  27.225  25.729  1.00  0.00    -0.332 OA
ATOM      6  C   UNL     1      22.840  29.281  27.302  1.00  0.00     0.145 C 
ATOM      7  C   UNL     1      22.502  27.970  28.025  1.00  0.00     0.142 C 
BRANCH   3   8
ATOM      8  O   UNL     1      22.797  28.563  24.018  1.00  0.00    -0.338 OA
BRANCH   8   9
ATOM      9  C   UNL     1      22.937  29.666  23.331  1.00  0.00     0.199 C 
BRANCH   9  10
ATOM     10  C   UNL     1      21.993  30.085  22.242  1.00  0.00     0.179 C 
ATOM     11  C   UNL     1      20.754  32.023  21.848  1.00  0.00     0.282 C 
ATOM     12  O   UNL     1      21.012  30.943  22.649  1.00  0.00    -0.341 OA
ATOM     13  C   UNL     1      21.977  32.921  21.818  1.00  0.00     0.202 C 
ATOM     14  C   UNL     1      23.128  32.127  21.293  1.00  0.00     0.179 C 
ATOM     15  C   UNL     1      22.821  30.681  21.094  1.00  0.00     0.177 C 
BRANCH  11  16
ATOM     16  O   UNL     1      19.719  32.745  22.489  1.00  0.00    -0.341 OA
BRANCH  16  17
ATOM     17  C   UNL     1      19.091  31.935  23.401  1.00  0.00     0.184 C 
ATOM     18  C   UNL     1      17.638  31.681  23.054  1.00  0.00     0.178 C 
ATOM     19  O   UNL     1      16.739  32.260  23.896  1.00  0.00    -0.341 OA
ATOM     20  C   UNL     1      16.871  31.961  25.241  1.00  0.00     0.281 C 
ATOM     21  C   UNL     1      19.221  32.472  24.822  1.00  0.00     0.180 C 
ATOM     22  C   UNL     1      18.278  31.661  25.680  1.00  0.00     0.202 C 
BRANCH  18  23
ATOM     23  C   UNL     1      17.363  30.207  22.797  1.00  0.00     0.191 C 
BRANCH  23  24
ATOM     24  O   UNL     1      18.455  29.555  22.283  1.00  0.00    -0.394 OA
ATOM     25  H   UNL     1      19.260  30.120  22.498  1.00  0.00     0.210 HD
ENDBRANCH  23  24
ENDBRANCH  18  23
BRANCH  20  26
ATOM     26  O   UNL     1      16.025  30.934  25.641  1.00  0.00    -0.350 OA
BRANCH  26  27
ATOM     27  C   UNL     1      14.817  31.323  26.145  1.00  0.00     0.169 C 
BRANCH  27  28
ATOM     28  C   UNL     1      14.842  31.436  27.643  1.00  0.00     0.119 C 
BRANCH  28  29
ATOM     29  N   UNL     1      15.920  30.614  28.166  1.00  0.00    -0.092 NA
ATOM     30  N   UNL     1      15.891  30.253  29.357  1.00  0.00     0.001 N 
ATOM     31  N   UNL     1      15.742  29.970  30.539  1.00  0.00    -0.003 NA
ENDBRANCH  28  29
ENDBRANCH  27  28
ENDBRANCH  26  27
ENDBRANCH  20  26
BRANCH  21  32
ATOM     32  O   UNL     1      20.511  32.269  25.309  1.00  0.00    -0.387 OA
ATOM     33  H   UNL     1      20.728  31.314  25.098  1.00  0.00     0.211 HD
ENDBRANCH  21  32
BRANCH  22  34
ATOM     34  O   UNL     1      18.415  32.103  27.019  1.00  0.00    -0.385 OA
ATOM     35  H   UNL     1      18.008  31.503  27.664  1.00  0.00     0.211 HD
ENDBRANCH  22  34
ENDBRANCH  16  17
ENDBRANCH  11  16
BRANCH  13  36
ATOM     36  O   UNL     1      21.675  34.032  21.050  1.00  0.00    -0.385 OA
ATOM     37  H   UNL     1      20.954  33.753  20.413  1.00  0.00     0.211 HD
ENDBRANCH  13  36
BRANCH  14  38
ATOM     38  O   UNL     1      24.295  32.287  22.053  1.00  0.00    -0.387 OA
ATOM     39  H   UNL     1      24.088  32.604  22.961  1.00  0.00     0.211 HD
ENDBRANCH  14  38
BRANCH  15  40
ATOM     40  O   UNL     1      23.970  29.944  20.949  1.00  0.00    -0.387 OA
ATOM     41  H   UNL     1      24.654  30.175  21.619  1.00  0.00     0.211 HD
ENDBRANCH  15  40
ENDBRANCH   9  10
ENDBRANCH   8   9
ENDBRANCH   3   8
BRANCH   3  42
ATOM     42  C   UNL     1      20.780  27.699  24.765  1.00  0.00     0.364 C 
ATOM     43  O   UNL     1      19.730  28.417  24.623  1.00  0.00    -0.246 OA
BRANCH  42  44
ATOM     44  O   UNL     1      20.603  26.353  24.572  1.00  0.00    -0.477 OA
ATOM     45  H   UNL     1      20.640  25.695  25.341  1.00  0.00     0.296 HD
ENDBRANCH  42  44
ENDBRANCH   3  42
BRANCH   6  46
ATOM     46  O   UNL     1      24.134  29.226  26.786  1.00  0.00    -0.391 OA
ATOM     47  H   UNL     1      24.680  28.542  27.244  1.00  0.00     0.211 HD
ENDBRANCH   6  46
BRANCH   7  48
ATOM     48  N   UNL     1      21.268  28.191  28.751  1.00  0.00    -0.348 N 
ATOM     49  C   UNL     1      21.070  27.587  30.019  1.00  0.00     0.217 C 
ATOM     50  H   UNL     1      20.485  28.792  28.373  1.00  0.00     0.163 HD
ATOM     51  C   UNL     1      19.773  27.841  30.741  1.00  0.00     0.114 C 
ATOM     52  O   UNL     1      21.930  26.845  30.573  1.00  0.00    -0.275 OA
ENDBRANCH   7  48
ENDBRANCH   1   2
BRANCH   1  53
ATOM     53  O   UNL     1      22.225  24.565  26.888  1.00  0.00    -0.388 OA
ATOM     54  H   UNL     1      22.791  23.910  26.418  1.00  0.00     0.211 HD
ENDBRANCH   1  53
BRANCH   1  55
ATOM     55  C   UNL     1      24.400  25.376  26.970  1.00  0.00     0.165 C 
BRANCH  55  56
ATOM     56  O   UNL     1      25.091  26.514  26.647  1.00  0.00    -0.388 OA
ATOM     57  H   UNL     1      26.039  26.355  26.498  1.00  0.00     0.211 HD
ENDBRANCH  55  56
BRANCH  55  58
ATOM     58  C   UNL     1      24.550  24.336  25.913  1.00  0.00     0.154 C 
BRANCH  58  59
ATOM     59  N   UNL     1      24.614  25.004  24.611  1.00  0.00    -0.319 N 
ATOM     60  C   UNL     1      23.529  24.959  23.705  1.00  0.00     0.407 C 
ATOM     61  H   UNL     1      25.479  25.521  24.354  1.00  0.00     0.167 HD
ATOM     62  O   UNL     1      22.502  24.322  24.045  1.00  0.00    -0.225 OA
BRANCH  60  63
ATOM     63  O   UNL     1      23.610  25.606  22.479  1.00  0.00    -0.443 OA
BRANCH  63  64
ATOM     64  C   UNL     1      22.766  25.143  21.425  1.00  0.00     0.294 C 
BRANCH  64  65
ATOM     65  C   UNL     1      21.874  26.207  20.911  1.00  0.00     0.120 A 
ATOM     66  C   UNL     1      22.013  26.916  19.739  1.00  0.00     0.138 A 
ATOM     67  N   UNL     1      20.750  26.692  21.491  1.00  0.00    -0.132 NA
ATOM     68  N   UNL     1      20.998  27.772  19.668  1.00  0.00    -0.252 N 
ATOM     69  N   UNL     1      20.236  27.634  20.730  1.00  0.00    -0.067 NA
BRANCH  68  70
ATOM     70  C   UNL     1      20.791  28.720  18.572  1.00  0.00     0.150 C 
BRANCH  70  71
ATOM     71  C   UNL     1      19.543  29.571  18.824  1.00  0.00     0.022 C 
ATOM     72  C   UNL     1      19.953  30.999  18.534  1.00  0.00     0.011 C 
BRANCH  71  73
ATOM     73  C   UNL     1      18.448  29.115  17.912  1.00  0.00     0.089 C 
BRANCH  73  74
ATOM     74  N   UNL     1      17.119  29.229  18.349  1.00  0.00    -0.299 NA
ATOM     75  C   UNL     1      16.388  30.410  18.159  1.00  0.00     0.106 C 
ATOM     76  C   UNL     1      16.783  28.437  19.488  1.00  0.00     0.106 C 
ATOM     77  C   UNL     1      15.749  30.919  19.451  1.00  0.00     0.132 C 
ATOM     78  C   UNL     1      15.282  28.483  19.710  1.00  0.00     0.132 C 
ATOM     79  N   UNL     1      14.955  29.844  20.045  1.00  0.00    -0.369 N 
BRANCH  79  80
ATOM     80  C   UNL     1      13.912  30.168  20.920  1.00  0.00     0.037 A 
ATOM     81  C   UNL     1      13.528  29.325  21.960  1.00  0.00     0.027 A 
ATOM     82  C   UNL     1      13.191  31.352  20.824  1.00  0.00     0.027 A 
ATOM     83  C   UNL     1      12.512  29.622  22.837  1.00  0.00     0.022 A 
ATOM     84  C   UNL     1      12.171  31.653  21.703  1.00  0.00     0.022 A 
ATOM     85  C   UNL     1      11.815  30.796  22.721  1.00  0.00     0.041 A 
ATOM     86  Cl  UNL     1      10.536  31.172  23.827  1.00  0.00    -0.084 Cl
ENDBRANCH  79  80
ENDBRANCH  73  74
ENDBRANCH  71  73
ENDBRANCH  70  71
ENDBRANCH  68  70
ENDBRANCH  64  65
ENDBRANCH  63  64
ENDBRANCH  60  63
ENDBRANCH  58  59
ENDBRANCH  55  58
ENDBRANCH   1  55
TORSDOF 34
