REMARK VINA RESULT:    -6.794      6.279     13.473
REMARK INTER + INTRA:         -24.339
REMARK INTER:                 -17.820
REMARK INTRA:                  -6.519
REMARK UNBOUND:                -6.425
REMARK SMILES CC(=O)N[C@@H]1[C@@H](O)C[C@](OC[C@H]2O[C@@H](O[C@H]3[C@H](O)[C@@H](O)[C@H](OCCN=[N+]=[N-])O[C@@H]3CO)[C@H](O)[C@@H](O)[C@H]2O)(C(=O)O)O[C@H]1C(O)[C@H](O)CNC(=O)OCc1cn(-c2ccc(S(=O)(=O)Nc3nccs3)cc2)nn1
REMARK SMILES IDX 43 1 42 2 9 3 8 4 41 5 6 6 5 7 10 8 11 9 12 10 14 11 13 12
REMARK SMILES IDX 32 13 34 14 36 15 15 16 16 17 29 18 28 19 21 20 17 21 19 22
REMARK SMILES IDX 30 23 31 24 22 26 23 27 24 28 25 29 26 30 27 31 18 32 20 34
REMARK SMILES IDX 33 36 35 38 37 40 38 42 39 43 40 44 7 46 4 48 2 49 1 51 3 52
REMARK SMILES IDX 44 53 45 55 46 56 47 58 48 59 49 60 50 62 51 63 52 64 53 65
REMARK SMILES IDX 54 66 72 67 55 68 71 69 56 70 57 71 70 72 58 73 69 74 59 75
REMARK SMILES IDX 60 76 61 77 62 78 63 79 64 81 65 82 68 83 66 84 67 85
REMARK H PARENT 31 25 18 33 20 35 33 37 35 39 37 41 40 45 7 47 4 50 44 54
REMARK H PARENT 46 57 48 61 63 80
REMARK Flexibility Score: inf
ROOT
ATOM      1  C   UNL     1      17.668  29.075  19.546  1.00  0.00     0.176 C 
ENDROOT
BRANCH   1   2
ATOM      2  C   UNL     1      19.143  29.260  19.669  1.00  0.00     0.178 C 
ATOM      3  C   UNL     1      21.018  28.080  18.923  1.00  0.00     0.272 C 
ATOM      4  C   UNL     1      21.647  29.306  19.620  1.00  0.00     0.113 C 
ATOM      5  O   UNL     1      19.679  28.024  19.189  1.00  0.00    -0.332 OA
ATOM      6  C   UNL     1      21.173  29.496  21.010  1.00  0.00     0.145 C 
ATOM      7  C   UNL     1      19.653  29.335  21.088  1.00  0.00     0.142 C 
BRANCH   3   8
ATOM      8  O   UNL     1      21.602  26.927  19.386  1.00  0.00    -0.338 OA
BRANCH   8   9
ATOM      9  C   UNL     1      22.949  26.821  19.149  1.00  0.00     0.199 C 
BRANCH   9  10
ATOM     10  C   UNL     1      23.677  26.000  20.188  1.00  0.00     0.179 C 
ATOM     11  C   UNL     1      24.319  25.765  22.312  1.00  0.00     0.282 C 
ATOM     12  O   UNL     1      23.323  26.341  21.489  1.00  0.00    -0.341 OA
ATOM     13  C   UNL     1      23.964  24.303  22.444  1.00  0.00     0.202 C 
ATOM     14  C   UNL     1      22.948  23.916  21.364  1.00  0.00     0.179 C 
ATOM     15  C   UNL     1      23.359  24.521  20.035  1.00  0.00     0.177 C 
BRANCH  11  16
ATOM     16  O   UNL     1      24.402  26.352  23.529  1.00  0.00    -0.341 OA
BRANCH  16  17
ATOM     17  C   UNL     1      23.819  25.660  24.575  1.00  0.00     0.184 C 
ATOM     18  C   UNL     1      22.763  26.345  25.344  1.00  0.00     0.178 C 
ATOM     19  O   UNL     1      22.779  25.821  26.667  1.00  0.00    -0.341 OA
ATOM     20  C   UNL     1      23.854  26.349  27.395  1.00  0.00     0.281 C 
ATOM     21  C   UNL     1      24.878  25.090  25.508  1.00  0.00     0.180 C 
ATOM     22  C   UNL     1      25.157  26.020  26.690  1.00  0.00     0.202 C 
BRANCH  18  23
ATOM     23  C   UNL     1      21.337  26.053  24.879  1.00  0.00     0.191 C 
BRANCH  23  24
ATOM     24  O   UNL     1      21.052  26.490  23.622  1.00  0.00    -0.394 OA
ATOM     25  H   UNL     1      20.850  25.727  23.034  1.00  0.00     0.210 HD
ENDBRANCH  23  24
ENDBRANCH  18  23
BRANCH  20  26
ATOM     26  O   UNL     1      23.827  25.791  28.654  1.00  0.00    -0.350 OA
BRANCH  26  27
ATOM     27  C   UNL     1      23.705  26.678  29.693  1.00  0.00     0.169 C 
BRANCH  27  28
ATOM     28  C   UNL     1      24.638  26.395  30.846  1.00  0.00     0.119 C 
BRANCH  28  29
ATOM     29  N   UNL     1      25.894  25.966  30.285  1.00  0.00    -0.092 NA
ATOM     30  N   UNL     1      26.647  25.266  30.956  1.00  0.00     0.001 N 
ATOM     31  N   UNL     1      27.611  24.935  31.650  1.00  0.00    -0.003 NA
ENDBRANCH  28  29
ENDBRANCH  27  28
ENDBRANCH  26  27
ENDBRANCH  20  26
BRANCH  21  32
ATOM     32  O   UNL     1      24.462  23.874  26.050  1.00  0.00    -0.387 OA
ATOM     33  H   UNL     1      24.222  23.968  27.000  1.00  0.00     0.211 HD
ENDBRANCH  21  32
BRANCH  22  34
ATOM     34  O   UNL     1      25.861  27.148  26.292  1.00  0.00    -0.385 OA
ATOM     35  H   UNL     1      25.753  27.820  27.002  1.00  0.00     0.211 HD
ENDBRANCH  22  34
ENDBRANCH  16  17
ENDBRANCH  11  16
BRANCH  13  36
ATOM     36  O   UNL     1      25.071  23.461  22.170  1.00  0.00    -0.385 OA
ATOM     37  H   UNL     1      25.904  23.851  22.471  1.00  0.00     0.211 HD
ENDBRANCH  13  36
BRANCH  14  38
ATOM     38  O   UNL     1      21.664  24.275  21.748  1.00  0.00    -0.387 OA
ATOM     39  H   UNL     1      21.614  25.222  22.040  1.00  0.00     0.211 HD
ENDBRANCH  14  38
BRANCH  15  40
ATOM     40  O   UNL     1      22.327  24.308  19.135  1.00  0.00    -0.387 OA
ATOM     41  H   UNL     1      22.408  24.797  18.300  1.00  0.00     0.211 HD
ENDBRANCH  15  40
ENDBRANCH   9  10
ENDBRANCH   8   9
ENDBRANCH   3   8
BRANCH   3  42
ATOM     42  C   UNL     1      21.270  28.277  17.494  1.00  0.00     0.364 C 
ATOM     43  O   UNL     1      21.875  29.306  17.050  1.00  0.00    -0.246 OA
BRANCH  42  44
ATOM     44  O   UNL     1      20.874  27.367  16.530  1.00  0.00    -0.477 OA
ATOM     45  H   UNL     1      20.635  27.697  15.586  1.00  0.00     0.296 HD
ENDBRANCH  42  44
ENDBRANCH   3  42
BRANCH   6  46
ATOM     46  O   UNL     1      21.807  28.658  21.928  1.00  0.00    -0.391 OA
ATOM     47  H   UNL     1      22.494  28.123  21.464  1.00  0.00     0.211 HD
ENDBRANCH   6  46
BRANCH   7  48
ATOM     48  N   UNL     1      19.093  30.356  21.899  1.00  0.00    -0.348 N 
ATOM     49  C   UNL     1      18.999  30.179  23.309  1.00  0.00     0.217 C 
ATOM     50  H   UNL     1      18.744  31.249  21.502  1.00  0.00     0.163 HD
ATOM     51  C   UNL     1      18.435  31.188  24.220  1.00  0.00     0.114 C 
ATOM     52  O   UNL     1      19.424  29.089  23.824  1.00  0.00    -0.275 OA
ENDBRANCH   7  48
ENDBRANCH   1   2
BRANCH   1  53
ATOM     53  O   UNL     1      17.275  28.025  20.436  1.00  0.00    -0.388 OA
ATOM     54  H   UNL     1      17.723  27.191  20.205  1.00  0.00     0.211 HD
ENDBRANCH   1  53
BRANCH   1  55
ATOM     55  C   UNL     1      17.138  28.765  18.176  1.00  0.00     0.165 C 
BRANCH  55  56
ATOM     56  O   UNL     1      17.963  29.558  17.308  1.00  0.00    -0.388 OA
ATOM     57  H   UNL     1      18.885  29.573  17.673  1.00  0.00     0.211 HD
ENDBRANCH  55  56
BRANCH  55  58
ATOM     58  C   UNL     1      15.751  29.358  17.961  1.00  0.00     0.154 C 
BRANCH  58  59
ATOM     59  N   UNL     1      15.439  30.130  19.136  1.00  0.00    -0.319 N 
ATOM     60  C   UNL     1      15.391  31.549  19.152  1.00  0.00     0.407 C 
ATOM     61  H   UNL     1      15.225  29.643  20.067  1.00  0.00     0.167 HD
ATOM     62  O   UNL     1      15.602  32.201  18.123  1.00  0.00    -0.225 OA
BRANCH  60  63
ATOM     63  O   UNL     1      15.109  32.249  20.319  1.00  0.00    -0.443 OA
BRANCH  63  64
ATOM     64  C   UNL     1      15.643  31.989  21.587  1.00  0.00     0.294 C 
BRANCH  64  65
ATOM     65  C   UNL     1      14.767  31.225  22.491  1.00  0.00     0.121 A 
ATOM     66  C   UNL     1      13.371  31.300  22.548  1.00  0.00     0.144 A 
ATOM     67  N   UNL     1      15.088  30.322  23.416  1.00  0.00    -0.131 NA
ATOM     68  N   UNL     1      12.901  30.448  23.495  1.00  0.00    -0.220 N 
ATOM     69  N   UNL     1      13.971  29.868  24.006  1.00  0.00    -0.062 NA
BRANCH  68  70
ATOM     70  C   UNL     1      11.513  30.259  23.823  1.00  0.00     0.066 A 
ATOM     71  C   UNL     1      10.586  31.252  23.688  1.00  0.00     0.030 A 
ATOM     72  C   UNL     1      11.119  29.023  24.304  1.00  0.00     0.030 A 
ATOM     73  C   UNL     1       9.255  31.021  24.032  1.00  0.00     0.024 A 
ATOM     74  C   UNL     1       9.820  28.747  24.657  1.00  0.00     0.024 A 
ATOM     75  C   UNL     1       8.903  29.780  24.507  1.00  0.00     0.088 A 
BRANCH  75  76
ATOM     76  S   UNL     1       7.245  29.461  24.954  1.00  0.00     0.263 S 
ATOM     77  O   UNL     1       6.408  29.534  23.692  1.00  0.00    -0.201 OA
ATOM     78  O   UNL     1       6.810  30.587  25.850  1.00  0.00    -0.201 OA
BRANCH  76  79
ATOM     79  N   UNL     1       7.128  27.947  25.722  1.00  0.00    -0.255 N 
ATOM     80  H   UNL     1       7.983  27.539  26.138  1.00  0.00     0.182 HD
BRANCH  79  81
ATOM     81  C   UNL     1       5.908  27.293  25.777  1.00  0.00     0.196 A 
ATOM     82  N   UNL     1       5.398  26.153  25.514  1.00  0.00    -0.228 NA
ATOM     83  S   UNL     1       4.387  28.163  26.393  1.00  0.00    -0.105 S 
ATOM     84  C   UNL     1       4.172  25.817  25.671  1.00  0.00     0.125 A 
ATOM     85  C   UNL     1       3.279  26.730  26.165  1.00  0.00     0.089 A 
ENDBRANCH  79  81
ENDBRANCH  76  79
ENDBRANCH  75  76
ENDBRANCH  68  70
ENDBRANCH  64  65
ENDBRANCH  63  64
ENDBRANCH  60  63
ENDBRANCH  58  59
ENDBRANCH  55  58
ENDBRANCH   1  55
TORSDOF 33
