REMARK VINA RESULT:    -5.035     14.013     18.992
REMARK INTER + INTRA:         -21.027
REMARK INTER:                 -13.317
REMARK INTRA:                  -7.710
REMARK UNBOUND:                -8.339
REMARK SMILES CC(=O)N[C@@H]1[C@@H](O)C[C@](OC[C@H]2O[C@@H](O[C@H]3[C@H](O)[C@@H](O)[C@H](OCCN=[N+]=[N-])O[C@@H]3CO)[C@H](O)[C@@H](O)[C@H]2O)(C(=O)O)O[C@H]1C(O)[C@H](O)CNC(=O)OCc1cn(Cc2ccccc2)nn1
REMARK SMILES IDX 9 1 8 2 6 3 5 4 42 5 41 6 10 7 11 8 12 9 14 10 13 11 32 12
REMARK SMILES IDX 34 13 36 14 15 15 16 16 29 17 28 18 21 19 17 20 19 21 30 22
REMARK SMILES IDX 31 23 22 25 23 26 24 27 25 28 26 29 27 30 18 31 20 33 33 35
REMARK SMILES IDX 35 37 37 39 38 41 39 42 40 43 7 45 43 47 44 48 45 50 46 51
REMARK SMILES IDX 47 53 48 54 49 55 50 57 51 58 52 59 53 60 54 61 64 62 55 63
REMARK SMILES IDX 63 64 56 65 57 66 58 67 62 68 59 69 61 70 60 71 4 72 2 73
REMARK SMILES IDX 1 75 3 76
REMARK H PARENT 31 24 18 32 20 34 33 36 35 38 37 40 40 44 7 46 44 49 46 52
REMARK H PARENT 48 56 4 74
REMARK Flexibility Score: inf
ROOT
ATOM      1  C   UNL     1      32.764  17.272  27.007  1.00  0.00     0.272 C 
ATOM      2  C   UNL     1      31.676  17.296  28.016  1.00  0.00     0.113 C 
ATOM      3  C   UNL     1      32.128  18.041  29.213  1.00  0.00     0.145 C 
ATOM      4  C   UNL     1      33.600  18.480  29.160  1.00  0.00     0.142 C 
ATOM      5  C   UNL     1      34.455  17.415  28.617  1.00  0.00     0.178 C 
ATOM      6  O   UNL     1      33.863  16.631  27.609  1.00  0.00    -0.332 OA
ENDROOT
BRANCH   1   7
ATOM      7  O   UNL     1      33.123  18.489  26.466  1.00  0.00    -0.338 OA
BRANCH   7   8
ATOM      8  C   UNL     1      31.995  19.254  26.223  1.00  0.00     0.199 C 
BRANCH   8   9
ATOM      9  C   UNL     1      32.281  20.427  25.314  1.00  0.00     0.179 C 
ATOM     10  C   UNL     1      32.309  22.760  25.383  1.00  0.00     0.282 C 
ATOM     11  O   UNL     1      31.642  21.578  25.716  1.00  0.00    -0.341 OA
ATOM     12  C   UNL     1      32.942  22.714  24.042  1.00  0.00     0.202 C 
ATOM     13  C   UNL     1      33.988  21.646  23.993  1.00  0.00     0.179 C 
ATOM     14  C   UNL     1      33.755  20.625  25.081  1.00  0.00     0.177 C 
BRANCH  10  15
ATOM     15  O   UNL     1      33.234  23.104  26.355  1.00  0.00    -0.341 OA
BRANCH  15  16
ATOM     16  C   UNL     1      32.684  23.779  27.437  1.00  0.00     0.184 C 
ATOM     17  C   UNL     1      33.204  25.166  27.506  1.00  0.00     0.178 C 
ATOM     18  O   UNL     1      32.642  25.769  28.651  1.00  0.00    -0.341 OA
ATOM     19  C   UNL     1      33.383  25.255  29.735  1.00  0.00     0.281 C 
ATOM     20  C   UNL     1      33.195  23.019  28.672  1.00  0.00     0.180 C 
ATOM     21  C   UNL     1      33.022  23.791  29.938  1.00  0.00     0.202 C 
BRANCH  17  22
ATOM     22  C   UNL     1      32.837  25.988  26.274  1.00  0.00     0.191 C 
BRANCH  22  23
ATOM     23  O   UNL     1      32.277  27.195  26.746  1.00  0.00    -0.394 OA
ATOM     24  H   UNL     1      32.022  27.074  27.691  1.00  0.00     0.210 HD
ENDBRANCH  22  23
ENDBRANCH  17  22
BRANCH  19  25
ATOM     25  O   UNL     1      33.086  25.975  30.865  1.00  0.00    -0.350 OA
BRANCH  25  26
ATOM     26  C   UNL     1      32.075  26.878  30.598  1.00  0.00     0.169 C 
BRANCH  26  27
ATOM     27  C   UNL     1      31.026  26.988  31.662  1.00  0.00     0.119 C 
BRANCH  27  28
ATOM     28  N   UNL     1      30.265  25.729  31.624  1.00  0.00    -0.092 NA
ATOM     29  N   UNL     1      29.520  25.562  30.659  1.00  0.00     0.001 N 
ATOM     30  N   UNL     1      28.834  25.028  29.777  1.00  0.00    -0.003 NA
ENDBRANCH  27  28
ENDBRANCH  26  27
ENDBRANCH  25  26
ENDBRANCH  19  25
BRANCH  20  31
ATOM     31  O   UNL     1      32.389  21.864  28.736  1.00  0.00    -0.387 OA
ATOM     32  H   UNL     1      31.749  21.813  27.977  1.00  0.00     0.211 HD
ENDBRANCH  20  31
BRANCH  21  33
ATOM     33  O   UNL     1      33.880  23.281  30.911  1.00  0.00    -0.385 OA
ATOM     34  H   UNL     1      34.631  23.899  31.122  1.00  0.00     0.211 HD
ENDBRANCH  21  33
ENDBRANCH  15  16
ENDBRANCH  10  15
BRANCH  12  35
ATOM     35  O   UNL     1      31.998  22.564  23.011  1.00  0.00    -0.385 OA
ATOM     36  H   UNL     1      31.925  21.590  22.849  1.00  0.00     0.211 HD
ENDBRANCH  12  35
BRANCH  13  37
ATOM     37  O   UNL     1      35.239  22.235  24.138  1.00  0.00    -0.387 OA
ATOM     38  H   UNL     1      35.663  22.012  25.010  1.00  0.00     0.211 HD
ENDBRANCH  13  37
BRANCH  14  39
ATOM     39  O   UNL     1      34.501  20.831  26.209  1.00  0.00    -0.387 OA
ATOM     40  H   UNL     1      35.451  20.603  26.166  1.00  0.00     0.211 HD
ENDBRANCH  14  39
ENDBRANCH   8   9
ENDBRANCH   7   8
ENDBRANCH   1   7
BRANCH   1  41
ATOM     41  C   UNL     1      32.452  16.353  25.858  1.00  0.00     0.364 C 
ATOM     42  O   UNL     1      33.332  15.613  25.416  1.00  0.00    -0.246 OA
BRANCH  41  43
ATOM     43  O   UNL     1      31.189  16.344  25.310  1.00  0.00    -0.477 OA
ATOM     44  H   UNL     1      30.892  15.645  24.626  1.00  0.00     0.296 HD
ENDBRANCH  41  43
ENDBRANCH   1  41
BRANCH   3  45
ATOM     45  O   UNL     1      31.397  19.216  29.470  1.00  0.00    -0.391 OA
ATOM     46  H   UNL     1      30.438  19.089  29.428  1.00  0.00     0.211 HD
ENDBRANCH   3  45
BRANCH   5  47
ATOM     47  C   UNL     1      35.804  17.734  28.124  1.00  0.00     0.176 C 
BRANCH  47  48
ATOM     48  O   UNL     1      36.782  17.840  29.090  1.00  0.00    -0.388 OA
ATOM     49  H   UNL     1      36.935  17.027  29.619  1.00  0.00     0.211 HD
ENDBRANCH  47  48
BRANCH  47  50
ATOM     50  C   UNL     1      36.340  16.952  26.960  1.00  0.00     0.165 C 
BRANCH  50  51
ATOM     51  O   UNL     1      37.277  16.023  27.293  1.00  0.00    -0.388 OA
ATOM     52  H   UNL     1      37.075  15.508  28.099  1.00  0.00     0.211 HD
ENDBRANCH  50  51
BRANCH  50  53
ATOM     53  C   UNL     1      36.608  17.811  25.759  1.00  0.00     0.154 C 
BRANCH  53  54
ATOM     54  N   UNL     1      35.722  17.580  24.648  1.00  0.00    -0.319 N 
ATOM     55  C   UNL     1      35.689  18.367  23.452  1.00  0.00     0.407 C 
ATOM     56  H   UNL     1      35.015  16.785  24.647  1.00  0.00     0.167 HD
ATOM     57  O   UNL     1      36.471  19.338  23.333  1.00  0.00    -0.225 OA
BRANCH  55  58
ATOM     58  O   UNL     1      34.812  18.083  22.422  1.00  0.00    -0.443 OA
BRANCH  58  59
ATOM     59  C   UNL     1      33.476  17.758  22.723  1.00  0.00     0.294 C 
BRANCH  59  60
ATOM     60  C   UNL     1      32.537  18.724  22.113  1.00  0.00     0.120 A 
ATOM     61  C   UNL     1      31.143  18.627  22.212  1.00  0.00     0.138 A 
ATOM     62  N   UNL     1      32.756  19.826  21.387  1.00  0.00    -0.132 NA
ATOM     63  N   UNL     1      30.598  19.661  21.552  1.00  0.00    -0.248 N 
ATOM     64  N   UNL     1      31.573  20.370  21.064  1.00  0.00    -0.067 NA
BRANCH  63  65
ATOM     65  C   UNL     1      29.180  19.918  21.428  1.00  0.00     0.181 C 
BRANCH  65  66
ATOM     66  C   UNL     1      28.815  19.985  19.992  1.00  0.00    -0.026 A 
ATOM     67  C   UNL     1      29.024  18.921  19.132  1.00  0.00     0.005 A 
ATOM     68  C   UNL     1      28.248  21.152  19.503  1.00  0.00     0.005 A 
ATOM     69  C   UNL     1      28.667  19.033  17.799  1.00  0.00     0.000 A 
ATOM     70  C   UNL     1      27.895  21.252  18.170  1.00  0.00     0.000 A 
ATOM     71  C   UNL     1      28.106  20.193  17.326  1.00  0.00     0.000 A 
ENDBRANCH  65  66
ENDBRANCH  63  65
ENDBRANCH  59  60
ENDBRANCH  58  59
ENDBRANCH  55  58
ENDBRANCH  53  54
ENDBRANCH  50  53
ENDBRANCH  47  50
ENDBRANCH   5  47
BRANCH   4  72
ATOM     72  N   UNL     1      33.882  18.675  30.596  1.00  0.00    -0.348 N 
ATOM     73  C   UNL     1      34.588  19.790  31.101  1.00  0.00     0.217 C 
ATOM     74  H   UNL     1      33.550  17.959  31.278  1.00  0.00     0.163 HD
ATOM     75  C   UNL     1      34.863  19.958  32.560  1.00  0.00     0.114 C 
ATOM     76  O   UNL     1      34.990  20.661  30.291  1.00  0.00    -0.275 OA
ENDBRANCH   4  72
TORSDOF 31
