REMARK VINA RESULT:    -6.678     13.808     20.297
REMARK INTER + INTRA:         -25.409
REMARK INTER:                 -18.758
REMARK INTRA:                  -6.651
REMARK UNBOUND:                -7.995
REMARK SMILES CC(=O)N[C@@H]1[C@@H](O)C[C@](OC[C@H]2O[C@@H](O[C@H]3[C@H](O)[C@@H](O)[C@H](OCCN=[N+]=[N-])O[C@@H]3CO)[C@H](O)[C@@H](O)[C@H]2O)(C(=O)O)O[C@H]1C(O)[C@H](O)CNC(=O)OCc1cn(-c2ccc(-c3c4ccc(=O)cc-4oc4cc(O)ccc34)c(C(=O)[O-])c2)nn1
REMARK SMILES IDX 9 1 8 2 6 3 5 4 42 5 41 6 10 7 11 8 12 9 14 10 13 11 32 12
REMARK SMILES IDX 34 13 36 14 15 15 16 16 29 17 28 18 21 19 17 20 19 21 30 22
REMARK SMILES IDX 31 23 22 25 23 26 24 27 25 28 26 29 27 30 18 31 20 33 33 35
REMARK SMILES IDX 35 37 37 39 38 41 39 42 40 43 7 45 43 47 44 48 45 50 46 51
REMARK SMILES IDX 47 53 48 54 49 55 50 57 51 58 52 59 53 60 54 61 82 62 55 63
REMARK SMILES IDX 81 64 56 65 80 66 57 67 76 68 58 69 59 70 77 71 78 72 79 73
REMARK SMILES IDX 60 74 75 75 61 76 74 77 69 78 67 79 62 80 73 81 70 82 68 83
REMARK SMILES IDX 66 84 63 85 71 86 64 87 65 88 72 89 4 91 2 92 1 94 3 95
REMARK H PARENT 31 24 18 32 20 34 33 36 35 38 37 40 40 44 7 46 44 49 46 52
REMARK H PARENT 48 56 72 90 4 93
REMARK Flexibility Score: inf
ROOT
ATOM      1  C   UNL     1       1.810  27.331  30.072  1.00  0.00     0.272 C 
ATOM      2  C   UNL     1       0.443  27.053  29.497  1.00  0.00     0.113 C 
ATOM      3  C   UNL     1       0.230  25.608  29.145  1.00  0.00     0.145 C 
ATOM      4  C   UNL     1       1.580  24.937  29.105  1.00  0.00     0.142 C 
ATOM      5  C   UNL     1       2.504  25.870  28.369  1.00  0.00     0.178 C 
ATOM      6  O   UNL     1       2.832  26.929  29.179  1.00  0.00    -0.332 OA
ENDROOT
BRANCH   1   7
ATOM      7  O   UNL     1       2.058  26.806  31.310  1.00  0.00    -0.338 OA
BRANCH   7   8
ATOM      8  C   UNL     1       2.281  27.719  32.279  1.00  0.00     0.199 C 
BRANCH   8   9
ATOM      9  C   UNL     1       3.583  27.432  33.042  1.00  0.00     0.179 C 
ATOM     10  C   UNL     1       4.898  25.693  33.793  1.00  0.00     0.282 C 
ATOM     11  O   UNL     1       3.649  26.172  33.514  1.00  0.00    -0.341 OA
ATOM     12  C   UNL     1       5.901  26.713  34.168  1.00  0.00     0.202 C 
ATOM     13  C   UNL     1       5.964  27.865  33.193  1.00  0.00     0.179 C 
ATOM     14  C   UNL     1       4.776  27.813  32.245  1.00  0.00     0.177 C 
BRANCH  10  15
ATOM     15  O   UNL     1       5.238  24.828  32.754  1.00  0.00    -0.341 OA
BRANCH  15  16
ATOM     16  C   UNL     1       4.817  23.553  32.943  1.00  0.00     0.184 C 
ATOM     17  C   UNL     1       5.903  22.544  32.725  1.00  0.00     0.178 C 
ATOM     18  O   UNL     1       5.562  21.328  33.333  1.00  0.00    -0.341 OA
ATOM     19  C   UNL     1       4.230  21.004  33.102  1.00  0.00     0.281 C 
ATOM     20  C   UNL     1       3.706  23.137  31.960  1.00  0.00     0.180 C 
ATOM     21  C   UNL     1       3.696  21.626  31.862  1.00  0.00     0.202 C 
BRANCH  17  22
ATOM     22  C   UNL     1       7.190  23.026  33.321  1.00  0.00     0.191 C 
BRANCH  22  23
ATOM     23  O   UNL     1       8.020  21.926  33.546  1.00  0.00    -0.394 OA
ATOM     24  H   UNL     1       7.437  21.139  33.617  1.00  0.00     0.210 HD
ENDBRANCH  22  23
ENDBRANCH  17  22
BRANCH  19  25
ATOM     25  O   UNL     1       3.447  21.288  34.200  1.00  0.00    -0.350 OA
BRANCH  25  26
ATOM     26  C   UNL     1       2.393  20.405  34.393  1.00  0.00     0.169 C 
BRANCH  26  27
ATOM     27  C   UNL     1       3.002  19.015  34.441  1.00  0.00     0.119 C 
BRANCH  27  28
ATOM     28  N   UNL     1       2.796  18.382  35.717  1.00  0.00    -0.092 NA
ATOM     29  N   UNL     1       3.702  18.435  36.559  1.00  0.00     0.001 N 
ATOM     30  N   UNL     1       4.342  18.578  37.601  1.00  0.00    -0.003 NA
ENDBRANCH  27  28
ENDBRANCH  26  27
ENDBRANCH  25  26
ENDBRANCH  19  25
BRANCH  20  31
ATOM     31  O   UNL     1       2.504  23.528  32.543  1.00  0.00    -0.387 OA
ATOM     32  H   UNL     1       1.708  23.196  32.074  1.00  0.00     0.211 HD
ENDBRANCH  20  31
BRANCH  21  33
ATOM     33  O   UNL     1       4.320  21.151  30.708  1.00  0.00    -0.385 OA
ATOM     34  H   UNL     1       4.697  21.970  30.257  1.00  0.00     0.211 HD
ENDBRANCH  21  33
ENDBRANCH  15  16
ENDBRANCH  10  15
BRANCH  12  35
ATOM     35  O   UNL     1       5.636  27.215  35.468  1.00  0.00    -0.385 OA
ATOM     36  H   UNL     1       5.203  26.485  36.003  1.00  0.00     0.211 HD
ENDBRANCH  12  35
BRANCH  13  37
ATOM     37  O   UNL     1       7.178  27.932  32.530  1.00  0.00    -0.387 OA
ATOM     38  H   UNL     1       6.996  27.903  31.562  1.00  0.00     0.211 HD
ENDBRANCH  13  37
BRANCH  14  39
ATOM     39  O   UNL     1       5.094  26.935  31.217  1.00  0.00    -0.387 OA
ATOM     40  H   UNL     1       4.346  26.269  31.192  1.00  0.00     0.211 HD
ENDBRANCH  14  39
ENDBRANCH   8   9
ENDBRANCH   7   8
ENDBRANCH   1   7
BRANCH   1  41
ATOM     41  C   UNL     1       1.932  28.843  30.049  1.00  0.00     0.364 C 
ATOM     42  O   UNL     1       2.994  29.444  29.803  1.00  0.00    -0.246 OA
BRANCH  41  43
ATOM     43  O   UNL     1       0.817  29.632  30.313  1.00  0.00    -0.477 OA
ATOM     44  H   UNL     1       0.907  30.626  30.472  1.00  0.00     0.296 HD
ENDBRANCH  41  43
ENDBRANCH   1  41
BRANCH   3  45
ATOM     45  O   UNL     1      -0.660  25.043  30.038  1.00  0.00    -0.391 OA
ATOM     46  H   UNL     1      -0.245  24.217  30.390  1.00  0.00     0.211 HD
ENDBRANCH   3  45
BRANCH   5  47
ATOM     47  C   UNL     1       3.823  25.168  28.034  1.00  0.00     0.176 C 
BRANCH  47  48
ATOM     48  O   UNL     1       4.871  26.091  28.270  1.00  0.00    -0.388 OA
ATOM     49  H   UNL     1       5.264  25.993  29.152  1.00  0.00     0.211 HD
ENDBRANCH  47  48
BRANCH  47  50
ATOM     50  C   UNL     1       3.896  24.831  26.581  1.00  0.00     0.165 C 
BRANCH  50  51
ATOM     51  O   UNL     1       4.026  23.451  26.417  1.00  0.00    -0.388 OA
ATOM     52  H   UNL     1       4.144  23.038  27.311  1.00  0.00     0.211 HD
ENDBRANCH  50  51
BRANCH  50  53
ATOM     53  C   UNL     1       4.929  25.564  25.799  1.00  0.00     0.154 C 
BRANCH  53  54
ATOM     54  N   UNL     1       4.353  26.588  24.958  1.00  0.00    -0.319 N 
ATOM     55  C   UNL     1       4.105  27.918  25.374  1.00  0.00     0.407 C 
ATOM     56  H   UNL     1       4.080  26.384  23.949  1.00  0.00     0.167 HD
ATOM     57  O   UNL     1       4.388  28.270  26.535  1.00  0.00    -0.225 OA
BRANCH  55  58
ATOM     58  O   UNL     1       3.547  28.876  24.537  1.00  0.00    -0.443 OA
BRANCH  58  59
ATOM     59  C   UNL     1       4.219  29.350  23.364  1.00  0.00     0.294 C 
BRANCH  59  60
ATOM     60  C   UNL     1       5.454  30.019  23.846  1.00  0.00     0.121 A 
ATOM     61  C   UNL     1       6.745  29.672  23.560  1.00  0.00     0.144 A 
ATOM     62  N   UNL     1       5.535  31.107  24.665  1.00  0.00    -0.131 NA
ATOM     63  N   UNL     1       7.582  30.525  24.188  1.00  0.00    -0.220 N 
ATOM     64  N   UNL     1       6.811  31.385  24.851  1.00  0.00    -0.062 NA
BRANCH  63  65
ATOM     65  C   UNL     1       8.999  30.490  24.131  1.00  0.00     0.067 A 
ATOM     66  C   UNL     1       9.742  31.573  23.723  1.00  0.00     0.039 A 
ATOM     67  C   UNL     1       9.646  29.337  24.500  1.00  0.00     0.029 A 
ATOM     68  C   UNL     1      11.114  31.489  23.690  1.00  0.00     0.007 A 
ATOM     69  C   UNL     1      11.022  29.256  24.466  1.00  0.00     0.012 A 
ATOM     70  C   UNL     1      11.785  30.326  24.061  1.00  0.00    -0.008 A 
BRANCH  68  71
ATOM     71  C   UNL     1      11.936  32.623  23.262  1.00  0.00     0.072 C 
ATOM     72  O   UNL     1      12.330  32.749  22.078  1.00  0.00    -0.545 OA
ATOM     73  O   UNL     1      12.288  33.581  24.180  1.00  0.00    -0.545 OA
ENDBRANCH  68  71
BRANCH  70  74
ATOM     74  C   UNL     1      13.235  30.252  24.025  1.00  0.00     0.004 A 
ATOM     75  C   UNL     1      13.847  29.769  22.895  1.00  0.00     0.026 A 
ATOM     76  C   UNL     1      14.013  30.646  25.083  1.00  0.00     0.026 A 
ATOM     77  C   UNL     1      13.147  29.351  21.788  1.00  0.00     0.016 A 
ATOM     78  C   UNL     1      15.235  29.701  22.877  1.00  0.00     0.139 A 
ATOM     79  C   UNL     1      15.488  30.555  25.016  1.00  0.00     0.139 A 
ATOM     80  C   UNL     1      13.474  31.139  26.243  1.00  0.00     0.016 A 
ATOM     81  C   UNL     1      13.774  28.866  20.655  1.00  0.00     0.047 A 
ATOM     82  C   UNL     1      15.850  29.218  21.749  1.00  0.00     0.093 A 
ATOM     83  O   UNL     1      15.977  30.082  23.899  1.00  0.00    -0.456 OA
ATOM     84  C   UNL     1      16.263  30.950  26.076  1.00  0.00     0.099 A 
ATOM     85  C   UNL     1      14.268  31.534  27.305  1.00  0.00     0.053 A 
ATOM     86  C   UNL     1      15.149  28.795  20.628  1.00  0.00     0.119 A 
ATOM     87  C   UNL     1      15.644  31.434  27.205  1.00  0.00     0.182 A 
ATOM     88  O   UNL     1      16.312  31.809  28.206  1.00  0.00    -0.290 OA
BRANCH  86  89
ATOM     89  O   UNL     1      15.770  28.308  19.488  1.00  0.00    -0.508 OA
ATOM     90  H   UNL     1      16.570  28.834  19.146  1.00  0.00     0.293 HD
ENDBRANCH  86  89
ENDBRANCH  70  74
ENDBRANCH  63  65
ENDBRANCH  59  60
ENDBRANCH  58  59
ENDBRANCH  55  58
ENDBRANCH  53  54
ENDBRANCH  50  53
ENDBRANCH  47  50
ENDBRANCH   5  47
BRANCH   4  91
ATOM     91  N   UNL     1       1.530  23.625  28.495  1.00  0.00    -0.348 N 
ATOM     92  C   UNL     1       1.089  22.536  29.272  1.00  0.00     0.217 C 
ATOM     93  H   UNL     1       1.806  23.444  27.505  1.00  0.00     0.163 HD
ATOM     94  C   UNL     1       0.999  21.149  28.751  1.00  0.00     0.114 C 
ATOM     95  O   UNL     1       0.736  22.692  30.492  1.00  0.00    -0.275 OA
ENDBRANCH   4  91
TORSDOF 33
