REMARK VINA RESULT:    -5.430      7.635     15.486
REMARK INTER + INTRA:         -23.880
REMARK INTER:                 -14.943
REMARK INTRA:                  -8.937
REMARK UNBOUND:                -9.245
REMARK SMILES CC(=O)N[C@@H]1[C@@H](O)C[C@](OC[C@H]2O[C@@H](O[C@H]3[C@H](O)[C@@H](O)[C@H](OCCN=[N+]=[N-])O[C@@H]3CO)[C@H](O)[C@@H](O)[C@H]2O)(C(=O)O)O[C@H]1C(O)[C@H](O)CNC(=O)OCc1cn([C@@H](C)C(=O)OCc2ccccc2)nn1
REMARK SMILES IDX 43 1 42 2 9 3 8 4 41 5 6 6 5 7 10 8 11 9 12 10 14 11 13 12
REMARK SMILES IDX 32 13 34 14 36 15 15 16 16 17 29 18 28 19 21 20 17 21 19 22
REMARK SMILES IDX 30 23 31 24 22 26 23 27 24 28 25 29 26 30 27 31 18 32 20 34
REMARK SMILES IDX 33 36 35 38 37 40 38 42 39 43 40 44 7 46 4 48 2 49 1 51 3 52
REMARK SMILES IDX 44 53 45 55 46 56 47 58 48 59 49 60 50 62 51 63 52 64 53 65
REMARK SMILES IDX 54 66 69 67 55 68 68 69 56 70 57 71 58 72 59 73 60 74 61 75
REMARK SMILES IDX 62 76 63 77 67 78 64 79 66 80 65 81
REMARK H PARENT 31 25 18 33 20 35 33 37 35 39 37 41 40 45 7 47 4 50 44 54
REMARK H PARENT 46 57 48 61
REMARK Flexibility Score: inf
ROOT
ATOM      1  C   UNL     1      17.815  29.200  20.581  1.00  0.00     0.176 C 
ENDROOT
BRANCH   1   2
ATOM      2  C   UNL     1      17.933  29.814  19.242  1.00  0.00     0.178 C 
ATOM      3  C   UNL     1      15.707  30.000  18.562  1.00  0.00     0.272 C 
ATOM      4  C   UNL     1      15.975  29.002  17.502  1.00  0.00     0.113 C 
ATOM      5  O   UNL     1      16.936  30.681  18.881  1.00  0.00    -0.332 OA
ATOM      6  C   UNL     1      17.058  28.010  17.856  1.00  0.00     0.145 C 
ATOM      7  C   UNL     1      18.295  28.780  18.207  1.00  0.00     0.142 C 
BRANCH   3   8
ATOM      8  O   UNL     1      15.197  29.654  19.716  1.00  0.00    -0.338 OA
BRANCH   8   9
ATOM      9  C   UNL     1      14.044  29.168  20.073  1.00  0.00     0.199 C 
BRANCH   9  10
ATOM     10  C   UNL     1      13.392  29.471  21.392  1.00  0.00     0.179 C 
ATOM     11  C   UNL     1      14.011  30.091  23.548  1.00  0.00     0.282 C 
ATOM     12  O   UNL     1      14.324  29.393  22.384  1.00  0.00    -0.341 OA
ATOM     13  C   UNL     1      12.553  30.335  23.699  1.00  0.00     0.202 C 
ATOM     14  C   UNL     1      12.031  31.198  22.583  1.00  0.00     0.179 C 
ATOM     15  C   UNL     1      12.762  30.879  21.329  1.00  0.00     0.177 C 
BRANCH  11  16
ATOM     16  O   UNL     1      14.834  31.183  23.593  1.00  0.00    -0.341 OA
BRANCH  16  17
ATOM     17  C   UNL     1      14.851  31.864  24.774  1.00  0.00     0.184 C 
ATOM     18  C   UNL     1      15.618  33.150  24.597  1.00  0.00     0.178 C 
ATOM     19  O   UNL     1      15.776  33.785  25.834  1.00  0.00    -0.341 OA
ATOM     20  C   UNL     1      16.908  33.158  26.416  1.00  0.00     0.281 C 
ATOM     21  C   UNL     1      15.534  31.092  25.891  1.00  0.00     0.180 C 
ATOM     22  C   UNL     1      16.821  31.666  26.354  1.00  0.00     0.202 C 
BRANCH  18  23
ATOM     23  C   UNL     1      15.048  34.075  23.564  1.00  0.00     0.191 C 
BRANCH  23  24
ATOM     24  O   UNL     1      15.528  33.638  22.326  1.00  0.00    -0.394 OA
ATOM     25  H   UNL     1      15.147  32.771  22.049  1.00  0.00     0.210 HD
ENDBRANCH  23  24
ENDBRANCH  18  23
BRANCH  20  26
ATOM     26  O   UNL     1      17.064  33.667  27.666  1.00  0.00    -0.350 OA
BRANCH  26  27
ATOM     27  C   UNL     1      16.007  34.255  28.278  1.00  0.00     0.169 C 
BRANCH  27  28
ATOM     28  C   UNL     1      15.372  33.540  29.416  1.00  0.00     0.119 C 
BRANCH  28  29
ATOM     29  N   UNL     1      16.154  32.576  30.102  1.00  0.00    -0.092 NA
ATOM     30  N   UNL     1      16.004  31.371  29.939  1.00  0.00     0.001 N 
ATOM     31  N   UNL     1      16.020  30.150  29.694  1.00  0.00    -0.003 NA
ENDBRANCH  28  29
ENDBRANCH  27  28
ENDBRANCH  26  27
ENDBRANCH  20  26
BRANCH  21  32
ATOM     32  O   UNL     1      14.687  30.938  26.993  1.00  0.00    -0.387 OA
ATOM     33  H   UNL     1      13.760  30.730  26.741  1.00  0.00     0.211 HD
ENDBRANCH  21  32
BRANCH  22  34
ATOM     34  O   UNL     1      17.872  31.088  25.634  1.00  0.00    -0.385 OA
ATOM     35  H   UNL     1      17.540  30.210  25.304  1.00  0.00     0.211 HD
ENDBRANCH  22  34
ENDBRANCH  16  17
ENDBRANCH  11  16
BRANCH  13  36
ATOM     36  O   UNL     1      11.895  29.082  23.717  1.00  0.00    -0.385 OA
ATOM     37  H   UNL     1      10.947  29.296  23.458  1.00  0.00     0.211 HD
ENDBRANCH  13  36
BRANCH  14  38
ATOM     38  O   UNL     1      12.127  32.521  22.962  1.00  0.00    -0.387 OA
ATOM     39  H   UNL     1      11.656  32.706  23.820  1.00  0.00     0.211 HD
ENDBRANCH  14  38
BRANCH  15  40
ATOM     40  O   UNL     1      13.705  31.842  20.997  1.00  0.00    -0.387 OA
ATOM     41  H   UNL     1      13.659  32.019  20.007  1.00  0.00     0.211 HD
ENDBRANCH  15  40
ENDBRANCH   9  10
ENDBRANCH   8   9
ENDBRANCH   3   8
BRANCH   3  42
ATOM     42  C   UNL     1      14.968  31.155  17.917  1.00  0.00     0.364 C 
ATOM     43  O   UNL     1      14.320  31.009  16.872  1.00  0.00    -0.246 OA
BRANCH  42  44
ATOM     44  O   UNL     1      14.999  32.426  18.489  1.00  0.00    -0.477 OA
ATOM     45  H   UNL     1      14.422  33.200  18.175  1.00  0.00     0.296 HD
ENDBRANCH  42  44
ENDBRANCH   3  42
BRANCH   6  46
ATOM     46  O   UNL     1      16.673  27.123  18.858  1.00  0.00    -0.391 OA
ATOM     47  H   UNL     1      16.891  27.555  19.717  1.00  0.00     0.211 HD
ENDBRANCH   6  46
BRANCH   7  48
ATOM     48  N   UNL     1      18.818  29.398  16.996  1.00  0.00    -0.348 N 
ATOM     49  C   UNL     1      19.913  28.765  16.328  1.00  0.00     0.217 C 
ATOM     50  H   UNL     1      18.442  30.276  16.586  1.00  0.00     0.163 HD
ATOM     51  C   UNL     1      20.450  29.399  15.086  1.00  0.00     0.114 C 
ATOM     52  O   UNL     1      20.406  27.698  16.785  1.00  0.00    -0.275 OA
ENDBRANCH   7  48
ENDBRANCH   1   2
BRANCH   1  53
ATOM     53  O   UNL     1      18.921  28.339  20.781  1.00  0.00    -0.388 OA
ATOM     54  H   UNL     1      18.766  27.758  21.576  1.00  0.00     0.211 HD
ENDBRANCH   1  53
BRANCH   1  55
ATOM     55  C   UNL     1      17.934  30.210  21.734  1.00  0.00     0.165 C 
BRANCH  55  56
ATOM     56  O   UNL     1      16.889  31.079  21.776  1.00  0.00    -0.388 OA
ATOM     57  H   UNL     1      16.985  31.718  22.521  1.00  0.00     0.211 HD
ENDBRANCH  55  56
BRANCH  55  58
ATOM     58  C   UNL     1      19.296  30.824  21.768  1.00  0.00     0.154 C 
BRANCH  58  59
ATOM     59  N   UNL     1      20.184  30.053  22.594  1.00  0.00    -0.319 N 
ATOM     60  C   UNL     1      21.528  30.373  22.896  1.00  0.00     0.407 C 
ATOM     61  H   UNL     1      19.843  29.146  23.046  1.00  0.00     0.167 HD
ATOM     62  O   UNL     1      22.064  31.382  22.432  1.00  0.00    -0.225 OA
BRANCH  60  63
ATOM     63  O   UNL     1      22.297  29.552  23.736  1.00  0.00    -0.443 OA
BRANCH  63  64
ATOM     64  C   UNL     1      23.697  29.484  23.636  1.00  0.00     0.294 C 
BRANCH  64  65
ATOM     65  C   UNL     1      24.062  28.068  23.401  1.00  0.00     0.120 A 
ATOM     66  C   UNL     1      23.797  27.293  22.295  1.00  0.00     0.139 A 
ATOM     67  N   UNL     1      24.726  27.288  24.262  1.00  0.00    -0.132 NA
ATOM     68  N   UNL     1      24.308  26.049  22.508  1.00  0.00    -0.238 N 
ATOM     69  N   UNL     1      24.864  26.076  23.705  1.00  0.00    -0.066 NA
BRANCH  68  70
ATOM     70  C   UNL     1      24.187  24.991  21.536  1.00  0.00     0.215 C 
ATOM     71  C   UNL     1      24.954  23.755  21.970  1.00  0.00     0.046 C 
BRANCH  70  72
ATOM     72  C   UNL     1      22.739  24.634  21.324  1.00  0.00     0.331 C 
ATOM     73  O   UNL     1      22.245  24.768  20.192  1.00  0.00    -0.250 OA
BRANCH  72  74
ATOM     74  O   UNL     1      21.959  24.165  22.355  1.00  0.00    -0.459 OA
BRANCH  74  75
ATOM     75  C   UNL     1      20.988  24.916  23.041  1.00  0.00     0.268 C 
BRANCH  75  76
ATOM     76  C   UNL     1      21.411  25.338  24.393  1.00  0.00    -0.011 A 
ATOM     77  C   UNL     1      21.034  26.537  24.940  1.00  0.00     0.007 A 
ATOM     78  C   UNL     1      22.212  24.518  25.147  1.00  0.00     0.007 A 
ATOM     79  C   UNL     1      21.428  26.934  26.198  1.00  0.00     0.000 A 
ATOM     80  C   UNL     1      22.630  24.872  26.409  1.00  0.00     0.000 A 
ATOM     81  C   UNL     1      22.229  26.096  26.931  1.00  0.00     0.000 A 
ENDBRANCH  75  76
ENDBRANCH  74  75
ENDBRANCH  72  74
ENDBRANCH  70  72
ENDBRANCH  68  70
ENDBRANCH  64  65
ENDBRANCH  63  64
ENDBRANCH  60  63
ENDBRANCH  58  59
ENDBRANCH  55  58
ENDBRANCH   1  55
TORSDOF 34
