REMARK VINA RESULT:    -5.850      6.485     10.535
REMARK INTER + INTRA:         -24.236
REMARK INTER:                 -16.970
REMARK INTRA:                  -7.266
REMARK UNBOUND:                -8.981
REMARK SMILES CC(=O)N[C@@H]1[C@@H](O)C[C@](OC[C@H]2O[C@@H](O[C@H]3[C@H](O)[C@@H](O)[C@H](OCCN=[N+]=[N-])O[C@@H]3CO)[C@H](O)[C@@H](O)[C@H]2O)(C(=O)O)O[C@H]1C(O)[C@H](O)CNC(=O)OCc1cn(-c2cc(C(=O)O)nc(-c3ccccc3)c2)nn1
REMARK SMILES IDX 9 1 8 2 6 3 5 4 42 5 41 6 10 7 11 8 12 9 14 10 13 11 32 12
REMARK SMILES IDX 34 13 36 14 15 15 16 16 29 17 28 18 21 19 17 20 19 21 30 22
REMARK SMILES IDX 31 23 22 25 23 26 24 27 25 28 26 29 27 30 18 31 20 33 33 35
REMARK SMILES IDX 35 37 37 39 38 41 39 42 40 43 7 45 43 47 44 48 45 50 46 51
REMARK SMILES IDX 47 53 48 54 49 55 50 57 51 58 52 59 53 60 54 61 72 62 55 63
REMARK SMILES IDX 71 64 56 65 57 66 70 67 58 68 63 69 62 70 59 71 60 72 61 73
REMARK SMILES IDX 64 75 65 76 69 77 66 78 68 79 67 80 4 81 2 82 1 84 3 85
REMARK H PARENT 31 24 18 32 20 34 33 36 35 38 37 40 40 44 7 46 44 49 46 52
REMARK H PARENT 48 56 61 74 4 83
REMARK Flexibility Score: inf
ROOT
ATOM      1  C   UNL     1      32.834  19.558  23.757  1.00  0.00     0.272 C 
ATOM      2  C   UNL     1      33.774  18.583  24.493  1.00  0.00     0.113 C 
ATOM      3  C   UNL     1      33.128  17.839  25.604  1.00  0.00     0.145 C 
ATOM      4  C   UNL     1      32.183  18.698  26.436  1.00  0.00     0.142 C 
ATOM      5  C   UNL     1      32.393  20.117  25.899  1.00  0.00     0.178 C 
ATOM      6  O   UNL     1      31.885  20.104  24.619  1.00  0.00    -0.332 OA
ENDROOT
BRANCH   1   7
ATOM      7  O   UNL     1      32.209  18.808  22.813  1.00  0.00    -0.338 OA
BRANCH   7   8
ATOM      8  C   UNL     1      32.945  18.080  21.936  1.00  0.00     0.199 C 
BRANCH   8   9
ATOM      9  C   UNL     1      32.138  17.812  20.641  1.00  0.00     0.179 C 
ATOM     10  C   UNL     1      30.135  18.486  19.640  1.00  0.00     0.282 C 
ATOM     11  O   UNL     1      30.983  18.523  20.717  1.00  0.00    -0.341 OA
ATOM     12  C   UNL     1      30.867  17.875  18.460  1.00  0.00     0.202 C 
ATOM     13  C   UNL     1      32.245  18.454  18.252  1.00  0.00     0.179 C 
ATOM     14  C   UNL     1      33.005  18.381  19.528  1.00  0.00     0.177 C 
BRANCH  10  15
ATOM     15  O   UNL     1      29.735  19.782  19.372  1.00  0.00    -0.341 OA
BRANCH  15  16
ATOM     16  C   UNL     1      29.644  20.607  20.480  1.00  0.00     0.184 C 
ATOM     17  C   UNL     1      28.292  20.636  21.093  1.00  0.00     0.178 C 
ATOM     18  O   UNL     1      27.733  21.903  21.058  1.00  0.00    -0.341 OA
ATOM     19  C   UNL     1      27.756  22.458  19.781  1.00  0.00     0.281 C 
ATOM     20  C   UNL     1      30.176  21.954  20.083  1.00  0.00     0.180 C 
ATOM     21  C   UNL     1      29.178  22.912  19.536  1.00  0.00     0.202 C 
BRANCH  17  22
ATOM     22  C   UNL     1      28.389  20.239  22.551  1.00  0.00     0.191 C 
BRANCH  22  23
ATOM     23  O   UNL     1      29.680  20.339  23.036  1.00  0.00    -0.394 OA
ATOM     24  H   UNL     1      30.130  19.456  22.961  1.00  0.00     0.210 HD
ENDBRANCH  22  23
ENDBRANCH  17  22
BRANCH  19  25
ATOM     25  O   UNL     1      26.923  23.566  19.807  1.00  0.00    -0.350 OA
BRANCH  25  26
ATOM     26  C   UNL     1      27.004  24.250  21.022  1.00  0.00     0.169 C 
BRANCH  26  27
ATOM     27  C   UNL     1      26.675  25.709  20.829  1.00  0.00     0.119 C 
BRANCH  27  28
ATOM     28  N   UNL     1      25.892  25.867  19.624  1.00  0.00    -0.092 NA
ATOM     29  N   UNL     1      24.718  26.193  19.729  1.00  0.00     0.001 N 
ATOM     30  N   UNL     1      23.628  26.748  19.506  1.00  0.00    -0.003 NA
ENDBRANCH  27  28
ENDBRANCH  26  27
ENDBRANCH  25  26
ENDBRANCH  19  25
BRANCH  20  31
ATOM     31  O   UNL     1      30.710  22.544  21.253  1.00  0.00    -0.387 OA
ATOM     32  H   UNL     1      30.672  23.531  21.189  1.00  0.00     0.211 HD
ENDBRANCH  20  31
BRANCH  21  33
ATOM     33  O   UNL     1      29.434  23.080  18.159  1.00  0.00    -0.385 OA
ATOM     34  H   UNL     1      28.667  22.767  17.605  1.00  0.00     0.211 HD
ENDBRANCH  21  33
ENDBRANCH  15  16
ENDBRANCH  10  15
BRANCH  12  35
ATOM     35  O   UNL     1      30.985  16.494  18.542  1.00  0.00    -0.385 OA
ATOM     36  H   UNL     1      31.017  16.179  17.594  1.00  0.00     0.211 HD
ENDBRANCH  12  35
BRANCH  13  37
ATOM     37  O   UNL     1      32.067  19.762  17.798  1.00  0.00    -0.387 OA
ATOM     38  H   UNL     1      31.687  20.279  18.553  1.00  0.00     0.211 HD
ENDBRANCH  13  37
BRANCH  14  39
ATOM     39  O   UNL     1      33.345  19.704  19.878  1.00  0.00    -0.387 OA
ATOM     40  H   UNL     1      32.613  20.178  20.306  1.00  0.00     0.211 HD
ENDBRANCH  14  39
ENDBRANCH   8   9
ENDBRANCH   7   8
ENDBRANCH   1   7
BRANCH   1  41
ATOM     41  C   UNL     1      33.647  20.688  23.241  1.00  0.00     0.364 C 
ATOM     42  O   UNL     1      34.853  20.855  23.569  1.00  0.00    -0.246 OA
BRANCH  41  43
ATOM     43  O   UNL     1      33.099  21.603  22.370  1.00  0.00    -0.477 OA
ATOM     44  H   UNL     1      32.088  21.743  22.253  1.00  0.00     0.296 HD
ENDBRANCH  41  43
ENDBRANCH   1  41
BRANCH   3  45
ATOM     45  O   UNL     1      32.560  16.645  25.216  1.00  0.00    -0.391 OA
ATOM     46  H   UNL     1      32.586  16.578  24.240  1.00  0.00     0.211 HD
ENDBRANCH   3  45
BRANCH   5  47
ATOM     47  C   UNL     1      31.891  21.180  26.800  1.00  0.00     0.176 C 
BRANCH  47  48
ATOM     48  O   UNL     1      30.533  20.920  27.094  1.00  0.00    -0.388 OA
ATOM     49  H   UNL     1      29.977  21.730  26.866  1.00  0.00     0.211 HD
ENDBRANCH  47  48
BRANCH  47  50
ATOM     50  C   UNL     1      32.049  22.592  26.309  1.00  0.00     0.165 C 
BRANCH  50  51
ATOM     51  O   UNL     1      33.096  22.660  25.413  1.00  0.00    -0.388 OA
ATOM     52  H   UNL     1      33.889  23.127  25.788  1.00  0.00     0.211 HD
ENDBRANCH  50  51
BRANCH  50  53
ATOM     53  C   UNL     1      32.285  23.453  27.526  1.00  0.00     0.154 C 
BRANCH  53  54
ATOM     54  N   UNL     1      31.184  23.610  28.407  1.00  0.00    -0.319 N 
ATOM     55  C   UNL     1      30.895  24.851  29.030  1.00  0.00     0.407 C 
ATOM     56  H   UNL     1      30.548  22.804  28.624  1.00  0.00     0.167 HD
ATOM     57  O   UNL     1      31.636  25.829  28.816  1.00  0.00    -0.225 OA
BRANCH  55  58
ATOM     58  O   UNL     1      29.782  24.992  29.882  1.00  0.00    -0.443 OA
BRANCH  58  59
ATOM     59  C   UNL     1      29.214  26.267  30.041  1.00  0.00     0.294 C 
BRANCH  59  60
ATOM     60  C   UNL     1      28.165  26.520  29.026  1.00  0.00     0.121 A 
ATOM     61  C   UNL     1      26.851  26.113  28.989  1.00  0.00     0.144 A 
ATOM     62  N   UNL     1      28.319  27.215  27.862  1.00  0.00    -0.131 NA
ATOM     63  N   UNL     1      26.249  26.541  27.858  1.00  0.00    -0.220 N 
ATOM     64  N   UNL     1      27.186  27.216  27.192  1.00  0.00    -0.062 NA
BRANCH  63  65
ATOM     65  C   UNL     1      24.913  26.291  27.460  1.00  0.00     0.071 A 
ATOM     66  C   UNL     1      23.911  26.563  28.379  1.00  0.00     0.064 A 
ATOM     67  C   UNL     1      24.524  25.812  26.226  1.00  0.00     0.057 A 
ATOM     68  C   UNL     1      22.592  26.348  28.024  1.00  0.00     0.151 A 
ATOM     69  C   UNL     1      23.225  25.603  25.884  1.00  0.00     0.073 A 
ATOM     70  N   UNL     1      22.276  25.878  26.800  1.00  0.00    -0.241 NA
BRANCH  68  71
ATOM     71  C   UNL     1      21.517  26.628  28.966  1.00  0.00     0.354 C 
ATOM     72  O   UNL     1      21.230  25.746  29.814  1.00  0.00    -0.245 OA
BRANCH  71  73
ATOM     73  O   UNL     1      20.799  27.799  28.983  1.00  0.00    -0.477 OA
ATOM     74  H   UNL     1      19.781  27.828  29.127  1.00  0.00     0.297 HD
ENDBRANCH  71  73
ENDBRANCH  68  71
BRANCH  69  75
ATOM     75  C   UNL     1      22.837  25.103  24.571  1.00  0.00     0.000 A 
ATOM     76  C   UNL     1      23.848  24.678  23.711  1.00  0.00     0.010 A 
ATOM     77  C   UNL     1      21.546  25.026  24.136  1.00  0.00     0.010 A 
ATOM     78  C   UNL     1      23.576  24.191  22.459  1.00  0.00     0.001 A 
ATOM     79  C   UNL     1      21.283  24.534  22.869  1.00  0.00     0.001 A 
ATOM     80  C   UNL     1      22.266  24.115  22.020  1.00  0.00     0.000 A 
ENDBRANCH  69  75
ENDBRANCH  63  65
ENDBRANCH  59  60
ENDBRANCH  58  59
ENDBRANCH  55  58
ENDBRANCH  53  54
ENDBRANCH  50  53
ENDBRANCH  47  50
ENDBRANCH   5  47
BRANCH   4  81
ATOM     81  N   UNL     1      32.436  18.578  27.835  1.00  0.00    -0.348 N 
ATOM     82  C   UNL     1      31.934  17.464  28.556  1.00  0.00     0.217 C 
ATOM     83  H   UNL     1      32.993  19.322  28.314  1.00  0.00     0.163 HD
ATOM     84  C   UNL     1      32.166  17.285  30.012  1.00  0.00     0.114 C 
ATOM     85  O   UNL     1      31.254  16.559  27.963  1.00  0.00    -0.275 OA
ENDBRANCH   4  81
TORSDOF 33
