REMARK VINA RESULT:    -5.537     15.284     19.244
REMARK INTER + INTRA:         -20.652
REMARK INTER:                 -12.250
REMARK INTRA:                  -8.402
REMARK UNBOUND:                -6.052
REMARK SMILES CC(=O)N[C@@H]1[C@@H](O)C[C@](OC[C@H]2O[C@@H](O[C@H]3[C@H](O)[C@@H](O)[C@H](OCCN=[N+]=[N-])O[C@@H]3CO)[C@H](O)[C@@H](O)[C@H]2O)(C(=O)O)O[C@H]1C(O)[C@H](O)CNC(=O)OCc1cn(CC(O)CO)nn1
REMARK SMILES IDX 43 1 42 2 9 3 8 4 41 5 6 6 5 7 10 8 11 9 12 10 14 11 13 12
REMARK SMILES IDX 32 13 34 14 36 15 15 16 16 17 29 18 28 19 21 20 17 21 19 22
REMARK SMILES IDX 30 23 31 24 22 26 23 27 24 28 25 29 26 30 27 31 18 32 20 34
REMARK SMILES IDX 33 36 35 38 37 40 38 42 39 43 40 44 7 46 4 48 2 49 1 51 3 52
REMARK SMILES IDX 44 53 45 55 46 56 47 58 48 59 49 60 50 62 51 63 52 64 53 65
REMARK SMILES IDX 54 66 62 67 55 68 61 69 56 70 57 71 58 72 59 74 60 75
REMARK H PARENT 31 25 18 33 20 35 33 37 35 39 37 41 40 45 7 47 4 50 44 54
REMARK H PARENT 46 57 48 61 58 73 60 76
REMARK Flexibility Score: inf
ROOT
ATOM      1  C   UNL     1      15.237  28.701  21.932  1.00  0.00     0.176 C 
ENDROOT
BRANCH   1   2
ATOM      2  C   UNL     1      15.902  30.012  22.392  1.00  0.00     0.178 C 
ATOM      3  C   UNL     1      17.666  30.856  23.718  1.00  0.00     0.272 C 
ATOM      4  C   UNL     1      16.721  31.798  24.409  1.00  0.00     0.113 C 
ATOM      5  O   UNL     1      16.935  29.778  23.197  1.00  0.00    -0.332 OA
ATOM      6  C   UNL     1      15.270  31.558  24.228  1.00  0.00     0.145 C 
ATOM      7  C   UNL     1      14.859  30.895  22.966  1.00  0.00     0.142 C 
BRANCH   3   8
ATOM      8  O   UNL     1      18.550  30.369  24.564  1.00  0.00    -0.338 OA
BRANCH   8   9
ATOM      9  C   UNL     1      19.352  30.645  25.503  1.00  0.00     0.199 C 
BRANCH   9  10
ATOM     10  C   UNL     1      20.757  30.150  25.609  1.00  0.00     0.179 C 
ATOM     11  C   UNL     1      22.074  28.384  24.991  1.00  0.00     0.282 C 
ATOM     12  O   UNL     1      20.965  29.129  24.604  1.00  0.00    -0.341 OA
ATOM     13  C   UNL     1      23.050  29.100  25.859  1.00  0.00     0.202 C 
ATOM     14  C   UNL     1      23.140  30.580  25.646  1.00  0.00     0.179 C 
ATOM     15  C   UNL     1      21.816  31.170  25.188  1.00  0.00     0.177 C 
BRANCH  11  16
ATOM     16  O   UNL     1      22.747  27.776  23.952  1.00  0.00    -0.341 OA
BRANCH  16  17
ATOM     17  C   UNL     1      23.007  26.423  24.159  1.00  0.00     0.184 C 
ATOM     18  C   UNL     1      24.235  26.029  23.396  1.00  0.00     0.178 C 
ATOM     19  O   UNL     1      23.989  25.097  22.399  1.00  0.00    -0.341 OA
ATOM     20  C   UNL     1      22.821  25.419  21.688  1.00  0.00     0.281 C 
ATOM     21  C   UNL     1      21.798  25.625  23.894  1.00  0.00     0.180 C 
ATOM     22  C   UNL     1      21.682  24.961  22.566  1.00  0.00     0.202 C 
BRANCH  18  23
ATOM     23  C   UNL     1      25.308  25.457  24.300  1.00  0.00     0.191 C 
BRANCH  23  24
ATOM     24  O   UNL     1      24.865  24.331  24.979  1.00  0.00    -0.394 OA
ATOM     25  H   UNL     1      24.113  24.636  25.581  1.00  0.00     0.210 HD
ENDBRANCH  23  24
ENDBRANCH  18  23
BRANCH  20  26
ATOM     26  O   UNL     1      22.872  24.689  20.511  1.00  0.00    -0.350 OA
BRANCH  26  27
ATOM     27  C   UNL     1      24.155  24.400  20.074  1.00  0.00     0.169 C 
BRANCH  27  28
ATOM     28  C   UNL     1      24.484  25.043  18.745  1.00  0.00     0.119 C 
BRANCH  28  29
ATOM     29  N   UNL     1      23.858  24.373  17.638  1.00  0.00    -0.092 NA
ATOM     30  N   UNL     1      22.982  24.845  16.923  1.00  0.00     0.001 N 
ATOM     31  N   UNL     1      22.047  25.402  16.348  1.00  0.00    -0.003 NA
ENDBRANCH  28  29
ENDBRANCH  27  28
ENDBRANCH  26  27
ENDBRANCH  20  26
BRANCH  21  32
ATOM     32  O   UNL     1      21.592  24.636  24.888  1.00  0.00    -0.387 OA
ATOM     33  H   UNL     1      22.456  24.111  24.886  1.00  0.00     0.211 HD
ENDBRANCH  21  32
BRANCH  22  34
ATOM     34  O   UNL     1      20.445  25.145  21.953  1.00  0.00    -0.385 OA
ATOM     35  H   UNL     1      20.022  25.988  22.182  1.00  0.00     0.211 HD
ENDBRANCH  22  34
ENDBRANCH  16  17
ENDBRANCH  11  16
BRANCH  13  36
ATOM     36  O   UNL     1      22.904  28.751  27.223  1.00  0.00    -0.385 OA
ATOM     37  H   UNL     1      22.279  28.017  27.363  1.00  0.00     0.211 HD
ENDBRANCH  13  36
BRANCH  14  38
ATOM     38  O   UNL     1      24.174  30.958  24.793  1.00  0.00    -0.387 OA
ATOM     39  H   UNL     1      25.038  30.816  25.249  1.00  0.00     0.211 HD
ENDBRANCH  14  38
BRANCH  15  40
ATOM     40  O   UNL     1      21.838  31.142  23.768  1.00  0.00    -0.387 OA
ATOM     41  H   UNL     1      21.477  31.984  23.399  1.00  0.00     0.211 HD
ENDBRANCH  15  40
ENDBRANCH   9  10
ENDBRANCH   8   9
ENDBRANCH   3   8
BRANCH   3  42
ATOM     42  C   UNL     1      18.344  31.527  22.560  1.00  0.00     0.364 C 
ATOM     43  O   UNL     1      19.329  30.908  22.050  1.00  0.00    -0.246 OA
BRANCH  42  44
ATOM     44  O   UNL     1      17.959  32.739  22.049  1.00  0.00    -0.477 OA
ATOM     45  H   UNL     1      17.023  32.890  21.656  1.00  0.00     0.296 HD
ENDBRANCH  42  44
ENDBRANCH   3  42
BRANCH   6  46
ATOM     46  O   UNL     1      14.846  30.749  25.309  1.00  0.00    -0.391 OA
ATOM     47  H   UNL     1      15.510  30.789  26.025  1.00  0.00     0.211 HD
ENDBRANCH   6  46
BRANCH   7  48
ATOM     48  N   UNL     1      14.370  31.905  22.031  1.00  0.00    -0.348 N 
ATOM     49  C   UNL     1      13.025  31.928  21.584  1.00  0.00     0.217 C 
ATOM     50  H   UNL     1      14.995  32.647  21.657  1.00  0.00     0.163 HD
ATOM     51  C   UNL     1      12.523  32.952  20.632  1.00  0.00     0.114 C 
ATOM     52  O   UNL     1      12.251  31.040  22.022  1.00  0.00    -0.275 OA
ENDBRANCH   7  48
ENDBRANCH   1   2
BRANCH   1  53
ATOM     53  O   UNL     1      13.879  28.773  22.172  1.00  0.00    -0.388 OA
ATOM     54  H   UNL     1      13.608  28.109  22.853  1.00  0.00     0.211 HD
ENDBRANCH   1  53
BRANCH   1  55
ATOM     55  C   UNL     1      15.486  28.488  20.447  1.00  0.00     0.165 C 
BRANCH  55  56
ATOM     56  O   UNL     1      16.715  29.143  20.193  1.00  0.00    -0.388 OA
ATOM     57  H   UNL     1      16.577  30.122  20.214  1.00  0.00     0.211 HD
ENDBRANCH  55  56
BRANCH  55  58
ATOM     58  C   UNL     1      14.443  29.086  19.567  1.00  0.00     0.154 C 
BRANCH  58  59
ATOM     59  N   UNL     1      14.852  29.121  18.179  1.00  0.00    -0.319 N 
ATOM     60  C   UNL     1      15.096  30.352  17.527  1.00  0.00     0.407 C 
ATOM     61  H   UNL     1      14.984  28.239  17.610  1.00  0.00     0.167 HD
ATOM     62  O   UNL     1      14.957  31.452  18.110  1.00  0.00    -0.225 OA
BRANCH  60  63
ATOM     63  O   UNL     1      15.506  30.393  16.210  1.00  0.00    -0.443 OA
BRANCH  63  64
ATOM     64  C   UNL     1      16.696  29.929  15.676  1.00  0.00     0.294 C 
BRANCH  64  65
ATOM     65  C   UNL     1      17.646  29.336  16.645  1.00  0.00     0.120 A 
ATOM     66  C   UNL     1      18.797  29.931  17.076  1.00  0.00     0.138 A 
ATOM     67  N   UNL     1      17.531  28.114  17.246  1.00  0.00    -0.132 NA
ATOM     68  N   UNL     1      19.364  29.060  17.932  1.00  0.00    -0.249 N 
ATOM     69  N   UNL     1      18.604  27.996  18.018  1.00  0.00    -0.067 NA
BRANCH  68  70
ATOM     70  C   UNL     1      20.611  29.236  18.644  1.00  0.00     0.180 C 
BRANCH  70  71
ATOM     71  C   UNL     1      20.772  28.018  19.565  1.00  0.00     0.161 C 
BRANCH  71  72
ATOM     72  O   UNL     1      21.580  27.120  18.913  1.00  0.00    -0.389 OA
ATOM     73  H   UNL     1      22.534  27.229  19.149  1.00  0.00     0.211 HD
ENDBRANCH  71  72
BRANCH  71  74
ATOM     74  C   UNL     1      21.366  28.455  20.883  1.00  0.00     0.189 C 
BRANCH  74  75
ATOM     75  O   UNL     1      20.466  28.242  21.903  1.00  0.00    -0.394 OA
ATOM     76  H   UNL     1      19.682  27.745  21.554  1.00  0.00     0.210 HD
ENDBRANCH  74  75
ENDBRANCH  71  74
ENDBRANCH  70  71
ENDBRANCH  68  70
ENDBRANCH  64  65
ENDBRANCH  63  64
ENDBRANCH  60  63
ENDBRANCH  58  59
ENDBRANCH  55  58
ENDBRANCH   1  55
TORSDOF 34
