REMARK VINA RESULT:    -6.495     13.527     20.555
REMARK INTER + INTRA:         -22.589
REMARK INTER:                 -14.345
REMARK INTRA:                  -8.244
REMARK UNBOUND:                -5.463
REMARK SMILES CC(=O)N[C@@H]1[C@@H](O)C[C@](OC[C@H]2O[C@@H](O[C@H]3[C@H](O)[C@@H](O)[C@H](OCCN=[N+]=[N-])O[C@@H]3CO)[C@H](O)[C@@H](O)[C@H]2O)(C(=O)O)O[C@H]1C(O)[C@H](O)CNC(=O)OCc1cn(COCc2ccccc2)nn1
REMARK SMILES IDX 43 1 42 2 9 3 8 4 41 5 6 6 5 7 10 8 11 9 12 10 14 11 13 12
REMARK SMILES IDX 32 13 34 14 36 15 15 16 16 17 29 18 28 19 21 20 17 21 19 22
REMARK SMILES IDX 30 23 31 24 22 26 23 27 24 28 25 29 26 30 27 31 18 32 20 34
REMARK SMILES IDX 33 36 35 38 37 40 38 42 39 43 40 44 7 46 4 48 2 49 1 51 3 52
REMARK SMILES IDX 44 53 45 55 46 56 47 58 48 59 49 60 50 62 51 63 52 64 53 65
REMARK SMILES IDX 54 66 66 67 55 68 65 69 56 70 57 71 58 72 59 73 60 74 64 75
REMARK SMILES IDX 61 76 63 77 62 78
REMARK H PARENT 31 25 18 33 20 35 33 37 35 39 37 41 40 45 7 47 4 50 44 54
REMARK H PARENT 46 57 48 61
REMARK Flexibility Score: inf
ROOT
ATOM      1  C   UNL     1       2.999  20.066  30.742  1.00  0.00     0.176 C 
ENDROOT
BRANCH   1   2
ATOM      2  C   UNL     1       2.482  20.861  31.961  1.00  0.00     0.178 C 
ATOM      3  C   UNL     1       2.213  23.101  32.523  1.00  0.00     0.272 C 
ATOM      4  C   UNL     1       2.719  22.797  33.929  1.00  0.00     0.113 C 
ATOM      5  O   UNL     1       2.816  22.193  31.709  1.00  0.00    -0.332 OA
ATOM      6  C   UNL     1       3.772  21.716  33.867  1.00  0.00     0.145 C 
ATOM      7  C   UNL     1       3.143  20.437  33.234  1.00  0.00     0.142 C 
BRANCH   3   8
ATOM      8  O   UNL     1       2.566  24.416  32.164  1.00  0.00    -0.338 OA
BRANCH   8   9
ATOM      9  C   UNL     1       2.263  25.395  33.031  1.00  0.00     0.199 C 
BRANCH   9  10
ATOM     10  C   UNL     1       3.260  26.525  32.927  1.00  0.00     0.179 C 
ATOM     11  C   UNL     1       5.376  27.238  33.315  1.00  0.00     0.282 C 
ATOM     12  O   UNL     1       4.521  26.116  33.409  1.00  0.00    -0.341 OA
ATOM     13  C   UNL     1       5.784  27.471  31.864  1.00  0.00     0.202 C 
ATOM     14  C   UNL     1       4.775  26.677  31.021  1.00  0.00     0.179 C 
ATOM     15  C   UNL     1       3.412  27.070  31.554  1.00  0.00     0.177 C 
BRANCH  11  16
ATOM     16  O   UNL     1       6.509  26.959  34.030  1.00  0.00    -0.341 OA
BRANCH  16  17
ATOM     17  C   UNL     1       6.540  25.678  34.561  1.00  0.00     0.184 C 
ATOM     18  C   UNL     1       6.739  25.650  36.034  1.00  0.00     0.178 C 
ATOM     19  O   UNL     1       8.023  25.990  36.335  1.00  0.00    -0.341 OA
ATOM     20  C   UNL     1       8.976  25.079  35.946  1.00  0.00     0.281 C 
ATOM     21  C   UNL     1       7.574  24.880  33.844  1.00  0.00     0.180 C 
ATOM     22  C   UNL     1       8.759  24.450  34.626  1.00  0.00     0.202 C 
BRANCH  18  23
ATOM     23  C   UNL     1       6.309  24.309  36.583  1.00  0.00     0.191 C 
BRANCH  23  24
ATOM     24  O   UNL     1       5.282  23.751  35.812  1.00  0.00    -0.394 OA
ATOM     25  H   UNL     1       5.649  23.017  35.259  1.00  0.00     0.210 HD
ENDBRANCH  23  24
ENDBRANCH  18  23
BRANCH  20  26
ATOM     26  O   UNL     1       9.007  24.080  36.927  1.00  0.00    -0.350 OA
BRANCH  26  27
ATOM     27  C   UNL     1      10.205  23.975  37.587  1.00  0.00     0.169 C 
BRANCH  27  28
ATOM     28  C   UNL     1      10.749  22.588  37.288  1.00  0.00     0.119 C 
BRANCH  28  29
ATOM     29  N   UNL     1      11.701  22.598  36.200  1.00  0.00    -0.092 NA
ATOM     30  N   UNL     1      12.453  23.576  36.035  1.00  0.00     0.001 N 
ATOM     31  N   UNL     1      12.749  24.703  35.593  1.00  0.00    -0.003 NA
ENDBRANCH  28  29
ENDBRANCH  27  28
ENDBRANCH  26  27
ENDBRANCH  20  26
BRANCH  21  32
ATOM     32  O   UNL     1       6.985  23.697  33.319  1.00  0.00    -0.387 OA
ATOM     33  H   UNL     1       6.815  23.766  32.367  1.00  0.00     0.211 HD
ENDBRANCH  21  32
BRANCH  22  34
ATOM     34  O   UNL     1       9.913  24.736  33.850  1.00  0.00    -0.385 OA
ATOM     35  H   UNL     1       9.588  25.255  33.069  1.00  0.00     0.211 HD
ENDBRANCH  22  34
ENDBRANCH  16  17
ENDBRANCH  11  16
BRANCH  13  36
ATOM     36  O   UNL     1       5.621  28.804  31.485  1.00  0.00    -0.385 OA
ATOM     37  H   UNL     1       6.434  29.068  30.987  1.00  0.00     0.211 HD
ENDBRANCH  13  36
BRANCH  14  38
ATOM     38  O   UNL     1       5.005  25.345  31.339  1.00  0.00    -0.387 OA
ATOM     39  H   UNL     1       4.838  24.723  30.587  1.00  0.00     0.211 HD
ENDBRANCH  14  38
BRANCH  15  40
ATOM     40  O   UNL     1       2.389  26.720  30.688  1.00  0.00    -0.387 OA
ATOM     41  H   UNL     1       1.999  25.829  30.880  1.00  0.00     0.211 HD
ENDBRANCH  15  40
ENDBRANCH   9  10
ENDBRANCH   8   9
ENDBRANCH   3   8
BRANCH   3  42
ATOM     42  C   UNL     1       0.755  23.046  32.416  1.00  0.00     0.364 C 
ATOM     43  O   UNL     1      -0.068  22.734  33.316  1.00  0.00    -0.246 OA
BRANCH  42  44
ATOM     44  O   UNL     1       0.152  23.374  31.178  1.00  0.00    -0.477 OA
ATOM     45  H   UNL     1      -0.153  24.327  30.987  1.00  0.00     0.296 HD
ENDBRANCH  42  44
ENDBRANCH   3  42
BRANCH   6  46
ATOM     46  O   UNL     1       4.898  21.986  33.174  1.00  0.00    -0.391 OA
ATOM     47  H   UNL     1       4.736  22.578  32.375  1.00  0.00     0.211 HD
ENDBRANCH   6  46
BRANCH   7  48
ATOM     48  N   UNL     1       2.205  19.985  34.233  1.00  0.00    -0.348 N 
ATOM     49  C   UNL     1       2.680  19.207  35.309  1.00  0.00     0.217 C 
ATOM     50  H   UNL     1       1.212  20.219  34.164  1.00  0.00     0.163 HD
ATOM     51  C   UNL     1       1.734  18.741  36.359  1.00  0.00     0.114 C 
ATOM     52  O   UNL     1       3.910  18.900  35.401  1.00  0.00    -0.275 OA
ENDBRANCH   7  48
ENDBRANCH   1   2
BRANCH   1  53
ATOM     53  O   UNL     1       4.440  20.184  30.796  1.00  0.00    -0.388 OA
ATOM     54  H   UNL     1       4.649  21.054  30.343  1.00  0.00     0.211 HD
ENDBRANCH   1  53
BRANCH   1  55
ATOM     55  C   UNL     1       2.600  20.615  29.418  1.00  0.00     0.165 C 
BRANCH  55  56
ATOM     56  O   UNL     1       3.195  21.774  29.007  1.00  0.00    -0.388 OA
ATOM     57  H   UNL     1       2.587  22.539  28.905  1.00  0.00     0.211 HD
ENDBRANCH  55  56
BRANCH  55  58
ATOM     58  C   UNL     1       1.194  20.511  28.968  1.00  0.00     0.154 C 
BRANCH  58  59
ATOM     59  N   UNL     1       0.685  21.535  28.101  1.00  0.00    -0.319 N 
ATOM     60  C   UNL     1      -0.585  22.155  28.243  1.00  0.00     0.407 C 
ATOM     61  H   UNL     1       1.268  21.883  27.307  1.00  0.00     0.167 HD
ATOM     62  O   UNL     1      -1.335  21.828  29.170  1.00  0.00    -0.225 OA
BRANCH  60  63
ATOM     63  O   UNL     1      -1.068  23.146  27.382  1.00  0.00    -0.443 OA
BRANCH  63  64
ATOM     64  C   UNL     1      -0.639  24.499  27.547  1.00  0.00     0.294 C 
BRANCH  64  65
ATOM     65  C   UNL     1       0.829  24.612  27.705  1.00  0.00     0.120 A 
ATOM     66  C   UNL     1       1.697  24.826  26.655  1.00  0.00     0.141 A 
ATOM     67  N   UNL     1       1.584  24.528  28.807  1.00  0.00    -0.132 NA
ATOM     68  N   UNL     1       2.954  24.864  27.160  1.00  0.00    -0.226 N 
ATOM     69  N   UNL     1       2.849  24.680  28.468  1.00  0.00    -0.065 NA
BRANCH  68  70
ATOM     70  C   UNL     1       4.198  25.069  26.452  1.00  0.00     0.307 C 
BRANCH  70  71
ATOM     71  O   UNL     1       4.339  26.359  26.017  1.00  0.00    -0.355 OA
BRANCH  71  72
ATOM     72  C   UNL     1       5.153  27.067  26.888  1.00  0.00     0.198 C 
BRANCH  72  73
ATOM     73  C   UNL     1       6.208  27.786  26.089  1.00  0.00    -0.022 A 
ATOM     74  C   UNL     1       6.222  29.165  26.135  1.00  0.00     0.006 A 
ATOM     75  C   UNL     1       7.120  27.088  25.341  1.00  0.00     0.006 A 
ATOM     76  C   UNL     1       7.172  29.860  25.416  1.00  0.00     0.000 A 
ATOM     77  C   UNL     1       8.050  27.797  24.638  1.00  0.00     0.000 A 
ATOM     78  C   UNL     1       8.100  29.182  24.656  1.00  0.00     0.000 A 
ENDBRANCH  72  73
ENDBRANCH  71  72
ENDBRANCH  70  71
ENDBRANCH  68  70
ENDBRANCH  64  65
ENDBRANCH  63  64
ENDBRANCH  60  63
ENDBRANCH  58  59
ENDBRANCH  55  58
ENDBRANCH   1  55
TORSDOF 33
