REMARK VINA RESULT:    -6.203      3.811      9.504
REMARK INTER + INTRA:         -20.484
REMARK INTER:                 -12.071
REMARK INTRA:                  -8.413
REMARK UNBOUND:                -5.215
REMARK SMILES CC(=O)N[C@@H]1[C@@H](O)C[C@](OC[C@H]2O[C@@H](O[C@H]3[C@H](O)[C@@H](O)[C@H](OCCN=[N+]=[N-])O[C@@H]3CO)[C@H](O)[C@@H](O)[C@H]2O)(C(=O)O)O[C@H]1C(O)[C@H](O)CNC(=O)OCc1cn(C2CCCC2)nn1
REMARK SMILES IDX 9 1 8 2 6 3 5 4 42 5 41 6 10 7 11 8 12 9 14 10 13 11 32 12
REMARK SMILES IDX 34 13 36 14 15 15 16 16 29 17 28 18 21 19 17 20 19 21 30 22
REMARK SMILES IDX 31 23 22 25 23 26 24 27 25 28 26 29 27 30 18 31 20 33 33 35
REMARK SMILES IDX 35 37 37 39 38 41 39 42 40 43 7 45 43 47 44 48 45 50 46 51
REMARK SMILES IDX 47 53 48 54 49 55 50 57 51 58 52 59 53 60 54 61 62 62 55 63
REMARK SMILES IDX 61 64 56 65 57 66 60 67 58 68 59 69 4 70 2 71 1 73 3 74
REMARK H PARENT 31 24 18 32 20 34 33 36 35 38 37 40 40 44 7 46 44 49 46 52
REMARK H PARENT 48 56 4 72
REMARK Flexibility Score: inf
ROOT
ATOM      1  C   UNL     1      21.846  29.474  23.226  1.00  0.00     0.272 C 
ATOM      2  C   UNL     1      22.852  30.252  22.461  1.00  0.00     0.113 C 
ATOM      3  C   UNL     1      22.446  30.593  21.070  1.00  0.00     0.145 C 
ATOM      4  C   UNL     1      21.922  29.332  20.342  1.00  0.00     0.142 C 
ATOM      5  C   UNL     1      22.026  28.191  21.292  1.00  0.00     0.178 C 
ATOM      6  O   UNL     1      21.164  28.572  22.377  1.00  0.00    -0.332 OA
ENDROOT
BRANCH   1   7
ATOM      7  O   UNL     1      20.919  30.233  23.845  1.00  0.00    -0.338 OA
BRANCH   7   8
ATOM      8  C   UNL     1      19.595  29.887  23.767  1.00  0.00     0.199 C 
BRANCH   8   9
ATOM      9  C   UNL     1      18.791  31.183  23.704  1.00  0.00     0.179 C 
ATOM     10  C   UNL     1      16.788  30.508  22.727  1.00  0.00     0.282 C 
ATOM     11  O   UNL     1      17.952  31.260  22.639  1.00  0.00    -0.341 OA
ATOM     12  C   UNL     1      16.265  30.367  24.114  1.00  0.00     0.202 C 
ATOM     13  C   UNL     1      16.708  31.445  25.054  1.00  0.00     0.179 C 
ATOM     14  C   UNL     1      18.216  31.483  25.036  1.00  0.00     0.177 C 
BRANCH  10  15
ATOM     15  O   UNL     1      16.903  29.298  22.045  1.00  0.00    -0.341 OA
BRANCH  15  16
ATOM     16  C   UNL     1      16.767  29.457  20.666  1.00  0.00     0.184 C 
ATOM     17  C   UNL     1      15.688  28.627  20.054  1.00  0.00     0.178 C 
ATOM     18  O   UNL     1      15.712  28.813  18.673  1.00  0.00    -0.341 OA
ATOM     19  C   UNL     1      16.767  28.107  18.123  1.00  0.00     0.281 C 
ATOM     20  C   UNL     1      18.083  28.983  20.064  1.00  0.00     0.180 C 
ATOM     21  C   UNL     1      18.032  28.812  18.580  1.00  0.00     0.202 C 
BRANCH  17  22
ATOM     22  C   UNL     1      14.284  29.039  20.483  1.00  0.00     0.191 C 
BRANCH  22  23
ATOM     23  O   UNL     1      14.076  28.418  21.725  1.00  0.00    -0.394 OA
ATOM     24  H   UNL     1      13.130  28.385  21.949  1.00  0.00     0.210 HD
ENDBRANCH  22  23
ENDBRANCH  17  22
BRANCH  19  25
ATOM     25  O   UNL     1      16.712  28.220  16.737  1.00  0.00    -0.350 OA
BRANCH  25  26
ATOM     26  C   UNL     1      16.105  29.437  16.384  1.00  0.00     0.169 C 
BRANCH  26  27
ATOM     27  C   UNL     1      15.361  29.297  15.068  1.00  0.00     0.119 C 
BRANCH  27  28
ATOM     28  N   UNL     1      13.949  29.462  15.253  1.00  0.00    -0.092 NA
ATOM     29  N   UNL     1      13.481  30.242  16.108  1.00  0.00     0.001 N 
ATOM     30  N   UNL     1      13.118  30.618  17.220  1.00  0.00    -0.003 NA
ENDBRANCH  27  28
ENDBRANCH  26  27
ENDBRANCH  25  26
ENDBRANCH  19  25
BRANCH  20  31
ATOM     31  O   UNL     1      19.022  29.968  20.363  1.00  0.00    -0.387 OA
ATOM     32  H   UNL     1      19.660  29.692  21.067  1.00  0.00     0.211 HD
ENDBRANCH  20  31
BRANCH  21  33
ATOM     33  O   UNL     1      19.109  27.996  18.199  1.00  0.00    -0.385 OA
ATOM     34  H   UNL     1      19.649  28.544  17.575  1.00  0.00     0.211 HD
ENDBRANCH  21  33
ENDBRANCH  15  16
ENDBRANCH  10  15
BRANCH  12  35
ATOM     35  O   UNL     1      14.851  30.396  24.132  1.00  0.00    -0.385 OA
ATOM     36  H   UNL     1      14.541  29.522  23.830  1.00  0.00     0.211 HD
ENDBRANCH  12  35
BRANCH  13  37
ATOM     37  O   UNL     1      16.293  31.136  26.336  1.00  0.00    -0.387 OA
ATOM     38  H   UNL     1      15.941  30.219  26.328  1.00  0.00     0.211 HD
ENDBRANCH  13  37
BRANCH  14  39
ATOM     39  O   UNL     1      18.685  30.665  26.056  1.00  0.00    -0.387 OA
ATOM     40  H   UNL     1      19.641  30.732  26.187  1.00  0.00     0.211 HD
ENDBRANCH  14  39
ENDBRANCH   8   9
ENDBRANCH   7   8
ENDBRANCH   1   7
BRANCH   1  41
ATOM     41  C   UNL     1      22.576  28.561  24.185  1.00  0.00     0.364 C 
ATOM     42  O   UNL     1      23.716  28.809  24.607  1.00  0.00    -0.246 OA
BRANCH  41  43
ATOM     43  O   UNL     1      21.884  27.409  24.570  1.00  0.00    -0.477 OA
ATOM     44  H   UNL     1      21.570  27.323  25.545  1.00  0.00     0.296 HD
ENDBRANCH  41  43
ENDBRANCH   1  41
BRANCH   3  45
ATOM     45  O   UNL     1      21.582  31.651  20.941  1.00  0.00    -0.391 OA
ATOM     46  H   UNL     1      21.901  32.419  21.468  1.00  0.00     0.211 HD
ENDBRANCH   3  45
BRANCH   5  47
ATOM     47  C   UNL     1      21.434  26.892  20.807  1.00  0.00     0.176 C 
BRANCH  47  48
ATOM     48  O   UNL     1      20.619  26.403  21.912  1.00  0.00    -0.388 OA
ATOM     49  H   UNL     1      20.791  25.434  21.890  1.00  0.00     0.211 HD
ENDBRANCH  47  48
BRANCH  47  50
ATOM     50  C   UNL     1      22.403  25.758  20.617  1.00  0.00     0.165 C 
BRANCH  50  51
ATOM     51  O   UNL     1      21.953  24.499  20.799  1.00  0.00    -0.388 OA
ATOM     52  H   UNL     1      21.642  24.283  21.705  1.00  0.00     0.211 HD
ENDBRANCH  50  51
BRANCH  50  53
ATOM     53  C   UNL     1      23.570  25.982  21.573  1.00  0.00     0.154 C 
BRANCH  53  54
ATOM     54  N   UNL     1      23.299  25.230  22.806  1.00  0.00    -0.319 N 
ATOM     55  C   UNL     1      24.329  24.976  23.747  1.00  0.00     0.407 C 
ATOM     56  H   UNL     1      22.337  24.861  23.023  1.00  0.00     0.167 HD
ATOM     57  O   UNL     1      25.489  25.405  23.514  1.00  0.00    -0.225 OA
BRANCH  55  58
ATOM     58  O   UNL     1      24.090  24.273  24.906  1.00  0.00    -0.443 OA
BRANCH  58  59
ATOM     59  C   UNL     1      24.566  24.705  26.166  1.00  0.00     0.294 C 
BRANCH  59  60
ATOM     60  C   UNL     1      23.646  25.644  26.845  1.00  0.00     0.120 A 
ATOM     61  C   UNL     1      23.906  26.749  27.625  1.00  0.00     0.138 A 
ATOM     62  N   UNL     1      22.298  25.560  26.805  1.00  0.00    -0.132 NA
ATOM     63  N   UNL     1      22.748  27.283  28.021  1.00  0.00    -0.249 N 
ATOM     64  N   UNL     1      21.789  26.533  27.502  1.00  0.00    -0.067 NA
BRANCH  63  65
ATOM     65  C   UNL     1      22.528  28.457  28.857  1.00  0.00     0.109 C 
ATOM     66  C   UNL     1      23.672  29.416  28.823  1.00  0.00     0.027 C 
ATOM     67  C   UNL     1      21.363  29.238  28.289  1.00  0.00     0.027 C 
ATOM     68  C   UNL     1      23.378  30.443  27.762  1.00  0.00     0.002 C 
ATOM     69  C   UNL     1      21.941  30.251  27.349  1.00  0.00     0.002 C 
ENDBRANCH  63  65
ENDBRANCH  59  60
ENDBRANCH  58  59
ENDBRANCH  55  58
ENDBRANCH  53  54
ENDBRANCH  50  53
ENDBRANCH  47  50
ENDBRANCH   5  47
BRANCH   4  70
ATOM     70  N   UNL     1      22.633  29.199  19.091  1.00  0.00    -0.348 N 
ATOM     71  C   UNL     1      22.105  29.814  17.891  1.00  0.00     0.217 C 
ATOM     72  H   UNL     1      23.536  28.692  18.991  1.00  0.00     0.163 HD
ATOM     73  C   UNL     1      22.819  29.690  16.596  1.00  0.00     0.114 C 
ATOM     74  O   UNL     1      21.027  30.467  17.922  1.00  0.00    -0.275 OA
ENDBRANCH   4  70
TORSDOF 30
