REMARK VINA RESULT:    -5.975     13.069     17.922
REMARK INTER + INTRA:         -25.593
REMARK INTER:                 -17.653
REMARK INTRA:                  -7.940
REMARK UNBOUND:                -8.963
REMARK SMILES CC(=O)N[C@@H]1[C@@H](O)C[C@](OC[C@H]2O[C@@H](O[C@H]3[C@H](O)[C@@H](O)[C@H](OCCN=[N+]=[N-])O[C@@H]3CO)[C@H](O)[C@@H](O)[C@H]2O)(C(=O)O)O[C@H]1C(O)[C@H](O)CNC(=O)OCc1cn(C[C@@H](C(=O)O)C(c2ccccc2)c2ccccc2)nn1
REMARK SMILES IDX 43 1 42 2 9 3 8 4 41 5 6 6 5 7 10 8 11 9 12 10 14 11 13 12
REMARK SMILES IDX 32 13 34 14 36 15 15 16 16 17 29 18 28 19 21 20 17 21 19 22
REMARK SMILES IDX 30 23 31 24 22 26 23 27 24 28 25 29 26 30 27 31 18 32 20 34
REMARK SMILES IDX 33 36 35 38 37 40 38 42 39 43 40 44 7 46 4 48 2 49 1 51 3 52
REMARK SMILES IDX 44 53 45 55 46 56 47 58 48 59 49 60 50 62 51 63 52 64 53 65
REMARK SMILES IDX 54 66 75 67 55 68 74 69 56 70 57 71 58 72 59 73 60 74 61 76
REMARK SMILES IDX 62 77 63 78 67 79 64 80 66 81 65 82 68 83 69 84 73 85 70 86
REMARK SMILES IDX 72 87 71 88
REMARK H PARENT 31 25 18 33 20 35 33 37 35 39 37 41 40 45 7 47 4 50 44 54
REMARK H PARENT 46 57 48 61 60 75
REMARK Flexibility Score: inf
ROOT
ATOM      1  C   UNL     1       1.972  23.043  30.505  1.00  0.00     0.176 C 
ENDROOT
BRANCH   1   2
ATOM      2  C   UNL     1       3.214  23.556  31.264  1.00  0.00     0.178 C 
ATOM      3  C   UNL     1       4.716  23.274  32.998  1.00  0.00     0.272 C 
ATOM      4  C   UNL     1       5.292  24.479  32.183  1.00  0.00     0.113 C 
ATOM      5  O   UNL     1       3.532  22.851  32.367  1.00  0.00    -0.332 OA
ATOM      6  C   UNL     1       4.292  25.571  32.020  1.00  0.00     0.145 C 
ATOM      7  C   UNL     1       3.009  25.038  31.469  1.00  0.00     0.142 C 
BRANCH   3   8
ATOM      8  O   UNL     1       4.621  23.638  34.234  1.00  0.00    -0.338 OA
BRANCH   8   9
ATOM      9  C   UNL     1       3.997  23.354  35.308  1.00  0.00     0.199 C 
BRANCH   9  10
ATOM     10  C   UNL     1       4.363  23.848  36.683  1.00  0.00     0.179 C 
ATOM     11  C   UNL     1       6.433  24.312  37.745  1.00  0.00     0.282 C 
ATOM     12  O   UNL     1       5.655  23.535  36.976  1.00  0.00    -0.341 OA
ATOM     13  C   UNL     1       5.861  25.492  38.430  1.00  0.00     0.202 C 
ATOM     14  C   UNL     1       4.459  25.854  38.032  1.00  0.00     0.179 C 
ATOM     15  C   UNL     1       4.287  25.391  36.620  1.00  0.00     0.177 C 
BRANCH  11  16
ATOM     16  O   UNL     1       7.437  24.811  36.863  1.00  0.00    -0.341 OA
BRANCH  16  17
ATOM     17  C   UNL     1       8.184  23.830  36.276  1.00  0.00     0.184 C 
ATOM     18  C   UNL     1       9.576  23.881  36.840  1.00  0.00     0.178 C 
ATOM     19  O   UNL     1      10.392  24.785  36.171  1.00  0.00    -0.341 OA
ATOM     20  C   UNL     1       9.687  25.841  35.575  1.00  0.00     0.281 C 
ATOM     21  C   UNL     1       8.294  24.006  34.768  1.00  0.00     0.180 C 
ATOM     22  C   UNL     1       8.834  25.383  34.441  1.00  0.00     0.202 C 
BRANCH  18  23
ATOM     23  C   UNL     1      10.268  22.549  36.900  1.00  0.00     0.191 C 
BRANCH  23  24
ATOM     24  O   UNL     1      11.478  22.535  36.236  1.00  0.00    -0.394 OA
ATOM     25  H   UNL     1      11.637  21.588  35.943  1.00  0.00     0.210 HD
ENDBRANCH  23  24
ENDBRANCH  18  23
BRANCH  20  26
ATOM     26  O   UNL     1      10.602  26.748  35.090  1.00  0.00    -0.350 OA
BRANCH  26  27
ATOM     27  C   UNL     1      11.753  26.247  34.568  1.00  0.00     0.169 C 
BRANCH  27  28
ATOM     28  C   UNL     1      12.976  27.053  34.863  1.00  0.00     0.119 C 
BRANCH  28  29
ATOM     29  N   UNL     1      13.941  26.120  35.480  1.00  0.00    -0.092 NA
ATOM     30  N   UNL     1      13.558  25.509  36.481  1.00  0.00     0.001 N 
ATOM     31  N   UNL     1      13.247  25.004  37.558  1.00  0.00    -0.003 NA
ENDBRANCH  28  29
ENDBRANCH  27  28
ENDBRANCH  26  27
ENDBRANCH  20  26
BRANCH  21  32
ATOM     32  O   UNL     1       9.223  23.073  34.314  1.00  0.00    -0.387 OA
ATOM     33  H   UNL     1      10.146  23.289  34.578  1.00  0.00     0.211 HD
ENDBRANCH  21  32
BRANCH  22  34
ATOM     34  O   UNL     1       7.787  26.278  34.262  1.00  0.00    -0.385 OA
ATOM     35  H   UNL     1       7.398  26.453  35.176  1.00  0.00     0.211 HD
ENDBRANCH  22  34
ENDBRANCH  16  17
ENDBRANCH  11  16
BRANCH  13  36
ATOM     36  O   UNL     1       5.818  25.271  39.828  1.00  0.00    -0.385 OA
ATOM     37  H   UNL     1       6.515  24.606  40.093  1.00  0.00     0.211 HD
ENDBRANCH  13  36
BRANCH  14  38
ATOM     38  O   UNL     1       4.274  27.218  38.131  1.00  0.00    -0.387 OA
ATOM     39  H   UNL     1       3.824  27.544  37.307  1.00  0.00     0.211 HD
ENDBRANCH  14  38
BRANCH  15  40
ATOM     40  O   UNL     1       5.321  25.904  35.849  1.00  0.00    -0.387 OA
ATOM     41  H   UNL     1       5.523  25.256  35.143  1.00  0.00     0.211 HD
ENDBRANCH  15  40
ENDBRANCH   9  10
ENDBRANCH   8   9
ENDBRANCH   3   8
BRANCH   3  42
ATOM     42  C   UNL     1       5.697  22.209  32.708  1.00  0.00     0.364 C 
ATOM     43  O   UNL     1       6.931  22.372  32.611  1.00  0.00    -0.246 OA
BRANCH  42  44
ATOM     44  O   UNL     1       5.242  20.886  32.518  1.00  0.00    -0.477 OA
ATOM     45  H   UNL     1       5.908  20.153  32.639  1.00  0.00     0.296 HD
ENDBRANCH  42  44
ENDBRANCH   3  42
BRANCH   6  46
ATOM     46  O   UNL     1       4.075  26.277  33.212  1.00  0.00    -0.391 OA
ATOM     47  H   UNL     1       4.363  25.764  34.003  1.00  0.00     0.211 HD
ENDBRANCH   6  46
BRANCH   7  48
ATOM     48  N   UNL     1       2.758  25.638  30.178  1.00  0.00    -0.348 N 
ATOM     49  C   UNL     1       2.128  26.902  30.063  1.00  0.00     0.217 C 
ATOM     50  H   UNL     1       3.058  25.112  29.309  1.00  0.00     0.163 HD
ATOM     51  C   UNL     1       1.866  27.531  28.723  1.00  0.00     0.114 C 
ATOM     52  O   UNL     1       1.795  27.480  31.129  1.00  0.00    -0.275 OA
ENDBRANCH   7  48
ENDBRANCH   1   2
BRANCH   1  53
ATOM     53  O   UNL     1       0.885  22.969  31.333  1.00  0.00    -0.388 OA
ATOM     54  H   UNL     1       1.108  22.832  32.282  1.00  0.00     0.211 HD
ENDBRANCH   1  53
BRANCH   1  55
ATOM     55  C   UNL     1       2.242  21.725  29.890  1.00  0.00     0.165 C 
BRANCH  55  56
ATOM     56  O   UNL     1       3.600  21.348  29.954  1.00  0.00    -0.388 OA
ATOM     57  H   UNL     1       3.968  21.601  29.050  1.00  0.00     0.211 HD
ENDBRANCH  55  56
BRANCH  55  58
ATOM     58  C   UNL     1       1.707  21.389  28.549  1.00  0.00     0.154 C 
BRANCH  58  59
ATOM     59  N   UNL     1       1.496  22.465  27.653  1.00  0.00    -0.319 N 
ATOM     60  C   UNL     1       1.344  22.377  26.253  1.00  0.00     0.407 C 
ATOM     61  H   UNL     1       1.440  23.469  28.083  1.00  0.00     0.167 HD
ATOM     62  O   UNL     1       1.424  21.305  25.629  1.00  0.00    -0.225 OA
BRANCH  60  63
ATOM     63  O   UNL     1       1.090  23.540  25.555  1.00  0.00    -0.443 OA
BRANCH  63  64
ATOM     64  C   UNL     1       1.222  24.792  26.129  1.00  0.00     0.294 C 
BRANCH  64  65
ATOM     65  C   UNL     1       2.579  25.354  26.075  1.00  0.00     0.120 A 
ATOM     66  C   UNL     1       3.125  26.240  25.177  1.00  0.00     0.138 A 
ATOM     67  N   UNL     1       3.606  25.058  26.932  1.00  0.00    -0.132 NA
ATOM     68  N   UNL     1       4.407  26.454  25.487  1.00  0.00    -0.251 N 
ATOM     69  N   UNL     1       4.672  25.725  26.555  1.00  0.00    -0.067 NA
BRANCH  68  70
ATOM     70  C   UNL     1       5.381  27.328  24.803  1.00  0.00     0.162 C 
BRANCH  70  71
ATOM     71  C   UNL     1       6.483  27.692  25.743  1.00  0.00     0.132 C 
BRANCH  71  72
ATOM     72  C   UNL     1       7.723  26.919  25.435  1.00  0.00     0.309 C 
ATOM     73  O   UNL     1       8.180  26.804  24.286  1.00  0.00    -0.252 OA
BRANCH  72  74
ATOM     74  O   UNL     1       8.407  26.297  26.465  1.00  0.00    -0.481 OA
ATOM     75  H   UNL     1       9.397  26.064  26.343  1.00  0.00     0.296 HD
ENDBRANCH  72  74
ENDBRANCH  71  72
BRANCH  71  76
ATOM     76  C   UNL     1       6.749  29.131  25.986  1.00  0.00     0.065 C 
BRANCH  76  77
ATOM     77  C   UNL     1       6.691  30.040  24.840  1.00  0.00    -0.040 A 
ATOM     78  C   UNL     1       7.863  30.502  24.224  1.00  0.00     0.004 A 
ATOM     79  C   UNL     1       5.500  30.515  24.285  1.00  0.00     0.004 A 
ATOM     80  C   UNL     1       7.858  31.350  23.162  1.00  0.00     0.000 A 
ATOM     81  C   UNL     1       5.505  31.372  23.212  1.00  0.00     0.000 A 
ATOM     82  C   UNL     1       6.685  31.800  22.638  1.00  0.00     0.000 A 
ENDBRANCH  76  77
BRANCH  76  83
ATOM     83  C   UNL     1       6.124  29.653  27.231  1.00  0.00    -0.040 A 
ATOM     84  C   UNL     1       6.271  31.000  27.482  1.00  0.00     0.004 A 
ATOM     85  C   UNL     1       5.421  28.859  28.097  1.00  0.00     0.004 A 
ATOM     86  C   UNL     1       5.721  31.569  28.595  1.00  0.00     0.000 A 
ATOM     87  C   UNL     1       4.865  29.452  29.226  1.00  0.00     0.000 A 
ATOM     88  C   UNL     1       5.009  30.797  29.483  1.00  0.00     0.000 A 
ENDBRANCH  76  83
ENDBRANCH  71  76
ENDBRANCH  70  71
ENDBRANCH  68  70
ENDBRANCH  64  65
ENDBRANCH  63  64
ENDBRANCH  60  63
ENDBRANCH  58  59
ENDBRANCH  55  58
ENDBRANCH   1  55
TORSDOF 36
