REMARK VINA RESULT:    -6.551      9.779     13.388
REMARK INTER + INTRA:         -22.226
REMARK INTER:                 -15.222
REMARK INTRA:                  -7.004
REMARK UNBOUND:                -5.144
REMARK SMILES CC(=O)N[C@@H]1[C@@H](O)C[C@](OC[C@H]2O[C@@H](O[C@H]3[C@H](O)[C@@H](O)[C@H](OCCN=[N+]=[N-])O[C@@H]3CO)[C@H](O)[C@@H](O)[C@H]2O)(C(=O)O)O[C@H]1C(O)[C@H](O)CNC(=O)OCc1cn(-c2cccc(C=CC(=O)O)c2)nn1
REMARK SMILES IDX 43 1 42 2 9 3 8 4 41 5 6 6 5 7 10 8 11 9 12 10 14 11 13 12
REMARK SMILES IDX 32 13 34 14 36 15 15 16 16 17 29 18 28 19 21 20 17 21 19 22
REMARK SMILES IDX 30 23 31 24 22 26 23 27 24 28 25 29 26 30 27 31 18 32 20 34
REMARK SMILES IDX 33 36 35 38 37 40 38 42 39 43 40 44 7 46 4 48 2 49 1 51 3 52
REMARK SMILES IDX 44 53 45 55 46 56 47 58 48 59 49 60 50 62 51 63 52 64 53 65
REMARK SMILES IDX 54 66 68 67 55 68 67 69 56 70 66 71 57 72 60 73 58 74 59 75
REMARK SMILES IDX 61 76 62 77 63 78 64 79 65 80
REMARK H PARENT 31 25 18 33 20 35 33 37 35 39 37 41 40 45 7 47 4 50 44 54
REMARK H PARENT 46 57 48 61 65 81
REMARK Flexibility Score: inf
ROOT
ATOM      1  C   UNL     1      23.000  19.589  12.970  1.00  0.00     0.176 C 
ENDROOT
BRANCH   1   2
ATOM      2  C   UNL     1      21.609  20.112  12.671  1.00  0.00     0.178 C 
ATOM      3  C   UNL     1      19.963  19.828  11.007  1.00  0.00     0.272 C 
ATOM      4  C   UNL     1      19.339  20.906  12.017  1.00  0.00     0.113 C 
ATOM      5  O   UNL     1      21.244  19.589  11.462  1.00  0.00    -0.332 OA
ATOM      6  C   UNL     1      20.290  22.049  12.004  1.00  0.00     0.145 C 
ATOM      7  C   UNL     1      21.614  21.614  12.603  1.00  0.00     0.142 C 
BRANCH   3   8
ATOM      8  O   UNL     1      20.017  20.514   9.859  1.00  0.00    -0.338 OA
BRANCH   8   9
ATOM      9  C   UNL     1      19.964  20.017   8.637  1.00  0.00     0.199 C 
BRANCH   9  10
ATOM     10  C   UNL     1      20.830  20.619   7.551  1.00  0.00     0.179 C 
ATOM     11  C   UNL     1      21.871  22.742   7.481  1.00  0.00     0.282 C 
ATOM     12  O   UNL     1      20.747  21.957   7.645  1.00  0.00    -0.341 OA
ATOM     13  C   UNL     1      22.797  22.101   6.525  1.00  0.00     0.202 C 
ATOM     14  C   UNL     1      23.217  20.705   6.869  1.00  0.00     0.179 C 
ATOM     15  C   UNL     1      22.239  20.136   7.864  1.00  0.00     0.177 C 
BRANCH  11  16
ATOM     16  O   UNL     1      22.337  23.021   8.747  1.00  0.00    -0.341 OA
BRANCH  16  17
ATOM     17  C   UNL     1      22.910  24.233   8.920  1.00  0.00     0.184 C 
ATOM     18  C   UNL     1      24.029  24.176   9.913  1.00  0.00     0.178 C 
ATOM     19  O   UNL     1      24.760  25.371   9.709  1.00  0.00    -0.341 OA
ATOM     20  C   UNL     1      24.034  26.455  10.210  1.00  0.00     0.281 C 
ATOM     21  C   UNL     1      21.936  25.272   9.485  1.00  0.00     0.180 C 
ATOM     22  C   UNL     1      22.679  26.586   9.598  1.00  0.00     0.202 C 
BRANCH  18  23
ATOM     23  C   UNL     1      24.943  23.013   9.771  1.00  0.00     0.191 C 
BRANCH  23  24
ATOM     24  O   UNL     1      24.478  21.966  10.563  1.00  0.00    -0.394 OA
ATOM     25  H   UNL     1      23.473  21.990  10.613  1.00  0.00     0.210 HD
ENDBRANCH  23  24
ENDBRANCH  18  23
BRANCH  20  26
ATOM     26  O   UNL     1      24.765  27.606   9.934  1.00  0.00    -0.350 OA
BRANCH  26  27
ATOM     27  C   UNL     1      24.627  28.005   8.606  1.00  0.00     0.169 C 
BRANCH  27  28
ATOM     28  C   UNL     1      25.998  28.373   8.085  1.00  0.00     0.119 C 
BRANCH  28  29
ATOM     29  N   UNL     1      26.272  27.619   6.885  1.00  0.00    -0.092 NA
ATOM     30  N   UNL     1      26.332  26.376   6.922  1.00  0.00     0.001 N 
ATOM     31  N   UNL     1      26.788  25.225   7.003  1.00  0.00    -0.003 NA
ENDBRANCH  28  29
ENDBRANCH  27  28
ENDBRANCH  26  27
ENDBRANCH  20  26
BRANCH  21  32
ATOM     32  O   UNL     1      20.852  25.491   8.645  1.00  0.00    -0.387 OA
ATOM     33  H   UNL     1      21.240  25.625   7.743  1.00  0.00     0.211 HD
ENDBRANCH  21  32
BRANCH  22  34
ATOM     34  O   UNL     1      21.908  27.388  10.472  1.00  0.00    -0.385 OA
ATOM     35  H   UNL     1      21.341  28.026   9.985  1.00  0.00     0.211 HD
ENDBRANCH  22  34
ENDBRANCH  16  17
ENDBRANCH  11  16
BRANCH  13  36
ATOM     36  O   UNL     1      22.173  22.038   5.245  1.00  0.00    -0.385 OA
ATOM     37  H   UNL     1      21.783  22.930   5.028  1.00  0.00     0.211 HD
ENDBRANCH  13  36
BRANCH  14  38
ATOM     38  O   UNL     1      24.534  20.607   7.326  1.00  0.00    -0.387 OA
ATOM     39  H   UNL     1      24.602  20.786   8.298  1.00  0.00     0.211 HD
ENDBRANCH  14  38
BRANCH  15  40
ATOM     40  O   UNL     1      22.618  20.511   9.138  1.00  0.00    -0.387 OA
ATOM     41  H   UNL     1      21.832  20.570   9.765  1.00  0.00     0.211 HD
ENDBRANCH  15  40
ENDBRANCH   9  10
ENDBRANCH   8   9
ENDBRANCH   3   8
BRANCH   3  42
ATOM     42  C   UNL     1      19.126  18.649  11.151  1.00  0.00     0.364 C 
ATOM     43  O   UNL     1      19.210  17.555  10.565  1.00  0.00    -0.246 OA
BRANCH  42  44
ATOM     44  O   UNL     1      18.059  18.723  12.079  1.00  0.00    -0.477 OA
ATOM     45  H   UNL     1      18.082  18.072  12.880  1.00  0.00     0.296 HD
ENDBRANCH  42  44
ENDBRANCH   3  42
BRANCH   6  46
ATOM     46  O   UNL     1      20.507  22.362  10.620  1.00  0.00    -0.391 OA
ATOM     47  H   UNL     1      19.671  22.182  10.108  1.00  0.00     0.211 HD
ENDBRANCH   6  46
BRANCH   7  48
ATOM     48  N   UNL     1      21.998  22.291  13.788  1.00  0.00    -0.348 N 
ATOM     49  C   UNL     1      23.224  22.892  14.088  1.00  0.00     0.217 C 
ATOM     50  H   UNL     1      21.275  22.342  14.596  1.00  0.00     0.163 HD
ATOM     51  C   UNL     1      23.408  23.547  15.444  1.00  0.00     0.114 C 
ATOM     52  O   UNL     1      24.207  22.933  13.301  1.00  0.00    -0.275 OA
ENDBRANCH   7  48
ENDBRANCH   1   2
BRANCH   1  53
ATOM     53  O   UNL     1      23.029  19.067  14.251  1.00  0.00    -0.388 OA
ATOM     54  H   UNL     1      22.204  18.640  14.542  1.00  0.00     0.211 HD
ENDBRANCH   1  53
BRANCH   1  55
ATOM     55  C   UNL     1      23.388  18.442  12.036  1.00  0.00     0.165 C 
BRANCH  55  56
ATOM     56  O   UNL     1      22.905  17.224  12.427  1.00  0.00    -0.388 OA
ATOM     57  H   UNL     1      22.372  17.238  13.256  1.00  0.00     0.211 HD
ENDBRANCH  55  56
BRANCH  55  58
ATOM     58  C   UNL     1      24.865  18.410  11.804  1.00  0.00     0.154 C 
BRANCH  58  59
ATOM     59  N   UNL     1      25.587  18.109  12.987  1.00  0.00    -0.319 N 
ATOM     60  C   UNL     1      26.423  19.047  13.634  1.00  0.00     0.407 C 
ATOM     61  H   UNL     1      25.522  17.153  13.432  1.00  0.00     0.167 HD
ATOM     62  O   UNL     1      26.567  20.214  13.176  1.00  0.00    -0.225 OA
BRANCH  60  63
ATOM     63  O   UNL     1      27.124  18.745  14.799  1.00  0.00    -0.443 OA
BRANCH  63  64
ATOM     64  C   UNL     1      28.299  19.523  15.056  1.00  0.00     0.294 C 
BRANCH  64  65
ATOM     65  C   UNL     1      28.421  19.651  16.520  1.00  0.00     0.121 A 
ATOM     66  C   UNL     1      28.230  20.791  17.296  1.00  0.00     0.144 A 
ATOM     67  N   UNL     1      28.736  18.667  17.378  1.00  0.00    -0.131 NA
ATOM     68  N   UNL     1      28.433  20.452  18.590  1.00  0.00    -0.220 N 
ATOM     69  N   UNL     1      28.737  19.170  18.605  1.00  0.00    -0.062 NA
BRANCH  68  70
ATOM     70  C   UNL     1      28.313  21.364  19.669  1.00  0.00     0.067 A 
ATOM     71  C   UNL     1      29.096  21.192  20.811  1.00  0.00     0.036 A 
ATOM     72  C   UNL     1      27.450  22.407  19.621  1.00  0.00     0.028 A 
ATOM     73  C   UNL     1      29.018  22.040  21.871  1.00  0.00    -0.023 A 
ATOM     74  C   UNL     1      27.336  23.301  20.682  1.00  0.00     0.003 A 
ATOM     75  C   UNL     1      28.128  23.093  21.788  1.00  0.00     0.008 A 
BRANCH  73  76
ATOM     76  C   UNL     1      29.827  21.862  23.058  1.00  0.00     0.015 C 
ATOM     77  C   UNL     1      30.240  20.675  23.426  1.00  0.00     0.094 C 
BRANCH  77  78
ATOM     78  C   UNL     1      31.057  20.542  24.634  1.00  0.00     0.328 C 
ATOM     79  O   UNL     1      32.132  19.932  24.622  1.00  0.00    -0.247 OA
BRANCH  78  80
ATOM     80  O   UNL     1      30.632  21.108  25.834  1.00  0.00    -0.478 OA
ATOM     81  H   UNL     1      30.123  21.992  25.780  1.00  0.00     0.297 HD
ENDBRANCH  78  80
ENDBRANCH  77  78
ENDBRANCH  73  76
ENDBRANCH  68  70
ENDBRANCH  64  65
ENDBRANCH  63  64
ENDBRANCH  60  63
ENDBRANCH  58  59
ENDBRANCH  55  58
ENDBRANCH   1  55
TORSDOF 33
