REMARK VINA RESULT:    -4.497      2.341      5.953
REMARK INTER + INTRA:         -21.327
REMARK INTER:                 -13.947
REMARK INTRA:                  -7.379
REMARK UNBOUND:                -8.679
REMARK SMILES CCOC(CCn1cc(COC(=O)NC[C@@H](O)C(O)[C@@H]2O[C@@](OC[C@H]3O[C@@H](O[C@H]4[C@H](O)[C@@H](O)[C@H](OCCN=[N+]=[N-])O[C@@H]4CO)[C@H](O)[C@@H](O)[C@H]3O)(C(=O)O)C[C@H](O)[C@H]2NC(C)=O)nn1)OCC
REMARK SMILES IDX 18 1 20 2 22 3 54 4 21 5 55 6 57 7 23 8 24 9 25 10 27 11
REMARK SMILES IDX 26 12 45 13 47 14 49 15 28 16 29 17 42 18 41 19 34 20 30 21
REMARK SMILES IDX 32 22 43 23 44 24 35 26 36 27 37 28 38 29 39 30 40 31 31 32
REMARK SMILES IDX 33 34 46 36 48 38 50 40 51 42 52 43 53 44 56 46 58 48 59 49
REMARK SMILES IDX 60 51 61 52 19 53 16 55 17 56 15 58 14 59 12 60 13 62 11 63
REMARK SMILES IDX 10 64 9 65 8 66 62 67 7 68 63 69 6 70 5 71 4 72 3 73 2 74
REMARK SMILES IDX 1 75 64 76 65 77 66 78
REMARK H PARENT 44 25 31 33 33 35 46 37 48 39 50 41 53 45 56 47 58 50 19 54
REMARK H PARENT 17 57 14 61
REMARK Flexibility Score: inf
ROOT
ATOM      1  C   UNL     1      22.809  26.706  21.141  1.00  0.00     0.176 C 
ENDROOT
BRANCH   1   2
ATOM      2  C   UNL     1      22.200  27.600  20.102  1.00  0.00     0.178 C 
ATOM      3  C   UNL     1      20.228  28.581  19.393  1.00  0.00     0.272 C 
ATOM      4  C   UNL     1      21.193  29.202  18.447  1.00  0.00     0.113 C 
ATOM      5  O   UNL     1      20.830  27.677  20.298  1.00  0.00    -0.332 OA
ATOM      6  C   UNL     1      22.176  28.281  17.811  1.00  0.00     0.145 C 
ATOM      7  C   UNL     1      22.361  27.035  18.687  1.00  0.00     0.142 C 
BRANCH   3   8
ATOM      8  O   UNL     1      19.131  27.998  18.901  1.00  0.00    -0.338 OA
BRANCH   8   9
ATOM      9  C   UNL     1      18.428  28.537  17.889  1.00  0.00     0.199 C 
BRANCH   9  10
ATOM     10  C   UNL     1      17.073  29.018  18.357  1.00  0.00     0.179 C 
ATOM     11  C   UNL     1      15.080  29.878  17.780  1.00  0.00     0.282 C 
ATOM     12  O   UNL     1      16.095  28.967  17.381  1.00  0.00    -0.341 OA
ATOM     13  C   UNL     1      14.372  29.294  18.945  1.00  0.00     0.202 C 
ATOM     14  C   UNL     1      15.360  29.013  20.053  1.00  0.00     0.179 C 
ATOM     15  C   UNL     1      16.595  28.278  19.602  1.00  0.00     0.177 C 
BRANCH  11  16
ATOM     16  O   UNL     1      14.273  30.163  16.673  1.00  0.00    -0.341 OA
BRANCH  16  17
ATOM     17  C   UNL     1      15.066  30.483  15.617  1.00  0.00     0.184 C 
ATOM     18  C   UNL     1      15.012  31.859  15.073  1.00  0.00     0.178 C 
ATOM     19  O   UNL     1      16.156  32.059  14.289  1.00  0.00    -0.341 OA
ATOM     20  C   UNL     1      16.105  31.258  13.138  1.00  0.00     0.281 C 
ATOM     21  C   UNL     1      14.735  29.574  14.391  1.00  0.00     0.180 C 
ATOM     22  C   UNL     1      15.942  29.789  13.466  1.00  0.00     0.202 C 
BRANCH  18  23
ATOM     23  C   UNL     1      15.010  32.884  16.167  1.00  0.00     0.191 C 
BRANCH  23  24
ATOM     24  O   UNL     1      16.280  33.087  16.706  1.00  0.00    -0.394 OA
ATOM     25  H   UNL     1      16.711  32.261  16.985  1.00  0.00     0.210 HD
ENDBRANCH  23  24
ENDBRANCH  18  23
BRANCH  20  26
ATOM     26  O   UNL     1      17.318  31.418  12.492  1.00  0.00    -0.350 OA
BRANCH  26  27
ATOM     27  C   UNL     1      18.439  31.198  13.233  1.00  0.00     0.169 C 
BRANCH  27  28
ATOM     28  C   UNL     1      19.472  32.256  12.950  1.00  0.00     0.119 C 
BRANCH  28  29
ATOM     29  N   UNL     1      20.736  31.872  13.574  1.00  0.00    -0.092 NA
ATOM     30  N   UNL     1      21.017  32.504  14.613  1.00  0.00     0.001 N 
ATOM     31  N   UNL     1      21.651  33.228  15.384  1.00  0.00    -0.003 NA
ENDBRANCH  28  29
ENDBRANCH  27  28
ENDBRANCH  26  27
ENDBRANCH  20  26
BRANCH  21  32
ATOM     32  O   UNL     1      14.635  28.259  14.760  1.00  0.00    -0.387 OA
ATOM     33  H   UNL     1      15.299  27.997  15.443  1.00  0.00     0.211 HD
ENDBRANCH  21  32
BRANCH  22  34
ATOM     34  O   UNL     1      15.808  29.080  12.303  1.00  0.00    -0.385 OA
ATOM     35  H   UNL     1      14.820  28.976  12.136  1.00  0.00     0.211 HD
ENDBRANCH  22  34
ENDBRANCH  16  17
ENDBRANCH  11  16
BRANCH  13  36
ATOM     36  O   UNL     1      13.444  30.197  19.486  1.00  0.00    -0.385 OA
ATOM     37  H   UNL     1      13.881  30.880  20.042  1.00  0.00     0.211 HD
ENDBRANCH  13  36
BRANCH  14  38
ATOM     38  O   UNL     1      14.754  28.409  21.149  1.00  0.00    -0.387 OA
ATOM     39  H   UNL     1      15.325  27.685  21.523  1.00  0.00     0.211 HD
ENDBRANCH  14  38
BRANCH  15  40
ATOM     40  O   UNL     1      16.340  26.953  19.280  1.00  0.00    -0.387 OA
ATOM     41  H   UNL     1      15.403  26.719  19.463  1.00  0.00     0.211 HD
ENDBRANCH  15  40
ENDBRANCH   9  10
ENDBRANCH   8   9
ENDBRANCH   3   8
BRANCH   3  42
ATOM     42  C   UNL     1      19.753  29.683  20.290  1.00  0.00     0.364 C 
ATOM     43  O   UNL     1      19.851  30.880  19.965  1.00  0.00    -0.246 OA
BRANCH  42  44
ATOM     44  O   UNL     1      19.178  29.411  21.527  1.00  0.00    -0.477 OA
ATOM     45  H   UNL     1      18.503  28.656  21.588  1.00  0.00     0.296 HD
ENDBRANCH  42  44
ENDBRANCH   3  42
BRANCH   6  46
ATOM     46  O   UNL     1      21.890  27.931  16.515  1.00  0.00    -0.391 OA
ATOM     47  H   UNL     1      21.519  28.667  15.967  1.00  0.00     0.211 HD
ENDBRANCH   6  46
BRANCH   7  48
ATOM     48  N   UNL     1      23.619  26.398  18.470  1.00  0.00    -0.348 N 
ATOM     49  C   UNL     1      23.621  25.053  18.005  1.00  0.00     0.217 C 
ATOM     50  H   UNL     1      24.532  26.865  18.630  1.00  0.00     0.163 HD
ATOM     51  C   UNL     1      24.915  24.361  17.770  1.00  0.00     0.114 C 
ATOM     52  O   UNL     1      22.530  24.425  17.786  1.00  0.00    -0.275 OA
ENDBRANCH   7  48
ENDBRANCH   1   2
BRANCH   1  53
ATOM     53  O   UNL     1      22.697  27.385  22.368  1.00  0.00    -0.388 OA
ATOM     54  H   UNL     1      21.737  27.437  22.649  1.00  0.00     0.211 HD
ENDBRANCH   1  53
BRANCH   1  55
ATOM     55  C   UNL     1      21.946  25.464  21.249  1.00  0.00     0.165 C 
BRANCH  55  56
ATOM     56  O   UNL     1      20.789  25.722  21.925  1.00  0.00    -0.388 OA
ATOM     57  H   UNL     1      20.293  24.918  22.218  1.00  0.00     0.211 HD
ENDBRANCH  55  56
BRANCH  55  58
ATOM     58  C   UNL     1      22.711  24.351  21.909  1.00  0.00     0.154 C 
BRANCH  58  59
ATOM     59  N   UNL     1      22.706  24.358  23.343  1.00  0.00    -0.319 N 
ATOM     60  C   UNL     1      23.724  24.884  24.154  1.00  0.00     0.407 C 
ATOM     61  H   UNL     1      21.847  23.922  23.800  1.00  0.00     0.167 HD
ATOM     62  O   UNL     1      24.751  25.414  23.699  1.00  0.00    -0.225 OA
BRANCH  60  63
ATOM     63  O   UNL     1      23.617  24.828  25.562  1.00  0.00    -0.443 OA
BRANCH  63  64
ATOM     64  C   UNL     1      22.328  25.009  26.167  1.00  0.00     0.294 C 
BRANCH  64  65
ATOM     65  C   UNL     1      21.740  26.272  25.651  1.00  0.00     0.120 A 
ATOM     66  C   UNL     1      22.070  27.556  26.011  1.00  0.00     0.138 A 
ATOM     67  N   UNL     1      20.768  26.371  24.741  1.00  0.00    -0.132 NA
ATOM     68  N   UNL     1      21.276  28.381  25.296  1.00  0.00    -0.252 N 
ATOM     69  N   UNL     1      20.500  27.630  24.536  1.00  0.00    -0.067 NA
BRANCH  68  70
ATOM     70  C   UNL     1      21.314  29.811  25.385  1.00  0.00     0.151 C 
BRANCH  70  71
ATOM     71  C   UNL     1      20.013  30.452  25.777  1.00  0.00     0.086 C 
BRANCH  71  72
ATOM     72  C   UNL     1      19.360  31.055  24.534  1.00  0.00     0.251 C 
BRANCH  72  73
ATOM     73  O   UNL     1      18.275  30.255  24.232  1.00  0.00    -0.353 OA
BRANCH  73  74
ATOM     74  C   UNL     1      17.140  30.995  23.928  1.00  0.00     0.160 C 
ATOM     75  C   UNL     1      15.878  30.294  24.393  1.00  0.00     0.035 C 
ENDBRANCH  73  74
ENDBRANCH  72  73
BRANCH  72  76
ATOM     76  O   UNL     1      20.255  31.256  23.526  1.00  0.00    -0.353 OA
BRANCH  76  77
ATOM     77  C   UNL     1      20.384  32.530  23.044  1.00  0.00     0.160 C 
ATOM     78  C   UNL     1      21.743  32.684  22.403  1.00  0.00     0.035 C 
ENDBRANCH  76  77
ENDBRANCH  72  76
ENDBRANCH  71  72
ENDBRANCH  70  71
ENDBRANCH  68  70
ENDBRANCH  64  65
ENDBRANCH  63  64
ENDBRANCH  60  63
ENDBRANCH  58  59
ENDBRANCH  55  58
ENDBRANCH   1  55
TORSDOF 36
