REMARK VINA RESULT:    -6.117      4.733     11.209
REMARK INTER + INTRA:         -21.755
REMARK INTER:                 -13.917
REMARK INTRA:                  -7.837
REMARK UNBOUND:                -6.520
REMARK SMILES CC(=O)N[C@@H]1[C@@H](O)C[C@](OC[C@H]2O[C@@H](O[C@H]3[C@H](O)[C@@H](O)[C@H](OCCN=[N+]=[N-])O[C@@H]3CO)[C@H](O)[C@@H](O)[C@H]2O)(C(=O)O)O[C@H]1C(O)[C@H](O)CNC(=O)OCc1cn(-c2nc(C)nc(N)n2)nn1
REMARK SMILES IDX 9 1 8 2 6 3 5 4 42 5 41 6 10 7 11 8 12 9 14 10 13 11 32 12
REMARK SMILES IDX 34 13 36 14 15 15 16 16 29 17 28 18 21 19 17 20 19 21 30 22
REMARK SMILES IDX 31 23 22 25 23 26 24 27 25 28 26 29 27 30 18 31 20 33 33 35
REMARK SMILES IDX 35 37 37 39 38 41 39 42 40 43 7 45 43 47 44 48 45 50 46 51
REMARK SMILES IDX 47 53 48 54 49 55 50 57 51 58 52 59 53 60 54 61 65 62 55 63
REMARK SMILES IDX 64 64 56 65 63 66 57 67 61 68 58 69 60 70 59 71 62 72 4 75
REMARK SMILES IDX 2 76 1 78 3 79
REMARK H PARENT 31 24 18 32 20 34 33 36 35 38 37 40 40 44 7 46 44 49 46 52
REMARK H PARENT 48 56 62 73 62 74 4 77
REMARK Flexibility Score: inf
ROOT
ATOM      1  C   UNL     1      23.094  22.776  11.558  1.00  0.00     0.272 C 
ATOM      2  C   UNL     1      21.624  22.818  11.321  1.00  0.00     0.113 C 
ATOM      3  C   UNL     1      20.886  21.938  12.283  1.00  0.00     0.145 C 
ATOM      4  C   UNL     1      21.434  20.539  12.170  1.00  0.00     0.142 C 
ATOM      5  C   UNL     1      22.944  20.494  12.142  1.00  0.00     0.178 C 
ATOM      6  O   UNL     1      23.521  21.433  11.375  1.00  0.00    -0.332 OA
ENDROOT
BRANCH   1   7
ATOM      7  O   UNL     1      23.589  23.357  12.594  1.00  0.00    -0.338 OA
BRANCH   7   8
ATOM      8  C   UNL     1      23.389  24.271  13.464  1.00  0.00     0.199 C 
BRANCH   8   9
ATOM      9  C   UNL     1      24.059  25.595  13.596  1.00  0.00     0.179 C 
ATOM     10  C   UNL     1      24.221  27.540  14.659  1.00  0.00     0.282 C 
ATOM     11  O   UNL     1      23.752  26.203  14.770  1.00  0.00    -0.341 OA
ATOM     12  C   UNL     1      25.699  27.426  14.929  1.00  0.00     0.202 C 
ATOM     13  C   UNL     1      26.346  26.643  13.813  1.00  0.00     0.179 C 
ATOM     14  C   UNL     1      25.470  25.681  13.112  1.00  0.00     0.177 C 
BRANCH  10  15
ATOM     15  O   UNL     1      23.606  28.362  15.565  1.00  0.00    -0.341 OA
BRANCH  15  16
ATOM     16  C   UNL     1      22.269  28.599  15.295  1.00  0.00     0.184 C 
ATOM     17  C   UNL     1      21.919  30.022  15.016  1.00  0.00     0.178 C 
ATOM     18  O   UNL     1      20.898  30.505  15.824  1.00  0.00    -0.341 OA
ATOM     19  C   UNL     1      19.760  29.708  15.846  1.00  0.00     0.281 C 
ATOM     20  C   UNL     1      21.522  28.145  16.563  1.00  0.00     0.180 C 
ATOM     21  C   UNL     1      20.047  28.300  16.277  1.00  0.00     0.202 C 
BRANCH  17  22
ATOM     22  C   UNL     1      21.666  30.338  13.566  1.00  0.00     0.191 C 
BRANCH  22  23
ATOM     23  O   UNL     1      21.487  29.101  12.908  1.00  0.00    -0.394 OA
ATOM     24  H   UNL     1      20.720  28.598  13.256  1.00  0.00     0.210 HD
ENDBRANCH  22  23
ENDBRANCH  17  22
BRANCH  19  25
ATOM     25  O   UNL     1      19.087  29.684  14.657  1.00  0.00    -0.350 OA
BRANCH  25  26
ATOM     26  C   UNL     1      17.785  30.087  14.662  1.00  0.00     0.169 C 
BRANCH  26  27
ATOM     27  C   UNL     1      16.803  28.959  14.509  1.00  0.00     0.119 C 
BRANCH  27  28
ATOM     28  N   UNL     1      15.848  29.034  15.624  1.00  0.00    -0.092 NA
ATOM     29  N   UNL     1      16.317  28.959  16.758  1.00  0.00     0.001 N 
ATOM     30  N   UNL     1      16.412  28.497  17.916  1.00  0.00    -0.003 NA
ENDBRANCH  27  28
ENDBRANCH  26  27
ENDBRANCH  25  26
ENDBRANCH  19  25
BRANCH  20  31
ATOM     31  O   UNL     1      21.876  26.850  16.876  1.00  0.00    -0.387 OA
ATOM     32  H   UNL     1      21.799  26.680  17.855  1.00  0.00     0.211 HD
ENDBRANCH  20  31
BRANCH  21  33
ATOM     33  O   UNL     1      19.365  27.962  17.446  1.00  0.00    -0.385 OA
ATOM     34  H   UNL     1      19.953  27.476  18.077  1.00  0.00     0.211 HD
ENDBRANCH  21  33
ENDBRANCH  15  16
ENDBRANCH  10  15
BRANCH  12  35
ATOM     35  O   UNL     1      26.317  28.664  15.091  1.00  0.00    -0.385 OA
ATOM     36  H   UNL     1      27.268  28.501  15.311  1.00  0.00     0.211 HD
ENDBRANCH  12  35
BRANCH  13  37
ATOM     37  O   UNL     1      27.505  26.069  14.341  1.00  0.00    -0.387 OA
ATOM     38  H   UNL     1      27.510  25.081  14.274  1.00  0.00     0.211 HD
ENDBRANCH  13  37
BRANCH  14  39
ATOM     39  O   UNL     1      26.121  24.461  12.968  1.00  0.00    -0.387 OA
ATOM     40  H   UNL     1      27.035  24.592  13.364  1.00  0.00     0.211 HD
ENDBRANCH  14  39
ENDBRANCH   8   9
ENDBRANCH   7   8
ENDBRANCH   1   7
BRANCH   1  41
ATOM     41  C   UNL     1      23.660  23.395  10.248  1.00  0.00     0.364 C 
ATOM     42  O   UNL     1      24.860  23.640  10.240  1.00  0.00    -0.246 OA
BRANCH  41  43
ATOM     43  O   UNL     1      22.839  23.638   9.192  1.00  0.00    -0.477 OA
ATOM     44  H   UNL     1      23.163  24.020   8.293  1.00  0.00     0.296 HD
ENDBRANCH  41  43
ENDBRANCH   1  41
BRANCH   3  45
ATOM     45  O   UNL     1      21.005  22.311  13.602  1.00  0.00    -0.391 OA
ATOM     46  H   UNL     1      20.472  21.763  14.203  1.00  0.00     0.211 HD
ENDBRANCH   3  45
BRANCH   5  47
ATOM     47  C   UNL     1      23.565  20.318  13.506  1.00  0.00     0.176 C 
BRANCH  47  48
ATOM     48  O   UNL     1      22.716  19.618  14.346  1.00  0.00    -0.388 OA
ATOM     49  H   UNL     1      22.427  18.748  14.017  1.00  0.00     0.211 HD
ENDBRANCH  47  48
BRANCH  47  50
ATOM     50  C   UNL     1      24.882  19.623  13.362  1.00  0.00     0.165 C 
BRANCH  50  51
ATOM     51  O   UNL     1      24.763  18.322  13.885  1.00  0.00    -0.388 OA
ATOM     52  H   UNL     1      25.656  17.954  14.000  1.00  0.00     0.211 HD
ENDBRANCH  50  51
BRANCH  50  53
ATOM     53  C   UNL     1      26.034  20.287  14.036  1.00  0.00     0.154 C 
BRANCH  53  54
ATOM     54  N   UNL     1      25.747  21.657  14.401  1.00  0.00    -0.319 N 
ATOM     55  C   UNL     1      26.294  22.311  15.522  1.00  0.00     0.407 C 
ATOM     56  H   UNL     1      25.084  22.236  13.807  1.00  0.00     0.167 HD
ATOM     57  O   UNL     1      27.076  21.721  16.273  1.00  0.00    -0.225 OA
BRANCH  55  58
ATOM     58  O   UNL     1      25.980  23.631  15.830  1.00  0.00    -0.443 OA
BRANCH  58  59
ATOM     59  C   UNL     1      25.988  24.155  17.133  1.00  0.00     0.294 C 
BRANCH  59  60
ATOM     60  C   UNL     1      24.604  24.319  17.673  1.00  0.00     0.121 A 
ATOM     61  C   UNL     1      24.255  24.954  18.847  1.00  0.00     0.148 A 
ATOM     62  N   UNL     1      23.456  23.882  17.121  1.00  0.00    -0.131 NA
ATOM     63  N   UNL     1      22.918  24.884  18.974  1.00  0.00    -0.185 N 
ATOM     64  N   UNL     1      22.465  24.234  17.921  1.00  0.00    -0.059 NA
BRANCH  63  65
ATOM     65  C   UNL     1      22.193  25.432  20.065  1.00  0.00     0.257 A 
ATOM     66  N   UNL     1      21.690  26.677  19.967  1.00  0.00    -0.175 NA
ATOM     67  N   UNL     1      21.964  24.778  21.218  1.00  0.00    -0.196 NA
ATOM     68  C   UNL     1      20.987  27.251  20.977  1.00  0.00     0.225 A 
ATOM     69  C   UNL     1      21.276  25.310  22.235  1.00  0.00     0.133 A 
ATOM     70  N   UNL     1      20.792  26.541  22.110  1.00  0.00    -0.198 NA
ATOM     71  C   UNL     1      21.044  24.541  23.507  1.00  0.00     0.090 C 
BRANCH  68  72
ATOM     72  N   UNL     1      20.481  28.561  20.822  1.00  0.00    -0.368 N 
ATOM     73  H   UNL     1      20.873  29.361  21.356  1.00  0.00     0.159 HD
ATOM     74  H   UNL     1      19.700  28.751  20.165  1.00  0.00     0.159 HD
ENDBRANCH  68  72
ENDBRANCH  63  65
ENDBRANCH  59  60
ENDBRANCH  58  59
ENDBRANCH  55  58
ENDBRANCH  53  54
ENDBRANCH  50  53
ENDBRANCH  47  50
ENDBRANCH   5  47
BRANCH   4  75
ATOM     75  N   UNL     1      20.894  19.925  10.976  1.00  0.00    -0.348 N 
ATOM     76  C   UNL     1      19.724  19.116  11.035  1.00  0.00     0.217 C 
ATOM     77  H   UNL     1      21.336  20.047  10.030  1.00  0.00     0.163 HD
ATOM     78  C   UNL     1      19.191  18.500   9.813  1.00  0.00     0.114 C 
ATOM     79  O   UNL     1      19.155  18.935  12.133  1.00  0.00    -0.275 OA
ENDBRANCH   4  75
TORSDOF 31
