REMARK VINA RESULT:    -5.407     16.883     20.453
REMARK INTER + INTRA:         -21.147
REMARK INTER:                 -14.734
REMARK INTRA:                  -6.413
REMARK UNBOUND:                -7.364
REMARK SMILES CC(=O)N[C@@H]1[C@@H](O)C[C@](OC[C@H]2O[C@@H](O[C@H]3[C@H](O)[C@@H](O)[C@H](OCCN=[N+]=[N-])O[C@@H]3CO)[C@H](O)[C@@H](O)[C@H]2O)(C(=O)O)O[C@H]1C(O)[C@H](O)CNC(=O)OCc1cn([C@@H](C)C(=O)O)nn1
REMARK SMILES IDX 9 1 8 2 6 3 5 4 42 5 41 6 10 7 11 8 12 9 14 10 13 11 32 12
REMARK SMILES IDX 34 13 36 14 15 15 16 16 29 17 28 18 21 19 17 20 19 21 30 22
REMARK SMILES IDX 31 23 22 25 23 26 24 27 25 28 26 29 27 30 18 31 20 33 33 35
REMARK SMILES IDX 35 37 37 39 38 41 39 42 40 43 7 45 43 47 44 48 45 50 46 51
REMARK SMILES IDX 47 53 48 54 49 55 50 57 51 58 52 59 53 60 54 61 62 62 55 63
REMARK SMILES IDX 61 64 56 65 57 66 58 67 59 68 60 69 4 71 2 72 1 74 3 75
REMARK H PARENT 31 24 18 32 20 34 33 36 35 38 37 40 40 44 7 46 44 49 46 52
REMARK H PARENT 48 56 60 70 4 73
REMARK Flexibility Score: inf
ROOT
ATOM      1  C   UNL     1      23.753  27.779  21.691  1.00  0.00     0.272 C 
ATOM      2  C   UNL     1      24.163  27.796  20.270  1.00  0.00     0.113 C 
ATOM      3  C   UNL     1      22.992  27.281  19.464  1.00  0.00     0.145 C 
ATOM      4  C   UNL     1      23.002  25.745  19.789  1.00  0.00     0.142 C 
ATOM      5  C   UNL     1      23.225  25.522  21.207  1.00  0.00     0.178 C 
ATOM      6  O   UNL     1      23.107  26.592  22.053  1.00  0.00    -0.332 OA
ENDROOT
BRANCH   1   7
ATOM      7  O   UNL     1      23.013  28.865  22.043  1.00  0.00    -0.338 OA
BRANCH   7   8
ATOM      8  C   UNL     1      22.216  28.803  23.125  1.00  0.00     0.199 C 
BRANCH   8   9
ATOM      9  C   UNL     1      20.946  29.668  22.930  1.00  0.00     0.179 C 
ATOM     10  C   UNL     1      19.177  29.891  21.464  1.00  0.00     0.282 C 
ATOM     11  O   UNL     1      20.262  29.124  21.876  1.00  0.00    -0.341 OA
ATOM     12  C   UNL     1      18.869  31.015  22.409  1.00  0.00     0.202 C 
ATOM     13  C   UNL     1      18.879  30.528  23.845  1.00  0.00     0.179 C 
ATOM     14  C   UNL     1      20.111  29.697  24.163  1.00  0.00     0.177 C 
BRANCH  10  15
ATOM     15  O   UNL     1      18.003  29.139  21.321  1.00  0.00    -0.341 OA
BRANCH  15  16
ATOM     16  C   UNL     1      17.885  28.606  20.046  1.00  0.00     0.184 C 
ATOM     17  C   UNL     1      18.176  29.654  19.019  1.00  0.00     0.178 C 
ATOM     18  O   UNL     1      17.037  30.028  18.306  1.00  0.00    -0.341 OA
ATOM     19  C   UNL     1      15.991  30.371  19.167  1.00  0.00     0.281 C 
ATOM     20  C   UNL     1      16.475  28.087  19.891  1.00  0.00     0.180 C 
ATOM     21  C   UNL     1      15.433  29.170  19.877  1.00  0.00     0.202 C 
BRANCH  17  22
ATOM     22  C   UNL     1      19.215  29.198  18.022  1.00  0.00     0.191 C 
BRANCH  22  23
ATOM     23  O   UNL     1      18.831  28.033  17.361  1.00  0.00    -0.394 OA
ATOM     24  H   UNL     1      17.966  27.728  17.703  1.00  0.00     0.210 HD
ENDBRANCH  22  23
ENDBRANCH  17  22
BRANCH  19  25
ATOM     25  O   UNL     1      14.999  30.922  18.374  1.00  0.00    -0.350 OA
BRANCH  25  26
ATOM     26  C   UNL     1      14.459  29.939  17.571  1.00  0.00     0.169 C 
BRANCH  26  27
ATOM     27  C   UNL     1      14.310  30.435  16.147  1.00  0.00     0.119 C 
BRANCH  27  28
ATOM     28  N   UNL     1      12.892  30.679  15.892  1.00  0.00    -0.092 NA
ATOM     29  N   UNL     1      12.136  29.793  15.493  1.00  0.00     0.001 N 
ATOM     30  N   UNL     1      11.429  28.812  15.339  1.00  0.00    -0.003 NA
ENDBRANCH  27  28
ENDBRANCH  26  27
ENDBRANCH  25  26
ENDBRANCH  19  25
BRANCH  20  31
ATOM     31  O   UNL     1      16.331  27.292  18.755  1.00  0.00    -0.387 OA
ATOM     32  H   UNL     1      15.720  26.534  18.878  1.00  0.00     0.211 HD
ENDBRANCH  20  31
BRANCH  21  33
ATOM     33  O   UNL     1      15.108  29.542  21.180  1.00  0.00    -0.385 OA
ATOM     34  H   UNL     1      14.580  30.374  21.195  1.00  0.00     0.211 HD
ENDBRANCH  21  33
ENDBRANCH  15  16
ENDBRANCH  10  15
BRANCH  12  35
ATOM     35  O   UNL     1      19.625  32.146  22.213  1.00  0.00    -0.385 OA
ATOM     36  H   UNL     1      20.542  32.021  22.612  1.00  0.00     0.211 HD
ENDBRANCH  12  35
BRANCH  13  37
ATOM     37  O   UNL     1      17.734  29.718  24.004  1.00  0.00    -0.387 OA
ATOM     38  H   UNL     1      16.929  30.274  24.178  1.00  0.00     0.211 HD
ENDBRANCH  13  37
BRANCH  14  39
ATOM     39  O   UNL     1      19.753  28.412  24.568  1.00  0.00    -0.387 OA
ATOM     40  H   UNL     1      18.972  28.461  25.179  1.00  0.00     0.211 HD
ENDBRANCH  14  39
ENDBRANCH   8   9
ENDBRANCH   7   8
ENDBRANCH   1   7
BRANCH   1  41
ATOM     41  C   UNL     1      24.992  27.743  22.513  1.00  0.00     0.364 C 
ATOM     42  O   UNL     1      25.074  26.976  23.483  1.00  0.00    -0.246 OA
BRANCH  41  43
ATOM     43  O   UNL     1      26.075  28.560  22.218  1.00  0.00    -0.477 OA
ATOM     44  H   UNL     1      25.935  29.489  21.795  1.00  0.00     0.296 HD
ENDBRANCH  41  43
ENDBRANCH   1  41
BRANCH   3  45
ATOM     45  O   UNL     1      21.827  27.760  20.050  1.00  0.00    -0.391 OA
ATOM     46  H   UNL     1      21.962  28.552  20.596  1.00  0.00     0.211 HD
ENDBRANCH   3  45
BRANCH   5  47
ATOM     47  C   UNL     1      22.457  24.376  21.844  1.00  0.00     0.176 C 
BRANCH  47  48
ATOM     48  O   UNL     1      22.104  23.477  20.774  1.00  0.00    -0.388 OA
ATOM     49  H   UNL     1      21.329  22.955  21.038  1.00  0.00     0.211 HD
ENDBRANCH  47  48
BRANCH  47  50
ATOM     50  C   UNL     1      21.105  24.776  22.401  1.00  0.00     0.165 C 
BRANCH  50  51
ATOM     51  O   UNL     1      20.548  25.894  21.863  1.00  0.00    -0.388 OA
ATOM     52  H   UNL     1      19.963  26.431  22.442  1.00  0.00     0.211 HD
ENDBRANCH  50  51
BRANCH  50  53
ATOM     53  C   UNL     1      21.047  24.663  23.887  1.00  0.00     0.154 C 
BRANCH  53  54
ATOM     54  N   UNL     1      21.221  25.849  24.638  1.00  0.00    -0.319 N 
ATOM     55  C   UNL     1      22.107  26.057  25.727  1.00  0.00     0.407 C 
ATOM     56  H   UNL     1      20.617  26.681  24.351  1.00  0.00     0.167 HD
ATOM     57  O   UNL     1      22.839  25.131  26.096  1.00  0.00    -0.225 OA
BRANCH  55  58
ATOM     58  O   UNL     1      22.141  27.306  26.370  1.00  0.00    -0.443 OA
BRANCH  58  59
ATOM     59  C   UNL     1      23.345  28.013  26.501  1.00  0.00     0.294 C 
BRANCH  59  60
ATOM     60  C   UNL     1      24.030  27.769  27.776  1.00  0.00     0.120 A 
ATOM     61  C   UNL     1      25.293  27.269  28.007  1.00  0.00     0.139 A 
ATOM     62  N   UNL     1      23.466  28.025  28.985  1.00  0.00    -0.132 NA
ATOM     63  N   UNL     1      25.459  27.238  29.330  1.00  0.00    -0.238 N 
ATOM     64  N   UNL     1      24.363  27.692  29.925  1.00  0.00    -0.066 NA
BRANCH  63  65
ATOM     65  C   UNL     1      26.646  26.778  30.022  1.00  0.00     0.215 C 
ATOM     66  C   UNL     1      27.097  27.819  30.998  1.00  0.00     0.046 C 
BRANCH  65  67
ATOM     67  C   UNL     1      26.400  25.494  30.720  1.00  0.00     0.328 C 
ATOM     68  O   UNL     1      27.363  24.929  31.293  1.00  0.00    -0.250 OA
BRANCH  67  69
ATOM     69  O   UNL     1      25.148  24.899  30.762  1.00  0.00    -0.480 OA
ATOM     70  H   UNL     1      24.497  24.969  29.989  1.00  0.00     0.296 HD
ENDBRANCH  67  69
ENDBRANCH  65  67
ENDBRANCH  63  65
ENDBRANCH  59  60
ENDBRANCH  58  59
ENDBRANCH  55  58
ENDBRANCH  53  54
ENDBRANCH  50  53
ENDBRANCH  47  50
ENDBRANCH   5  47
BRANCH   4  71
ATOM     71  N   UNL     1      23.946  25.122  18.881  1.00  0.00    -0.348 N 
ATOM     72  C   UNL     1      23.680  24.616  17.610  1.00  0.00     0.217 C 
ATOM     73  H   UNL     1      24.943  25.050  19.237  1.00  0.00     0.163 HD
ATOM     74  C   UNL     1      24.737  23.995  16.775  1.00  0.00     0.114 C 
ATOM     75  O   UNL     1      22.521  24.685  17.161  1.00  0.00    -0.275 OA
ENDBRANCH   4  71
TORSDOF 32
