REMARK VINA RESULT:    -6.147      4.969     11.995
REMARK INTER + INTRA:         -21.762
REMARK INTER:                 -15.209
REMARK INTRA:                  -6.553
REMARK UNBOUND:                -6.272
REMARK SMILES CC(=O)N[C@@H]1[C@@H](O)C[C@](OC[C@H]2O[C@@H](O[C@H]3[C@H](O)[C@@H](O)[C@H](OCCN=[N+]=[N-])O[C@@H]3CO)[C@H](O)[C@@H](O)[C@H]2O)(C(=O)O)O[C@H]1C(O)[C@H](O)CNC(=O)OCc1cn(Cc2cccc(Br)c2)nn1
REMARK SMILES IDX 9 1 8 2 6 3 5 4 42 5 41 6 10 7 11 8 12 9 14 10 13 11 32 12
REMARK SMILES IDX 34 13 36 14 15 15 16 16 29 17 28 18 21 19 17 20 19 21 30 22
REMARK SMILES IDX 31 23 22 25 23 26 24 27 25 28 26 29 27 30 18 31 20 33 33 35
REMARK SMILES IDX 35 37 37 39 38 41 39 42 40 43 7 45 43 47 44 48 45 50 46 51
REMARK SMILES IDX 47 53 48 54 49 55 50 57 51 58 52 59 53 60 54 61 65 62 55 63
REMARK SMILES IDX 64 64 56 65 57 66 58 67 63 68 59 69 61 70 60 71 62 72 4 73
REMARK SMILES IDX 2 74 1 76 3 77
REMARK H PARENT 31 24 18 32 20 34 33 36 35 38 37 40 40 44 7 46 44 49 46 52
REMARK H PARENT 48 56 4 75
REMARK Flexibility Score: inf
ROOT
ATOM      1  C   UNL     1      18.401  30.073  21.766  1.00  0.00     0.272 C 
ATOM      2  C   UNL     1      17.516  30.675  22.790  1.00  0.00     0.113 C 
ATOM      3  C   UNL     1      16.138  30.099  22.854  1.00  0.00     0.145 C 
ATOM      4  C   UNL     1      15.628  29.638  21.508  1.00  0.00     0.142 C 
ATOM      5  C   UNL     1      16.668  29.199  20.576  1.00  0.00     0.178 C 
ATOM      6  O   UNL     1      17.912  28.993  21.085  1.00  0.00    -0.332 OA
ENDROOT
BRANCH   1   7
ATOM      7  O   UNL     1      19.643  29.720  22.382  1.00  0.00    -0.338 OA
BRANCH   7   8
ATOM      8  C   UNL     1      19.759  30.212  23.650  1.00  0.00     0.199 C 
BRANCH   8   9
ATOM      9  C   UNL     1      20.452  29.184  24.569  1.00  0.00     0.179 C 
ATOM     10  C   UNL     1      21.543  27.128  24.309  1.00  0.00     0.282 C 
ATOM     11  O   UNL     1      20.597  28.060  23.823  1.00  0.00    -0.341 OA
ATOM     12  C   UNL     1      21.949  27.415  25.700  1.00  0.00     0.202 C 
ATOM     13  C   UNL     1      22.460  28.831  25.893  1.00  0.00     0.179 C 
ATOM     14  C   UNL     1      21.813  29.765  24.885  1.00  0.00     0.177 C 
BRANCH  10  15
ATOM     15  O   UNL     1      22.522  27.116  23.345  1.00  0.00    -0.341 OA
BRANCH  15  16
ATOM     16  C   UNL     1      22.232  26.511  22.176  1.00  0.00     0.184 C 
ATOM     17  C   UNL     1      23.232  25.412  21.926  1.00  0.00     0.178 C 
ATOM     18  O   UNL     1      22.826  24.683  20.811  1.00  0.00    -0.341 OA
ATOM     19  C   UNL     1      22.856  25.422  19.627  1.00  0.00     0.281 C 
ATOM     20  C   UNL     1      22.369  27.420  20.958  1.00  0.00     0.180 C 
ATOM     21  C   UNL     1      21.875  26.559  19.785  1.00  0.00     0.202 C 
BRANCH  17  22
ATOM     22  C   UNL     1      23.252  24.486  23.095  1.00  0.00     0.191 C 
BRANCH  22  23
ATOM     23  O   UNL     1      24.519  23.972  23.300  1.00  0.00    -0.394 OA
ATOM     24  H   UNL     1      24.687  23.293  22.596  1.00  0.00     0.210 HD
ENDBRANCH  22  23
ENDBRANCH  17  22
BRANCH  19  25
ATOM     25  O   UNL     1      22.511  24.545  18.619  1.00  0.00    -0.350 OA
BRANCH  25  26
ATOM     26  C   UNL     1      23.525  24.199  17.770  1.00  0.00     0.169 C 
BRANCH  26  27
ATOM     27  C   UNL     1      23.533  24.959  16.463  1.00  0.00     0.119 C 
BRANCH  27  28
ATOM     28  N   UNL     1      22.171  25.367  16.198  1.00  0.00    -0.092 NA
ATOM     29  N   UNL     1      21.844  26.493  15.856  1.00  0.00     0.001 N 
ATOM     30  N   UNL     1      21.634  27.608  15.384  1.00  0.00    -0.003 NA
ENDBRANCH  27  28
ENDBRANCH  26  27
ENDBRANCH  25  26
ENDBRANCH  19  25
BRANCH  20  31
ATOM     31  O   UNL     1      21.586  28.537  21.007  1.00  0.00    -0.387 OA
ATOM     32  H   UNL     1      21.176  28.727  21.880  1.00  0.00     0.211 HD
ENDBRANCH  20  31
BRANCH  21  33
ATOM     33  O   UNL     1      21.781  27.383  18.695  1.00  0.00    -0.385 OA
ATOM     34  H   UNL     1      22.372  27.084  17.931  1.00  0.00     0.211 HD
ENDBRANCH  21  33
ENDBRANCH  15  16
ENDBRANCH  10  15
BRANCH  12  35
ATOM     35  O   UNL     1      20.799  27.254  26.516  1.00  0.00    -0.385 OA
ATOM     36  H   UNL     1      20.785  26.330  26.877  1.00  0.00     0.211 HD
ENDBRANCH  12  35
BRANCH  13  37
ATOM     37  O   UNL     1      23.849  28.903  25.878  1.00  0.00    -0.387 OA
ATOM     38  H   UNL     1      24.212  28.130  26.422  1.00  0.00     0.211 HD
ENDBRANCH  13  37
BRANCH  14  39
ATOM     39  O   UNL     1      22.517  29.888  23.710  1.00  0.00    -0.387 OA
ATOM     40  H   UNL     1      23.385  29.383  23.766  1.00  0.00     0.211 HD
ENDBRANCH  14  39
ENDBRANCH   8   9
ENDBRANCH   7   8
ENDBRANCH   1   7
BRANCH   1  41
ATOM     41  C   UNL     1      18.791  31.125  20.780  1.00  0.00     0.364 C 
ATOM     42  O   UNL     1      19.774  30.901  19.989  1.00  0.00    -0.246 OA
BRANCH  41  43
ATOM     43  O   UNL     1      18.191  32.344  20.629  1.00  0.00    -0.477 OA
ATOM     44  H   UNL     1      17.166  32.385  20.702  1.00  0.00     0.296 HD
ENDBRANCH  41  43
ENDBRANCH   1  41
BRANCH   3  45
ATOM     45  O   UNL     1      16.034  29.125  23.837  1.00  0.00    -0.391 OA
ATOM     46  H   UNL     1      15.165  28.669  23.857  1.00  0.00     0.211 HD
ENDBRANCH   3  45
BRANCH   5  47
ATOM     47  C   UNL     1      16.249  27.965  19.760  1.00  0.00     0.176 C 
BRANCH  47  48
ATOM     48  O   UNL     1      14.799  28.040  19.692  1.00  0.00    -0.388 OA
ATOM     49  H   UNL     1      14.588  28.361  18.778  1.00  0.00     0.211 HD
ENDBRANCH  47  48
BRANCH  47  50
ATOM     50  C   UNL     1      16.730  27.945  18.356  1.00  0.00     0.165 C 
BRANCH  50  51
ATOM     51  O   UNL     1      18.170  27.930  18.471  1.00  0.00    -0.388 OA
ATOM     52  H   UNL     1      18.505  27.178  17.894  1.00  0.00     0.211 HD
ENDBRANCH  50  51
BRANCH  50  53
ATOM     53  C   UNL     1      16.463  29.143  17.508  1.00  0.00     0.154 C 
BRANCH  53  54
ATOM     54  N   UNL     1      15.070  29.288  17.115  1.00  0.00    -0.319 N 
ATOM     55  C   UNL     1      14.417  30.525  17.342  1.00  0.00     0.407 C 
ATOM     56  H   UNL     1      14.545  28.514  16.673  1.00  0.00     0.167 HD
ATOM     57  O   UNL     1      15.040  31.482  17.883  1.00  0.00    -0.225 OA
BRANCH  55  58
ATOM     58  O   UNL     1      13.085  30.717  16.976  1.00  0.00    -0.443 OA
BRANCH  58  59
ATOM     59  C   UNL     1      12.811  31.276  15.683  1.00  0.00     0.294 C 
BRANCH  59  60
ATOM     60  C   UNL     1      12.459  30.168  14.764  1.00  0.00     0.120 A 
ATOM     61  C   UNL     1      12.273  30.212  13.405  1.00  0.00     0.138 A 
ATOM     62  N   UNL     1      12.262  28.900  15.147  1.00  0.00    -0.132 NA
ATOM     63  N   UNL     1      11.968  28.963  13.007  1.00  0.00    -0.248 N 
ATOM     64  N   UNL     1      11.966  28.186  14.079  1.00  0.00    -0.067 NA
BRANCH  63  65
ATOM     65  C   UNL     1      11.693  28.567  11.629  1.00  0.00     0.181 C 
BRANCH  65  66
ATOM     66  C   UNL     1      10.267  28.187  11.451  1.00  0.00    -0.025 A 
ATOM     67  C   UNL     1       9.921  27.103  10.671  1.00  0.00     0.006 A 
ATOM     68  C   UNL     1       9.234  28.878  12.037  1.00  0.00     0.021 A 
ATOM     69  C   UNL     1       8.620  26.702  10.464  1.00  0.00     0.002 A 
ATOM     70  C   UNL     1       7.923  28.504  11.852  1.00  0.00     0.018 A 
ATOM     71  C   UNL     1       7.586  27.426  11.075  1.00  0.00     0.016 A 
ATOM     72  Br  UNL     1       6.481  29.463  12.667  1.00  0.00    -0.051 Br
ENDBRANCH  65  66
ENDBRANCH  63  65
ENDBRANCH  59  60
ENDBRANCH  58  59
ENDBRANCH  55  58
ENDBRANCH  53  54
ENDBRANCH  50  53
ENDBRANCH  47  50
ENDBRANCH   5  47
BRANCH   4  73
ATOM     73  N   UNL     1      14.814  30.723  20.901  1.00  0.00    -0.348 N 
ATOM     74  C   UNL     1      13.399  30.672  20.949  1.00  0.00     0.217 C 
ATOM     75  H   UNL     1      15.271  31.543  20.428  1.00  0.00     0.163 HD
ATOM     76  C   UNL     1      12.553  31.758  20.341  1.00  0.00     0.114 C 
ATOM     77  O   UNL     1      12.849  29.690  21.515  1.00  0.00    -0.275 OA
ENDBRANCH   4  73
TORSDOF 31
