REMARK VINA RESULT:    -6.529      4.566      7.700
REMARK INTER + INTRA:         -22.296
REMARK INTER:                 -15.093
REMARK INTRA:                  -7.203
REMARK UNBOUND:                -5.460
REMARK SMILES CC(=O)N[C@@H]1[C@@H](O)C[C@](OC[C@H]2O[C@@H](O[C@H]3[C@H](O)[C@@H](O)[C@H](OCCN=[N+]=[N-])O[C@@H]3CO)[C@H](O)[C@@H](O)[C@H]2O)(C(=O)O)O[C@H]1C(O)[C@H](O)CNC(=O)OCc1cn(C(c2ccccc2)c2ccccc2)nn1
REMARK SMILES IDX 9 1 8 2 6 3 5 4 42 5 41 6 10 7 11 8 12 9 14 10 13 11 32 12
REMARK SMILES IDX 34 13 36 14 15 15 16 16 29 17 28 18 21 19 17 20 19 21 30 22
REMARK SMILES IDX 31 23 22 25 23 26 24 27 25 28 26 29 27 30 18 31 20 33 33 35
REMARK SMILES IDX 35 37 37 39 38 41 39 42 40 43 7 45 43 47 44 48 45 50 46 51
REMARK SMILES IDX 47 53 48 54 49 55 50 57 51 58 52 59 53 60 54 61 70 62 55 63
REMARK SMILES IDX 69 64 56 65 57 66 58 67 62 68 59 69 61 70 60 71 63 72 64 73
REMARK SMILES IDX 68 74 65 75 67 76 66 77 4 78 2 79 1 81 3 82
REMARK H PARENT 31 24 18 32 20 34 33 36 35 38 37 40 40 44 7 46 44 49 46 52
REMARK H PARENT 48 56 4 80
REMARK Flexibility Score: inf
ROOT
ATOM      1  C   UNL     1      14.601  32.402  25.756  1.00  0.00     0.272 C 
ATOM      2  C   UNL     1      14.864  33.910  25.563  1.00  0.00     0.113 C 
ATOM      3  C   UNL     1      15.367  34.497  26.818  1.00  0.00     0.145 C 
ATOM      4  C   UNL     1      16.631  33.795  27.243  1.00  0.00     0.142 C 
ATOM      5  C   UNL     1      16.777  32.437  26.661  1.00  0.00     0.178 C 
ATOM      6  O   UNL     1      15.624  31.783  26.365  1.00  0.00    -0.332 OA
ENDROOT
BRANCH   1   7
ATOM      7  O   UNL     1      14.409  31.844  24.482  1.00  0.00    -0.338 OA
BRANCH   7   8
ATOM      8  C   UNL     1      14.523  32.788  23.495  1.00  0.00     0.199 C 
BRANCH   8   9
ATOM      9  C   UNL     1      14.114  32.250  22.124  1.00  0.00     0.179 C 
ATOM     10  C   UNL     1      14.996  30.095  21.609  1.00  0.00     0.282 C 
ATOM     11  O   UNL     1      15.011  31.442  21.626  1.00  0.00    -0.341 OA
ATOM     12  C   UNL     1      13.882  29.469  22.302  1.00  0.00     0.202 C 
ATOM     13  C   UNL     1      12.610  30.242  22.280  1.00  0.00     0.179 C 
ATOM     14  C   UNL     1      12.702  31.712  22.143  1.00  0.00     0.177 C 
BRANCH  10  15
ATOM     15  O   UNL     1      16.290  29.750  22.110  1.00  0.00    -0.341 OA
BRANCH  15  16
ATOM     16  C   UNL     1      17.129  29.351  21.115  1.00  0.00     0.184 C 
ATOM     17  C   UNL     1      17.849  30.495  20.495  1.00  0.00     0.178 C 
ATOM     18  O   UNL     1      18.854  30.029  19.635  1.00  0.00    -0.341 OA
ATOM     19  C   UNL     1      18.290  29.493  18.510  1.00  0.00     0.281 C 
ATOM     20  C   UNL     1      16.370  28.664  19.986  1.00  0.00     0.180 C 
ATOM     21  C   UNL     1      16.882  29.082  18.664  1.00  0.00     0.202 C 
BRANCH  17  22
ATOM     22  C   UNL     1      18.406  31.506  21.476  1.00  0.00     0.191 C 
BRANCH  22  23
ATOM     23  O   UNL     1      18.742  30.855  22.659  1.00  0.00    -0.394 OA
ATOM     24  H   UNL     1      19.630  31.085  23.002  1.00  0.00     0.210 HD
ENDBRANCH  22  23
ENDBRANCH  17  22
BRANCH  19  25
ATOM     25  O   UNL     1      19.088  28.474  17.964  1.00  0.00    -0.350 OA
BRANCH  25  26
ATOM     26  C   UNL     1      20.281  28.888  17.447  1.00  0.00     0.169 C 
BRANCH  26  27
ATOM     27  C   UNL     1      21.381  27.962  17.911  1.00  0.00     0.119 C 
BRANCH  27  28
ATOM     28  N   UNL     1      21.728  28.194  19.311  1.00  0.00    -0.092 NA
ATOM     29  N   UNL     1      21.155  27.623  20.230  1.00  0.00     0.001 N 
ATOM     30  N   UNL     1      20.315  27.269  21.067  1.00  0.00    -0.003 NA
ENDBRANCH  27  28
ENDBRANCH  26  27
ENDBRANCH  25  26
ENDBRANCH  19  25
BRANCH  20  31
ATOM     31  O   UNL     1      16.433  27.291  20.229  1.00  0.00    -0.387 OA
ATOM     32  H   UNL     1      16.000  27.052  21.092  1.00  0.00     0.211 HD
ENDBRANCH  20  31
BRANCH  21  33
ATOM     33  O   UNL     1      16.028  30.116  18.180  1.00  0.00    -0.385 OA
ATOM     34  H   UNL     1      16.115  30.856  18.844  1.00  0.00     0.211 HD
ENDBRANCH  21  33
ENDBRANCH  15  16
ENDBRANCH  10  15
BRANCH  12  35
ATOM     35  O   UNL     1      13.551  28.188  21.791  1.00  0.00    -0.385 OA
ATOM     36  H   UNL     1      12.870  27.828  22.409  1.00  0.00     0.211 HD
ENDBRANCH  12  35
BRANCH  13  37
ATOM     37  O   UNL     1      11.817  29.950  23.420  1.00  0.00    -0.387 OA
ATOM     38  H   UNL     1      11.974  30.644  24.112  1.00  0.00     0.211 HD
ENDBRANCH  13  37
BRANCH  14  39
ATOM     39  O   UNL     1      12.080  32.319  23.246  1.00  0.00    -0.387 OA
ATOM     40  H   UNL     1      12.377  33.251  23.369  1.00  0.00     0.211 HD
ENDBRANCH  14  39
ENDBRANCH   8   9
ENDBRANCH   7   8
ENDBRANCH   1   7
BRANCH   1  41
ATOM     41  C   UNL     1      13.349  32.321  26.509  1.00  0.00     0.364 C 
ATOM     42  O   UNL     1      13.301  31.758  27.620  1.00  0.00    -0.246 OA
BRANCH  41  43
ATOM     43  O   UNL     1      12.153  32.861  26.030  1.00  0.00    -0.477 OA
ATOM     44  H   UNL     1      11.896  33.816  26.232  1.00  0.00     0.296 HD
ENDBRANCH  41  43
ENDBRANCH   1  41
BRANCH   3  45
ATOM     45  O   UNL     1      15.647  35.856  26.559  1.00  0.00    -0.391 OA
ATOM     46  H   UNL     1      16.297  36.212  27.214  1.00  0.00     0.211 HD
ENDBRANCH   3  45
BRANCH   5  47
ATOM     47  C   UNL     1      17.753  32.287  25.530  1.00  0.00     0.176 C 
BRANCH  47  48
ATOM     48  O   UNL     1      18.561  31.177  25.855  1.00  0.00    -0.388 OA
ATOM     49  H   UNL     1      19.401  31.425  26.279  1.00  0.00     0.211 HD
ENDBRANCH  47  48
BRANCH  47  50
ATOM     50  C   UNL     1      18.648  33.445  25.275  1.00  0.00     0.165 C 
BRANCH  50  51
ATOM     51  O   UNL     1      18.608  33.702  23.909  1.00  0.00    -0.388 OA
ATOM     52  H   UNL     1      17.992  34.442  23.672  1.00  0.00     0.211 HD
ENDBRANCH  50  51
BRANCH  50  53
ATOM     53  C   UNL     1      20.063  33.293  25.713  1.00  0.00     0.154 C 
BRANCH  53  54
ATOM     54  N   UNL     1      20.909  32.511  24.870  1.00  0.00    -0.319 N 
ATOM     55  C   UNL     1      22.050  31.787  25.230  1.00  0.00     0.407 C 
ATOM     56  H   UNL     1      20.645  32.467  23.833  1.00  0.00     0.167 HD
ATOM     57  O   UNL     1      22.445  31.787  26.401  1.00  0.00    -0.225 OA
BRANCH  55  58
ATOM     58  O   UNL     1      22.767  31.053  24.288  1.00  0.00    -0.443 OA
BRANCH  58  59
ATOM     59  C   UNL     1      22.067  30.333  23.261  1.00  0.00     0.294 C 
BRANCH  59  60
ATOM     60  C   UNL     1      21.554  29.067  23.843  1.00  0.00     0.120 A 
ATOM     61  C   UNL     1      22.282  27.913  23.896  1.00  0.00     0.139 A 
ATOM     62  N   UNL     1      20.354  28.880  24.384  1.00  0.00    -0.132 NA
ATOM     63  N   UNL     1      21.483  27.010  24.489  1.00  0.00    -0.240 N 
ATOM     64  N   UNL     1      20.321  27.607  24.779  1.00  0.00    -0.066 NA
BRANCH  63  65
ATOM     65  C   UNL     1      21.745  25.623  24.814  1.00  0.00     0.169 C 
BRANCH  65  66
ATOM     66  C   UNL     1      22.334  25.576  26.158  1.00  0.00    -0.019 A 
ATOM     67  C   UNL     1      22.399  24.387  26.855  1.00  0.00     0.006 A 
ATOM     68  C   UNL     1      22.831  26.692  26.797  1.00  0.00     0.006 A 
ATOM     69  C   UNL     1      22.938  24.323  28.133  1.00  0.00     0.000 A 
ATOM     70  C   UNL     1      23.373  26.640  28.078  1.00  0.00     0.000 A 
ATOM     71  C   UNL     1      23.430  25.440  28.760  1.00  0.00     0.000 A 
ENDBRANCH  65  66
BRANCH  65  72
ATOM     72  C   UNL     1      22.554  24.988  23.755  1.00  0.00    -0.019 A 
ATOM     73  C   UNL     1      21.877  24.537  22.627  1.00  0.00     0.006 A 
ATOM     74  C   UNL     1      23.903  24.788  23.815  1.00  0.00     0.006 A 
ATOM     75  C   UNL     1      22.553  23.913  21.612  1.00  0.00     0.000 A 
ATOM     76  C   UNL     1      24.592  24.159  22.794  1.00  0.00     0.000 A 
ATOM     77  C   UNL     1      23.917  23.717  21.685  1.00  0.00     0.000 A 
ENDBRANCH  65  72
ENDBRANCH  63  65
ENDBRANCH  59  60
ENDBRANCH  58  59
ENDBRANCH  55  58
ENDBRANCH  53  54
ENDBRANCH  50  53
ENDBRANCH  47  50
ENDBRANCH   5  47
BRANCH   4  78
ATOM     78  N   UNL     1      16.532  33.702  28.713  1.00  0.00    -0.348 N 
ATOM     79  C   UNL     1      17.674  33.782  29.557  1.00  0.00     0.217 C 
ATOM     80  H   UNL     1      15.605  33.574  29.190  1.00  0.00     0.163 HD
ATOM     81  C   UNL     1      17.540  33.688  31.051  1.00  0.00     0.114 C 
ATOM     82  O   UNL     1      18.820  33.935  29.085  1.00  0.00    -0.275 OA
ENDBRANCH   4  78
TORSDOF 32
