REMARK VINA RESULT:    -6.492      0.000      0.000
REMARK INTER + INTRA:         -25.002
REMARK INTER:                 -16.708
REMARK INTRA:                  -8.294
REMARK UNBOUND:                -6.934
REMARK SMILES CCOCCc1c(-c2ccccc2)nc(N)nc1-n1cc(COC(=O)NC[C@@H](O)C(O)[C@@H]2O[C@@](OC[C@H]3O[C@@H](O[C@H]4[C@H](O)[C@@H](O)[C@H](OCCN=[N+]=[N-])O[C@@H]4CO)[C@H](O)[C@@H](O)[C@H]3O)(C(=O)O)C[C@H](O)[C@H]2NC(C)=O)nn1
REMARK SMILES IDX 30 1 32 2 34 3 66 4 33 5 67 6 69 7 35 8 36 9 37 10 39 11
REMARK SMILES IDX 38 12 57 13 59 14 61 15 40 16 41 17 54 18 53 19 46 20 42 21
REMARK SMILES IDX 44 22 55 23 56 24 47 26 48 27 49 28 50 29 51 30 52 31 43 32
REMARK SMILES IDX 45 34 58 36 60 38 62 40 63 42 64 43 65 44 68 46 70 48 71 49
REMARK SMILES IDX 72 51 73 52 31 53 28 55 29 56 27 58 26 59 24 60 25 62 23 63
REMARK SMILES IDX 22 64 21 65 20 66 74 67 19 68 75 69 18 70 17 71 6 72 15 73
REMARK SMILES IDX 7 74 14 75 5 76 4 77 3 78 2 79 1 80 16 81 8 84 9 85 13 86
REMARK SMILES IDX 10 87 12 88 11 89
REMARK H PARENT 56 25 43 33 45 35 58 37 60 39 62 41 65 45 68 47 70 50 31 54
REMARK H PARENT 29 57 26 61 16 82 16 83
REMARK Flexibility Score: inf
ROOT
ATOM      1  C   UNL     1       2.946  20.502  34.711  1.00  0.00     0.176 C 
ENDROOT
BRANCH   1   2
ATOM      2  C   UNL     1       3.645  20.562  33.386  1.00  0.00     0.178 C 
ATOM      3  C   UNL     1       5.505  21.683  32.512  1.00  0.00     0.272 C 
ATOM      4  C   UNL     1       5.118  20.874  31.272  1.00  0.00     0.113 C 
ATOM      5  O   UNL     1       4.850  21.291  33.623  1.00  0.00    -0.332 OA
ATOM      6  C   UNL     1       3.650  20.936  30.982  1.00  0.00     0.145 C 
ATOM      7  C   UNL     1       2.939  21.271  32.282  1.00  0.00     0.142 C 
BRANCH   3   8
ATOM      8  O   UNL     1       5.361  23.013  32.184  1.00  0.00    -0.338 OA
BRANCH   8   9
ATOM      9  C   UNL     1       5.082  23.861  33.223  1.00  0.00     0.199 C 
BRANCH   9  10
ATOM     10  C   UNL     1       4.121  24.971  32.822  1.00  0.00     0.179 C 
ATOM     11  C   UNL     1       2.484  25.173  31.171  1.00  0.00     0.282 C 
ATOM     12  O   UNL     1       3.730  24.748  31.534  1.00  0.00    -0.341 OA
ATOM     13  C   UNL     1       1.498  24.462  32.108  1.00  0.00     0.202 C 
ATOM     14  C   UNL     1       1.672  25.184  33.443  1.00  0.00     0.179 C 
ATOM     15  C   UNL     1       3.103  25.321  33.829  1.00  0.00     0.177 C 
BRANCH  11  16
ATOM     16  O   UNL     1       2.250  24.886  29.847  1.00  0.00    -0.341 OA
BRANCH  16  17
ATOM     17  C   UNL     1       3.258  25.354  29.019  1.00  0.00     0.184 C 
ATOM     18  C   UNL     1       3.365  26.840  29.079  1.00  0.00     0.178 C 
ATOM     19  O   UNL     1       2.991  27.527  27.967  1.00  0.00    -0.341 OA
ATOM     20  C   UNL     1       3.387  27.075  26.748  1.00  0.00     0.281 C 
ATOM     21  C   UNL     1       3.126  24.810  27.628  1.00  0.00     0.180 C 
ATOM     22  C   UNL     1       3.906  25.678  26.676  1.00  0.00     0.202 C 
BRANCH  18  23
ATOM     23  C   UNL     1       4.728  27.288  29.609  1.00  0.00     0.191 C 
BRANCH  23  24
ATOM     24  O   UNL     1       5.574  26.210  29.802  1.00  0.00    -0.394 OA
ATOM     25  H   UNL     1       5.764  26.154  30.773  1.00  0.00     0.210 HD
ENDBRANCH  23  24
ENDBRANCH  18  23
BRANCH  20  26
ATOM     26  O   UNL     1       4.359  27.946  26.269  1.00  0.00    -0.350 OA
BRANCH  26  27
ATOM     27  C   UNL     1       5.609  27.389  26.149  1.00  0.00     0.169 C 
BRANCH  27  28
ATOM     28  C   UNL     1       6.314  27.725  24.857  1.00  0.00     0.119 C 
BRANCH  28  29
ATOM     29  N   UNL     1       7.693  28.104  25.160  1.00  0.00    -0.092 NA
ATOM     30  N   UNL     1       8.514  27.277  25.575  1.00  0.00     0.001 N 
ATOM     31  N   UNL     1       9.170  26.378  26.098  1.00  0.00    -0.003 NA
ENDBRANCH  28  29
ENDBRANCH  27  28
ENDBRANCH  26  27
ENDBRANCH  20  26
BRANCH  21  32
ATOM     32  O   UNL     1       3.611  23.504  27.518  1.00  0.00    -0.387 OA
ATOM     33  H   UNL     1       4.566  23.488  27.240  1.00  0.00     0.211 HD
ENDBRANCH  21  32
BRANCH  22  34
ATOM     34  O   UNL     1       3.688  25.191  25.388  1.00  0.00    -0.385 OA
ATOM     35  H   UNL     1       3.545  25.917  24.731  1.00  0.00     0.211 HD
ENDBRANCH  22  34
ENDBRANCH  16  17
ENDBRANCH  11  16
BRANCH  13  36
ATOM     36  O   UNL     1       0.196  24.566  31.686  1.00  0.00    -0.385 OA
ATOM     37  H   UNL     1      -0.251  23.676  31.639  1.00  0.00     0.211 HD
ENDBRANCH  13  36
BRANCH  14  38
ATOM     38  O   UNL     1       0.843  24.703  34.431  1.00  0.00    -0.387 OA
ATOM     39  H   UNL     1       0.173  25.392  34.724  1.00  0.00     0.211 HD
ENDBRANCH  14  38
BRANCH  15  40
ATOM     40  O   UNL     1       3.309  24.526  34.977  1.00  0.00    -0.387 OA
ATOM     41  H   UNL     1       3.975  24.970  35.563  1.00  0.00     0.211 HD
ENDBRANCH  15  40
ENDBRANCH   9  10
ENDBRANCH   8   9
ENDBRANCH   3   8
BRANCH   3  42
ATOM     42  C   UNL     1       6.961  21.375  32.681  1.00  0.00     0.364 C 
ATOM     43  O   UNL     1       7.408  20.461  31.902  1.00  0.00    -0.246 OA
BRANCH  42  44
ATOM     44  O   UNL     1       7.804  21.979  33.569  1.00  0.00    -0.477 OA
ATOM     45  H   UNL     1       8.411  21.407  34.150  1.00  0.00     0.296 HD
ENDBRANCH  42  44
ENDBRANCH   3  42
BRANCH   6  46
ATOM     46  O   UNL     1       3.464  21.939  30.019  1.00  0.00    -0.391 OA
ATOM     47  H   UNL     1       2.564  21.919  29.640  1.00  0.00     0.211 HD
ENDBRANCH   6  46
BRANCH   7  48
ATOM     48  N   UNL     1       1.528  21.066  32.177  1.00  0.00    -0.348 N 
ATOM     49  C   UNL     1       0.922  19.791  32.030  1.00  0.00     0.217 C 
ATOM     50  H   UNL     1       0.925  21.916  32.232  1.00  0.00     0.163 HD
ATOM     51  C   UNL     1      -0.548  19.698  31.933  1.00  0.00     0.114 C 
ATOM     52  O   UNL     1       1.633  18.764  31.984  1.00  0.00    -0.275 OA
ENDBRANCH   7  48
ENDBRANCH   1   2
BRANCH   1  53
ATOM     53  O   UNL     1       3.417  21.651  35.434  1.00  0.00    -0.388 OA
ATOM     54  H   UNL     1       2.755  22.354  35.266  1.00  0.00     0.211 HD
ENDBRANCH   1  53
BRANCH   1  55
ATOM     55  C   UNL     1       3.171  19.334  35.582  1.00  0.00     0.165 C 
BRANCH  55  56
ATOM     56  O   UNL     1       2.319  18.316  35.062  1.00  0.00    -0.388 OA
ATOM     57  H   UNL     1       1.532  18.256  35.640  1.00  0.00     0.211 HD
ENDBRANCH  55  56
BRANCH  55  58
ATOM     58  C   UNL     1       2.895  19.479  37.020  1.00  0.00     0.154 C 
BRANCH  58  59
ATOM     59  N   UNL     1       3.871  20.158  37.780  1.00  0.00    -0.319 N 
ATOM     60  C   UNL     1       3.658  20.816  39.005  1.00  0.00     0.407 C 
ATOM     61  H   UNL     1       4.903  20.219  37.444  1.00  0.00     0.167 HD
ATOM     62  O   UNL     1       2.535  20.863  39.555  1.00  0.00    -0.225 OA
BRANCH  60  63
ATOM     63  O   UNL     1       4.688  21.463  39.697  1.00  0.00    -0.443 OA
BRANCH  63  64
ATOM     64  C   UNL     1       4.876  22.860  39.627  1.00  0.00     0.294 C 
BRANCH  64  65
ATOM     65  C   UNL     1       5.539  23.261  38.364  1.00  0.00     0.121 A 
ATOM     66  C   UNL     1       6.863  23.565  38.184  1.00  0.00     0.146 A 
ATOM     67  N   UNL     1       4.970  23.428  37.148  1.00  0.00    -0.131 NA
ATOM     68  N   UNL     1       7.077  23.915  36.860  1.00  0.00    -0.202 N 
ATOM     69  N   UNL     1       5.908  23.812  36.302  1.00  0.00    -0.060 NA
BRANCH  68  70
ATOM     70  C   UNL     1       8.370  24.289  36.456  1.00  0.00     0.164 A 
ATOM     71  N   UNL     1       9.354  23.357  36.490  1.00  0.00    -0.193 NA
ATOM     72  C   UNL     1       8.704  25.549  35.938  1.00  0.00     0.026 A 
ATOM     73  C   UNL     1      10.597  23.580  36.060  1.00  0.00     0.222 A 
ATOM     74  C   UNL     1       9.966  25.798  35.489  1.00  0.00     0.081 A 
ATOM     75  N   UNL     1      10.892  24.785  35.568  1.00  0.00    -0.213 NA
BRANCH  72  76
ATOM     76  C   UNL     1       7.656  26.573  36.027  1.00  0.00     0.070 C 
BRANCH  76  77
ATOM     77  C   UNL     1       6.839  26.739  34.764  1.00  0.00     0.165 C 
BRANCH  77  78
ATOM     78  O   UNL     1       6.959  27.921  34.100  1.00  0.00    -0.381 OA
BRANCH  78  79
ATOM     79  C   UNL     1       7.246  29.040  34.823  1.00  0.00     0.156 C 
ATOM     80  C   UNL     1       7.535  30.239  33.904  1.00  0.00     0.035 C 
ENDBRANCH  78  79
ENDBRANCH  77  78
ENDBRANCH  76  77
ENDBRANCH  72  76
BRANCH  73  81
ATOM     81  N   UNL     1      11.602  22.563  36.121  1.00  0.00    -0.368 N 
ATOM     82  H   UNL     1      12.595  22.794  35.911  1.00  0.00     0.159 HD
ATOM     83  H   UNL     1      11.393  21.582  36.370  1.00  0.00     0.159 HD
ENDBRANCH  73  81
BRANCH  74  84
ATOM     84  C   UNL     1      10.384  27.060  34.919  1.00  0.00     0.001 A 
ATOM     85  C   UNL     1      10.314  27.205  33.535  1.00  0.00     0.010 A 
ATOM     86  C   UNL     1      10.819  28.119  35.694  1.00  0.00     0.010 A 
ATOM     87  C   UNL     1      10.672  28.396  32.916  1.00  0.00     0.001 A 
ATOM     88  C   UNL     1      11.168  29.288  35.062  1.00  0.00     0.001 A 
ATOM     89  C   UNL     1      11.102  29.441  33.699  1.00  0.00     0.000 A 
ENDBRANCH  74  84
ENDBRANCH  68  70
ENDBRANCH  64  65
ENDBRANCH  63  64
ENDBRANCH  60  63
ENDBRANCH  58  59
ENDBRANCH  55  58
ENDBRANCH   1  55
TORSDOF 36
