REMARK VINA RESULT:    -6.127     16.131     21.037
REMARK INTER + INTRA:         -21.124
REMARK INTER:                 -14.543
REMARK INTRA:                  -6.581
REMARK UNBOUND:                -6.043
REMARK SMILES CC(=O)N[C@@H]1[C@@H](O)C[C@](OC[C@H]2O[C@@H](O[C@H]3[C@H](O)[C@@H](O)[C@H](OCCN=[N+]=[N-])O[C@@H]3CO)[C@H](O)[C@@H](O)[C@H]2O)(C(=O)O)O[C@H]1C(O)[C@H](O)CNC(=O)OCc1cn(-c2ccccc2I)nn1
REMARK SMILES IDX 9 1 8 2 6 3 5 4 42 5 41 6 10 7 11 8 12 9 14 10 13 11 32 12
REMARK SMILES IDX 34 13 36 14 15 15 16 16 29 17 28 18 21 19 17 20 19 21 30 22
REMARK SMILES IDX 31 23 22 25 23 26 24 27 25 28 26 29 27 30 18 31 20 33 33 35
REMARK SMILES IDX 35 37 37 39 38 41 39 42 40 43 7 45 43 47 44 48 45 50 46 51
REMARK SMILES IDX 47 53 48 54 49 55 50 57 51 58 52 59 53 60 54 61 64 62 55 63
REMARK SMILES IDX 63 64 56 65 57 66 61 67 58 68 60 69 62 70 59 71 4 72 2 73
REMARK SMILES IDX 1 75 3 76
REMARK H PARENT 31 24 18 32 20 34 33 36 35 38 37 40 40 44 7 46 44 49 46 52
REMARK H PARENT 48 56 4 74
REMARK Flexibility Score: inf
ROOT
ATOM      1  C   UNL     1       1.021  21.307  34.195  1.00  0.00     0.272 C 
ATOM      2  C   UNL     1       1.963  20.676  35.182  1.00  0.00     0.113 C 
ATOM      3  C   UNL     1       3.179  20.056  34.473  1.00  0.00     0.145 C 
ATOM      4  C   UNL     1       2.587  18.911  33.602  1.00  0.00     0.142 C 
ATOM      5  C   UNL     1       1.459  19.472  32.782  1.00  0.00     0.178 C 
ATOM      6  O   UNL     1       1.486  20.866  32.910  1.00  0.00    -0.332 OA
ENDROOT
BRANCH   1   7
ATOM      7  O   UNL     1       1.034  22.660  34.074  1.00  0.00    -0.338 OA
BRANCH   7   8
ATOM      8  C   UNL     1       1.985  23.496  34.368  1.00  0.00     0.199 C 
BRANCH   8   9
ATOM      9  C   UNL     1       2.290  24.662  33.515  1.00  0.00     0.179 C 
ATOM     10  C   UNL     1       4.522  25.148  33.558  1.00  0.00     0.282 C 
ATOM     11  O   UNL     1       3.256  25.522  33.918  1.00  0.00    -0.341 OA
ATOM     12  C   UNL     1       4.764  25.418  32.079  1.00  0.00     0.202 C 
ATOM     13  C   UNL     1       3.412  25.262  31.343  1.00  0.00     0.179 C 
ATOM     14  C   UNL     1       2.622  24.189  32.067  1.00  0.00     0.177 C 
BRANCH  10  15
ATOM     15  O   UNL     1       5.011  23.975  34.037  1.00  0.00    -0.341 OA
BRANCH  15  16
ATOM     16  C   UNL     1       6.108  24.068  34.862  1.00  0.00     0.184 C 
ATOM     17  C   UNL     1       6.389  25.435  35.428  1.00  0.00     0.178 C 
ATOM     18  O   UNL     1       7.734  25.550  35.771  1.00  0.00    -0.341 OA
ATOM     19  C   UNL     1       8.331  24.335  36.125  1.00  0.00     0.281 C 
ATOM     20  C   UNL     1       7.339  23.799  33.968  1.00  0.00     0.180 C 
ATOM     21  C   UNL     1       8.438  23.402  34.946  1.00  0.00     0.202 C 
BRANCH  17  22
ATOM     22  C   UNL     1       5.476  25.864  36.530  1.00  0.00     0.191 C 
BRANCH  22  23
ATOM     23  O   UNL     1       4.889  24.703  37.050  1.00  0.00    -0.394 OA
ATOM     24  H   UNL     1       5.589  24.213  37.561  1.00  0.00     0.210 HD
ENDBRANCH  22  23
ENDBRANCH  17  22
BRANCH  19  25
ATOM     25  O   UNL     1       7.778  23.774  37.234  1.00  0.00    -0.350 OA
BRANCH  25  26
ATOM     26  C   UNL     1       8.531  23.952  38.353  1.00  0.00     0.169 C 
BRANCH  26  27
ATOM     27  C   UNL     1       9.987  23.626  38.256  1.00  0.00     0.119 C 
BRANCH  27  28
ATOM     28  N   UNL     1      10.348  22.251  38.454  1.00  0.00    -0.092 NA
ATOM     29  N   UNL     1       9.609  21.584  39.201  1.00  0.00     0.001 N 
ATOM     30  N   UNL     1       9.069  20.769  39.950  1.00  0.00    -0.003 NA
ENDBRANCH  27  28
ENDBRANCH  26  27
ENDBRANCH  25  26
ENDBRANCH  19  25
BRANCH  20  31
ATOM     31  O   UNL     1       7.076  22.788  33.064  1.00  0.00    -0.387 OA
ATOM     32  H   UNL     1       7.009  21.945  33.586  1.00  0.00     0.211 HD
ENDBRANCH  20  31
BRANCH  21  33
ATOM     33  O   UNL     1       9.688  23.430  34.332  1.00  0.00    -0.385 OA
ATOM     34  H   UNL     1       9.727  22.663  33.673  1.00  0.00     0.211 HD
ENDBRANCH  21  33
ENDBRANCH  15  16
ENDBRANCH  10  15
BRANCH  12  35
ATOM     35  O   UNL     1       5.171  26.721  31.827  1.00  0.00    -0.385 OA
ATOM     36  H   UNL     1       4.615  27.054  31.075  1.00  0.00     0.211 HD
ENDBRANCH  12  35
BRANCH  13  37
ATOM     37  O   UNL     1       3.539  25.000  30.016  1.00  0.00    -0.387 OA
ATOM     38  H   UNL     1       2.870  24.355  29.633  1.00  0.00     0.211 HD
ENDBRANCH  13  37
BRANCH  14  39
ATOM     39  O   UNL     1       3.416  23.064  32.210  1.00  0.00    -0.387 OA
ATOM     40  H   UNL     1       4.242  23.300  32.738  1.00  0.00     0.211 HD
ENDBRANCH  14  39
ENDBRANCH   8   9
ENDBRANCH   7   8
ENDBRANCH   1   7
BRANCH   1  41
ATOM     41  C   UNL     1      -0.340  20.772  34.382  1.00  0.00     0.364 C 
ATOM     42  O   UNL     1      -0.660  19.912  35.221  1.00  0.00    -0.246 OA
BRANCH  41  43
ATOM     43  O   UNL     1      -1.406  21.230  33.577  1.00  0.00    -0.477 OA
ATOM     44  H   UNL     1      -1.999  20.539  33.096  1.00  0.00     0.296 HD
ENDBRANCH  41  43
ENDBRANCH   1  41
BRANCH   3  45
ATOM     45  O   UNL     1       3.852  20.968  33.688  1.00  0.00    -0.391 OA
ATOM     46  H   UNL     1       4.219  20.527  32.886  1.00  0.00     0.211 HD
ENDBRANCH   3  45
BRANCH   5  47
ATOM     47  C   UNL     1       1.769  19.264  31.275  1.00  0.00     0.176 C 
BRANCH  47  48
ATOM     48  O   UNL     1       3.174  18.917  31.228  1.00  0.00    -0.388 OA
ATOM     49  H   UNL     1       3.184  17.920  31.104  1.00  0.00     0.211 HD
ENDBRANCH  47  48
BRANCH  47  50
ATOM     50  C   UNL     1       1.741  20.556  30.516  1.00  0.00     0.165 C 
BRANCH  50  51
ATOM     51  O   UNL     1       0.439  20.747  29.981  1.00  0.00    -0.388 OA
ATOM     52  H   UNL     1       0.414  20.506  29.021  1.00  0.00     0.211 HD
ENDBRANCH  50  51
BRANCH  50  53
ATOM     53  C   UNL     1       2.719  20.768  29.441  1.00  0.00     0.154 C 
BRANCH  53  54
ATOM     54  N   UNL     1       2.980  22.151  29.089  1.00  0.00    -0.319 N 
ATOM     55  C   UNL     1       2.284  22.726  27.983  1.00  0.00     0.407 C 
ATOM     56  H   UNL     1       3.650  22.764  29.595  1.00  0.00     0.167 HD
ATOM     57  O   UNL     1       1.460  22.006  27.329  1.00  0.00    -0.225 OA
BRANCH  55  58
ATOM     58  O   UNL     1       2.428  24.027  27.548  1.00  0.00    -0.443 OA
BRANCH  58  59
ATOM     59  C   UNL     1       2.956  24.316  26.262  1.00  0.00     0.294 C 
BRANCH  59  60
ATOM     60  C   UNL     1       3.983  25.409  26.420  1.00  0.00     0.121 A 
ATOM     61  C   UNL     1       4.884  25.871  25.489  1.00  0.00     0.144 A 
ATOM     62  N   UNL     1       4.193  26.127  27.537  1.00  0.00    -0.131 NA
ATOM     63  N   UNL     1       5.584  26.843  26.106  1.00  0.00    -0.219 N 
ATOM     64  N   UNL     1       5.160  26.993  27.346  1.00  0.00    -0.062 NA
BRANCH  63  65
ATOM     65  C   UNL     1       6.640  27.614  25.545  1.00  0.00     0.080 A 
ATOM     66  C   UNL     1       7.948  27.144  25.558  1.00  0.00     0.029 A 
ATOM     67  C   UNL     1       6.398  28.845  24.982  1.00  0.00     0.039 A 
ATOM     68  C   UNL     1       8.956  27.939  25.001  1.00  0.00     0.002 A 
ATOM     69  C   UNL     1       7.420  29.627  24.429  1.00  0.00     0.017 A 
ATOM     70  I   UNL     1       4.419  29.587  24.949  1.00  0.00    -0.042 I 
ATOM     71  C   UNL     1       8.712  29.169  24.438  1.00  0.00     0.001 A 
ENDBRANCH  63  65
ENDBRANCH  59  60
ENDBRANCH  58  59
ENDBRANCH  55  58
ENDBRANCH  53  54
ENDBRANCH  50  53
ENDBRANCH  47  50
ENDBRANCH   5  47
BRANCH   4  72
ATOM     72  N   UNL     1       2.251  17.876  34.511  1.00  0.00    -0.348 N 
ATOM     73  C   UNL     1       2.324  16.480  34.166  1.00  0.00     0.217 C 
ATOM     74  H   UNL     1       1.933  18.057  35.480  1.00  0.00     0.163 HD
ATOM     75  C   UNL     1       1.976  15.396  35.104  1.00  0.00     0.114 C 
ATOM     76  O   UNL     1       2.707  16.218  32.995  1.00  0.00    -0.275 OA
ENDBRANCH   4  72
TORSDOF 30
