REMARK VINA RESULT:    -4.840      5.967     16.231
REMARK INTER + INTRA:         -21.542
REMARK INTER:                 -15.751
REMARK INTRA:                  -5.791
REMARK UNBOUND:                -8.780
REMARK SMILES COc1ccc(Cn2cc(COC(=O)NC[C@@H](O)C(O)[C@@H]3O[C@@](OC[C@H]4O[C@@H](O[C@H]5[C@H](O)[C@@H](O)[C@H](OCCN=[N+]=[N-])O[C@@H]5CO)[C@H](O)[C@@H](O)[C@H]4O)(C(=O)O)C[C@H](O)[C@H]3NC(C)=O)nn2)cc1OC
REMARK SMILES IDX 23 1 55 2 56 3 58 4 21 5 22 6 24 7 25 8 26 9 28 10 27 11
REMARK SMILES IDX 46 12 48 13 50 14 29 15 30 16 43 17 42 18 35 19 31 20 33 21
REMARK SMILES IDX 44 22 45 23 36 25 37 26 38 27 39 28 40 29 41 30 32 31 34 33
REMARK SMILES IDX 47 35 49 37 51 39 52 41 53 42 54 43 57 45 19 47 20 48 17 50
REMARK SMILES IDX 18 51 16 53 15 54 13 55 14 57 12 58 11 59 10 60 9 61 63 62
REMARK SMILES IDX 8 63 64 64 7 65 6 66 65 67 5 68 66 69 4 70 3 71 67 72 68 73
REMARK SMILES IDX 2 74 1 75 59 76 60 77 61 79 62 80
REMARK H PARENT 45 24 32 32 34 34 47 36 49 38 51 40 54 44 57 46 20 49 18 52
REMARK H PARENT 15 56 59 78
REMARK Flexibility Score: inf
ROOT
ATOM      1  C   UNL     1      16.985  29.652  21.187  1.00  0.00     0.272 C 
ATOM      2  C   UNL     1      15.910  28.627  20.873  1.00  0.00     0.113 C 
ATOM      3  C   UNL     1      15.675  28.255  19.454  1.00  0.00     0.145 C 
ATOM      4  C   UNL     1      16.199  29.360  18.541  1.00  0.00     0.142 C 
ATOM      5  C   UNL     1      16.028  30.612  19.305  1.00  0.00     0.178 C 
ATOM      6  O   UNL     1      17.025  30.709  20.257  1.00  0.00    -0.332 OA
ENDROOT
BRANCH   1   7
ATOM      7  O   UNL     1      18.176  28.945  21.081  1.00  0.00    -0.338 OA
BRANCH   7   8
ATOM      8  C   UNL     1      19.329  29.664  21.004  1.00  0.00     0.199 C 
BRANCH   8   9
ATOM      9  C   UNL     1      20.469  28.811  20.519  1.00  0.00     0.179 C 
ATOM     10  C   UNL     1      21.589  26.845  20.733  1.00  0.00     0.282 C 
ATOM     11  O   UNL     1      20.289  27.466  20.891  1.00  0.00    -0.341 OA
ATOM     12  C   UNL     1      21.884  26.681  19.315  1.00  0.00     0.202 C 
ATOM     13  C   UNL     1      21.566  27.924  18.502  1.00  0.00     0.179 C 
ATOM     14  C   UNL     1      20.433  28.743  18.985  1.00  0.00     0.177 C 
BRANCH  10  15
ATOM     15  O   UNL     1      21.544  25.679  21.470  1.00  0.00    -0.341 OA
BRANCH  15  16
ATOM     16  C   UNL     1      22.325  25.803  22.620  1.00  0.00     0.184 C 
ATOM     17  C   UNL     1      23.191  24.633  22.875  1.00  0.00     0.178 C 
ATOM     18  O   UNL     1      24.106  24.984  23.864  1.00  0.00    -0.341 OA
ATOM     19  C   UNL     1      23.583  25.769  24.827  1.00  0.00     0.281 C 
ATOM     20  C   UNL     1      21.358  25.998  23.794  1.00  0.00     0.180 C 
ATOM     21  C   UNL     1      22.101  25.609  25.079  1.00  0.00     0.202 C 
BRANCH  17  22
ATOM     22  C   UNL     1      23.884  24.124  21.633  1.00  0.00     0.191 C 
BRANCH  22  23
ATOM     23  O   UNL     1      24.668  25.175  21.160  1.00  0.00    -0.394 OA
ATOM     24  H   UNL     1      24.066  25.883  20.780  1.00  0.00     0.210 HD
ENDBRANCH  22  23
ENDBRANCH  17  22
BRANCH  19  25
ATOM     25  O   UNL     1      23.755  27.142  24.425  1.00  0.00    -0.350 OA
BRANCH  25  26
ATOM     26  C   UNL     1      25.095  27.479  24.707  1.00  0.00     0.169 C 
BRANCH  26  27
ATOM     27  C   UNL     1      25.303  27.904  26.149  1.00  0.00     0.119 C 
BRANCH  27  28
ATOM     28  N   UNL     1      24.182  28.700  26.566  1.00  0.00    -0.092 NA
ATOM     29  N   UNL     1      23.401  28.328  27.446  1.00  0.00     0.001 N 
ATOM     30  N   UNL     1      22.710  27.621  28.207  1.00  0.00    -0.003 NA
ENDBRANCH  27  28
ENDBRANCH  26  27
ENDBRANCH  25  26
ENDBRANCH  19  25
BRANCH  20  31
ATOM     31  O   UNL     1      21.080  27.352  23.877  1.00  0.00    -0.387 OA
ATOM     32  H   UNL     1      21.939  27.833  24.079  1.00  0.00     0.211 HD
ENDBRANCH  20  31
BRANCH  21  33
ATOM     33  O   UNL     1      21.816  24.293  25.358  1.00  0.00    -0.385 OA
ATOM     34  H   UNL     1      22.454  23.665  24.921  1.00  0.00     0.211 HD
ENDBRANCH  21  33
ENDBRANCH  15  16
ENDBRANCH  10  15
BRANCH  12  35
ATOM     35  O   UNL     1      23.225  26.415  19.096  1.00  0.00    -0.385 OA
ATOM     36  H   UNL     1      23.407  25.434  19.025  1.00  0.00     0.211 HD
ENDBRANCH  12  35
BRANCH  13  37
ATOM     37  O   UNL     1      21.361  27.509  17.159  1.00  0.00    -0.387 OA
ATOM     38  H   UNL     1      21.555  26.536  17.133  1.00  0.00     0.211 HD
ENDBRANCH  13  37
BRANCH  14  39
ATOM     39  O   UNL     1      19.192  28.147  18.670  1.00  0.00    -0.387 OA
ATOM     40  H   UNL     1      19.286  27.135  18.602  1.00  0.00     0.211 HD
ENDBRANCH  14  39
ENDBRANCH   8   9
ENDBRANCH   7   8
ENDBRANCH   1   7
BRANCH   1  41
ATOM     41  C   UNL     1      16.701  30.222  22.529  1.00  0.00     0.364 C 
ATOM     42  O   UNL     1      16.602  29.507  23.529  1.00  0.00    -0.246 OA
BRANCH  41  43
ATOM     43  O   UNL     1      16.518  31.611  22.766  1.00  0.00    -0.477 OA
ATOM     44  H   UNL     1      16.647  32.225  21.928  1.00  0.00     0.296 HD
ENDBRANCH  41  43
ENDBRANCH   1  41
BRANCH   3  45
ATOM     45  O   UNL     1      16.307  27.082  19.121  1.00  0.00    -0.391 OA
ATOM     46  H   UNL     1      15.673  26.469  18.647  1.00  0.00     0.211 HD
ENDBRANCH   3  45
BRANCH   5  47
ATOM     47  C   UNL     1      15.766  31.792  18.487  1.00  0.00     0.176 C 
BRANCH  47  48
ATOM     48  O   UNL     1      14.596  31.780  17.737  1.00  0.00    -0.388 OA
ATOM     49  H   UNL     1      13.800  32.060  18.202  1.00  0.00     0.211 HD
ENDBRANCH  47  48
BRANCH  47  50
ATOM     50  C   UNL     1      15.358  32.997  19.495  1.00  0.00     0.165 C 
BRANCH  50  51
ATOM     51  O   UNL     1      16.467  33.346  20.163  1.00  0.00    -0.388 OA
ATOM     52  H   UNL     1      17.240  33.562  19.564  1.00  0.00     0.211 HD
ENDBRANCH  50  51
BRANCH  50  53
ATOM     53  C   UNL     1      14.098  32.705  20.137  1.00  0.00     0.154 C 
BRANCH  53  54
ATOM     54  N   UNL     1      13.857  32.793  21.538  1.00  0.00    -0.319 N 
ATOM     55  C   UNL     1      13.295  31.647  22.153  1.00  0.00     0.407 C 
ATOM     56  H   UNL     1      14.032  33.595  22.138  1.00  0.00     0.167 HD
ATOM     57  O   UNL     1      13.020  30.610  21.463  1.00  0.00    -0.225 OA
BRANCH  55  58
ATOM     58  O   UNL     1      12.995  31.524  23.505  1.00  0.00    -0.443 OA
BRANCH  58  59
ATOM     59  C   UNL     1      12.979  30.157  24.042  1.00  0.00     0.294 C 
BRANCH  59  60
ATOM     60  C   UNL     1      11.519  29.882  24.181  1.00  0.00     0.120 A 
ATOM     61  C   UNL     1      10.965  28.631  24.538  1.00  0.00     0.138 A 
ATOM     62  N   UNL     1      10.515  30.743  24.076  1.00  0.00    -0.132 NA
ATOM     63  N   UNL     1       9.630  28.842  24.629  1.00  0.00    -0.248 N 
ATOM     64  N   UNL     1       9.376  30.074  24.357  1.00  0.00    -0.067 NA
BRANCH  63  65
ATOM     65  C   UNL     1       8.651  27.802  25.047  1.00  0.00     0.181 C 
BRANCH  65  66
ATOM     66  C   UNL     1       7.311  28.524  24.901  1.00  0.00    -0.023 A 
ATOM     67  C   UNL     1       6.736  28.762  23.671  1.00  0.00     0.056 A 
ATOM     68  C   UNL     1       6.636  28.816  26.042  1.00  0.00     0.010 A 
ATOM     69  C   UNL     1       5.424  29.313  23.708  1.00  0.00     0.161 A 
ATOM     70  C   UNL     1       5.319  29.370  26.057  1.00  0.00     0.051 A 
ATOM     71  C   UNL     1       4.756  29.596  24.830  1.00  0.00     0.160 A 
BRANCH  69  72
ATOM     72  O   UNL     1       4.788  29.585  22.496  1.00  0.00    -0.493 OA
ATOM     73  C   UNL     1       5.318  30.530  21.560  1.00  0.00     0.278 C 
ENDBRANCH  69  72
BRANCH  71  74
ATOM     74  O   UNL     1       3.435  30.119  24.741  1.00  0.00    -0.493 OA
ATOM     75  C   UNL     1       2.559  29.945  25.875  1.00  0.00     0.278 C 
ENDBRANCH  71  74
ENDBRANCH  65  66
ENDBRANCH  63  65
ENDBRANCH  59  60
ENDBRANCH  58  59
ENDBRANCH  55  58
ENDBRANCH  53  54
ENDBRANCH  50  53
ENDBRANCH  47  50
ENDBRANCH   5  47
BRANCH   4  76
ATOM     76  N   UNL     1      15.482  29.300  17.296  1.00  0.00    -0.348 N 
ATOM     77  C   UNL     1      16.164  28.950  16.125  1.00  0.00     0.217 C 
ATOM     78  H   UNL     1      14.445  29.487  17.208  1.00  0.00     0.163 HD
ATOM     79  C   UNL     1      15.575  28.867  14.753  1.00  0.00     0.114 C 
ATOM     80  O   UNL     1      17.428  28.655  16.117  1.00  0.00    -0.275 OA
ENDBRANCH   4  76
TORSDOF 33
