REMARK VINA RESULT:    -6.057     14.118     21.196
REMARK INTER + INTRA:         -21.688
REMARK INTER:                 -15.279
REMARK INTRA:                  -6.409
REMARK UNBOUND:                -6.778
REMARK SMILES CC(=O)N[C@@H]1[C@@H](O)C[C@](OC[C@H]2O[C@@H](O[C@H]3[C@H](O)[C@@H](O)[C@H](OCCN=[N+]=[N-])O[C@@H]3CO)[C@H](O)[C@@H](O)[C@H]2O)(C(=O)O)O[C@H]1C(O)[C@H](O)CNC(=O)OCc1cn(-c2ccc3c(c2)OCO3)nn1
REMARK SMILES IDX 9 1 8 2 6 3 5 4 42 5 41 6 10 7 11 8 12 9 14 10 13 11 32 12
REMARK SMILES IDX 34 13 36 14 15 15 16 16 29 17 28 18 21 19 17 20 19 21 30 22
REMARK SMILES IDX 31 23 22 25 23 26 24 27 25 28 26 29 27 30 18 31 20 33 33 35
REMARK SMILES IDX 35 37 37 39 38 41 39 42 40 43 7 45 43 47 44 48 45 50 46 51
REMARK SMILES IDX 47 53 48 54 49 55 50 57 51 58 52 59 53 60 54 61 66 62 55 63
REMARK SMILES IDX 65 64 56 65 57 66 61 67 58 68 60 69 59 70 62 71 64 72 63 73
REMARK SMILES IDX 4 74 2 75 1 77 3 78
REMARK H PARENT 31 24 18 32 20 34 33 36 35 38 37 40 40 44 7 46 44 49 46 52
REMARK H PARENT 48 56 4 76
REMARK Flexibility Score: inf
ROOT
ATOM      1  C   UNL     1       2.230  26.177  25.971  1.00  0.00     0.272 C 
ATOM      2  C   UNL     1       3.432  26.139  25.069  1.00  0.00     0.113 C 
ATOM      3  C   UNL     1       4.697  25.676  25.814  1.00  0.00     0.145 C 
ATOM      4  C   UNL     1       5.008  26.787  26.795  1.00  0.00     0.142 C 
ATOM      5  C   UNL     1       3.736  26.998  27.589  1.00  0.00     0.178 C 
ATOM      6  O   UNL     1       2.725  26.144  27.306  1.00  0.00    -0.332 OA
ENDROOT
BRANCH   1   7
ATOM      7  O   UNL     1       1.435  25.124  25.871  1.00  0.00    -0.338 OA
BRANCH   7   8
ATOM      8  C   UNL     1       1.606  23.847  26.027  1.00  0.00     0.199 C 
BRANCH   8   9
ATOM      9  C   UNL     1       0.637  22.994  26.801  1.00  0.00     0.179 C 
ATOM     10  C   UNL     1       0.694  21.194  28.276  1.00  0.00     0.282 C 
ATOM     11  O   UNL     1       1.313  21.903  27.281  1.00  0.00    -0.341 OA
ATOM     12  C   UNL     1      -0.734  21.567  28.495  1.00  0.00     0.202 C 
ATOM     13  C   UNL     1      -0.895  23.055  28.758  1.00  0.00     0.179 C 
ATOM     14  C   UNL     1       0.117  23.842  27.990  1.00  0.00     0.177 C 
BRANCH  10  15
ATOM     15  O   UNL     1       1.375  21.490  29.474  1.00  0.00    -0.341 OA
BRANCH  15  16
ATOM     16  C   UNL     1       2.147  20.451  29.927  1.00  0.00     0.184 C 
ATOM     17  C   UNL     1       1.505  19.842  31.145  1.00  0.00     0.178 C 
ATOM     18  O   UNL     1       1.835  20.469  32.323  1.00  0.00    -0.341 OA
ATOM     19  C   UNL     1       2.130  21.823  32.155  1.00  0.00     0.281 C 
ATOM     20  C   UNL     1       3.520  21.009  30.223  1.00  0.00     0.180 C 
ATOM     21  C   UNL     1       3.379  22.026  31.334  1.00  0.00     0.202 C 
BRANCH  17  22
ATOM     22  C   UNL     1       1.874  18.373  31.295  1.00  0.00     0.191 C 
BRANCH  22  23
ATOM     23  O   UNL     1       2.777  18.182  32.333  1.00  0.00    -0.394 OA
ATOM     24  H   UNL     1       2.721  17.256  32.724  1.00  0.00     0.210 HD
ENDBRANCH  22  23
ENDBRANCH  17  22
BRANCH  19  25
ATOM     25  O   UNL     1       2.370  22.316  33.430  1.00  0.00    -0.350 OA
BRANCH  25  26
ATOM     26  C   UNL     1       3.064  21.357  34.159  1.00  0.00     0.169 C 
BRANCH  26  27
ATOM     27  C   UNL     1       2.522  21.248  35.580  1.00  0.00     0.119 C 
BRANCH  27  28
ATOM     28  N   UNL     1       3.276  20.167  36.232  1.00  0.00    -0.092 NA
ATOM     29  N   UNL     1       3.139  18.999  35.809  1.00  0.00     0.001 N 
ATOM     30  N   UNL     1       2.829  17.917  35.279  1.00  0.00    -0.003 NA
ENDBRANCH  27  28
ENDBRANCH  26  27
ENDBRANCH  25  26
ENDBRANCH  19  25
BRANCH  20  31
ATOM     31  O   UNL     1       4.457  20.038  30.510  1.00  0.00    -0.387 OA
ATOM     32  H   UNL     1       5.403  20.369  30.489  1.00  0.00     0.211 HD
ENDBRANCH  20  31
BRANCH  21  33
ATOM     33  O   UNL     1       3.290  23.287  30.739  1.00  0.00    -0.385 OA
ATOM     34  H   UNL     1       4.155  23.769  30.727  1.00  0.00     0.211 HD
ENDBRANCH  21  33
ENDBRANCH  15  16
ENDBRANCH  10  15
BRANCH  12  35
ATOM     35  O   UNL     1      -1.591  21.204  27.459  1.00  0.00    -0.385 OA
ATOM     36  H   UNL     1      -2.439  21.738  27.560  1.00  0.00     0.211 HD
ENDBRANCH  12  35
BRANCH  13  37
ATOM     37  O   UNL     1      -0.750  23.266  30.131  1.00  0.00    -0.387 OA
ATOM     38  H   UNL     1      -1.480  22.905  30.667  1.00  0.00     0.211 HD
ENDBRANCH  13  37
BRANCH  14  39
ATOM     39  O   UNL     1       1.174  24.152  28.841  1.00  0.00    -0.387 OA
ATOM     40  H   UNL     1       1.700  24.918  28.556  1.00  0.00     0.211 HD
ENDBRANCH  14  39
ENDBRANCH   8   9
ENDBRANCH   7   8
ENDBRANCH   1   7
BRANCH   1  41
ATOM     41  C   UNL     1       1.511  27.487  25.850  1.00  0.00     0.364 C 
ATOM     42  O   UNL     1       0.261  27.461  26.127  1.00  0.00    -0.246 OA
BRANCH  41  43
ATOM     43  O   UNL     1       2.058  28.672  25.476  1.00  0.00    -0.477 OA
ATOM     44  H   UNL     1       1.650  29.294  24.796  1.00  0.00     0.296 HD
ENDBRANCH  41  43
ENDBRANCH   1  41
BRANCH   3  45
ATOM     45  O   UNL     1       4.322  24.502  26.482  1.00  0.00    -0.391 OA
ATOM     46  H   UNL     1       4.311  23.742  25.860  1.00  0.00     0.211 HD
ENDBRANCH   3  45
BRANCH   5  47
ATOM     47  C   UNL     1       4.135  26.688  29.047  1.00  0.00     0.176 C 
BRANCH  47  48
ATOM     48  O   UNL     1       5.379  26.138  29.156  1.00  0.00    -0.388 OA
ATOM     49  H   UNL     1       5.695  26.018  30.086  1.00  0.00     0.211 HD
ENDBRANCH  47  48
BRANCH  47  50
ATOM     50  C   UNL     1       4.041  27.936  29.916  1.00  0.00     0.165 C 
BRANCH  50  51
ATOM     51  O   UNL     1       5.253  28.407  30.297  1.00  0.00    -0.388 OA
ATOM     52  H   UNL     1       5.410  29.368  30.196  1.00  0.00     0.211 HD
ENDBRANCH  50  51
BRANCH  50  53
ATOM     53  C   UNL     1       3.187  27.565  31.088  1.00  0.00     0.154 C 
BRANCH  53  54
ATOM     54  N   UNL     1       3.507  26.276  31.615  1.00  0.00    -0.319 N 
ATOM     55  C   UNL     1       4.491  26.003  32.600  1.00  0.00     0.407 C 
ATOM     56  H   UNL     1       2.986  25.394  31.270  1.00  0.00     0.167 HD
ATOM     57  O   UNL     1       5.164  26.925  33.105  1.00  0.00    -0.225 OA
BRANCH  55  58
ATOM     58  O   UNL     1       4.741  24.699  33.038  1.00  0.00    -0.443 OA
BRANCH  58  59
ATOM     59  C   UNL     1       5.165  24.384  34.336  1.00  0.00     0.294 C 
BRANCH  59  60
ATOM     60  C   UNL     1       6.609  23.975  34.279  1.00  0.00     0.121 A 
ATOM     61  C   UNL     1       7.679  24.688  34.823  1.00  0.00     0.144 A 
ATOM     62  N   UNL     1       7.153  22.884  33.726  1.00  0.00    -0.131 NA
ATOM     63  N   UNL     1       8.819  24.006  34.579  1.00  0.00    -0.220 N 
ATOM     64  N   UNL     1       8.449  22.923  33.914  1.00  0.00    -0.062 NA
BRANCH  63  65
ATOM     65  C   UNL     1      10.133  24.346  34.948  1.00  0.00     0.070 A 
ATOM     66  C   UNL     1      10.847  23.547  35.797  1.00  0.00     0.032 A 
ATOM     67  C   UNL     1      10.720  25.487  34.458  1.00  0.00     0.079 A 
ATOM     68  C   UNL     1      12.157  23.898  36.154  1.00  0.00     0.053 A 
ATOM     69  C   UNL     1      12.007  25.847  34.798  1.00  0.00     0.167 A 
ATOM     70  C   UNL     1      12.720  25.043  35.649  1.00  0.00     0.165 A 
ATOM     71  O   UNL     1      12.781  26.926  34.433  1.00  0.00    -0.454 OA
ATOM     72  O   UNL     1      13.971  25.618  35.831  1.00  0.00    -0.454 OA
ATOM     73  C   UNL     1      13.908  26.921  35.318  1.00  0.00     0.468 C 
ENDBRANCH  63  65
ENDBRANCH  59  60
ENDBRANCH  58  59
ENDBRANCH  55  58
ENDBRANCH  53  54
ENDBRANCH  50  53
ENDBRANCH  47  50
ENDBRANCH   5  47
BRANCH   4  74
ATOM     74  N   UNL     1       5.454  27.942  26.077  1.00  0.00    -0.348 N 
ATOM     75  C   UNL     1       6.842  28.125  25.727  1.00  0.00     0.217 C 
ATOM     76  H   UNL     1       4.839  28.721  25.760  1.00  0.00     0.163 HD
ATOM     77  C   UNL     1       7.293  29.330  24.980  1.00  0.00     0.114 C 
ATOM     78  O   UNL     1       7.665  27.264  26.055  1.00  0.00    -0.275 OA
ENDBRANCH   4  74
TORSDOF 30
