REMARK VINA RESULT:    -5.494     14.443     19.942
REMARK INTER + INTRA:         -21.370
REMARK INTER:                 -12.763
REMARK INTRA:                  -8.607
REMARK UNBOUND:                -7.364
REMARK SMILES CC(=O)N[C@@H]1[C@@H](O)C[C@](OC[C@H]2O[C@@H](O[C@H]3[C@H](O)[C@@H](O)[C@H](OCCN=[N+]=[N-])O[C@@H]3CO)[C@H](O)[C@@H](O)[C@H]2O)(C(=O)O)O[C@H]1C(O)[C@H](O)CNC(=O)OCc1cn([C@@H](C)C(=O)O)nn1
REMARK SMILES IDX 9 1 8 2 6 3 5 4 42 5 41 6 10 7 11 8 12 9 14 10 13 11 32 12
REMARK SMILES IDX 34 13 36 14 15 15 16 16 29 17 28 18 21 19 17 20 19 21 30 22
REMARK SMILES IDX 31 23 22 25 23 26 24 27 25 28 26 29 27 30 18 31 20 33 33 35
REMARK SMILES IDX 35 37 37 39 38 41 39 42 40 43 7 45 43 47 44 48 45 50 46 51
REMARK SMILES IDX 47 53 48 54 49 55 50 57 51 58 52 59 53 60 54 61 62 62 55 63
REMARK SMILES IDX 61 64 56 65 57 66 58 67 59 68 60 69 4 71 2 72 1 74 3 75
REMARK H PARENT 31 24 18 32 20 34 33 36 35 38 37 40 40 44 7 46 44 49 46 52
REMARK H PARENT 48 56 60 70 4 73
REMARK Flexibility Score: inf
ROOT
ATOM      1  C   UNL     1      22.205  25.400  21.905  1.00  0.00     0.272 C 
ATOM      2  C   UNL     1      21.420  24.774  22.991  1.00  0.00     0.113 C 
ATOM      3  C   UNL     1      21.162  25.845  24.026  1.00  0.00     0.145 C 
ATOM      4  C   UNL     1      22.572  26.019  24.698  1.00  0.00     0.142 C 
ATOM      5  C   UNL     1      23.620  26.037  23.692  1.00  0.00     0.178 C 
ATOM      6  O   UNL     1      23.252  26.194  22.382  1.00  0.00    -0.332 OA
ENDROOT
BRANCH   1   7
ATOM      7  O   UNL     1      21.432  26.089  21.022  1.00  0.00    -0.338 OA
BRANCH   7   8
ATOM      8  C   UNL     1      21.991  26.603  19.912  1.00  0.00     0.199 C 
BRANCH   8   9
ATOM      9  C   UNL     1      21.308  27.934  19.511  1.00  0.00     0.179 C 
ATOM     10  C   UNL     1      19.194  28.845  19.341  1.00  0.00     0.282 C 
ATOM     11  O   UNL     1      19.977  27.792  19.802  1.00  0.00    -0.341 OA
ATOM     12  C   UNL     1      20.011  29.998  18.837  1.00  0.00     0.202 C 
ATOM     13  C   UNL     1      21.130  30.328  19.805  1.00  0.00     0.179 C 
ATOM     14  C   UNL     1      21.902  29.092  20.236  1.00  0.00     0.177 C 
BRANCH  10  15
ATOM     15  O   UNL     1      18.330  29.349  20.323  1.00  0.00    -0.341 OA
BRANCH  15  16
ATOM     16  C   UNL     1      17.343  30.155  19.774  1.00  0.00     0.184 C 
ATOM     17  C   UNL     1      16.556  30.818  20.860  1.00  0.00     0.178 C 
ATOM     18  O   UNL     1      15.252  30.327  20.944  1.00  0.00    -0.341 OA
ATOM     19  C   UNL     1      15.241  28.931  21.024  1.00  0.00     0.281 C 
ATOM     20  C   UNL     1      16.450  29.280  18.928  1.00  0.00     0.180 C 
ATOM     21  C   UNL     1      15.643  28.293  19.725  1.00  0.00     0.202 C 
BRANCH  17  22
ATOM     22  C   UNL     1      16.473  32.314  20.668  1.00  0.00     0.191 C 
BRANCH  22  23
ATOM     23  O   UNL     1      15.357  32.862  21.297  1.00  0.00    -0.394 OA
ATOM     24  H   UNL     1      14.855  33.412  20.663  1.00  0.00     0.210 HD
ENDBRANCH  22  23
ENDBRANCH  17  22
BRANCH  19  25
ATOM     25  O   UNL     1      13.938  28.569  21.315  1.00  0.00    -0.350 OA
BRANCH  25  26
ATOM     26  C   UNL     1      13.217  29.694  21.657  1.00  0.00     0.169 C 
BRANCH  26  27
ATOM     27  C   UNL     1      12.659  29.565  23.060  1.00  0.00     0.119 C 
BRANCH  27  28
ATOM     28  N   UNL     1      13.435  30.431  23.944  1.00  0.00    -0.092 NA
ATOM     29  N   UNL     1      14.555  30.120  24.351  1.00  0.00     0.001 N 
ATOM     30  N   UNL     1      15.732  29.842  24.498  1.00  0.00    -0.003 NA
ENDBRANCH  27  28
ENDBRANCH  26  27
ENDBRANCH  25  26
ENDBRANCH  19  25
BRANCH  20  31
ATOM     31  O   UNL     1      15.597  30.028  18.119  1.00  0.00    -0.387 OA
ATOM     32  H   UNL     1      15.959  30.905  17.866  1.00  0.00     0.211 HD
ENDBRANCH  20  31
BRANCH  21  33
ATOM     33  O   UNL     1      16.408  27.164  20.010  1.00  0.00    -0.385 OA
ATOM     34  H   UNL     1      17.320  27.410  20.291  1.00  0.00     0.211 HD
ENDBRANCH  21  33
ENDBRANCH  15  16
ENDBRANCH  10  15
BRANCH  12  35
ATOM     35  O   UNL     1      20.437  29.869  17.537  1.00  0.00    -0.385 OA
ATOM     36  H   UNL     1      20.898  28.981  17.412  1.00  0.00     0.211 HD
ENDBRANCH  12  35
BRANCH  13  37
ATOM     37  O   UNL     1      20.523  30.902  20.943  1.00  0.00    -0.387 OA
ATOM     38  H   UNL     1      20.776  30.406  21.766  1.00  0.00     0.211 HD
ENDBRANCH  13  37
BRANCH  14  39
ATOM     39  O   UNL     1      21.833  28.920  21.618  1.00  0.00    -0.387 OA
ATOM     40  H   UNL     1      22.283  29.679  22.070  1.00  0.00     0.211 HD
ENDBRANCH  14  39
ENDBRANCH   8   9
ENDBRANCH   7   8
ENDBRANCH   1   7
BRANCH   1  41
ATOM     41  C   UNL     1      22.918  24.311  21.185  1.00  0.00     0.364 C 
ATOM     42  O   UNL     1      22.288  23.336  20.750  1.00  0.00    -0.246 OA
BRANCH  41  43
ATOM     43  O   UNL     1      24.290  24.358  20.985  1.00  0.00    -0.477 OA
ATOM     44  H   UNL     1      24.727  25.163  20.512  1.00  0.00     0.296 HD
ENDBRANCH  41  43
ENDBRANCH   1  41
BRANCH   3  45
ATOM     45  O   UNL     1      20.940  27.042  23.356  1.00  0.00    -0.391 OA
ATOM     46  H   UNL     1      20.540  27.731  23.912  1.00  0.00     0.211 HD
ENDBRANCH   3  45
BRANCH   5  47
ATOM     47  C   UNL     1      24.778  26.991  23.936  1.00  0.00     0.176 C 
BRANCH  47  48
ATOM     48  O   UNL     1      25.479  26.493  25.093  1.00  0.00    -0.388 OA
ATOM     49  H   UNL     1      25.294  25.545  25.194  1.00  0.00     0.211 HD
ENDBRANCH  47  48
BRANCH  47  50
ATOM     50  C   UNL     1      24.351  28.377  24.377  1.00  0.00     0.165 C 
BRANCH  50  51
ATOM     51  O   UNL     1      23.856  29.185  23.402  1.00  0.00    -0.388 OA
ATOM     52  H   UNL     1      23.119  29.788  23.645  1.00  0.00     0.211 HD
ENDBRANCH  50  51
BRANCH  50  53
ATOM     53  C   UNL     1      25.330  29.001  25.313  1.00  0.00     0.154 C 
BRANCH  53  54
ATOM     54  N   UNL     1      24.844  29.437  26.569  1.00  0.00    -0.319 N 
ATOM     55  C   UNL     1      24.751  28.681  27.767  1.00  0.00     0.407 C 
ATOM     56  H   UNL     1      24.510  30.449  26.618  1.00  0.00     0.167 HD
ATOM     57  O   UNL     1      25.133  27.505  27.769  1.00  0.00    -0.225 OA
BRANCH  55  58
ATOM     58  O   UNL     1      24.228  29.275  28.927  1.00  0.00    -0.443 OA
BRANCH  58  59
ATOM     59  C   UNL     1      22.843  29.328  29.144  1.00  0.00     0.294 C 
BRANCH  59  60
ATOM     60  C   UNL     1      22.118  30.075  28.109  1.00  0.00     0.120 A 
ATOM     61  C   UNL     1      21.051  29.679  27.333  1.00  0.00     0.139 A 
ATOM     62  N   UNL     1      22.426  31.351  27.758  1.00  0.00    -0.132 NA
ATOM     63  N   UNL     1      20.744  30.710  26.544  1.00  0.00    -0.238 N 
ATOM     64  N   UNL     1      21.569  31.719  26.795  1.00  0.00    -0.066 NA
BRANCH  63  65
ATOM     65  C   UNL     1      19.681  30.734  25.560  1.00  0.00     0.215 C 
ATOM     66  C   UNL     1      19.054  32.093  25.527  1.00  0.00     0.046 C 
BRANCH  65  67
ATOM     67  C   UNL     1      20.184  30.369  24.215  1.00  0.00     0.328 C 
ATOM     68  O   UNL     1      19.492  29.600  23.504  1.00  0.00    -0.250 OA
BRANCH  67  69
ATOM     69  O   UNL     1      21.387  30.847  23.716  1.00  0.00    -0.480 OA
ATOM     70  H   UNL     1      21.577  30.879  22.721  1.00  0.00     0.296 HD
ENDBRANCH  67  69
ENDBRANCH  65  67
ENDBRANCH  63  65
ENDBRANCH  59  60
ENDBRANCH  58  59
ENDBRANCH  55  58
ENDBRANCH  53  54
ENDBRANCH  50  53
ENDBRANCH  47  50
ENDBRANCH   5  47
BRANCH   4  71
ATOM     71  N   UNL     1      22.683  25.002  25.726  1.00  0.00    -0.348 N 
ATOM     72  C   UNL     1      22.471  25.165  27.094  1.00  0.00     0.217 C 
ATOM     73  H   UNL     1      22.956  24.035  25.386  1.00  0.00     0.163 HD
ATOM     74  C   UNL     1      22.620  24.042  28.051  1.00  0.00     0.114 C 
ATOM     75  O   UNL     1      22.149  26.286  27.528  1.00  0.00    -0.275 OA
ENDBRANCH   4  71
TORSDOF 32
