REMARK VINA RESULT:    -5.691      7.890     13.568
REMARK INTER + INTRA:         -23.143
REMARK INTER:                 -16.057
REMARK INTRA:                  -7.086
REMARK UNBOUND:                -7.304
REMARK SMILES CC(=O)N[C@@H]1[C@@H](O)C[C@](OC[C@H]2O[C@@H](O[C@H]3[C@H](O)[C@@H](O)[C@H](OCCN=[N+]=[N-])O[C@@H]3CO)[C@H](O)[C@@H](O)[C@H]2O)(C(=O)O)O[C@H]1C(O)[C@H](O)CNC(=O)OCc1cn(CCCCCC(=O)O)nn1
REMARK SMILES IDX 47 1 45 2 43 3 42 4 9 5 8 6 41 7 6 8 5 9 10 10 11 11 12 12
REMARK SMILES IDX 14 13 13 14 32 15 34 16 36 17 15 18 16 19 29 20 28 21 21 22
REMARK SMILES IDX 17 23 19 24 30 25 31 26 22 28 23 29 24 30 25 31 26 32 27 33
REMARK SMILES IDX 18 34 20 36 33 38 35 40 37 42 38 44 39 45 40 46 7 48 4 50
REMARK SMILES IDX 2 51 1 53 3 54 44 55 46 57 48 59 49 60 50 62 51 63 52 64
REMARK SMILES IDX 53 65 54 66 65 67 55 68 64 69 56 70 57 71 58 72 59 73 60 74
REMARK SMILES IDX 61 75 62 76 63 77
REMARK H PARENT 31 27 18 35 20 37 33 39 35 41 37 43 40 47 7 49 4 52 44 56
REMARK H PARENT 46 58 48 61 63 78
REMARK Flexibility Score: inf
ROOT
ATOM      1  C   UNL     1      24.704  18.777  11.698  1.00  0.00     0.154 C 
ENDROOT
BRANCH   1   2
ATOM      2  C   UNL     1      23.824  18.244  12.803  1.00  0.00     0.165 C 
BRANCH   2   3
ATOM      3  C   UNL     1      22.471  18.846  12.607  1.00  0.00     0.176 C 
BRANCH   3   4
ATOM      4  C   UNL     1      22.430  20.324  12.426  1.00  0.00     0.178 C 
ATOM      5  C   UNL     1      23.003  22.320  13.300  1.00  0.00     0.272 C 
ATOM      6  C   UNL     1      22.795  22.784  11.895  1.00  0.00     0.113 C 
ATOM      7  O   UNL     1      22.497  21.061  13.596  1.00  0.00    -0.332 OA
ATOM      8  C   UNL     1      21.669  22.197  11.133  1.00  0.00     0.145 C 
ATOM      9  C   UNL     1      21.212  20.843  11.694  1.00  0.00     0.142 C 
BRANCH   5  10
ATOM     10  O   UNL     1      22.612  23.268  14.243  1.00  0.00    -0.338 OA
BRANCH  10  11
ATOM     11  C   UNL     1      23.008  24.550  14.041  1.00  0.00     0.199 C 
BRANCH  11  12
ATOM     12  C   UNL     1      23.135  25.188  15.412  1.00  0.00     0.179 C 
ATOM     13  C   UNL     1      23.534  24.937  17.599  1.00  0.00     0.282 C 
ATOM     14  O   UNL     1      23.899  24.455  16.307  1.00  0.00    -0.341 OA
ATOM     15  C   UNL     1      23.252  26.370  17.663  1.00  0.00     0.202 C 
ATOM     16  C   UNL     1      23.769  27.226  16.542  1.00  0.00     0.179 C 
ATOM     17  C   UNL     1      23.882  26.497  15.230  1.00  0.00     0.177 C 
BRANCH  13  18
ATOM     18  O   UNL     1      24.374  24.377  18.557  1.00  0.00    -0.341 OA
BRANCH  18  19
ATOM     19  C   UNL     1      24.488  25.062  19.709  1.00  0.00     0.184 C 
ATOM     20  C   UNL     1      25.864  25.004  20.300  1.00  0.00     0.178 C 
ATOM     21  O   UNL     1      25.912  26.061  21.232  1.00  0.00    -0.341 OA
ATOM     22  C   UNL     1      25.117  25.808  22.298  1.00  0.00     0.281 C 
ATOM     23  C   UNL     1      23.616  24.391  20.826  1.00  0.00     0.180 C 
ATOM     24  C   UNL     1      24.289  24.588  22.161  1.00  0.00     0.202 C 
BRANCH  20  25
ATOM     25  C   UNL     1      26.967  25.247  19.304  1.00  0.00     0.191 C 
BRANCH  25  26
ATOM     26  O   UNL     1      26.687  26.342  18.515  1.00  0.00    -0.394 OA
ATOM     27  H   UNL     1      27.149  27.126  18.915  1.00  0.00     0.210 HD
ENDBRANCH  25  26
ENDBRANCH  20  25
BRANCH  22  28
ATOM     28  O   UNL     1      24.328  26.902  22.678  1.00  0.00    -0.350 OA
BRANCH  28  29
ATOM     29  C   UNL     1      23.524  26.628  23.755  1.00  0.00     0.169 C 
BRANCH  29  30
ATOM     30  C   UNL     1      22.222  27.407  23.633  1.00  0.00     0.119 C 
BRANCH  30  31
ATOM     31  N   UNL     1      21.104  26.628  24.137  1.00  0.00    -0.092 NA
ATOM     32  N   UNL     1      21.065  25.401  23.925  1.00  0.00     0.001 N 
ATOM     33  N   UNL     1      20.727  24.342  23.395  1.00  0.00    -0.003 NA
ENDBRANCH  30  31
ENDBRANCH  29  30
ENDBRANCH  28  29
ENDBRANCH  22  28
BRANCH  23  34
ATOM     34  O   UNL     1      22.386  25.045  20.874  1.00  0.00    -0.387 OA
ATOM     35  H   UNL     1      22.419  25.738  21.595  1.00  0.00     0.211 HD
ENDBRANCH  23  34
BRANCH  24  36
ATOM     36  O   UNL     1      24.904  23.422  22.635  1.00  0.00    -0.385 OA
ATOM     37  H   UNL     1      24.781  22.655  22.022  1.00  0.00     0.211 HD
ENDBRANCH  24  36
ENDBRANCH  18  19
ENDBRANCH  13  18
BRANCH  15  38
ATOM     38  O   UNL     1      21.852  26.630  17.711  1.00  0.00    -0.385 OA
ATOM     39  H   UNL     1      21.679  27.578  17.566  1.00  0.00     0.211 HD
ENDBRANCH  15  38
BRANCH  16  40
ATOM     40  O   UNL     1      25.038  27.768  16.817  1.00  0.00    -0.387 OA
ATOM     41  H   UNL     1      25.349  28.379  16.125  1.00  0.00     0.211 HD
ENDBRANCH  16  40
BRANCH  17  42
ATOM     42  O   UNL     1      25.238  26.141  15.014  1.00  0.00    -0.387 OA
ATOM     43  H   UNL     1      25.660  26.968  14.620  1.00  0.00     0.211 HD
ENDBRANCH  17  42
ENDBRANCH  11  12
ENDBRANCH  10  11
ENDBRANCH   5  10
BRANCH   5  44
ATOM     44  C   UNL     1      24.475  22.190  13.486  1.00  0.00     0.364 C 
ATOM     45  O   UNL     1      25.263  22.436  12.546  1.00  0.00    -0.246 OA
BRANCH  44  46
ATOM     46  O   UNL     1      24.986  21.797  14.698  1.00  0.00    -0.477 OA
ATOM     47  H   UNL     1      24.393  21.541  15.506  1.00  0.00     0.296 HD
ENDBRANCH  44  46
ENDBRANCH   5  44
BRANCH   8  48
ATOM     48  O   UNL     1      20.596  23.052  10.897  1.00  0.00    -0.391 OA
ATOM     49  H   UNL     1      20.641  23.338   9.957  1.00  0.00     0.211 HD
ENDBRANCH   8  48
BRANCH   9  50
ATOM     50  N   UNL     1      20.715  19.990  10.672  1.00  0.00    -0.348 N 
ATOM     51  C   UNL     1      19.425  19.420  10.801  1.00  0.00     0.217 C 
ATOM     52  H   UNL     1      21.274  19.779   9.835  1.00  0.00     0.163 HD
ATOM     53  C   UNL     1      18.879  18.528   9.745  1.00  0.00     0.114 C 
ATOM     54  O   UNL     1      18.688  19.641  11.806  1.00  0.00    -0.275 OA
ENDBRANCH   9  50
ENDBRANCH   3   4
BRANCH   3  55
ATOM     55  O   UNL     1      21.600  18.495  13.663  1.00  0.00    -0.388 OA
ATOM     56  H   UNL     1      21.110  19.291  13.970  1.00  0.00     0.211 HD
ENDBRANCH   3  55
ENDBRANCH   2   3
BRANCH   2  57
ATOM     57  O   UNL     1      24.370  18.643  14.017  1.00  0.00    -0.388 OA
ATOM     58  H   UNL     1      23.615  18.929  14.592  1.00  0.00     0.211 HD
ENDBRANCH   2  57
ENDBRANCH   1   2
BRANCH   1  59
ATOM     59  N   UNL     1      26.004  19.186  12.126  1.00  0.00    -0.319 N 
ATOM     60  C   UNL     1      27.099  18.287  11.921  1.00  0.00     0.407 C 
ATOM     61  H   UNL     1      26.189  20.096  12.576  1.00  0.00     0.167 HD
ATOM     62  O   UNL     1      26.913  17.170  11.377  1.00  0.00    -0.225 OA
BRANCH  60  63
ATOM     63  O   UNL     1      28.381  18.600  12.307  1.00  0.00    -0.443 OA
BRANCH  63  64
ATOM     64  C   UNL     1      28.940  18.278  13.532  1.00  0.00     0.294 C 
BRANCH  64  65
ATOM     65  C   UNL     1      28.575  19.127  14.672  1.00  0.00     0.120 A 
ATOM     66  C   UNL     1      29.404  19.627  15.643  1.00  0.00     0.138 A 
ATOM     67  N   UNL     1      27.325  19.552  14.965  1.00  0.00    -0.132 NA
ATOM     68  N   UNL     1      28.654  20.333  16.491  1.00  0.00    -0.252 N 
ATOM     69  N   UNL     1      27.412  20.267  16.054  1.00  0.00    -0.067 NA
BRANCH  68  70
ATOM     70  C   UNL     1      29.136  21.044  17.667  1.00  0.00     0.146 C 
BRANCH  70  71
ATOM     71  C   UNL     1      28.254  20.650  18.852  1.00  0.00     0.024 C 
BRANCH  71  72
ATOM     72  C   UNL     1      27.831  21.854  19.641  1.00  0.00     0.002 C 
BRANCH  72  73
ATOM     73  C   UNL     1      28.079  21.618  21.103  1.00  0.00     0.012 C 
BRANCH  73  74
ATOM     74  C   UNL     1      28.617  20.258  21.402  1.00  0.00     0.122 C 
BRANCH  74  75
ATOM     75  C   UNL     1      29.457  20.313  22.630  1.00  0.00     0.303 C 
ATOM     76  O   UNL     1      30.269  19.393  22.874  1.00  0.00    -0.252 OA
BRANCH  75  77
ATOM     77  O   UNL     1      29.359  21.379  23.520  1.00  0.00    -0.481 OA
ATOM     78  H   UNL     1      29.111  21.199  24.495  1.00  0.00     0.296 HD
ENDBRANCH  75  77
ENDBRANCH  74  75
ENDBRANCH  73  74
ENDBRANCH  72  73
ENDBRANCH  71  72
ENDBRANCH  70  71
ENDBRANCH  68  70
ENDBRANCH  64  65
ENDBRANCH  63  64
ENDBRANCH  60  63
ENDBRANCH   1  59
TORSDOF 36
