REMARK VINA RESULT:    -5.176      8.702     13.346
REMARK INTER + INTRA:         -22.367
REMARK INTER:                 -16.694
REMARK INTRA:                  -5.673
REMARK UNBOUND:                -8.417
REMARK SMILES CC(=O)N[C@@H]1[C@@H](O)C[C@](OC[C@H]2O[C@@H](O[C@H]3[C@H](O)[C@@H](O)[C@H](OCCN=[N+]=[N-])O[C@@H]3CO)[C@H](O)[C@@H](O)[C@H]2O)(C(=O)O)O[C@H]1C(O)[C@H](O)CNC(=O)OCc1cn(CCNC(=O)NCc2ccco2)nn1
REMARK SMILES IDX 43 1 42 2 9 3 8 4 41 5 6 6 5 7 10 8 11 9 12 10 14 11 13 12
REMARK SMILES IDX 32 13 34 14 36 15 15 16 16 17 29 18 28 19 21 20 17 21 19 22
REMARK SMILES IDX 30 23 31 24 22 26 23 27 24 28 25 29 26 30 27 31 18 32 20 34
REMARK SMILES IDX 33 36 35 38 37 40 38 42 39 43 40 44 7 46 4 48 2 49 1 51 3 52
REMARK SMILES IDX 44 53 45 55 46 56 47 58 48 59 49 60 50 62 51 63 52 64 53 65
REMARK SMILES IDX 54 66 69 67 55 68 68 69 56 70 57 71 58 72 59 73 60 75 61 76
REMARK SMILES IDX 62 78 63 79 64 80 67 81 65 82 66 83
REMARK H PARENT 31 25 18 33 20 35 33 37 35 39 37 41 40 45 7 47 4 50 44 54
REMARK H PARENT 46 57 48 61 58 74 61 77
REMARK Flexibility Score: inf
ROOT
ATOM      1  C   UNL     1      23.525  19.204  13.051  1.00  0.00     0.176 C 
ENDROOT
BRANCH   1   2
ATOM      2  C   UNL     1      24.763  18.369  12.968  1.00  0.00     0.178 C 
ATOM      3  C   UNL     1      26.481  19.526  14.135  1.00  0.00     0.272 C 
ATOM      4  C   UNL     1      26.537  20.334  12.798  1.00  0.00     0.113 C 
ATOM      5  O   UNL     1      25.601  18.510  14.032  1.00  0.00    -0.332 OA
ATOM      6  C   UNL     1      26.476  19.467  11.605  1.00  0.00     0.145 C 
ATOM      7  C   UNL     1      25.455  18.357  11.653  1.00  0.00     0.142 C 
BRANCH   3   8
ATOM      8  O   UNL     1      25.985  20.442  15.038  1.00  0.00    -0.338 OA
BRANCH   8   9
ATOM      9  C   UNL     1      26.633  21.574  15.299  1.00  0.00     0.199 C 
BRANCH   9  10
ATOM     10  C   UNL     1      27.186  22.001  16.569  1.00  0.00     0.179 C 
ATOM     11  C   UNL     1      28.134  21.494  18.595  1.00  0.00     0.282 C 
ATOM     12  O   UNL     1      27.876  21.048  17.299  1.00  0.00    -0.341 OA
ATOM     13  C   UNL     1      28.108  22.967  18.773  1.00  0.00     0.202 C 
ATOM     14  C   UNL     1      28.524  23.781  17.583  1.00  0.00     0.179 C 
ATOM     15  C   UNL     1      28.232  23.096  16.281  1.00  0.00     0.177 C 
BRANCH  11  16
ATOM     16  O   UNL     1      29.323  20.990  19.096  1.00  0.00    -0.341 OA
BRANCH  16  17
ATOM     17  C   UNL     1      29.461  21.201  20.483  1.00  0.00     0.184 C 
ATOM     18  C   UNL     1      30.877  20.862  20.846  1.00  0.00     0.178 C 
ATOM     19  O   UNL     1      30.978  20.309  22.121  1.00  0.00    -0.341 OA
ATOM     20  C   UNL     1      30.348  19.072  22.065  1.00  0.00     0.281 C 
ATOM     21  C   UNL     1      28.411  20.394  21.170  1.00  0.00     0.180 C 
ATOM     22  C   UNL     1      28.870  19.270  22.021  1.00  0.00     0.202 C 
BRANCH  18  23
ATOM     23  C   UNL     1      31.679  22.163  20.886  1.00  0.00     0.191 C 
BRANCH  23  24
ATOM     24  O   UNL     1      31.542  22.768  19.617  1.00  0.00    -0.394 OA
ATOM     25  H   UNL     1      31.416  23.741  19.820  1.00  0.00     0.210 HD
ENDBRANCH  23  24
ENDBRANCH  18  23
BRANCH  20  26
ATOM     26  O   UNL     1      30.650  18.426  23.266  1.00  0.00    -0.350 OA
BRANCH  26  27
ATOM     27  C   UNL     1      32.012  18.499  23.558  1.00  0.00     0.169 C 
BRANCH  27  28
ATOM     28  C   UNL     1      32.120  18.963  25.013  1.00  0.00     0.119 C 
BRANCH  28  29
ATOM     29  N   UNL     1      32.051  17.767  25.833  1.00  0.00    -0.092 NA
ATOM     30  N   UNL     1      32.627  16.724  25.488  1.00  0.00     0.001 N 
ATOM     31  N   UNL     1      33.449  15.815  25.285  1.00  0.00    -0.003 NA
ENDBRANCH  28  29
ENDBRANCH  27  28
ENDBRANCH  26  27
ENDBRANCH  20  26
BRANCH  21  32
ATOM     32  O   UNL     1      27.632  21.288  21.932  1.00  0.00    -0.387 OA
ATOM     33  H   UNL     1      28.074  22.147  22.059  1.00  0.00     0.211 HD
ENDBRANCH  21  32
BRANCH  22  34
ATOM     34  O   UNL     1      28.331  18.069  21.493  1.00  0.00    -0.385 OA
ATOM     35  H   UNL     1      27.345  18.246  21.403  1.00  0.00     0.211 HD
ENDBRANCH  22  34
ENDBRANCH  16  17
ENDBRANCH  11  16
BRANCH  13  36
ATOM     36  O   UNL     1      26.908  23.428  19.332  1.00  0.00    -0.385 OA
ATOM     37  H   UNL     1      26.228  22.720  19.381  1.00  0.00     0.211 HD
ENDBRANCH  13  36
BRANCH  14  38
ATOM     38  O   UNL     1      29.873  24.155  17.652  1.00  0.00    -0.387 OA
ATOM     39  H   UNL     1      30.286  23.791  16.821  1.00  0.00     0.211 HD
ENDBRANCH  14  38
BRANCH  15  40
ATOM     40  O   UNL     1      29.342  22.573  15.661  1.00  0.00    -0.387 OA
ATOM     41  H   UNL     1      29.064  21.798  15.139  1.00  0.00     0.211 HD
ENDBRANCH  15  40
ENDBRANCH   9  10
ENDBRANCH   8   9
ENDBRANCH   3   8
BRANCH   3  42
ATOM     42  C   UNL     1      27.883  19.209  14.397  1.00  0.00     0.364 C 
ATOM     43  O   UNL     1      28.785  19.578  13.630  1.00  0.00    -0.246 OA
BRANCH  42  44
ATOM     44  O   UNL     1      28.312  18.478  15.509  1.00  0.00    -0.477 OA
ATOM     45  H   UNL     1      27.694  17.766  15.902  1.00  0.00     0.296 HD
ENDBRANCH  42  44
ENDBRANCH   3  42
BRANCH   6  46
ATOM     46  O   UNL     1      26.191  20.291  10.499  1.00  0.00    -0.391 OA
ATOM     47  H   UNL     1      25.252  20.600  10.561  1.00  0.00     0.211 HD
ENDBRANCH   6  46
BRANCH   7  48
ATOM     48  N   UNL     1      26.139  17.086  11.416  1.00  0.00    -0.348 N 
ATOM     49  C   UNL     1      25.612  16.128  10.539  1.00  0.00     0.217 C 
ATOM     50  H   UNL     1      27.034  16.912  11.919  1.00  0.00     0.163 HD
ATOM     51  C   UNL     1      26.272  14.816  10.265  1.00  0.00     0.114 C 
ATOM     52  O   UNL     1      24.516  16.407   9.958  1.00  0.00    -0.275 OA
ENDBRANCH   7  48
ENDBRANCH   1   2
BRANCH   1  53
ATOM     53  O   UNL     1      23.116  19.241  14.432  1.00  0.00    -0.388 OA
ATOM     54  H   UNL     1      22.148  19.200  14.413  1.00  0.00     0.211 HD
ENDBRANCH   1  53
BRANCH   1  55
ATOM     55  C   UNL     1      22.306  18.658  12.366  1.00  0.00     0.165 C 
BRANCH  55  56
ATOM     56  O   UNL     1      22.492  17.582  11.531  1.00  0.00    -0.388 OA
ATOM     57  H   UNL     1      21.789  17.490  10.840  1.00  0.00     0.211 HD
ENDBRANCH  55  56
BRANCH  55  58
ATOM     58  C   UNL     1      21.530  19.768  11.649  1.00  0.00     0.154 C 
BRANCH  58  59
ATOM     59  N   UNL     1      22.136  21.056  11.885  1.00  0.00    -0.319 N 
ATOM     60  C   UNL     1      21.416  22.178  12.356  1.00  0.00     0.407 C 
ATOM     61  H   UNL     1      23.153  21.163  11.702  1.00  0.00     0.167 HD
ATOM     62  O   UNL     1      20.184  22.066  12.588  1.00  0.00    -0.225 OA
BRANCH  60  63
ATOM     63  O   UNL     1      22.027  23.409  12.572  1.00  0.00    -0.443 OA
BRANCH  63  64
ATOM     64  C   UNL     1      23.441  23.454  12.729  1.00  0.00     0.294 C 
BRANCH  64  65
ATOM     65  C   UNL     1      23.666  23.683  14.190  1.00  0.00     0.120 A 
ATOM     66  C   UNL     1      24.225  24.806  14.737  1.00  0.00     0.138 A 
ATOM     67  N   UNL     1      23.357  22.837  15.203  1.00  0.00    -0.132 NA
ATOM     68  N   UNL     1      24.242  24.613  16.048  1.00  0.00    -0.250 N 
ATOM     69  N   UNL     1      23.716  23.420  16.324  1.00  0.00    -0.067 NA
BRANCH  68  70
ATOM     70  C   UNL     1      24.771  25.565  17.024  1.00  0.00     0.167 C 
BRANCH  70  71
ATOM     71  C   UNL     1      23.588  26.039  17.869  1.00  0.00     0.141 C 
BRANCH  71  72
ATOM     72  N   UNL     1      23.626  25.300  19.097  1.00  0.00    -0.336 N 
ATOM     73  C   UNL     1      22.651  25.406  20.110  1.00  0.00     0.315 C 
ATOM     74  H   UNL     1      24.444  24.646  19.225  1.00  0.00     0.165 HD
ATOM     75  O   UNL     1      21.682  26.188  19.998  1.00  0.00    -0.249 OA
ATOM     76  N   UNL     1      22.787  24.591  21.285  1.00  0.00    -0.331 N 
ATOM     77  H   UNL     1      23.618  23.949  21.335  1.00  0.00     0.165 HD
BRANCH  76  78
ATOM     78  C   UNL     1      21.814  24.669  22.338  1.00  0.00     0.193 C 
BRANCH  78  79
ATOM     79  C   UNL     1      22.483  24.645  23.665  1.00  0.00     0.122 A 
ATOM     80  C   UNL     1      21.812  24.674  24.882  1.00  0.00     0.047 A 
ATOM     81  O   UNL     1      23.751  24.595  23.897  1.00  0.00    -0.467 OA
ATOM     82  C   UNL     1      22.779  24.637  25.844  1.00  0.00     0.042 A 
ATOM     83  C   UNL     1      23.980  24.588  25.192  1.00  0.00     0.195 A 
ENDBRANCH  78  79
ENDBRANCH  76  78
ENDBRANCH  71  72
ENDBRANCH  70  71
ENDBRANCH  68  70
ENDBRANCH  64  65
ENDBRANCH  63  64
ENDBRANCH  60  63
ENDBRANCH  58  59
ENDBRANCH  55  58
ENDBRANCH   1  55
TORSDOF 34
