REMARK VINA RESULT:    -6.321      3.354      9.399
REMARK INTER + INTRA:         -21.413
REMARK INTER:                 -15.033
REMARK INTRA:                  -6.381
REMARK UNBOUND:                -5.485
REMARK SMILES CC(=O)N[C@@H]1[C@@H](O)C[C@](OC[C@H]2O[C@@H](O[C@H]3[C@H](O)[C@@H](O)[C@H](OCCN=[N+]=[N-])O[C@@H]3CO)[C@H](O)[C@@H](O)[C@H]2O)(C(=O)O)O[C@H]1C(O)[C@H](O)CNC(=O)OCc1cn(Cc2ccc(Br)cc2)nn1
REMARK SMILES IDX 9 1 8 2 6 3 5 4 42 5 41 6 10 7 11 8 12 9 14 10 13 11 32 12
REMARK SMILES IDX 34 13 36 14 15 15 16 16 29 17 28 18 21 19 17 20 19 21 30 22
REMARK SMILES IDX 31 23 22 25 23 26 24 27 25 28 26 29 27 30 18 31 20 33 33 35
REMARK SMILES IDX 35 37 37 39 38 41 39 42 40 43 7 45 43 47 44 48 45 50 46 51
REMARK SMILES IDX 47 53 48 54 49 55 50 57 51 58 52 59 53 60 54 61 65 62 55 63
REMARK SMILES IDX 64 64 56 65 57 66 58 67 63 68 59 69 62 70 60 71 61 72 4 73
REMARK SMILES IDX 2 74 1 76 3 77
REMARK H PARENT 31 24 18 32 20 34 33 36 35 38 37 40 40 44 7 46 44 49 46 52
REMARK H PARENT 48 56 4 75
REMARK Flexibility Score: inf
ROOT
ATOM      1  C   UNL     1      20.396  28.365  19.062  1.00  0.00     0.272 C 
ATOM      2  C   UNL     1      21.577  27.962  18.255  1.00  0.00     0.113 C 
ATOM      3  C   UNL     1      22.402  26.829  18.720  1.00  0.00     0.145 C 
ATOM      4  C   UNL     1      22.233  26.506  20.229  1.00  0.00     0.142 C 
ATOM      5  C   UNL     1      21.890  27.852  20.807  1.00  0.00     0.178 C 
ATOM      6  O   UNL     1      20.531  28.019  20.418  1.00  0.00    -0.332 OA
ENDROOT
BRANCH   1   7
ATOM      7  O   UNL     1      19.163  28.198  18.597  1.00  0.00    -0.338 OA
BRANCH   7   8
ATOM      8  C   UNL     1      18.564  28.275  17.470  1.00  0.00     0.199 C 
BRANCH   8   9
ATOM      9  C   UNL     1      17.179  28.878  17.481  1.00  0.00     0.179 C 
ATOM     10  C   UNL     1      15.352  29.344  18.743  1.00  0.00     0.282 C 
ATOM     11  O   UNL     1      16.497  28.635  18.644  1.00  0.00    -0.341 OA
ATOM     12  C   UNL     1      14.863  30.027  17.479  1.00  0.00     0.202 C 
ATOM     13  C   UNL     1      15.963  30.822  16.812  1.00  0.00     0.179 C 
ATOM     14  C   UNL     1      17.316  30.405  17.371  1.00  0.00     0.177 C 
BRANCH  10  15
ATOM     15  O   UNL     1      15.248  30.247  19.748  1.00  0.00    -0.341 OA
BRANCH  15  16
ATOM     16  C   UNL     1      15.172  29.926  21.046  1.00  0.00     0.184 C 
ATOM     17  C   UNL     1      14.129  30.625  21.857  1.00  0.00     0.178 C 
ATOM     18  O   UNL     1      14.633  31.431  22.840  1.00  0.00    -0.341 OA
ATOM     19  C   UNL     1      15.386  30.768  23.798  1.00  0.00     0.281 C 
ATOM     20  C   UNL     1      16.522  30.143  21.698  1.00  0.00     0.180 C 
ATOM     21  C   UNL     1      16.386  29.821  23.165  1.00  0.00     0.202 C 
BRANCH  17  22
ATOM     22  C   UNL     1      13.155  29.606  22.403  1.00  0.00     0.191 C 
BRANCH  22  23
ATOM     23  O   UNL     1      13.424  28.318  21.897  1.00  0.00    -0.394 OA
ATOM     24  H   UNL     1      14.247  28.307  21.377  1.00  0.00     0.210 HD
ENDBRANCH  22  23
ENDBRANCH  17  22
BRANCH  19  25
ATOM     25  O   UNL     1      14.634  30.127  24.768  1.00  0.00    -0.350 OA
BRANCH  25  26
ATOM     26  C   UNL     1      14.346  30.870  25.881  1.00  0.00     0.169 C 
BRANCH  26  27
ATOM     27  C   UNL     1      15.479  31.733  26.352  1.00  0.00     0.119 C 
BRANCH  27  28
ATOM     28  N   UNL     1      16.325  30.987  27.275  1.00  0.00    -0.092 NA
ATOM     29  N   UNL     1      15.881  30.632  28.365  1.00  0.00     0.001 N 
ATOM     30  N   UNL     1      15.637  30.405  29.572  1.00  0.00    -0.003 NA
ENDBRANCH  27  28
ENDBRANCH  26  27
ENDBRANCH  25  26
ENDBRANCH  19  25
BRANCH  20  31
ATOM     31  O   UNL     1      17.392  29.182  21.145  1.00  0.00    -0.387 OA
ATOM     32  H   UNL     1      16.877  28.558  20.561  1.00  0.00     0.211 HD
ENDBRANCH  20  31
BRANCH  21  33
ATOM     33  O   UNL     1      17.610  29.843  23.824  1.00  0.00    -0.385 OA
ATOM     34  H   UNL     1      17.756  28.937  24.199  1.00  0.00     0.211 HD
ENDBRANCH  21  33
ENDBRANCH  15  16
ENDBRANCH  10  15
BRANCH  12  35
ATOM     35  O   UNL     1      14.307  29.157  16.557  1.00  0.00    -0.385 OA
ATOM     36  H   UNL     1      13.609  29.553  15.985  1.00  0.00     0.211 HD
ENDBRANCH  12  35
BRANCH  13  37
ATOM     37  O   UNL     1      15.787  32.196  16.921  1.00  0.00    -0.387 OA
ATOM     38  H   UNL     1      16.433  32.620  16.304  1.00  0.00     0.211 HD
ENDBRANCH  13  37
BRANCH  14  39
ATOM     39  O   UNL     1      17.497  30.872  18.678  1.00  0.00    -0.387 OA
ATOM     40  H   UNL     1      17.076  31.749  18.776  1.00  0.00     0.211 HD
ENDBRANCH  14  39
ENDBRANCH   8   9
ENDBRANCH   7   8
ENDBRANCH   1   7
BRANCH   1  41
ATOM     41  C   UNL     1      20.485  29.898  19.142  1.00  0.00     0.364 C 
ATOM     42  O   UNL     1      21.175  30.480  18.307  1.00  0.00    -0.246 OA
BRANCH  41  43
ATOM     43  O   UNL     1      19.829  30.628  20.098  1.00  0.00    -0.477 OA
ATOM     44  H   UNL     1      20.129  31.597  20.292  1.00  0.00     0.296 HD
ENDBRANCH  41  43
ENDBRANCH   1  41
BRANCH   3  45
ATOM     45  O   UNL     1      22.350  25.672  17.959  1.00  0.00    -0.391 OA
ATOM     46  H   UNL     1      21.988  25.897  17.076  1.00  0.00     0.211 HD
ENDBRANCH   3  45
BRANCH   5  47
ATOM     47  C   UNL     1      22.007  28.025  22.274  1.00  0.00     0.176 C 
BRANCH  47  48
ATOM     48  O   UNL     1      23.197  28.547  22.660  1.00  0.00    -0.388 OA
ATOM     49  H   UNL     1      23.846  28.584  21.948  1.00  0.00     0.211 HD
ENDBRANCH  47  48
BRANCH  47  50
ATOM     50  C   UNL     1      20.851  28.504  23.047  1.00  0.00     0.165 C 
BRANCH  50  51
ATOM     51  O   UNL     1      20.564  29.858  22.807  1.00  0.00    -0.388 OA
ATOM     52  H   UNL     1      19.747  30.020  22.313  1.00  0.00     0.211 HD
ENDBRANCH  50  51
BRANCH  50  53
ATOM     53  C   UNL     1      20.728  28.174  24.479  1.00  0.00     0.154 C 
BRANCH  53  54
ATOM     54  N   UNL     1      21.713  27.235  24.987  1.00  0.00    -0.319 N 
ATOM     55  C   UNL     1      21.578  25.835  24.798  1.00  0.00     0.407 C 
ATOM     56  H   UNL     1      22.570  27.540  25.513  1.00  0.00     0.167 HD
ATOM     57  O   UNL     1      20.579  25.376  24.157  1.00  0.00    -0.225 OA
BRANCH  55  58
ATOM     58  O   UNL     1      22.490  24.903  25.283  1.00  0.00    -0.443 OA
BRANCH  58  59
ATOM     59  C   UNL     1      22.524  24.591  26.688  1.00  0.00     0.294 C 
BRANCH  59  60
ATOM     60  C   UNL     1      23.558  25.353  27.406  1.00  0.00     0.120 A 
ATOM     61  C   UNL     1      24.903  25.362  27.092  1.00  0.00     0.138 A 
ATOM     62  N   UNL     1      23.404  26.150  28.464  1.00  0.00    -0.132 NA
ATOM     63  N   UNL     1      25.524  26.162  27.967  1.00  0.00    -0.248 N 
ATOM     64  N   UNL     1      24.596  26.622  28.781  1.00  0.00    -0.067 NA
BRANCH  63  65
ATOM     65  C   UNL     1      26.931  26.507  28.035  1.00  0.00     0.181 C 
BRANCH  65  66
ATOM     66  C   UNL     1      27.312  27.637  27.159  1.00  0.00    -0.026 A 
ATOM     67  C   UNL     1      26.458  27.962  26.100  1.00  0.00     0.007 A 
ATOM     68  C   UNL     1      28.436  28.396  27.324  1.00  0.00     0.007 A 
ATOM     69  C   UNL     1      26.761  29.020  25.260  1.00  0.00     0.016 A 
ATOM     70  C   UNL     1      28.753  29.465  26.485  1.00  0.00     0.016 A 
ATOM     71  C   UNL     1      27.907  29.771  25.453  1.00  0.00     0.017 A 
ATOM     72  Br  UNL     1      28.293  31.236  24.268  1.00  0.00    -0.051 Br
ENDBRANCH  65  66
ENDBRANCH  63  65
ENDBRANCH  59  60
ENDBRANCH  58  59
ENDBRANCH  55  58
ENDBRANCH  53  54
ENDBRANCH  50  53
ENDBRANCH  47  50
ENDBRANCH   5  47
BRANCH   4  73
ATOM     73  N   UNL     1      23.404  25.872  20.714  1.00  0.00    -0.348 N 
ATOM     74  C   UNL     1      23.325  24.621  21.374  1.00  0.00     0.217 C 
ATOM     75  H   UNL     1      24.332  26.306  20.575  1.00  0.00     0.163 HD
ATOM     76  C   UNL     1      24.466  23.874  21.908  1.00  0.00     0.114 C 
ATOM     77  O   UNL     1      22.166  24.092  21.520  1.00  0.00    -0.275 OA
ENDBRANCH   4  73
TORSDOF 31
