REMARK VINA RESULT:    -5.668      3.085      8.760
REMARK INTER + INTRA:         -21.478
REMARK INTER:                 -13.460
REMARK INTRA:                  -8.019
REMARK UNBOUND:                -6.864
REMARK SMILES CC(=O)N[C@@H]1[C@@H](O)C[C@](OC[C@H]2O[C@@H](O[C@H]3[C@H](O)[C@@H](O)[C@H](OCCN=[N+]=[N-])O[C@@H]3CO)[C@H](O)[C@@H](O)[C@H]2O)(C(=O)O)O[C@H]1C(O)[C@H](O)CNC(=O)OCc1cn(CCC2OCCO2)nn1
REMARK SMILES IDX 9 1 8 2 6 3 5 4 42 5 41 6 10 7 11 8 12 9 14 10 13 11 32 12
REMARK SMILES IDX 34 13 36 14 15 15 16 16 29 17 28 18 21 19 17 20 19 21 30 22
REMARK SMILES IDX 31 23 22 25 23 26 24 27 25 28 26 29 27 30 18 31 20 33 33 35
REMARK SMILES IDX 35 37 37 39 38 41 39 42 40 43 7 45 43 47 44 48 45 50 46 51
REMARK SMILES IDX 47 53 48 54 49 55 50 57 51 58 52 59 53 60 54 61 64 62 55 63
REMARK SMILES IDX 63 64 56 65 57 66 58 67 59 68 62 69 60 70 61 71 4 72 2 73
REMARK SMILES IDX 1 75 3 76
REMARK H PARENT 31 24 18 32 20 34 33 36 35 38 37 40 40 44 7 46 44 49 46 52
REMARK H PARENT 48 56 4 74
REMARK Flexibility Score: inf
ROOT
ATOM      1  C   UNL     1      14.586  30.729  23.143  1.00  0.00     0.272 C 
ATOM      2  C   UNL     1      14.296  32.171  23.699  1.00  0.00     0.113 C 
ATOM      3  C   UNL     1      14.207  32.168  25.165  1.00  0.00     0.145 C 
ATOM      4  C   UNL     1      15.502  31.648  25.756  1.00  0.00     0.142 C 
ATOM      5  C   UNL     1      16.266  30.804  24.792  1.00  0.00     0.178 C 
ATOM      6  O   UNL     1      15.561  30.103  23.878  1.00  0.00    -0.332 OA
ENDROOT
BRANCH   1   7
ATOM      7  O   UNL     1      15.015  30.978  21.905  1.00  0.00    -0.338 OA
BRANCH   7   8
ATOM      8  C   UNL     1      15.085  32.122  21.263  1.00  0.00     0.199 C 
BRANCH   8   9
ATOM      9  C   UNL     1      14.890  32.216  19.783  1.00  0.00     0.179 C 
ATOM     10  C   UNL     1      15.459  31.101  17.806  1.00  0.00     0.282 C 
ATOM     11  O   UNL     1      15.752  31.369  19.127  1.00  0.00    -0.341 OA
ATOM     12  C   UNL     1      14.440  31.978  17.177  1.00  0.00     0.202 C 
ATOM     13  C   UNL     1      13.211  32.186  18.019  1.00  0.00     0.179 C 
ATOM     14  C   UNL     1      13.476  31.707  19.407  1.00  0.00     0.177 C 
BRANCH  10  15
ATOM     15  O   UNL     1      15.239  29.730  17.675  1.00  0.00    -0.341 OA
BRANCH  15  16
ATOM     16  C   UNL     1      16.391  29.003  17.412  1.00  0.00     0.184 C 
ATOM     17  C   UNL     1      17.230  28.716  18.620  1.00  0.00     0.178 C 
ATOM     18  O   UNL     1      18.299  27.914  18.216  1.00  0.00    -0.341 OA
ATOM     19  C   UNL     1      19.196  28.569  17.386  1.00  0.00     0.281 C 
ATOM     20  C   UNL     1      17.312  29.840  16.480  1.00  0.00     0.180 C 
ATOM     21  C   UNL     1      18.438  28.885  16.100  1.00  0.00     0.202 C 
BRANCH  17  22
ATOM     22  C   UNL     1      16.433  27.870  19.598  1.00  0.00     0.191 C 
BRANCH  22  23
ATOM     23  O   UNL     1      15.852  28.795  20.501  1.00  0.00    -0.394 OA
ATOM     24  H   UNL     1      14.955  29.079  20.225  1.00  0.00     0.210 HD
ENDBRANCH  22  23
ENDBRANCH  17  22
BRANCH  19  25
ATOM     25  O   UNL     1      20.257  27.744  17.141  1.00  0.00    -0.350 OA
BRANCH  25  26
ATOM     26  C   UNL     1      21.364  27.937  17.917  1.00  0.00     0.169 C 
BRANCH  26  27
ATOM     27  C   UNL     1      21.529  29.342  18.452  1.00  0.00     0.119 C 
BRANCH  27  28
ATOM     28  N   UNL     1      21.590  29.321  19.902  1.00  0.00    -0.092 NA
ATOM     29  N   UNL     1      20.777  28.717  20.596  1.00  0.00     0.001 N 
ATOM     30  N   UNL     1      20.111  28.013  21.352  1.00  0.00    -0.003 NA
ENDBRANCH  27  28
ENDBRANCH  26  27
ENDBRANCH  25  26
ENDBRANCH  19  25
BRANCH  20  31
ATOM     31  O   UNL     1      16.595  30.197  15.364  1.00  0.00    -0.387 OA
ATOM     32  H   UNL     1      17.226  30.550  14.679  1.00  0.00     0.211 HD
ENDBRANCH  20  31
BRANCH  21  33
ATOM     33  O   UNL     1      19.229  29.529  15.173  1.00  0.00    -0.385 OA
ATOM     34  H   UNL     1      19.099  30.505  15.278  1.00  0.00     0.211 HD
ENDBRANCH  21  33
ENDBRANCH  15  16
ENDBRANCH  10  15
BRANCH  12  35
ATOM     35  O   UNL     1      15.037  33.220  16.843  1.00  0.00    -0.385 OA
ATOM     36  H   UNL     1      15.281  33.628  17.715  1.00  0.00     0.211 HD
ENDBRANCH  12  35
BRANCH  13  37
ATOM     37  O   UNL     1      12.082  31.600  17.448  1.00  0.00    -0.387 OA
ATOM     38  H   UNL     1      11.372  32.293  17.407  1.00  0.00     0.211 HD
ENDBRANCH  13  37
BRANCH  14  39
ATOM     39  O   UNL     1      13.447  30.335  19.549  1.00  0.00    -0.387 OA
ATOM     40  H   UNL     1      14.333  29.929  19.723  1.00  0.00     0.211 HD
ENDBRANCH  14  39
ENDBRANCH   8   9
ENDBRANCH   7   8
ENDBRANCH   1   7
BRANCH   1  41
ATOM     41  C   UNL     1      13.324  30.028  23.382  1.00  0.00     0.364 C 
ATOM     42  O   UNL     1      12.322  30.238  22.581  1.00  0.00    -0.246 OA
BRANCH  41  43
ATOM     43  O   UNL     1      13.020  29.127  24.376  1.00  0.00    -0.477 OA
ATOM     44  H   UNL     1      13.140  28.137  24.214  1.00  0.00     0.296 HD
ENDBRANCH  41  43
ENDBRANCH   1  41
BRANCH   3  45
ATOM     45  O   UNL     1      14.015  33.525  25.557  1.00  0.00    -0.391 OA
ATOM     46  H   UNL     1      13.240  33.517  26.199  1.00  0.00     0.211 HD
ENDBRANCH   3  45
BRANCH   5  47
ATOM     47  C   UNL     1      17.431  31.571  24.244  1.00  0.00     0.176 C 
BRANCH  47  48
ATOM     48  O   UNL     1      18.388  31.887  25.220  1.00  0.00    -0.388 OA
ATOM     49  H   UNL     1      18.187  32.773  25.641  1.00  0.00     0.211 HD
ENDBRANCH  47  48
BRANCH  47  50
ATOM     50  C   UNL     1      18.228  30.676  23.253  1.00  0.00     0.165 C 
BRANCH  50  51
ATOM     51  O   UNL     1      18.392  29.437  23.825  1.00  0.00    -0.388 OA
ATOM     52  H   UNL     1      18.043  28.700  23.292  1.00  0.00     0.211 HD
ENDBRANCH  50  51
BRANCH  50  53
ATOM     53  C   UNL     1      19.440  31.409  22.845  1.00  0.00     0.154 C 
BRANCH  53  54
ATOM     54  N   UNL     1      20.639  30.724  23.214  1.00  0.00    -0.319 N 
ATOM     55  C   UNL     1      21.526  31.151  24.201  1.00  0.00     0.407 C 
ATOM     56  H   UNL     1      20.853  29.836  22.694  1.00  0.00     0.167 HD
ATOM     57  O   UNL     1      21.328  32.198  24.838  1.00  0.00    -0.225 OA
BRANCH  55  58
ATOM     58  O   UNL     1      22.689  30.448  24.546  1.00  0.00    -0.443 OA
BRANCH  58  59
ATOM     59  C   UNL     1      22.682  29.499  25.597  1.00  0.00     0.294 C 
BRANCH  59  60
ATOM     60  C   UNL     1      21.848  28.313  25.294  1.00  0.00     0.120 A 
ATOM     61  C   UNL     1      22.343  27.066  24.899  1.00  0.00     0.138 A 
ATOM     62  N   UNL     1      20.515  28.159  25.319  1.00  0.00    -0.132 NA
ATOM     63  N   UNL     1      21.299  26.215  24.705  1.00  0.00    -0.252 N 
ATOM     64  N   UNL     1      20.212  26.903  24.965  1.00  0.00    -0.067 NA
BRANCH  63  65
ATOM     65  C   UNL     1      21.481  24.830  24.294  1.00  0.00     0.151 C 
BRANCH  65  66
ATOM     66  C   UNL     1      20.893  24.605  22.907  1.00  0.00     0.086 C 
BRANCH  66  67
ATOM     67  C   UNL     1      21.966  24.319  21.896  1.00  0.00     0.251 C 
ATOM     68  O   UNL     1      21.689  25.018  20.720  1.00  0.00    -0.350 OA
ATOM     69  O   UNL     1      23.221  24.738  22.290  1.00  0.00    -0.350 OA
ATOM     70  C   UNL     1      22.897  25.042  20.032  1.00  0.00     0.192 C 
ATOM     71  C   UNL     1      23.924  24.618  21.068  1.00  0.00     0.192 C 
ENDBRANCH  66  67
ENDBRANCH  65  66
ENDBRANCH  63  65
ENDBRANCH  59  60
ENDBRANCH  58  59
ENDBRANCH  55  58
ENDBRANCH  53  54
ENDBRANCH  50  53
ENDBRANCH  47  50
ENDBRANCH   5  47
BRANCH   4  72
ATOM     72  N   UNL     1      15.254  30.979  27.031  1.00  0.00    -0.348 N 
ATOM     73  C   UNL     1      16.118  31.061  28.127  1.00  0.00     0.217 C 
ATOM     74  H   UNL     1      14.361  30.408  27.095  1.00  0.00     0.163 HD
ATOM     75  C   UNL     1      15.793  30.345  29.403  1.00  0.00     0.114 C 
ATOM     76  O   UNL     1      17.165  31.752  27.996  1.00  0.00    -0.275 OA
ENDBRANCH   4  72
TORSDOF 32
