REMARK VINA RESULT:    -5.280     14.969     19.326
REMARK INTER + INTRA:         -22.896
REMARK INTER:                 -14.856
REMARK INTRA:                  -8.041
REMARK UNBOUND:                -8.356
REMARK SMILES CC(=O)N[C@@H]1[C@@H](O)C[C@](OC[C@H]2O[C@@H](O[C@H]3[C@H](O)[C@@H](O)[C@H](OCCN=[N+]=[N-])O[C@@H]3CO)[C@H](O)[C@@H](O)[C@H]2O)(C(=O)O)O[C@H]1C(O)[C@H](O)CNC(=O)OCc1cn([C@@H](CCC(=O)O)C(=O)O)nn1
REMARK SMILES IDX 43 1 42 2 9 3 8 4 41 5 6 6 5 7 10 8 11 9 12 10 14 11 13 12
REMARK SMILES IDX 32 13 34 14 36 15 15 16 16 17 29 18 28 19 21 20 17 21 19 22
REMARK SMILES IDX 30 23 31 24 22 26 23 27 24 28 25 29 26 30 27 31 18 32 20 34
REMARK SMILES IDX 33 36 35 38 37 40 38 42 39 43 40 44 7 46 4 48 2 49 1 51 3 52
REMARK SMILES IDX 44 53 45 55 46 56 47 58 48 59 49 60 50 62 51 63 52 64 53 65
REMARK SMILES IDX 54 66 66 67 55 68 65 69 56 70 57 71 58 72 59 73 60 74 61 75
REMARK SMILES IDX 62 77 63 78 64 79
REMARK H PARENT 31 25 18 33 20 35 33 37 35 39 37 41 40 45 7 47 4 50 44 54
REMARK H PARENT 46 57 48 61 61 76 64 80
REMARK Flexibility Score: inf
ROOT
ATOM      1  C   UNL     1       3.112  20.492  30.176  1.00  0.00     0.176 C 
ENDROOT
BRANCH   1   2
ATOM      2  C   UNL     1       2.387  21.234  29.053  1.00  0.00     0.178 C 
ATOM      3  C   UNL     1       2.129  23.501  28.473  1.00  0.00     0.272 C 
ATOM      4  C   UNL     1       0.657  23.491  28.580  1.00  0.00     0.113 C 
ATOM      5  O   UNL     1       2.570  22.564  29.431  1.00  0.00    -0.332 OA
ATOM      6  C   UNL     1       0.143  22.258  29.274  1.00  0.00     0.145 C 
ATOM      7  C   UNL     1       0.903  20.998  29.062  1.00  0.00     0.142 C 
BRANCH   3   8
ATOM      8  O   UNL     1       2.662  24.714  28.860  1.00  0.00    -0.338 OA
BRANCH   8   9
ATOM      9  C   UNL     1       1.983  25.732  29.321  1.00  0.00     0.199 C 
BRANCH   9  10
ATOM     10  C   UNL     1       2.258  26.398  30.640  1.00  0.00     0.179 C 
ATOM     11  C   UNL     1       3.268  25.627  32.597  1.00  0.00     0.282 C 
ATOM     12  O   UNL     1       2.248  25.523  31.687  1.00  0.00    -0.341 OA
ATOM     13  C   UNL     1       4.580  25.421  31.873  1.00  0.00     0.202 C 
ATOM     14  C   UNL     1       4.772  26.543  30.903  1.00  0.00     0.179 C 
ATOM     15  C   UNL     1       3.515  27.257  30.559  1.00  0.00     0.177 C 
BRANCH  11  16
ATOM     16  O   UNL     1       3.121  24.611  33.544  1.00  0.00    -0.341 OA
BRANCH  16  17
ATOM     17  C   UNL     1       2.945  25.037  34.836  1.00  0.00     0.184 C 
ATOM     18  C   UNL     1       4.183  24.779  35.689  1.00  0.00     0.178 C 
ATOM     19  O   UNL     1       3.846  23.919  36.731  1.00  0.00    -0.341 OA
ATOM     20  C   UNL     1       3.578  22.620  36.215  1.00  0.00     0.281 C 
ATOM     21  C   UNL     1       1.818  24.216  35.430  1.00  0.00     0.180 C 
ATOM     22  C   UNL     1       2.302  22.750  35.440  1.00  0.00     0.202 C 
BRANCH  18  23
ATOM     23  C   UNL     1       4.646  26.084  36.313  1.00  0.00     0.191 C 
BRANCH  23  24
ATOM     24  O   UNL     1       5.293  26.895  35.399  1.00  0.00    -0.394 OA
ATOM     25  H   UNL     1       6.234  26.614  35.252  1.00  0.00     0.210 HD
ENDBRANCH  23  24
ENDBRANCH  18  23
BRANCH  20  26
ATOM     26  O   UNL     1       3.556  21.765  37.277  1.00  0.00    -0.350 OA
BRANCH  26  27
ATOM     27  C   UNL     1       2.672  20.725  37.185  1.00  0.00     0.169 C 
BRANCH  27  28
ATOM     28  C   UNL     1       3.326  19.361  37.101  1.00  0.00     0.119 C 
BRANCH  28  29
ATOM     29  N   UNL     1       3.671  19.001  35.740  1.00  0.00    -0.092 NA
ATOM     30  N   UNL     1       2.884  19.042  34.801  1.00  0.00     0.001 N 
ATOM     31  N   UNL     1       2.093  19.290  33.917  1.00  0.00    -0.003 NA
ENDBRANCH  28  29
ENDBRANCH  27  28
ENDBRANCH  26  27
ENDBRANCH  20  26
BRANCH  21  32
ATOM     32  O   UNL     1       1.475  24.623  36.714  1.00  0.00    -0.387 OA
ATOM     33  H   UNL     1       1.809  25.549  36.927  1.00  0.00     0.211 HD
ENDBRANCH  21  32
BRANCH  22  34
ATOM     34  O   UNL     1       2.619  22.493  34.083  1.00  0.00    -0.385 OA
ATOM     35  H   UNL     1       2.185  23.200  33.541  1.00  0.00     0.211 HD
ENDBRANCH  22  34
ENDBRANCH  16  17
ENDBRANCH  11  16
BRANCH  13  36
ATOM     36  O   UNL     1       5.639  25.367  32.781  1.00  0.00    -0.385 OA
ATOM     37  H   UNL     1       6.368  25.941  32.384  1.00  0.00     0.211 HD
ENDBRANCH  13  36
BRANCH  14  38
ATOM     38  O   UNL     1       5.433  26.131  29.742  1.00  0.00    -0.387 OA
ATOM     39  H   UNL     1       4.750  25.853  29.063  1.00  0.00     0.211 HD
ENDBRANCH  14  38
BRANCH  15  40
ATOM     40  O   UNL     1       3.654  27.705  29.243  1.00  0.00    -0.387 OA
ATOM     41  H   UNL     1       4.448  27.309  28.818  1.00  0.00     0.211 HD
ENDBRANCH  15  40
ENDBRANCH   9  10
ENDBRANCH   8   9
ENDBRANCH   3   8
BRANCH   3  42
ATOM     42  C   UNL     1       2.732  23.152  27.193  1.00  0.00     0.364 C 
ATOM     43  O   UNL     1       1.962  22.694  26.271  1.00  0.00    -0.246 OA
BRANCH  42  44
ATOM     44  O   UNL     1       4.057  23.241  26.810  1.00  0.00    -0.477 OA
ATOM     45  H   UNL     1       4.352  23.081  25.876  1.00  0.00     0.296 HD
ENDBRANCH  42  44
ENDBRANCH   3  42
BRANCH   6  46
ATOM     46  O   UNL     1       0.210  22.523  30.670  1.00  0.00    -0.391 OA
ATOM     47  H   UNL     1      -0.633  22.262  31.120  1.00  0.00     0.211 HD
ENDBRANCH   6  46
BRANCH   7  48
ATOM     48  N   UNL     1       0.329  20.331  27.947  1.00  0.00    -0.348 N 
ATOM     49  C   UNL     1      -0.688  19.349  28.044  1.00  0.00     0.217 C 
ATOM     50  H   UNL     1       0.619  20.553  26.975  1.00  0.00     0.163 HD
ATOM     51  C   UNL     1      -1.249  18.678  26.818  1.00  0.00     0.114 C 
ATOM     52  O   UNL     1      -1.137  19.021  29.140  1.00  0.00    -0.275 OA
ENDBRANCH   7  48
ENDBRANCH   1   2
BRANCH   1  53
ATOM     53  O   UNL     1       2.204  20.174  31.179  1.00  0.00    -0.388 OA
ATOM     54  H   UNL     1       2.326  20.786  31.953  1.00  0.00     0.211 HD
ENDBRANCH   1  53
BRANCH   1  55
ATOM     55  C   UNL     1       4.309  21.117  30.722  1.00  0.00     0.165 C 
BRANCH  55  56
ATOM     56  O   UNL     1       5.445  20.409  30.227  1.00  0.00    -0.388 OA
ATOM     57  H   UNL     1       5.802  19.865  30.968  1.00  0.00     0.211 HD
ENDBRANCH  55  56
BRANCH  55  58
ATOM     58  C   UNL     1       4.488  21.131  32.211  1.00  0.00     0.154 C 
BRANCH  58  59
ATOM     59  N   UNL     1       5.378  22.170  32.670  1.00  0.00    -0.319 N 
ATOM     60  C   UNL     1       6.780  21.984  32.857  1.00  0.00     0.407 C 
ATOM     61  H   UNL     1       4.993  23.101  32.891  1.00  0.00     0.167 HD
ATOM     62  O   UNL     1       7.309  20.897  32.628  1.00  0.00    -0.225 OA
BRANCH  60  63
ATOM     63  O   UNL     1       7.520  23.052  33.303  1.00  0.00    -0.443 OA
BRANCH  63  64
ATOM     64  C   UNL     1       7.483  23.531  34.615  1.00  0.00     0.294 C 
BRANCH  64  65
ATOM     65  C   UNL     1       8.347  24.732  34.731  1.00  0.00     0.120 A 
ATOM     66  C   UNL     1       9.707  24.811  34.941  1.00  0.00     0.139 A 
ATOM     67  N   UNL     1       7.917  26.021  34.669  1.00  0.00    -0.132 NA
ATOM     68  N   UNL     1      10.068  26.125  35.000  1.00  0.00    -0.238 N 
ATOM     69  N   UNL     1       8.946  26.827  34.830  1.00  0.00    -0.066 NA
BRANCH  68  70
ATOM     70  C   UNL     1      11.378  26.635  35.179  1.00  0.00     0.219 C 
BRANCH  70  71
ATOM     71  C   UNL     1      12.528  25.698  35.225  1.00  0.00     0.051 C 
BRANCH  71  72
ATOM     72  C   UNL     1      13.024  25.205  36.520  1.00  0.00     0.125 C 
BRANCH  72  73
ATOM     73  C   UNL     1      12.462  24.001  37.095  1.00  0.00     0.303 C 
ATOM     74  O   UNL     1      12.158  22.936  36.529  1.00  0.00    -0.252 OA
BRANCH  73  75
ATOM     75  O   UNL     1      12.198  23.974  38.501  1.00  0.00    -0.481 OA
ATOM     76  H   UNL     1      12.883  24.358  39.133  1.00  0.00     0.296 HD
ENDBRANCH  73  75
ENDBRANCH  72  73
ENDBRANCH  71  72
ENDBRANCH  70  71
BRANCH  70  77
ATOM     77  C   UNL     1      11.644  27.647  34.109  1.00  0.00     0.328 C 
ATOM     78  O   UNL     1      12.310  28.670  34.359  1.00  0.00    -0.250 OA
BRANCH  77  79
ATOM     79  O   UNL     1      11.168  27.490  32.820  1.00  0.00    -0.480 OA
ATOM     80  H   UNL     1      10.579  26.698  32.558  1.00  0.00     0.296 HD
ENDBRANCH  77  79
ENDBRANCH  70  77
ENDBRANCH  68  70
ENDBRANCH  64  65
ENDBRANCH  63  64
ENDBRANCH  60  63
ENDBRANCH  58  59
ENDBRANCH  55  58
ENDBRANCH   1  55
TORSDOF 36
