REMARK VINA RESULT:    -4.945     24.714     28.685
REMARK INTER + INTRA:         -21.157
REMARK INTER:                 -11.998
REMARK INTRA:                  -9.159
REMARK UNBOUND:                -8.118
REMARK SMILES CC(=O)N[C@@H]1[C@@H](O)C[C@](OC[C@H]2O[C@@H](O[C@H]3[C@H](O)[C@@H](O)[C@H](OCCN=[N+]=[N-])O[C@@H]3CO)[C@H](O)[C@@H](O)[C@H]2O)(C(=O)O)O[C@H]1C(O)[C@H](O)CNC(=O)OCc1cn(CCOC(C)=O)nn1
REMARK SMILES IDX 43 1 42 2 9 3 8 4 41 5 6 6 5 7 10 8 11 9 12 10 14 11 13 12
REMARK SMILES IDX 32 13 34 14 36 15 15 16 16 17 29 18 28 19 21 20 17 21 19 22
REMARK SMILES IDX 30 23 31 24 22 26 23 27 24 28 25 29 26 30 27 31 18 32 20 34
REMARK SMILES IDX 33 36 35 38 37 40 38 42 39 43 40 44 7 46 4 48 2 49 1 51 3 52
REMARK SMILES IDX 44 53 45 55 46 56 47 58 48 59 49 60 50 62 51 63 52 64 53 65
REMARK SMILES IDX 54 66 63 67 55 68 62 69 56 70 57 71 58 72 59 73 61 74 60 75
REMARK H PARENT 31 25 18 33 20 35 33 37 35 39 37 41 40 45 7 47 4 50 44 54
REMARK H PARENT 46 57 48 61
REMARK Flexibility Score: inf
ROOT
ATOM      1  C   UNL     1      23.012  19.747  13.239  1.00  0.00     0.176 C 
ENDROOT
BRANCH   1   2
ATOM      2  C   UNL     1      22.056  20.203  12.167  1.00  0.00     0.178 C 
ATOM      3  C   UNL     1      20.105  19.416  11.103  1.00  0.00     0.272 C 
ATOM      4  C   UNL     1      20.223  20.787  10.481  1.00  0.00     0.113 C 
ATOM      5  O   UNL     1      21.018  19.246  12.178  1.00  0.00    -0.332 OA
ATOM      6  C   UNL     1      21.591  21.087   9.981  1.00  0.00     0.145 C 
ATOM      7  C   UNL     1      22.588  20.189  10.768  1.00  0.00     0.142 C 
BRANCH   3   8
ATOM      8  O   UNL     1      20.263  18.377  10.320  1.00  0.00    -0.338 OA
BRANCH   8   9
ATOM      9  C   UNL     1      19.528  17.861   9.376  1.00  0.00     0.199 C 
BRANCH   9  10
ATOM     10  C   UNL     1      19.986  17.377   8.067  1.00  0.00     0.179 C 
ATOM     11  C   UNL     1      20.103  18.084   5.876  1.00  0.00     0.282 C 
ATOM     12  O   UNL     1      20.138  18.531   7.205  1.00  0.00    -0.341 OA
ATOM     13  C   UNL     1      20.862  16.848   5.629  1.00  0.00     0.202 C 
ATOM     14  C   UNL     1      21.705  16.319   6.736  1.00  0.00     0.179 C 
ATOM     15  C   UNL     1      21.443  16.875   8.092  1.00  0.00     0.177 C 
BRANCH  11  16
ATOM     16  O   UNL     1      20.420  19.174   5.083  1.00  0.00    -0.341 OA
BRANCH  16  17
ATOM     17  C   UNL     1      21.178  20.117   5.728  1.00  0.00     0.184 C 
ATOM     18  C   UNL     1      20.656  21.499   5.409  1.00  0.00     0.178 C 
ATOM     19  O   UNL     1      21.466  22.382   6.137  1.00  0.00    -0.341 OA
ATOM     20  C   UNL     1      22.669  22.520   5.512  1.00  0.00     0.281 C 
ATOM     21  C   UNL     1      22.647  20.023   5.351  1.00  0.00     0.180 C 
ATOM     22  C   UNL     1      23.165  21.299   4.774  1.00  0.00     0.202 C 
BRANCH  18  23
ATOM     23  C   UNL     1      19.227  21.642   5.901  1.00  0.00     0.191 C 
BRANCH  23  24
ATOM     24  O   UNL     1      19.099  21.048   7.143  1.00  0.00    -0.394 OA
ATOM     25  H   UNL     1      19.725  20.264   7.139  1.00  0.00     0.210 HD
ENDBRANCH  23  24
ENDBRANCH  18  23
BRANCH  20  26
ATOM     26  O   UNL     1      23.599  22.934   6.476  1.00  0.00    -0.350 OA
BRANCH  26  27
ATOM     27  C   UNL     1      23.054  23.889   7.327  1.00  0.00     0.169 C 
BRANCH  27  28
ATOM     28  C   UNL     1      23.886  23.816   8.612  1.00  0.00     0.119 C 
BRANCH  28  29
ATOM     29  N   UNL     1      23.249  24.658   9.609  1.00  0.00    -0.092 NA
ATOM     30  N   UNL     1      22.050  24.554   9.897  1.00  0.00     0.001 N 
ATOM     31  N   UNL     1      20.816  24.723   9.904  1.00  0.00    -0.003 NA
ENDBRANCH  28  29
ENDBRANCH  27  28
ENDBRANCH  26  27
ENDBRANCH  20  26
BRANCH  21  32
ATOM     32  O   UNL     1      23.449  19.579   6.394  1.00  0.00    -0.387 OA
ATOM     33  H   UNL     1      23.490  20.203   7.160  1.00  0.00     0.211 HD
ENDBRANCH  21  32
BRANCH  22  34
ATOM     34  O   UNL     1      22.941  21.354   3.412  1.00  0.00    -0.385 OA
ATOM     35  H   UNL     1      23.278  20.504   3.005  1.00  0.00     0.211 HD
ENDBRANCH  22  34
ENDBRANCH  16  17
ENDBRANCH  11  16
BRANCH  13  36
ATOM     36  O   UNL     1      20.041  15.827   5.079  1.00  0.00    -0.385 OA
ATOM     37  H   UNL     1      20.308  14.938   5.393  1.00  0.00     0.211 HD
ENDBRANCH  13  36
BRANCH  14  38
ATOM     38  O   UNL     1      23.072  16.478   6.466  1.00  0.00    -0.387 OA
ATOM     39  H   UNL     1      23.316  17.430   6.665  1.00  0.00     0.211 HD
ENDBRANCH  14  38
BRANCH  15  40
ATOM     40  O   UNL     1      22.276  18.018   8.234  1.00  0.00    -0.387 OA
ATOM     41  H   UNL     1      22.696  18.246   7.380  1.00  0.00     0.211 HD
ENDBRANCH  15  40
ENDBRANCH   9  10
ENDBRANCH   8   9
ENDBRANCH   3   8
BRANCH   3  42
ATOM     42  C   UNL     1      18.811  19.439  11.841  1.00  0.00     0.364 C 
ATOM     43  O   UNL     1      18.183  20.455  12.193  1.00  0.00    -0.246 OA
BRANCH  42  44
ATOM     44  O   UNL     1      18.194  18.223  12.203  1.00  0.00    -0.477 OA
ATOM     45  H   UNL     1      18.420  17.391  11.678  1.00  0.00     0.296 HD
ENDBRANCH  42  44
ENDBRANCH   3  42
BRANCH   6  46
ATOM     46  O   UNL     1      21.774  20.945   8.625  1.00  0.00    -0.391 OA
ATOM     47  H   UNL     1      22.119  21.763   8.184  1.00  0.00     0.211 HD
ENDBRANCH   6  46
BRANCH   7  48
ATOM     48  N   UNL     1      23.913  20.667  10.557  1.00  0.00    -0.348 N 
ATOM     49  C   UNL     1      24.837  19.987   9.723  1.00  0.00     0.217 C 
ATOM     50  H   UNL     1      24.210  21.550  11.002  1.00  0.00     0.163 HD
ATOM     51  C   UNL     1      26.227  20.495   9.507  1.00  0.00     0.114 C 
ATOM     52  O   UNL     1      24.528  18.915   9.120  1.00  0.00    -0.275 OA
ENDBRANCH   7  48
ENDBRANCH   1   2
BRANCH   1  53
ATOM     53  O   UNL     1      22.269  18.780  13.988  1.00  0.00    -0.388 OA
ATOM     54  H   UNL     1      22.276  17.918  13.523  1.00  0.00     0.211 HD
ENDBRANCH   1  53
BRANCH   1  55
ATOM     55  C   UNL     1      23.253  20.860  14.231  1.00  0.00     0.165 C 
BRANCH  55  56
ATOM     56  O   UNL     1      22.404  21.937  13.929  1.00  0.00    -0.388 OA
ATOM     57  H   UNL     1      22.872  22.767  14.152  1.00  0.00     0.211 HD
ENDBRANCH  55  56
BRANCH  55  58
ATOM     58  C   UNL     1      24.685  21.289  14.303  1.00  0.00     0.154 C 
BRANCH  58  59
ATOM     59  N   UNL     1      25.611  20.475  13.580  1.00  0.00    -0.319 N 
ATOM     60  C   UNL     1      26.856  20.940  13.113  1.00  0.00     0.407 C 
ATOM     61  H   UNL     1      25.401  19.453  13.355  1.00  0.00     0.167 HD
ATOM     62  O   UNL     1      27.257  22.106  13.304  1.00  0.00    -0.225 OA
BRANCH  60  63
ATOM     63  O   UNL     1      27.731  20.112  12.392  1.00  0.00    -0.443 OA
BRANCH  63  64
ATOM     64  C   UNL     1      27.947  18.771  12.727  1.00  0.00     0.294 C 
BRANCH  64  65
ATOM     65  C   UNL     1      26.885  17.883  12.177  1.00  0.00     0.120 A 
ATOM     66  C   UNL     1      27.081  17.014  11.117  1.00  0.00     0.138 A 
ATOM     67  N   UNL     1      25.618  17.723  12.545  1.00  0.00    -0.132 NA
ATOM     68  N   UNL     1      25.927  16.377  10.899  1.00  0.00    -0.249 N 
ATOM     69  N   UNL     1      25.050  16.823  11.779  1.00  0.00    -0.067 NA
BRANCH  68  70
ATOM     70  C   UNL     1      25.650  15.369   9.865  1.00  0.00     0.187 C 
BRANCH  70  71
ATOM     71  C   UNL     1      25.462  14.014  10.509  1.00  0.00     0.256 C 
BRANCH  71  72
ATOM     72  O   UNL     1      24.296  13.413   9.955  1.00  0.00    -0.464 OA
BRANCH  72  73
ATOM     73  C   UNL     1      23.071  13.517  10.607  1.00  0.00     0.302 C 
ATOM     74  O   UNL     1      23.078  13.705  11.847  1.00  0.00    -0.253 OA
ATOM     75  C   UNL     1      21.764  13.411   9.879  1.00  0.00     0.139 C 
ENDBRANCH  72  73
ENDBRANCH  71  72
ENDBRANCH  70  71
ENDBRANCH  68  70
ENDBRANCH  64  65
ENDBRANCH  63  64
ENDBRANCH  60  63
ENDBRANCH  58  59
ENDBRANCH  55  58
ENDBRANCH   1  55
TORSDOF 33
