REMARK VINA RESULT:    -6.609      3.717      6.841
REMARK INTER + INTRA:         -22.378
REMARK INTER:                 -14.575
REMARK INTRA:                  -7.802
REMARK UNBOUND:                -5.144
REMARK SMILES CC(=O)N[C@@H]1[C@@H](O)C[C@](OC[C@H]2O[C@@H](O[C@H]3[C@H](O)[C@@H](O)[C@H](OCCN=[N+]=[N-])O[C@@H]3CO)[C@H](O)[C@@H](O)[C@H]2O)(C(=O)O)O[C@H]1C(O)[C@H](O)CNC(=O)OCc1cn(-c2cccc(C=CC(=O)O)c2)nn1
REMARK SMILES IDX 43 1 42 2 9 3 8 4 41 5 6 6 5 7 10 8 11 9 12 10 14 11 13 12
REMARK SMILES IDX 32 13 34 14 36 15 15 16 16 17 29 18 28 19 21 20 17 21 19 22
REMARK SMILES IDX 30 23 31 24 22 26 23 27 24 28 25 29 26 30 27 31 18 32 20 34
REMARK SMILES IDX 33 36 35 38 37 40 38 42 39 43 40 44 7 46 4 48 2 49 1 51 3 52
REMARK SMILES IDX 44 53 45 55 46 56 47 58 48 59 49 60 50 62 51 63 52 64 53 65
REMARK SMILES IDX 54 66 68 67 55 68 67 69 56 70 66 71 57 72 60 73 58 74 59 75
REMARK SMILES IDX 61 76 62 77 63 78 64 79 65 80
REMARK H PARENT 31 25 18 33 20 35 33 37 35 39 37 41 40 45 7 47 4 50 44 54
REMARK H PARENT 46 57 48 61 65 81
REMARK Flexibility Score: inf
ROOT
ATOM      1  C   UNL     1      14.123  30.263  18.667  1.00  0.00     0.176 C 
ENDROOT
BRANCH   1   2
ATOM      2  C   UNL     1      15.052  31.457  18.588  1.00  0.00     0.178 C 
ATOM      3  C   UNL     1      14.863  33.804  18.470  1.00  0.00     0.272 C 
ATOM      4  C   UNL     1      16.441  33.520  18.415  1.00  0.00     0.113 C 
ATOM      5  O   UNL     1      14.260  32.564  18.455  1.00  0.00    -0.332 OA
ATOM      6  C   UNL     1      16.643  32.679  17.205  1.00  0.00     0.145 C 
ATOM      7  C   UNL     1      15.970  31.335  17.403  1.00  0.00     0.142 C 
BRANCH   3   8
ATOM      8  O   UNL     1      14.647  34.421  17.302  1.00  0.00    -0.338 OA
BRANCH   8   9
ATOM      9  C   UNL     1      13.827  35.433  17.082  1.00  0.00     0.199 C 
BRANCH   9  10
ATOM     10  C   UNL     1      12.814  35.339  15.961  1.00  0.00     0.179 C 
ATOM     11  C   UNL     1      12.252  33.479  14.613  1.00  0.00     0.282 C 
ATOM     12  O   UNL     1      13.191  34.343  15.141  1.00  0.00    -0.341 OA
ATOM     13  C   UNL     1      10.971  34.186  14.413  1.00  0.00     0.202 C 
ATOM     14  C   UNL     1      10.402  34.847  15.631  1.00  0.00     0.179 C 
ATOM     15  C   UNL     1      11.498  35.010  16.652  1.00  0.00     0.177 C 
BRANCH  11  16
ATOM     16  O   UNL     1      12.257  32.362  15.419  1.00  0.00    -0.341 OA
BRANCH  16  17
ATOM     17  C   UNL     1      12.290  31.167  14.785  1.00  0.00     0.184 C 
ATOM     18  C   UNL     1      11.289  30.213  15.360  1.00  0.00     0.178 C 
ATOM     19  O   UNL     1      11.162  29.189  14.390  1.00  0.00    -0.341 OA
ATOM     20  C   UNL     1      12.307  28.390  14.402  1.00  0.00     0.281 C 
ATOM     21  C   UNL     1      13.639  30.457  14.933  1.00  0.00     0.180 C 
ATOM     22  C   UNL     1      13.564  29.159  14.157  1.00  0.00     0.202 C 
BRANCH  18  23
ATOM     23  C   UNL     1       9.948  30.792  15.637  1.00  0.00     0.191 C 
BRANCH  23  24
ATOM     24  O   UNL     1      10.015  31.567  16.793  1.00  0.00    -0.394 OA
ATOM     25  H   UNL     1       9.799  32.528  16.578  1.00  0.00     0.210 HD
ENDBRANCH  23  24
ENDBRANCH  18  23
BRANCH  20  26
ATOM     26  O   UNL     1      12.160  27.439  13.397  1.00  0.00    -0.350 OA
BRANCH  26  27
ATOM     27  C   UNL     1      12.052  28.025  12.138  1.00  0.00     0.169 C 
BRANCH  27  28
ATOM     28  C   UNL     1      10.845  27.429  11.448  1.00  0.00     0.119 C 
BRANCH  28  29
ATOM     29  N   UNL     1       9.848  28.455  11.256  1.00  0.00    -0.092 NA
ATOM     30  N   UNL     1       9.051  28.737  12.169  1.00  0.00     0.001 N 
ATOM     31  N   UNL     1       8.030  28.749  12.873  1.00  0.00    -0.003 NA
ENDBRANCH  28  29
ENDBRANCH  27  28
ENDBRANCH  26  27
ENDBRANCH  20  26
BRANCH  21  32
ATOM     32  O   UNL     1      14.685  31.192  14.390  1.00  0.00    -0.387 OA
ATOM     33  H   UNL     1      15.377  31.229  15.098  1.00  0.00     0.211 HD
ENDBRANCH  21  32
BRANCH  22  34
ATOM     34  O   UNL     1      14.633  28.365  14.633  1.00  0.00    -0.385 OA
ATOM     35  H   UNL     1      15.033  27.818  13.921  1.00  0.00     0.211 HD
ENDBRANCH  22  34
ENDBRANCH  16  17
ENDBRANCH  11  16
BRANCH  13  36
ATOM     36  O   UNL     1      11.153  35.211  13.439  1.00  0.00    -0.385 OA
ATOM     37  H   UNL     1      11.464  34.798  12.585  1.00  0.00     0.211 HD
ENDBRANCH  13  36
BRANCH  14  38
ATOM     38  O   UNL     1       9.293  34.186  16.167  1.00  0.00    -0.387 OA
ATOM     39  H   UNL     1       8.584  34.045  15.489  1.00  0.00     0.211 HD
ENDBRANCH  14  38
BRANCH  15  40
ATOM     40  O   UNL     1      11.606  33.849  17.391  1.00  0.00    -0.387 OA
ATOM     41  H   UNL     1      12.274  33.937  18.140  1.00  0.00     0.211 HD
ENDBRANCH  15  40
ENDBRANCH   9  10
ENDBRANCH   8   9
ENDBRANCH   3   8
BRANCH   3  42
ATOM     42  C   UNL     1      14.646  34.479  19.739  1.00  0.00     0.364 C 
ATOM     43  O   UNL     1      13.616  34.523  20.434  1.00  0.00    -0.246 OA
BRANCH  42  44
ATOM     44  O   UNL     1      15.740  35.193  20.287  1.00  0.00    -0.477 OA
ATOM     45  H   UNL     1      15.677  35.466  21.280  1.00  0.00     0.296 HD
ENDBRANCH  42  44
ENDBRANCH   3  42
BRANCH   6  46
ATOM     46  O   UNL     1      15.972  33.363  16.137  1.00  0.00    -0.391 OA
ATOM     47  H   UNL     1      16.527  33.307  15.311  1.00  0.00     0.211 HD
ENDBRANCH   6  46
BRANCH   7  48
ATOM     48  N   UNL     1      16.837  30.213  17.400  1.00  0.00    -0.348 N 
ATOM     49  C   UNL     1      17.432  29.577  16.306  1.00  0.00     0.217 C 
ATOM     50  H   UNL     1      17.065  29.750  18.354  1.00  0.00     0.163 HD
ATOM     51  C   UNL     1      18.317  28.370  16.551  1.00  0.00     0.114 C 
ATOM     52  O   UNL     1      17.286  29.939  15.107  1.00  0.00    -0.275 OA
ENDBRANCH   7  48
ENDBRANCH   1   2
BRANCH   1  53
ATOM     53  O   UNL     1      14.770  29.143  18.176  1.00  0.00    -0.388 OA
ATOM     54  H   UNL     1      15.640  28.962  18.574  1.00  0.00     0.211 HD
ENDBRANCH   1  53
BRANCH   1  55
ATOM     55  C   UNL     1      13.742  29.934  20.111  1.00  0.00     0.165 C 
BRANCH  55  56
ATOM     56  O   UNL     1      13.820  31.003  20.959  1.00  0.00    -0.388 OA
ATOM     57  H   UNL     1      13.511  30.826  21.877  1.00  0.00     0.211 HD
ENDBRANCH  55  56
BRANCH  55  58
ATOM     58  C   UNL     1      14.514  28.758  20.619  1.00  0.00     0.154 C 
BRANCH  58  59
ATOM     59  N   UNL     1      15.760  29.138  21.182  1.00  0.00    -0.319 N 
ATOM     60  C   UNL     1      17.000  28.726  20.645  1.00  0.00     0.407 C 
ATOM     61  H   UNL     1      15.800  29.753  22.039  1.00  0.00     0.167 HD
ATOM     62  O   UNL     1      17.053  27.986  19.623  1.00  0.00    -0.225 OA
BRANCH  60  63
ATOM     63  O   UNL     1      18.219  29.107  21.200  1.00  0.00    -0.443 OA
BRANCH  63  64
ATOM     64  C   UNL     1      19.261  29.448  20.278  1.00  0.00     0.294 C 
BRANCH  64  65
ATOM     65  C   UNL     1      20.223  28.331  20.281  1.00  0.00     0.121 A 
ATOM     66  C   UNL     1      20.808  27.711  21.382  1.00  0.00     0.144 A 
ATOM     67  N   UNL     1      20.707  27.699  19.200  1.00  0.00    -0.131 NA
ATOM     68  N   UNL     1      21.618  26.729  20.925  1.00  0.00    -0.220 N 
ATOM     69  N   UNL     1      21.535  26.748  19.610  1.00  0.00    -0.062 NA
BRANCH  68  70
ATOM     70  C   UNL     1      22.372  25.875  21.769  1.00  0.00     0.067 A 
ATOM     71  C   UNL     1      21.994  25.711  23.102  1.00  0.00     0.036 A 
ATOM     72  C   UNL     1      23.458  25.208  21.312  1.00  0.00     0.028 A 
ATOM     73  C   UNL     1      22.684  24.903  23.951  1.00  0.00    -0.023 A 
ATOM     74  C   UNL     1      24.196  24.369  22.143  1.00  0.00     0.003 A 
ATOM     75  C   UNL     1      23.787  24.236  23.451  1.00  0.00     0.008 A 
BRANCH  73  76
ATOM     76  C   UNL     1      22.297  24.733  25.334  1.00  0.00     0.015 C 
ATOM     77  C   UNL     1      23.160  24.894  26.305  1.00  0.00     0.094 C 
BRANCH  77  78
ATOM     78  C   UNL     1      22.724  24.712  27.692  1.00  0.00     0.328 C 
ATOM     79  O   UNL     1      22.143  25.612  28.308  1.00  0.00    -0.247 OA
BRANCH  78  80
ATOM     80  O   UNL     1      22.959  23.507  28.349  1.00  0.00    -0.478 OA
ATOM     81  H   UNL     1      23.896  23.356  28.727  1.00  0.00     0.297 HD
ENDBRANCH  78  80
ENDBRANCH  77  78
ENDBRANCH  73  76
ENDBRANCH  68  70
ENDBRANCH  64  65
ENDBRANCH  63  64
ENDBRANCH  60  63
ENDBRANCH  58  59
ENDBRANCH  55  58
ENDBRANCH   1  55
TORSDOF 33
