REMARK VINA RESULT:    -5.476      3.516      9.737
REMARK INTER + INTRA:         -20.830
REMARK INTER:                 -14.225
REMARK INTRA:                  -6.605
REMARK UNBOUND:                -6.390
REMARK SMILES CCOC(=O)Cn1cc(COC(=O)NC[C@@H](O)C(O)[C@@H]2O[C@@](OC[C@H]3O[C@@H](O[C@H]4[C@H](O)[C@@H](O)[C@H](OCCN=[N+]=[N-])O[C@@H]4CO)[C@H](O)[C@@H](O)[C@H]3O)(C(=O)O)C[C@H](O)[C@H]2NC(C)=O)nn1
REMARK SMILES IDX 18 1 20 2 22 3 54 4 21 5 55 6 57 7 23 8 24 9 25 10 27 11
REMARK SMILES IDX 26 12 45 13 47 14 49 15 28 16 29 17 42 18 41 19 34 20 30 21
REMARK SMILES IDX 32 22 43 23 44 24 35 26 36 27 37 28 38 29 39 30 40 31 31 32
REMARK SMILES IDX 33 34 46 36 48 38 50 40 51 42 52 43 53 44 56 46 58 48 59 49
REMARK SMILES IDX 60 51 61 52 19 53 16 55 17 56 15 58 14 59 12 60 13 62 11 63
REMARK SMILES IDX 10 64 9 65 8 66 62 67 7 68 63 69 6 70 4 71 5 72 3 73 2 74
REMARK SMILES IDX 1 75
REMARK H PARENT 44 25 31 33 33 35 46 37 48 39 50 41 53 45 56 47 58 50 19 54
REMARK H PARENT 17 57 14 61
REMARK Flexibility Score: inf
ROOT
ATOM      1  C   UNL     1      21.925  29.373  22.538  1.00  0.00     0.176 C 
ENDROOT
BRANCH   1   2
ATOM      2  C   UNL     1      22.201  29.208  21.069  1.00  0.00     0.178 C 
ATOM      3  C   UNL     1      21.201  29.522  18.978  1.00  0.00     0.272 C 
ATOM      4  C   UNL     1      22.352  28.690  18.527  1.00  0.00     0.113 C 
ATOM      5  O   UNL     1      21.367  29.980  20.303  1.00  0.00    -0.332 OA
ATOM      6  C   UNL     1      22.621  27.499  19.389  1.00  0.00     0.145 C 
ATOM      7  C   UNL     1      21.979  27.741  20.746  1.00  0.00     0.142 C 
BRANCH   3   8
ATOM      8  O   UNL     1      19.961  28.932  18.868  1.00  0.00    -0.338 OA
BRANCH   8   9
ATOM      9  C   UNL     1      19.574  28.464  17.660  1.00  0.00     0.199 C 
BRANCH   9  10
ATOM     10  C   UNL     1      18.059  28.185  17.714  1.00  0.00     0.179 C 
ATOM     11  C   UNL     1      16.268  27.977  19.173  1.00  0.00     0.282 C 
ATOM     12  O   UNL     1      17.632  27.981  18.988  1.00  0.00    -0.341 OA
ATOM     13  C   UNL     1      15.572  29.168  18.588  1.00  0.00     0.202 C 
ATOM     14  C   UNL     1      15.827  29.140  17.102  1.00  0.00     0.179 C 
ATOM     15  C   UNL     1      17.306  29.201  16.909  1.00  0.00     0.177 C 
BRANCH  11  16
ATOM     16  O   UNL     1      15.901  27.870  20.504  1.00  0.00    -0.341 OA
BRANCH  16  17
ATOM     17  C   UNL     1      15.708  29.059  21.159  1.00  0.00     0.184 C 
ATOM     18  C   UNL     1      16.959  29.589  21.825  1.00  0.00     0.178 C 
ATOM     19  O   UNL     1      16.871  29.519  23.208  1.00  0.00    -0.341 OA
ATOM     20  C   UNL     1      15.868  30.375  23.719  1.00  0.00     0.281 C 
ATOM     21  C   UNL     1      14.632  28.879  22.230  1.00  0.00     0.180 C 
ATOM     22  C   UNL     1      14.572  30.191  22.996  1.00  0.00     0.202 C 
BRANCH  18  23
ATOM     23  C   UNL     1      17.277  30.968  21.307  1.00  0.00     0.191 C 
BRANCH  23  24
ATOM     24  O   UNL     1      18.237  30.907  20.279  1.00  0.00    -0.394 OA
ATOM     25  H   UNL     1      18.245  31.730  19.751  1.00  0.00     0.210 HD
ENDBRANCH  23  24
ENDBRANCH  18  23
BRANCH  20  26
ATOM     26  O   UNL     1      16.296  31.677  23.717  1.00  0.00    -0.350 OA
BRANCH  26  27
ATOM     27  C   UNL     1      15.749  32.573  24.571  1.00  0.00     0.169 C 
BRANCH  27  28
ATOM     28  C   UNL     1      15.434  32.164  25.961  1.00  0.00     0.119 C 
BRANCH  28  29
ATOM     29  N   UNL     1      14.063  31.993  26.302  1.00  0.00    -0.092 NA
ATOM     30  N   UNL     1      13.726  31.501  27.400  1.00  0.00     0.001 N 
ATOM     31  N   UNL     1      13.611  31.189  28.598  1.00  0.00    -0.003 NA
ENDBRANCH  28  29
ENDBRANCH  27  28
ENDBRANCH  26  27
ENDBRANCH  20  26
BRANCH  21  32
ATOM     32  O   UNL     1      13.404  28.635  21.610  1.00  0.00    -0.387 OA
ATOM     33  H   UNL     1      13.072  29.525  21.275  1.00  0.00     0.211 HD
ENDBRANCH  21  32
BRANCH  22  34
ATOM     34  O   UNL     1      13.466  30.175  23.851  1.00  0.00    -0.385 OA
ATOM     35  H   UNL     1      12.676  30.642  23.483  1.00  0.00     0.211 HD
ENDBRANCH  22  34
ENDBRANCH  16  17
ENDBRANCH  11  16
BRANCH  13  36
ATOM     36  O   UNL     1      14.210  29.058  18.845  1.00  0.00    -0.385 OA
ATOM     37  H   UNL     1      13.966  28.435  19.545  1.00  0.00     0.211 HD
ENDBRANCH  13  36
BRANCH  14  38
ATOM     38  O   UNL     1      15.240  30.298  16.545  1.00  0.00    -0.387 OA
ATOM     39  H   UNL     1      14.557  30.045  15.874  1.00  0.00     0.211 HD
ENDBRANCH  14  38
BRANCH  15  40
ATOM     40  O   UNL     1      17.717  30.516  17.226  1.00  0.00    -0.387 OA
ATOM     41  H   UNL     1      18.642  30.405  17.580  1.00  0.00     0.211 HD
ENDBRANCH  15  40
ENDBRANCH   9  10
ENDBRANCH   8   9
ENDBRANCH   3   8
BRANCH   3  42
ATOM     42  C   UNL     1      21.215  30.771  18.179  1.00  0.00     0.364 C 
ATOM     43  O   UNL     1      20.416  31.693  18.461  1.00  0.00    -0.246 OA
BRANCH  42  44
ATOM     44  O   UNL     1      22.086  30.927  17.138  1.00  0.00    -0.477 OA
ATOM     45  H   UNL     1      21.918  30.519  16.222  1.00  0.00     0.296 HD
ENDBRANCH  42  44
ENDBRANCH   3  42
BRANCH   6  46
ATOM     46  O   UNL     1      22.251  26.291  18.847  1.00  0.00    -0.391 OA
ATOM     47  H   UNL     1      21.259  26.282  18.737  1.00  0.00     0.211 HD
ENDBRANCH   6  46
BRANCH   7  48
ATOM     48  N   UNL     1      22.574  26.880  21.758  1.00  0.00    -0.348 N 
ATOM     49  C   UNL     1      21.873  25.789  22.326  1.00  0.00     0.217 C 
ATOM     50  H   UNL     1      23.542  27.072  22.068  1.00  0.00     0.163 HD
ATOM     51  C   UNL     1      22.471  24.899  23.365  1.00  0.00     0.114 C 
ATOM     52  O   UNL     1      20.696  25.570  21.929  1.00  0.00    -0.275 OA
ENDBRANCH   7  48
ENDBRANCH   1   2
BRANCH   1  53
ATOM     53  O   UNL     1      22.862  30.201  23.121  1.00  0.00    -0.388 OA
ATOM     54  H   UNL     1      22.705  30.353  24.097  1.00  0.00     0.211 HD
ENDBRANCH   1  53
BRANCH   1  55
ATOM     55  C   UNL     1      20.540  29.927  22.823  1.00  0.00     0.165 C 
BRANCH  55  56
ATOM     56  O   UNL     1      20.455  31.286  22.638  1.00  0.00    -0.388 OA
ATOM     57  H   UNL     1      19.812  31.558  21.942  1.00  0.00     0.211 HD
ENDBRANCH  55  56
BRANCH  55  58
ATOM     58  C   UNL     1      20.151  29.535  24.210  1.00  0.00     0.154 C 
BRANCH  58  59
ATOM     59  N   UNL     1      21.167  28.877  24.951  1.00  0.00    -0.319 N 
ATOM     60  C   UNL     1      21.091  27.553  25.460  1.00  0.00     0.407 C 
ATOM     61  H   UNL     1      22.092  29.389  25.169  1.00  0.00     0.167 HD
ATOM     62  O   UNL     1      20.091  26.836  25.285  1.00  0.00    -0.225 OA
BRANCH  60  63
ATOM     63  O   UNL     1      22.180  27.033  26.181  1.00  0.00    -0.443 OA
BRANCH  63  64
ATOM     64  C   UNL     1      22.858  27.812  27.110  1.00  0.00     0.294 C 
BRANCH  64  65
ATOM     65  C   UNL     1      24.043  27.158  27.697  1.00  0.00     0.120 A 
ATOM     66  C   UNL     1      24.841  27.661  28.707  1.00  0.00     0.139 A 
ATOM     67  N   UNL     1      24.582  25.977  27.372  1.00  0.00    -0.132 NA
ATOM     68  N   UNL     1      25.838  26.782  28.968  1.00  0.00    -0.241 N 
ATOM     69  N   UNL     1      25.648  25.775  28.142  1.00  0.00    -0.066 NA
BRANCH  68  70
ATOM     70  C   UNL     1      26.877  26.982  29.971  1.00  0.00     0.268 C 
BRANCH  70  71
ATOM     71  C   UNL     1      27.300  25.618  30.453  1.00  0.00     0.327 C 
ATOM     72  O   UNL     1      26.621  24.964  31.267  1.00  0.00    -0.250 OA
BRANCH  71  73
ATOM     73  O   UNL     1      28.471  25.034  30.005  1.00  0.00    -0.465 OA
BRANCH  73  74
ATOM     74  C   UNL     1      29.491  25.710  29.328  1.00  0.00     0.229 C 
ATOM     75  C   UNL     1      30.836  25.040  29.470  1.00  0.00     0.049 C 
ENDBRANCH  73  74
ENDBRANCH  71  73
ENDBRANCH  70  71
ENDBRANCH  68  70
ENDBRANCH  64  65
ENDBRANCH  63  64
ENDBRANCH  60  63
ENDBRANCH  58  59
ENDBRANCH  55  58
ENDBRANCH   1  55
TORSDOF 33
