REMARK VINA RESULT:    -5.969     14.102     20.415
REMARK INTER + INTRA:         -20.908
REMARK INTER:                 -11.558
REMARK INTRA:                  -9.350
REMARK UNBOUND:                -5.342
REMARK SMILES CC(=O)N[C@@H]1[C@@H](O)C[C@](OC[C@H]2O[C@@H](O[C@H]3[C@H](O)[C@@H](O)[C@H](OCCN=[N+]=[N-])O[C@@H]3CO)[C@H](O)[C@@H](O)[C@H]2O)(C(=O)O)O[C@H]1C(O)[C@H](O)CNC(=O)OCc1cn(CCC(=O)O)nn1
REMARK SMILES IDX 43 1 42 2 9 3 8 4 41 5 6 6 5 7 10 8 11 9 12 10 14 11 13 12
REMARK SMILES IDX 32 13 34 14 36 15 15 16 16 17 29 18 28 19 21 20 17 21 19 22
REMARK SMILES IDX 30 23 31 24 22 26 23 27 24 28 25 29 26 30 27 31 18 32 20 34
REMARK SMILES IDX 33 36 35 38 37 40 38 42 39 43 40 44 7 46 4 48 2 49 1 51 3 52
REMARK SMILES IDX 44 53 45 55 46 56 47 58 48 59 49 60 50 62 51 63 52 64 53 65
REMARK SMILES IDX 54 66 62 67 55 68 61 69 56 70 57 71 58 72 59 73 60 74
REMARK H PARENT 31 25 18 33 20 35 33 37 35 39 37 41 40 45 7 47 4 50 44 54
REMARK H PARENT 46 57 48 61 60 75
REMARK Flexibility Score: inf
ROOT
ATOM      1  C   UNL     1      16.773  30.439  22.714  1.00  0.00     0.176 C 
ENDROOT
BRANCH   1   2
ATOM      2  C   UNL     1      15.792  29.859  21.723  1.00  0.00     0.178 C 
ATOM      3  C   UNL     1      15.654  29.124  19.499  1.00  0.00     0.272 C 
ATOM      4  C   UNL     1      14.320  28.730  20.109  1.00  0.00     0.113 C 
ATOM      5  O   UNL     1      16.116  30.138  20.421  1.00  0.00    -0.332 OA
ATOM      6  C   UNL     1      13.602  29.954  20.713  1.00  0.00     0.145 C 
ATOM      7  C   UNL     1      14.386  30.403  21.939  1.00  0.00     0.142 C 
BRANCH   3   8
ATOM      8  O   UNL     1      15.480  29.683  18.288  1.00  0.00    -0.338 OA
BRANCH   8   9
ATOM      9  C   UNL     1      16.089  29.429  17.163  1.00  0.00     0.199 C 
BRANCH   9  10
ATOM     10  C   UNL     1      17.332  30.029  16.666  1.00  0.00     0.179 C 
ATOM     11  C   UNL     1      19.437  30.865  17.051  1.00  0.00     0.282 C 
ATOM     12  O   UNL     1      18.257  30.437  17.588  1.00  0.00    -0.341 OA
ATOM     13  C   UNL     1      19.519  30.855  15.551  1.00  0.00     0.202 C 
ATOM     14  C   UNL     1      19.003  29.556  14.962  1.00  0.00     0.179 C 
ATOM     15  C   UNL     1      18.067  28.855  15.919  1.00  0.00     0.177 C 
BRANCH  11  16
ATOM     16  O   UNL     1      20.548  30.160  17.512  1.00  0.00    -0.341 OA
BRANCH  16  17
ATOM     17  C   UNL     1      21.286  30.853  18.469  1.00  0.00     0.184 C 
ATOM     18  C   UNL     1      22.724  30.804  18.090  1.00  0.00     0.178 C 
ATOM     19  O   UNL     1      23.523  30.064  18.978  1.00  0.00    -0.341 OA
ATOM     20  C   UNL     1      22.874  28.817  19.090  1.00  0.00     0.281 C 
ATOM     21  C   UNL     1      20.974  30.242  19.803  1.00  0.00     0.180 C 
ATOM     22  C   UNL     1      21.781  29.020  20.115  1.00  0.00     0.202 C 
BRANCH  18  23
ATOM     23  C   UNL     1      23.317  32.201  17.984  1.00  0.00     0.191 C 
BRANCH  23  24
ATOM     24  O   UNL     1      22.306  33.158  18.016  1.00  0.00    -0.394 OA
ATOM     25  H   UNL     1      21.497  32.768  17.610  1.00  0.00     0.210 HD
ENDBRANCH  23  24
ENDBRANCH  18  23
BRANCH  20  26
ATOM     26  O   UNL     1      23.745  27.815  19.445  1.00  0.00    -0.350 OA
BRANCH  26  27
ATOM     27  C   UNL     1      24.884  28.377  20.015  1.00  0.00     0.169 C 
BRANCH  27  28
ATOM     28  C   UNL     1      25.108  27.767  21.392  1.00  0.00     0.119 C 
BRANCH  28  29
ATOM     29  N   UNL     1      25.269  28.876  22.310  1.00  0.00    -0.092 NA
ATOM     30  N   UNL     1      24.591  29.886  22.132  1.00  0.00     0.001 N 
ATOM     31  N   UNL     1      23.975  30.968  22.242  1.00  0.00    -0.003 NA
ENDBRANCH  28  29
ENDBRANCH  27  28
ENDBRANCH  26  27
ENDBRANCH  20  26
BRANCH  21  32
ATOM     32  O   UNL     1      21.237  31.204  20.772  1.00  0.00    -0.387 OA
ATOM     33  H   UNL     1      22.121  31.584  20.599  1.00  0.00     0.211 HD
ENDBRANCH  21  32
BRANCH  22  34
ATOM     34  O   UNL     1      20.965  27.891  20.208  1.00  0.00    -0.385 OA
ATOM     35  H   UNL     1      21.390  27.206  20.795  1.00  0.00     0.211 HD
ENDBRANCH  22  34
ENDBRANCH  16  17
ENDBRANCH  11  16
BRANCH  13  36
ATOM     36  O   UNL     1      18.917  31.974  14.956  1.00  0.00    -0.385 OA
ATOM     37  H   UNL     1      18.144  31.694  14.440  1.00  0.00     0.211 HD
ENDBRANCH  13  36
BRANCH  14  38
ATOM     38  O   UNL     1      20.050  28.763  14.550  1.00  0.00    -0.387 OA
ATOM     39  H   UNL     1      20.346  28.167  15.268  1.00  0.00     0.211 HD
ENDBRANCH  14  38
BRANCH  15  40
ATOM     40  O   UNL     1      18.731  28.160  16.900  1.00  0.00    -0.387 OA
ATOM     41  H   UNL     1      19.199  28.717  17.564  1.00  0.00     0.211 HD
ENDBRANCH  15  40
ENDBRANCH   9  10
ENDBRANCH   8   9
ENDBRANCH   3   8
BRANCH   3  42
ATOM     42  C   UNL     1      16.665  28.064  19.541  1.00  0.00     0.364 C 
ATOM     43  O   UNL     1      16.320  26.860  19.456  1.00  0.00    -0.246 OA
BRANCH  42  44
ATOM     44  O   UNL     1      18.000  28.351  19.673  1.00  0.00    -0.477 OA
ATOM     45  H   UNL     1      18.667  28.389  18.929  1.00  0.00     0.296 HD
ENDBRANCH  42  44
ENDBRANCH   3  42
BRANCH   6  46
ATOM     46  O   UNL     1      13.654  30.959  19.771  1.00  0.00    -0.391 OA
ATOM     47  H   UNL     1      13.236  31.777  20.169  1.00  0.00     0.211 HD
ENDBRANCH   6  46
BRANCH   7  48
ATOM     48  N   UNL     1      13.788  29.902  23.133  1.00  0.00    -0.348 N 
ATOM     49  C   UNL     1      13.389  30.809  24.150  1.00  0.00     0.217 C 
ATOM     50  H   UNL     1      13.626  28.885  23.301  1.00  0.00     0.163 HD
ATOM     51  C   UNL     1      12.763  30.374  25.421  1.00  0.00     0.114 C 
ATOM     52  O   UNL     1      13.557  32.056  24.008  1.00  0.00    -0.275 OA
ENDBRANCH   7  48
ENDBRANCH   1   2
BRANCH   1  53
ATOM     53  O   UNL     1      16.927  29.524  23.756  1.00  0.00    -0.388 OA
ATOM     54  H   UNL     1      17.580  28.831  23.532  1.00  0.00     0.211 HD
ENDBRANCH   1  53
BRANCH   1  55
ATOM     55  C   UNL     1      18.122  30.751  22.149  1.00  0.00     0.165 C 
BRANCH  55  56
ATOM     56  O   UNL     1      18.826  29.553  21.985  1.00  0.00    -0.388 OA
ATOM     57  H   UNL     1      19.416  29.427  22.765  1.00  0.00     0.211 HD
ENDBRANCH  55  56
BRANCH  55  58
ATOM     58  C   UNL     1      18.865  31.568  23.212  1.00  0.00     0.154 C 
BRANCH  58  59
ATOM     59  N   UNL     1      19.933  30.802  23.793  1.00  0.00    -0.319 N 
ATOM     60  C   UNL     1      20.006  30.431  25.163  1.00  0.00     0.407 C 
ATOM     61  H   UNL     1      20.743  30.466  23.191  1.00  0.00     0.167 HD
ATOM     62  O   UNL     1      19.071  30.800  25.918  1.00  0.00    -0.225 OA
BRANCH  60  63
ATOM     63  O   UNL     1      21.055  29.691  25.677  1.00  0.00    -0.443 OA
BRANCH  63  64
ATOM     64  C   UNL     1      22.135  29.356  24.841  1.00  0.00     0.294 C 
BRANCH  64  65
ATOM     65  C   UNL     1      21.877  28.090  24.131  1.00  0.00     0.120 A 
ATOM     66  C   UNL     1      22.710  26.984  24.229  1.00  0.00     0.138 A 
ATOM     67  N   UNL     1      20.843  27.771  23.315  1.00  0.00    -0.132 NA
ATOM     68  N   UNL     1      22.139  26.027  23.459  1.00  0.00    -0.252 N 
ATOM     69  N   UNL     1      21.031  26.526  22.929  1.00  0.00    -0.067 NA
BRANCH  68  70
ATOM     70  C   UNL     1      22.638  24.685  23.250  1.00  0.00     0.158 C 
BRANCH  70  71
ATOM     71  C   UNL     1      23.537  24.565  22.040  1.00  0.00     0.146 C 
BRANCH  71  72
ATOM     72  C   UNL     1      22.689  24.369  20.856  1.00  0.00     0.305 C 
ATOM     73  O   UNL     1      22.085  23.286  20.699  1.00  0.00    -0.252 OA
BRANCH  72  74
ATOM     74  O   UNL     1      22.536  25.362  19.889  1.00  0.00    -0.481 OA
ATOM     75  H   UNL     1      21.861  25.306  19.134  1.00  0.00     0.296 HD
ENDBRANCH  72  74
ENDBRANCH  71  72
ENDBRANCH  70  71
ENDBRANCH  68  70
ENDBRANCH  64  65
ENDBRANCH  63  64
ENDBRANCH  60  63
ENDBRANCH  58  59
ENDBRANCH  55  58
ENDBRANCH   1  55
TORSDOF 33
