REMARK VINA RESULT:    -5.313      7.054     13.249
REMARK INTER + INTRA:         -21.012
REMARK INTER:                 -12.085
REMARK INTRA:                  -8.927
REMARK UNBOUND:                -7.468
REMARK SMILES CC(=O)N[C@@H]1[C@@H](O)C[C@](OC[C@H]2O[C@@H](O[C@H]3[C@H](O)[C@@H](O)[C@H](OCCN=[N+]=[N-])O[C@@H]3CO)[C@H](O)[C@@H](O)[C@H]2O)(C(=O)O)O[C@H]1C(O)[C@H](O)CNC(=O)OCc1cn(CC(=O)O)nn1
REMARK SMILES IDX 9 1 8 2 6 3 5 4 42 5 41 6 10 7 11 8 12 9 14 10 13 11 32 12
REMARK SMILES IDX 34 13 36 14 15 15 16 16 29 17 28 18 21 19 17 20 19 21 30 22
REMARK SMILES IDX 31 23 22 25 23 26 24 27 25 28 26 29 27 30 18 31 20 33 33 35
REMARK SMILES IDX 35 37 37 39 38 41 39 42 40 43 7 45 43 47 44 48 45 50 46 51
REMARK SMILES IDX 47 53 48 54 49 55 50 57 51 58 52 59 53 60 54 61 61 62 55 63
REMARK SMILES IDX 60 64 56 65 57 66 58 67 59 68 4 70 2 71 1 73 3 74
REMARK H PARENT 31 24 18 32 20 34 33 36 35 38 37 40 40 44 7 46 44 49 46 52
REMARK H PARENT 48 56 59 69 4 72
REMARK Flexibility Score: inf
ROOT
ATOM      1  C   UNL     1      11.577  24.055  36.688  1.00  0.00     0.272 C 
ATOM      2  C   UNL     1      12.844  24.646  36.139  1.00  0.00     0.113 C 
ATOM      3  C   UNL     1      12.717  25.909  35.395  1.00  0.00     0.145 C 
ATOM      4  C   UNL     1      11.314  26.270  34.920  1.00  0.00     0.142 C 
ATOM      5  C   UNL     1      10.551  24.984  34.848  1.00  0.00     0.178 C 
ATOM      6  O   UNL     1      10.433  24.616  36.215  1.00  0.00    -0.332 OA
ENDROOT
BRANCH   1   7
ATOM      7  O   UNL     1      11.549  24.105  38.099  1.00  0.00    -0.338 OA
BRANCH   7   8
ATOM      8  C   UNL     1      10.386  24.571  38.632  1.00  0.00     0.199 C 
BRANCH   8   9
ATOM      9  C   UNL     1      10.698  25.675  39.655  1.00  0.00     0.179 C 
ATOM     10  C   UNL     1      12.010  27.566  39.501  1.00  0.00     0.282 C 
ATOM     11  O   UNL     1      11.986  26.136  39.558  1.00  0.00    -0.341 OA
ATOM     12  C   UNL     1      11.356  27.900  38.211  1.00  0.00     0.202 C 
ATOM     13  C   UNL     1       9.847  27.715  38.444  1.00  0.00     0.179 C 
ATOM     14  C   UNL     1       9.639  26.757  39.585  1.00  0.00     0.177 C 
BRANCH  10  15
ATOM     15  O   UNL     1      13.303  27.963  39.676  1.00  0.00    -0.341 OA
BRANCH  15  16
ATOM     16  C   UNL     1      14.149  26.951  40.132  1.00  0.00     0.184 C 
ATOM     17  C   UNL     1      14.527  27.256  41.551  1.00  0.00     0.178 C 
ATOM     18  O   UNL     1      15.767  26.762  41.852  1.00  0.00    -0.341 OA
ATOM     19  C   UNL     1      16.111  25.557  41.294  1.00  0.00     0.281 C 
ATOM     20  C   UNL     1      15.415  26.880  39.305  1.00  0.00     0.180 C 
ATOM     21  C   UNL     1      16.175  25.638  39.778  1.00  0.00     0.202 C 
BRANCH  17  22
ATOM     22  C   UNL     1      13.497  26.647  42.485  1.00  0.00     0.191 C 
BRANCH  22  23
ATOM     23  O   UNL     1      14.110  26.572  43.738  1.00  0.00    -0.394 OA
ATOM     24  H   UNL     1      13.441  26.463  44.450  1.00  0.00     0.210 HD
ENDBRANCH  22  23
ENDBRANCH  17  22
BRANCH  19  25
ATOM     25  O   UNL     1      15.287  24.557  41.734  1.00  0.00    -0.350 OA
BRANCH  25  26
ATOM     26  C   UNL     1      15.921  23.367  41.989  1.00  0.00     0.169 C 
BRANCH  26  27
ATOM     27  C   UNL     1      15.551  22.244  41.056  1.00  0.00     0.119 C 
BRANCH  27  28
ATOM     28  N   UNL     1      16.746  21.615  40.489  1.00  0.00    -0.092 NA
ATOM     29  N   UNL     1      17.634  22.402  40.102  1.00  0.00     0.001 N 
ATOM     30  N   UNL     1      18.499  22.847  39.324  1.00  0.00    -0.003 NA
ENDBRANCH  27  28
ENDBRANCH  26  27
ENDBRANCH  25  26
ENDBRANCH  19  25
BRANCH  20  31
ATOM     31  O   UNL     1      15.187  26.727  37.961  1.00  0.00    -0.387 OA
ATOM     32  H   UNL     1      14.516  27.314  37.577  1.00  0.00     0.211 HD
ENDBRANCH  20  31
BRANCH  21  33
ATOM     33  O   UNL     1      17.495  25.674  39.372  1.00  0.00    -0.385 OA
ATOM     34  H   UNL     1      17.829  26.604  39.287  1.00  0.00     0.211 HD
ENDBRANCH  21  33
ENDBRANCH  15  16
ENDBRANCH  10  15
BRANCH  12  35
ATOM     35  O   UNL     1      11.656  29.107  37.649  1.00  0.00    -0.385 OA
ATOM     36  H   UNL     1      12.189  28.987  36.847  1.00  0.00     0.211 HD
ENDBRANCH  12  35
BRANCH  13  37
ATOM     37  O   UNL     1       9.317  27.207  37.267  1.00  0.00    -0.387 OA
ATOM     38  H   UNL     1       9.930  27.320  36.487  1.00  0.00     0.211 HD
ENDBRANCH  13  37
BRANCH  14  39
ATOM     39  O   UNL     1       8.410  26.137  39.359  1.00  0.00    -0.387 OA
ATOM     40  H   UNL     1       7.879  26.042  40.184  1.00  0.00     0.211 HD
ENDBRANCH  14  39
ENDBRANCH   8   9
ENDBRANCH   7   8
ENDBRANCH   1   7
BRANCH   1  41
ATOM     41  C   UNL     1      11.565  22.611  36.360  1.00  0.00     0.364 C 
ATOM     42  O   UNL     1      12.608  21.998  36.063  1.00  0.00    -0.246 OA
BRANCH  41  43
ATOM     43  O   UNL     1      10.393  21.872  36.367  1.00  0.00    -0.477 OA
ATOM     44  H   UNL     1      10.188  21.146  35.670  1.00  0.00     0.296 HD
ENDBRANCH  41  43
ENDBRANCH   1  41
BRANCH   3  45
ATOM     45  O   UNL     1      13.355  26.999  35.997  1.00  0.00    -0.391 OA
ATOM     46  H   UNL     1      13.883  27.535  35.382  1.00  0.00     0.211 HD
ENDBRANCH   3  45
BRANCH   5  47
ATOM     47  C   UNL     1       9.189  25.026  34.245  1.00  0.00     0.176 C 
BRANCH  47  48
ATOM     48  O   UNL     1       8.611  26.235  34.757  1.00  0.00    -0.388 OA
ATOM     49  H   UNL     1       9.319  26.938  34.810  1.00  0.00     0.211 HD
ENDBRANCH  47  48
BRANCH  47  50
ATOM     50  C   UNL     1       8.291  23.878  34.653  1.00  0.00     0.165 C 
BRANCH  50  51
ATOM     51  O   UNL     1       8.667  22.723  33.919  1.00  0.00    -0.388 OA
ATOM     52  H   UNL     1       9.031  22.079  34.564  1.00  0.00     0.211 HD
ENDBRANCH  50  51
BRANCH  50  53
ATOM     53  C   UNL     1       6.853  24.146  34.437  1.00  0.00     0.154 C 
BRANCH  53  54
ATOM     54  N   UNL     1       6.049  23.813  35.576  1.00  0.00    -0.319 N 
ATOM     55  C   UNL     1       6.038  24.457  36.834  1.00  0.00     0.407 C 
ATOM     56  H   UNL     1       5.352  22.985  35.527  1.00  0.00     0.167 HD
ATOM     57  O   UNL     1       6.775  25.415  37.076  1.00  0.00    -0.225 OA
BRANCH  55  58
ATOM     58  O   UNL     1       5.197  24.044  37.873  1.00  0.00    -0.443 OA
BRANCH  58  59
ATOM     59  C   UNL     1       5.539  24.284  39.227  1.00  0.00     0.294 C 
BRANCH  59  60
ATOM     60  C   UNL     1       6.160  23.066  39.836  1.00  0.00     0.120 A 
ATOM     61  C   UNL     1       7.462  22.946  40.302  1.00  0.00     0.139 A 
ATOM     62  N   UNL     1       5.591  21.870  40.046  1.00  0.00    -0.132 NA
ATOM     63  N   UNL     1       7.624  21.696  40.771  1.00  0.00    -0.241 N 
ATOM     64  N   UNL     1       6.475  21.060  40.604  1.00  0.00    -0.066 NA
BRANCH  63  65
ATOM     65  C   UNL     1       8.831  21.111  41.363  1.00  0.00     0.268 C 
BRANCH  65  66
ATOM     66  C   UNL     1       9.950  21.330  40.429  1.00  0.00     0.325 C 
ATOM     67  O   UNL     1      10.979  21.907  40.809  1.00  0.00    -0.250 OA
BRANCH  66  68
ATOM     68  O   UNL     1       9.848  20.890  39.125  1.00  0.00    -0.480 OA
ATOM     69  H   UNL     1       9.531  21.470  38.376  1.00  0.00     0.296 HD
ENDBRANCH  66  68
ENDBRANCH  65  66
ENDBRANCH  63  65
ENDBRANCH  59  60
ENDBRANCH  58  59
ENDBRANCH  55  58
ENDBRANCH  53  54
ENDBRANCH  50  53
ENDBRANCH  47  50
ENDBRANCH   5  47
BRANCH   4  70
ATOM     70  N   UNL     1      11.357  27.083  33.754  1.00  0.00    -0.348 N 
ATOM     71  C   UNL     1      10.882  28.440  33.743  1.00  0.00     0.217 C 
ATOM     72  H   UNL     1      11.752  26.723  32.863  1.00  0.00     0.163 HD
ATOM     73  C   UNL     1      10.967  29.214  32.482  1.00  0.00     0.114 C 
ATOM     74  O   UNL     1      10.406  28.966  34.776  1.00  0.00    -0.275 OA
ENDBRANCH   4  70
TORSDOF 32
