REMARK VINA RESULT:    -6.477      0.000      0.000
REMARK INTER + INTRA:         -22.593
REMARK INTER:                 -15.050
REMARK INTRA:                  -7.543
REMARK UNBOUND:                -6.272
REMARK SMILES CC(=O)N[C@@H]1[C@@H](O)C[C@](OC[C@H]2O[C@@H](O[C@H]3[C@H](O)[C@@H](O)[C@H](OCCN=[N+]=[N-])O[C@@H]3CO)[C@H](O)[C@@H](O)[C@H]2O)(C(=O)O)O[C@H]1C(O)[C@H](O)CNC(=O)OCc1cn(Cc2cccc(Br)c2)nn1
REMARK SMILES IDX 9 1 8 2 6 3 5 4 42 5 41 6 10 7 11 8 12 9 14 10 13 11 32 12
REMARK SMILES IDX 34 13 36 14 15 15 16 16 29 17 28 18 21 19 17 20 19 21 30 22
REMARK SMILES IDX 31 23 22 25 23 26 24 27 25 28 26 29 27 30 18 31 20 33 33 35
REMARK SMILES IDX 35 37 37 39 38 41 39 42 40 43 7 45 43 47 44 48 45 50 46 51
REMARK SMILES IDX 47 53 48 54 49 55 50 57 51 58 52 59 53 60 54 61 65 62 55 63
REMARK SMILES IDX 64 64 56 65 57 66 58 67 63 68 59 69 61 70 60 71 62 72 4 73
REMARK SMILES IDX 2 74 1 76 3 77
REMARK H PARENT 31 24 18 32 20 34 33 36 35 38 37 40 40 44 7 46 44 49 46 52
REMARK H PARENT 48 56 4 75
REMARK Flexibility Score: inf
ROOT
ATOM      1  C   UNL     1      16.528  30.881  12.457  1.00  0.00     0.272 C 
ATOM      2  C   UNL     1      16.944  30.207  11.205  1.00  0.00     0.113 C 
ATOM      3  C   UNL     1      18.128  29.304  11.335  1.00  0.00     0.145 C 
ATOM      4  C   UNL     1      19.121  29.778  12.372  1.00  0.00     0.142 C 
ATOM      5  C   UNL     1      18.538  30.543  13.474  1.00  0.00     0.178 C 
ATOM      6  O   UNL     1      17.184  30.518  13.600  1.00  0.00    -0.332 OA
ENDROOT
BRANCH   1   7
ATOM      7  O   UNL     1      15.122  30.689  12.636  1.00  0.00    -0.338 OA
BRANCH   7   8
ATOM      8  C   UNL     1      14.837  29.684  13.514  1.00  0.00     0.199 C 
BRANCH   8   9
ATOM      9  C   UNL     1      13.645  30.073  14.413  1.00  0.00     0.179 C 
ATOM     10  C   UNL     1      13.139  30.007  16.699  1.00  0.00     0.282 C 
ATOM     11  O   UNL     1      13.877  29.483  15.612  1.00  0.00    -0.341 OA
ATOM     12  C   UNL     1      12.027  30.873  16.256  1.00  0.00     0.202 C 
ATOM     13  C   UNL     1      12.475  31.994  15.335  1.00  0.00     0.179 C 
ATOM     14  C   UNL     1      13.714  31.577  14.562  1.00  0.00     0.177 C 
BRANCH  10  15
ATOM     15  O   UNL     1      14.097  30.560  17.514  1.00  0.00    -0.341 OA
BRANCH  15  16
ATOM     16  C   UNL     1      14.364  29.928  18.674  1.00  0.00     0.184 C 
ATOM     17  C   UNL     1      14.401  30.938  19.792  1.00  0.00     0.178 C 
ATOM     18  O   UNL     1      14.503  30.260  21.004  1.00  0.00    -0.341 OA
ATOM     19  C   UNL     1      15.708  29.570  21.152  1.00  0.00     0.281 C 
ATOM     20  C   UNL     1      15.741  29.273  18.720  1.00  0.00     0.180 C 
ATOM     21  C   UNL     1      15.761  28.526  20.062  1.00  0.00     0.202 C 
BRANCH  17  22
ATOM     22  C   UNL     1      13.123  31.708  19.805  1.00  0.00     0.191 C 
BRANCH  22  23
ATOM     23  O   UNL     1      13.194  32.801  18.961  1.00  0.00    -0.394 OA
ATOM     24  H   UNL     1      13.745  32.542  18.178  1.00  0.00     0.210 HD
ENDBRANCH  22  23
ENDBRANCH  17  22
BRANCH  19  25
ATOM     25  O   UNL     1      15.687  29.029  22.420  1.00  0.00    -0.350 OA
BRANCH  25  26
ATOM     26  C   UNL     1      16.167  29.838  23.412  1.00  0.00     0.169 C 
BRANCH  26  27
ATOM     27  C   UNL     1      17.346  30.692  23.006  1.00  0.00     0.119 C 
BRANCH  27  28
ATOM     28  N   UNL     1      18.514  29.840  23.016  1.00  0.00    -0.092 NA
ATOM     29  N   UNL     1      19.338  29.812  23.918  1.00  0.00     0.001 N 
ATOM     30  N   UNL     1      20.031  29.757  24.932  1.00  0.00    -0.003 NA
ENDBRANCH  27  28
ENDBRANCH  26  27
ENDBRANCH  25  26
ENDBRANCH  19  25
BRANCH  20  31
ATOM     31  O   UNL     1      15.954  28.354  17.734  1.00  0.00    -0.387 OA
ATOM     32  H   UNL     1      15.207  28.227  17.108  1.00  0.00     0.211 HD
ENDBRANCH  20  31
BRANCH  21  33
ATOM     33  O   UNL     1      16.892  27.752  20.073  1.00  0.00    -0.385 OA
ATOM     34  H   UNL     1      17.409  27.834  20.938  1.00  0.00     0.211 HD
ENDBRANCH  21  33
ENDBRANCH  15  16
ENDBRANCH  10  15
BRANCH  12  35
ATOM     35  O   UNL     1      11.119  30.056  15.535  1.00  0.00    -0.385 OA
ATOM     36  H   UNL     1      10.229  30.495  15.520  1.00  0.00     0.211 HD
ENDBRANCH  12  35
BRANCH  13  37
ATOM     37  O   UNL     1      12.639  33.201  16.006  1.00  0.00    -0.387 OA
ATOM     38  H   UNL     1      11.944  33.254  16.739  1.00  0.00     0.211 HD
ENDBRANCH  13  37
BRANCH  14  39
ATOM     39  O   UNL     1      14.894  31.898  15.191  1.00  0.00    -0.387 OA
ATOM     40  H   UNL     1      15.661  31.397  14.777  1.00  0.00     0.211 HD
ENDBRANCH  14  39
ENDBRANCH   8   9
ENDBRANCH   7   8
ENDBRANCH   1   7
BRANCH   1  41
ATOM     41  C   UNL     1      16.657  32.358  12.280  1.00  0.00     0.364 C 
ATOM     42  O   UNL     1      16.852  32.827  11.103  1.00  0.00    -0.246 OA
BRANCH  41  43
ATOM     43  O   UNL     1      16.589  33.295  13.273  1.00  0.00    -0.477 OA
ATOM     44  H   UNL     1      16.075  33.048  14.130  1.00  0.00     0.296 HD
ENDBRANCH  41  43
ENDBRANCH   1  41
BRANCH   3  45
ATOM     45  O   UNL     1      17.748  27.981  11.511  1.00  0.00    -0.391 OA
ATOM     46  H   UNL     1      18.393  27.445  12.022  1.00  0.00     0.211 HD
ENDBRANCH   3  45
BRANCH   5  47
ATOM     47  C   UNL     1      19.175  30.206  14.832  1.00  0.00     0.176 C 
BRANCH  47  48
ATOM     48  O   UNL     1      20.360  31.043  14.904  1.00  0.00    -0.388 OA
ATOM     49  H   UNL     1      20.431  31.487  14.021  1.00  0.00     0.211 HD
ENDBRANCH  47  48
BRANCH  47  50
ATOM     50  C   UNL     1      18.351  30.552  16.018  1.00  0.00     0.165 C 
BRANCH  50  51
ATOM     51  O   UNL     1      17.951  31.922  15.790  1.00  0.00    -0.388 OA
ATOM     52  H   UNL     1      17.102  31.897  15.252  1.00  0.00     0.211 HD
ENDBRANCH  50  51
BRANCH  50  53
ATOM     53  C   UNL     1      19.025  30.605  17.347  1.00  0.00     0.154 C 
BRANCH  53  54
ATOM     54  N   UNL     1      20.200  29.754  17.446  1.00  0.00    -0.319 N 
ATOM     55  C   UNL     1      20.051  28.431  17.931  1.00  0.00     0.407 C 
ATOM     56  H   UNL     1      21.141  30.087  17.171  1.00  0.00     0.167 HD
ATOM     57  O   UNL     1      18.913  28.005  18.276  1.00  0.00    -0.225 OA
BRANCH  55  58
ATOM     58  O   UNL     1      21.146  27.573  18.038  1.00  0.00    -0.443 OA
BRANCH  58  59
ATOM     59  C   UNL     1      22.139  27.861  19.032  1.00  0.00     0.294 C 
BRANCH  59  60
ATOM     60  C   UNL     1      21.711  27.243  20.308  1.00  0.00     0.120 A 
ATOM     61  C   UNL     1      21.867  25.943  20.722  1.00  0.00     0.138 A 
ATOM     62  N   UNL     1      21.080  27.895  21.292  1.00  0.00    -0.132 NA
ATOM     63  N   UNL     1      21.321  25.851  21.950  1.00  0.00    -0.248 N 
ATOM     64  N   UNL     1      20.850  27.046  22.273  1.00  0.00    -0.067 NA
BRANCH  63  65
ATOM     65  C   UNL     1      21.274  24.634  22.755  1.00  0.00     0.181 C 
BRANCH  65  66
ATOM     66  C   UNL     1      22.346  24.626  23.784  1.00  0.00    -0.025 A 
ATOM     67  C   UNL     1      23.674  24.581  23.414  1.00  0.00     0.006 A 
ATOM     68  C   UNL     1      22.084  24.658  25.132  1.00  0.00     0.021 A 
ATOM     69  C   UNL     1      24.713  24.568  24.317  1.00  0.00     0.002 A 
ATOM     70  C   UNL     1      23.098  24.646  26.062  1.00  0.00     0.018 A 
ATOM     71  C   UNL     1      24.416  24.602  25.687  1.00  0.00     0.016 A 
ATOM     72  Br  UNL     1      22.738  24.692  27.941  1.00  0.00    -0.051 Br
ENDBRANCH  65  66
ENDBRANCH  63  65
ENDBRANCH  59  60
ENDBRANCH  58  59
ENDBRANCH  55  58
ENDBRANCH  53  54
ENDBRANCH  50  53
ENDBRANCH  47  50
ENDBRANCH   5  47
BRANCH   4  73
ATOM     73  N   UNL     1      20.185  30.568  11.699  1.00  0.00    -0.348 N 
ATOM     74  C   UNL     1      21.550  30.239  11.884  1.00  0.00     0.217 C 
ATOM     75  H   UNL     1      19.944  31.381  11.077  1.00  0.00     0.163 HD
ATOM     76  C   UNL     1      22.645  31.024  11.213  1.00  0.00     0.114 C 
ATOM     77  O   UNL     1      21.841  29.265  12.628  1.00  0.00    -0.275 OA
ENDBRANCH   4  73
TORSDOF 31
