REMARK VINA RESULT:    -6.078      4.073     11.175
REMARK INTER + INTRA:         -21.005
REMARK INTER:                 -13.710
REMARK INTRA:                  -7.295
REMARK UNBOUND:                -6.043
REMARK SMILES CC(=O)N[C@@H]1[C@@H](O)C[C@](OC[C@H]2O[C@@H](O[C@H]3[C@H](O)[C@@H](O)[C@H](OCCN=[N+]=[N-])O[C@@H]3CO)[C@H](O)[C@@H](O)[C@H]2O)(C(=O)O)O[C@H]1C(O)[C@H](O)CNC(=O)OCc1cn(-c2ccccc2I)nn1
REMARK SMILES IDX 9 1 8 2 6 3 5 4 42 5 41 6 10 7 11 8 12 9 14 10 13 11 32 12
REMARK SMILES IDX 34 13 36 14 15 15 16 16 29 17 28 18 21 19 17 20 19 21 30 22
REMARK SMILES IDX 31 23 22 25 23 26 24 27 25 28 26 29 27 30 18 31 20 33 33 35
REMARK SMILES IDX 35 37 37 39 38 41 39 42 40 43 7 45 43 47 44 48 45 50 46 51
REMARK SMILES IDX 47 53 48 54 49 55 50 57 51 58 52 59 53 60 54 61 64 62 55 63
REMARK SMILES IDX 63 64 56 65 57 66 61 67 58 68 60 69 62 70 59 71 4 72 2 73
REMARK SMILES IDX 1 75 3 76
REMARK H PARENT 31 24 18 32 20 34 33 36 35 38 37 40 40 44 7 46 44 49 46 52
REMARK H PARENT 48 56 4 74
REMARK Flexibility Score: inf
ROOT
ATOM      1  C   UNL     1      22.952  24.976  24.866  1.00  0.00     0.272 C 
ATOM      2  C   UNL     1      22.061  25.055  26.073  1.00  0.00     0.113 C 
ATOM      3  C   UNL     1      21.460  26.462  26.230  1.00  0.00     0.145 C 
ATOM      4  C   UNL     1      22.684  27.386  26.498  1.00  0.00     0.142 C 
ATOM      5  C   UNL     1      23.711  27.134  25.430  1.00  0.00     0.178 C 
ATOM      6  O   UNL     1      23.119  26.338  24.442  1.00  0.00    -0.332 OA
ENDROOT
BRANCH   1   7
ATOM      7  O   UNL     1      22.467  24.369  23.751  1.00  0.00    -0.338 OA
BRANCH   7   8
ATOM      8  C   UNL     1      22.309  24.862  22.559  1.00  0.00     0.199 C 
BRANCH   8   9
ATOM      9  C   UNL     1      22.856  24.195  21.360  1.00  0.00     0.179 C 
ATOM     10  C   UNL     1      22.795  25.586  19.549  1.00  0.00     0.282 C 
ATOM     11  O   UNL     1      22.295  24.467  20.157  1.00  0.00    -0.341 OA
ATOM     12  C   UNL     1      24.170  25.308  18.953  1.00  0.00     0.202 C 
ATOM     13  C   UNL     1      24.857  24.238  19.834  1.00  0.00     0.179 C 
ATOM     14  C   UNL     1      24.389  24.454  21.260  1.00  0.00     0.177 C 
BRANCH  10  15
ATOM     15  O   UNL     1      22.649  26.783  20.173  1.00  0.00    -0.341 OA
BRANCH  15  16
ATOM     16  C   UNL     1      21.728  27.645  19.623  1.00  0.00     0.184 C 
ATOM     17  C   UNL     1      22.256  28.993  19.211  1.00  0.00     0.178 C 
ATOM     18  O   UNL     1      21.226  29.930  19.188  1.00  0.00    -0.341 OA
ATOM     19  C   UNL     1      19.969  29.379  18.910  1.00  0.00     0.281 C 
ATOM     20  C   UNL     1      20.733  27.987  20.754  1.00  0.00     0.180 C 
ATOM     21  C   UNL     1      19.492  28.489  20.028  1.00  0.00     0.202 C 
BRANCH  17  22
ATOM     22  C   UNL     1      23.069  29.000  17.958  1.00  0.00     0.191 C 
BRANCH  22  23
ATOM     23  O   UNL     1      24.168  29.836  18.190  1.00  0.00    -0.394 OA
ATOM     24  H   UNL     1      24.165  30.080  19.155  1.00  0.00     0.210 HD
ENDBRANCH  22  23
ENDBRANCH  17  22
BRANCH  19  25
ATOM     25  O   UNL     1      19.900  28.812  17.674  1.00  0.00    -0.350 OA
BRANCH  25  26
ATOM     26  C   UNL     1      18.945  29.372  16.885  1.00  0.00     0.169 C 
BRANCH  26  27
ATOM     27  C   UNL     1      17.710  28.567  16.629  1.00  0.00     0.119 C 
BRANCH  27  28
ATOM     28  N   UNL     1      16.616  28.771  17.536  1.00  0.00    -0.092 NA
ATOM     29  N   UNL     1      16.565  28.016  18.525  1.00  0.00     0.001 N 
ATOM     30  N   UNL     1      16.281  27.342  19.516  1.00  0.00    -0.003 NA
ENDBRANCH  27  28
ENDBRANCH  26  27
ENDBRANCH  25  26
ENDBRANCH  19  25
BRANCH  20  31
ATOM     31  O   UNL     1      20.457  26.870  21.518  1.00  0.00    -0.387 OA
ATOM     32  H   UNL     1      20.425  27.170  22.465  1.00  0.00     0.211 HD
ENDBRANCH  20  31
BRANCH  21  33
ATOM     33  O   UNL     1      18.622  29.129  20.908  1.00  0.00    -0.385 OA
ATOM     34  H   UNL     1      17.920  29.607  20.357  1.00  0.00     0.211 HD
ENDBRANCH  21  33
ENDBRANCH  15  16
ENDBRANCH  10  15
BRANCH  12  35
ATOM     35  O   UNL     1      24.105  24.751  17.683  1.00  0.00    -0.385 OA
ATOM     36  H   UNL     1      25.026  24.776  17.313  1.00  0.00     0.211 HD
ENDBRANCH  12  35
BRANCH  13  37
ATOM     37  O   UNL     1      26.212  24.234  19.732  1.00  0.00    -0.387 OA
ATOM     38  H   UNL     1      26.582  24.445  18.822  1.00  0.00     0.211 HD
ENDBRANCH  13  37
BRANCH  14  39
ATOM     39  O   UNL     1      24.569  25.785  21.597  1.00  0.00    -0.387 OA
ATOM     40  H   UNL     1      25.420  25.886  22.128  1.00  0.00     0.211 HD
ENDBRANCH  14  39
ENDBRANCH   8   9
ENDBRANCH   7   8
ENDBRANCH   1   7
BRANCH   1  41
ATOM     41  C   UNL     1      24.280  24.464  25.251  1.00  0.00     0.364 C 
ATOM     42  O   UNL     1      24.616  24.144  26.404  1.00  0.00    -0.246 OA
BRANCH  41  43
ATOM     43  O   UNL     1      25.294  24.304  24.282  1.00  0.00    -0.477 OA
ATOM     44  H   UNL     1      25.486  25.077  23.628  1.00  0.00     0.296 HD
ENDBRANCH  41  43
ENDBRANCH   1  41
BRANCH   3  45
ATOM     45  O   UNL     1      20.777  26.871  25.106  1.00  0.00    -0.391 OA
ATOM     46  H   UNL     1      20.061  26.229  24.886  1.00  0.00     0.211 HD
ENDBRANCH   3  45
BRANCH   5  47
ATOM     47  C   UNL     1      23.995  28.459  24.672  1.00  0.00     0.176 C 
BRANCH  47  48
ATOM     48  O   UNL     1      23.491  29.502  25.542  1.00  0.00    -0.388 OA
ATOM     49  H   UNL     1      23.734  29.196  26.468  1.00  0.00     0.211 HD
ENDBRANCH  47  48
BRANCH  47  50
ATOM     50  C   UNL     1      23.119  28.610  23.465  1.00  0.00     0.165 C 
BRANCH  50  51
ATOM     51  O   UNL     1      23.878  28.306  22.304  1.00  0.00    -0.388 OA
ATOM     52  H   UNL     1      23.763  29.007  21.614  1.00  0.00     0.211 HD
ENDBRANCH  50  51
BRANCH  50  53
ATOM     53  C   UNL     1      22.429  29.888  23.245  1.00  0.00     0.154 C 
BRANCH  53  54
ATOM     54  N   UNL     1      21.011  29.796  22.952  1.00  0.00    -0.319 N 
ATOM     55  C   UNL     1      20.081  29.780  24.035  1.00  0.00     0.407 C 
ATOM     56  H   UNL     1      20.616  29.740  21.992  1.00  0.00     0.167 HD
ATOM     57  O   UNL     1      20.523  29.837  25.230  1.00  0.00    -0.225 OA
BRANCH  55  58
ATOM     58  O   UNL     1      18.710  29.708  23.900  1.00  0.00    -0.443 OA
BRANCH  58  59
ATOM     59  C   UNL     1      17.887  30.838  24.147  1.00  0.00     0.294 C 
BRANCH  59  60
ATOM     60  C   UNL     1      16.612  30.661  23.363  1.00  0.00     0.121 A 
ATOM     61  C   UNL     1      15.599  31.571  23.170  1.00  0.00     0.144 A 
ATOM     62  N   UNL     1      16.247  29.545  22.709  1.00  0.00    -0.131 NA
ATOM     63  N   UNL     1      14.682  30.943  22.408  1.00  0.00    -0.219 N 
ATOM     64  N   UNL     1      15.081  29.716  22.132  1.00  0.00    -0.062 NA
BRANCH  63  65
ATOM     65  C   UNL     1      13.446  31.481  21.953  1.00  0.00     0.080 A 
ATOM     66  C   UNL     1      13.367  32.154  20.739  1.00  0.00     0.029 A 
ATOM     67  C   UNL     1      12.299  31.358  22.702  1.00  0.00     0.039 A 
ATOM     68  C   UNL     1      12.132  32.672  20.335  1.00  0.00     0.002 A 
ATOM     69  C   UNL     1      11.071  31.883  22.281  1.00  0.00     0.017 A 
ATOM     70  I   UNL     1      12.389  30.342  24.555  1.00  0.00    -0.042 I 
ATOM     71  C   UNL     1      10.986  32.547  21.084  1.00  0.00     0.001 A 
ENDBRANCH  63  65
ENDBRANCH  59  60
ENDBRANCH  58  59
ENDBRANCH  55  58
ENDBRANCH  53  54
ENDBRANCH  50  53
ENDBRANCH  47  50
ENDBRANCH   5  47
BRANCH   4  72
ATOM     72  N   UNL     1      23.082  27.114  27.831  1.00  0.00    -0.348 N 
ATOM     73  C   UNL     1      23.472  28.147  28.756  1.00  0.00     0.217 C 
ATOM     74  H   UNL     1      23.116  26.157  28.226  1.00  0.00     0.163 HD
ATOM     75  C   UNL     1      23.888  27.874  30.144  1.00  0.00     0.114 C 
ATOM     76  O   UNL     1      23.443  29.326  28.314  1.00  0.00    -0.275 OA
ENDBRANCH   4  72
TORSDOF 30
