REMARK VINA RESULT:    -4.450     10.392     14.959
REMARK INTER + INTRA:         -22.052
REMARK INTER:                 -16.094
REMARK INTRA:                  -5.958
REMARK UNBOUND:               -10.839
REMARK SMILES CC(=O)N[C@@H]1[C@@H](O)C[C@](OC[C@H]2O[C@@H](O[C@H]3[C@H](O)[C@@H](O)[C@H](OCCN=[N+]=[N-])O[C@@H]3CO)[C@H](O)[C@@H](O)[C@H]2O)(C(=O)O)O[C@H]1C(O)[C@H](O)CNC(=O)OCc1cn(-c2ccccc2C(C)C)nn1
REMARK SMILES IDX 9 1 8 2 6 3 5 4 42 5 41 6 10 7 11 8 12 9 14 10 13 11 32 12
REMARK SMILES IDX 34 13 36 14 15 15 16 16 29 17 28 18 21 19 17 20 19 21 30 22
REMARK SMILES IDX 31 23 22 25 23 26 24 27 25 28 26 29 27 30 18 31 20 33 33 35
REMARK SMILES IDX 35 37 37 39 38 41 39 42 40 43 7 45 43 47 44 48 45 50 46 51
REMARK SMILES IDX 47 53 48 54 49 55 50 57 51 58 52 59 53 60 54 61 66 62 55 63
REMARK SMILES IDX 65 64 56 65 61 66 57 67 60 68 58 69 59 70 62 71 63 72 64 73
REMARK SMILES IDX 4 74 2 75 1 77 3 78
REMARK H PARENT 31 24 18 32 20 34 33 36 35 38 37 40 40 44 7 46 44 49 46 52
REMARK H PARENT 48 56 4 76
REMARK Flexibility Score: inf
ROOT
ATOM      1  C   UNL     1      13.017  30.420  23.394  1.00  0.00     0.272 C 
ATOM      2  C   UNL     1      12.477  31.569  22.573  1.00  0.00     0.113 C 
ATOM      3  C   UNL     1      13.462  32.721  22.697  1.00  0.00     0.145 C 
ATOM      4  C   UNL     1      13.376  33.223  24.150  1.00  0.00     0.142 C 
ATOM      5  C   UNL     1      13.512  32.043  25.035  1.00  0.00     0.178 C 
ATOM      6  O   UNL     1      13.975  30.959  24.303  1.00  0.00    -0.332 OA
ENDROOT
BRANCH   1   7
ATOM      7  O   UNL     1      13.738  29.555  22.656  1.00  0.00    -0.338 OA
BRANCH   7   8
ATOM      8  C   UNL     1      13.544  29.048  21.488  1.00  0.00     0.199 C 
BRANCH   8   9
ATOM      9  C   UNL     1      14.628  28.690  20.523  1.00  0.00     0.179 C 
ATOM     10  C   UNL     1      15.345  28.898  18.377  1.00  0.00     0.282 C 
ATOM     11  O   UNL     1      14.298  28.924  19.212  1.00  0.00    -0.341 OA
ATOM     12  C   UNL     1      16.618  28.249  18.901  1.00  0.00     0.202 C 
ATOM     13  C   UNL     1      17.050  28.852  20.211  1.00  0.00     0.179 C 
ATOM     14  C   UNL     1      15.876  29.548  20.833  1.00  0.00     0.177 C 
BRANCH  10  15
ATOM     15  O   UNL     1      15.698  30.054  17.750  1.00  0.00    -0.341 OA
BRANCH  15  16
ATOM     16  C   UNL     1      15.589  30.144  16.385  1.00  0.00     0.184 C 
ATOM     17  C   UNL     1      14.200  30.418  15.910  1.00  0.00     0.178 C 
ATOM     18  O   UNL     1      13.714  29.480  15.068  1.00  0.00    -0.341 OA
ATOM     19  C   UNL     1      14.404  29.143  13.945  1.00  0.00     0.281 C 
ATOM     20  C   UNL     1      16.219  29.050  15.623  1.00  0.00     0.180 C 
ATOM     21  C   UNL     1      15.915  29.267  14.150  1.00  0.00     0.202 C 
BRANCH  17  22
ATOM     22  C   UNL     1      14.047  31.790  15.234  1.00  0.00     0.191 C 
BRANCH  22  23
ATOM     23  O   UNL     1      12.677  31.947  14.922  1.00  0.00    -0.394 OA
ATOM     24  H   UNL     1      12.619  31.876  13.917  1.00  0.00     0.210 HD
ENDBRANCH  22  23
ENDBRANCH  17  22
BRANCH  19  25
ATOM     25  O   UNL     1      14.059  29.958  12.900  1.00  0.00    -0.350 OA
BRANCH  25  26
ATOM     26  C   UNL     1      13.109  29.524  12.030  1.00  0.00     0.169 C 
BRANCH  26  27
ATOM     27  C   UNL     1      12.123  30.506  11.517  1.00  0.00     0.119 C 
BRANCH  27  28
ATOM     28  N   UNL     1      11.114  30.807  12.477  1.00  0.00    -0.092 NA
ATOM     29  N   UNL     1      10.633  30.054  13.299  1.00  0.00     0.001 N 
ATOM     30  N   UNL     1      10.364  29.222  14.158  1.00  0.00    -0.003 NA
ENDBRANCH  27  28
ENDBRANCH  26  27
ENDBRANCH  25  26
ENDBRANCH  19  25
BRANCH  20  31
ATOM     31  O   UNL     1      17.608  28.998  15.726  1.00  0.00    -0.387 OA
ATOM     32  H   UNL     1      17.989  29.524  14.989  1.00  0.00     0.211 HD
ENDBRANCH  20  31
BRANCH  21  33
ATOM     33  O   UNL     1      16.533  28.288  13.370  1.00  0.00    -0.385 OA
ATOM     34  H   UNL     1      15.870  27.999  12.693  1.00  0.00     0.211 HD
ENDBRANCH  21  33
ENDBRANCH  15  16
ENDBRANCH  10  15
BRANCH  12  35
ATOM     35  O   UNL     1      16.380  26.892  19.034  1.00  0.00    -0.385 OA
ATOM     36  H   UNL     1      16.260  26.660  20.009  1.00  0.00     0.211 HD
ENDBRANCH  12  35
BRANCH  13  37
ATOM     37  O   UNL     1      18.109  29.741  19.979  1.00  0.00    -0.387 OA
ATOM     38  H   UNL     1      18.009  30.057  19.046  1.00  0.00     0.211 HD
ENDBRANCH  13  37
BRANCH  14  39
ATOM     39  O   UNL     1      15.685  30.774  20.231  1.00  0.00    -0.387 OA
ATOM     40  H   UNL     1      15.186  31.350  20.863  1.00  0.00     0.211 HD
ENDBRANCH  14  39
ENDBRANCH   8   9
ENDBRANCH   7   8
ENDBRANCH   1   7
BRANCH   1  41
ATOM     41  C   UNL     1      11.964  29.772  24.185  1.00  0.00     0.364 C 
ATOM     42  O   UNL     1      10.782  30.256  24.062  1.00  0.00    -0.246 OA
BRANCH  41  43
ATOM     43  O   UNL     1      12.066  28.715  25.049  1.00  0.00    -0.477 OA
ATOM     44  H   UNL     1      11.314  28.154  25.405  1.00  0.00     0.296 HD
ENDBRANCH  41  43
ENDBRANCH   1  41
BRANCH   3  45
ATOM     45  O   UNL     1      14.769  32.241  22.561  1.00  0.00    -0.391 OA
ATOM     46  H   UNL     1      14.875  31.498  23.207  1.00  0.00     0.211 HD
ENDBRANCH   3  45
BRANCH   5  47
ATOM     47  C   UNL     1      14.448  32.158  26.200  1.00  0.00     0.176 C 
BRANCH  47  48
ATOM     48  O   UNL     1      14.892  33.526  26.131  1.00  0.00    -0.388 OA
ATOM     49  H   UNL     1      14.422  33.844  25.296  1.00  0.00     0.211 HD
ENDBRANCH  47  48
BRANCH  47  50
ATOM     50  C   UNL     1      15.696  31.337  26.149  1.00  0.00     0.165 C 
BRANCH  50  51
ATOM     51  O   UNL     1      15.989  30.686  27.317  1.00  0.00    -0.388 OA
ATOM     52  H   UNL     1      16.877  31.014  27.612  1.00  0.00     0.211 HD
ENDBRANCH  50  51
BRANCH  50  53
ATOM     53  C   UNL     1      16.810  31.979  25.411  1.00  0.00     0.154 C 
BRANCH  53  54
ATOM     54  N   UNL     1      17.238  31.292  24.207  1.00  0.00    -0.319 N 
ATOM     55  C   UNL     1      18.451  30.562  24.161  1.00  0.00     0.407 C 
ATOM     56  H   UNL     1      16.676  31.304  23.329  1.00  0.00     0.167 HD
ATOM     57  O   UNL     1      19.236  30.457  25.130  1.00  0.00    -0.225 OA
BRANCH  55  58
ATOM     58  O   UNL     1      18.886  29.878  23.001  1.00  0.00    -0.443 OA
BRANCH  58  59
ATOM     59  C   UNL     1      20.187  30.061  22.531  1.00  0.00     0.294 C 
BRANCH  59  60
ATOM     60  C   UNL     1      20.733  28.736  22.121  1.00  0.00     0.121 A 
ATOM     61  C   UNL     1      21.899  28.098  22.482  1.00  0.00     0.144 A 
ATOM     62  N   UNL     1      20.132  27.858  21.257  1.00  0.00    -0.131 NA
ATOM     63  N   UNL     1      22.004  26.904  21.877  1.00  0.00    -0.220 N 
ATOM     64  N   UNL     1      20.896  26.794  21.131  1.00  0.00    -0.062 NA
BRANCH  63  65
ATOM     65  C   UNL     1      23.034  25.925  21.973  1.00  0.00     0.070 A 
ATOM     66  C   UNL     1      23.112  25.135  23.098  1.00  0.00    -0.020 A 
ATOM     67  C   UNL     1      23.981  25.725  20.994  1.00  0.00     0.029 A 
ATOM     68  C   UNL     1      24.104  24.184  23.235  1.00  0.00     0.006 A 
ATOM     69  C   UNL     1      24.980  24.776  21.114  1.00  0.00     0.002 A 
ATOM     70  C   UNL     1      25.043  23.994  22.250  1.00  0.00     0.000 A 
BRANCH  66  71
ATOM     71  C   UNL     1      22.108  25.310  24.168  1.00  0.00     0.015 C 
ATOM     72  C   UNL     1      22.690  24.749  25.456  1.00  0.00     0.012 C 
ATOM     73  C   UNL     1      20.853  24.492  23.827  1.00  0.00     0.012 C 
ENDBRANCH  66  71
ENDBRANCH  63  65
ENDBRANCH  59  60
ENDBRANCH  58  59
ENDBRANCH  55  58
ENDBRANCH  53  54
ENDBRANCH  50  53
ENDBRANCH  47  50
ENDBRANCH   5  47
BRANCH   4  74
ATOM     74  N   UNL     1      12.103  33.892  24.289  1.00  0.00    -0.348 N 
ATOM     75  C   UNL     1      11.820  34.908  25.215  1.00  0.00     0.217 C 
ATOM     76  H   UNL     1      11.314  33.588  23.643  1.00  0.00     0.163 HD
ATOM     77  C   UNL     1      10.441  35.501  25.236  1.00  0.00     0.114 C 
ATOM     78  O   UNL     1      12.687  35.312  26.002  1.00  0.00    -0.275 OA
ENDBRANCH   4  74
TORSDOF 31
