REMARK VINA RESULT:    -4.491      4.542      7.863
REMARK INTER + INTRA:         -21.309
REMARK INTER:                 -12.630
REMARK INTRA:                  -8.679
REMARK UNBOUND:                -8.679
REMARK SMILES CCOC(CCn1cc(COC(=O)NC[C@@H](O)C(O)[C@@H]2O[C@@](OC[C@H]3O[C@@H](O[C@H]4[C@H](O)[C@@H](O)[C@H](OCCN=[N+]=[N-])O[C@@H]4CO)[C@H](O)[C@@H](O)[C@H]3O)(C(=O)O)C[C@H](O)[C@H]2NC(C)=O)nn1)OCC
REMARK SMILES IDX 18 1 20 2 22 3 54 4 21 5 55 6 57 7 23 8 24 9 25 10 27 11
REMARK SMILES IDX 26 12 45 13 47 14 49 15 28 16 29 17 42 18 41 19 34 20 30 21
REMARK SMILES IDX 32 22 43 23 44 24 35 26 36 27 37 28 38 29 39 30 40 31 31 32
REMARK SMILES IDX 33 34 46 36 48 38 50 40 51 42 52 43 53 44 56 46 58 48 59 49
REMARK SMILES IDX 60 51 61 52 19 53 16 55 17 56 15 58 14 59 12 60 13 62 11 63
REMARK SMILES IDX 10 64 9 65 8 66 62 67 7 68 63 69 6 70 5 71 4 72 3 73 2 74
REMARK SMILES IDX 1 75 64 76 65 77 66 78
REMARK H PARENT 44 25 31 33 33 35 46 37 48 39 50 41 53 45 56 47 58 50 19 54
REMARK H PARENT 17 57 14 61
REMARK Flexibility Score: inf
ROOT
ATOM      1  C   UNL     1      14.564  30.285  16.831  1.00  0.00     0.176 C 
ENDROOT
BRANCH   1   2
ATOM      2  C   UNL     1      13.263  30.092  16.111  1.00  0.00     0.178 C 
ATOM      3  C   UNL     1      12.296  29.767  14.035  1.00  0.00     0.272 C 
ATOM      4  C   UNL     1      11.101  29.637  14.911  1.00  0.00     0.113 C 
ATOM      5  O   UNL     1      13.488  30.036  14.745  1.00  0.00    -0.332 OA
ATOM      6  C   UNL     1      10.948  30.671  15.971  1.00  0.00     0.145 C 
ATOM      7  C   UNL     1      12.316  31.282  16.303  1.00  0.00     0.142 C 
BRANCH   3   8
ATOM      8  O   UNL     1      12.241  30.603  12.995  1.00  0.00    -0.338 OA
BRANCH   8   9
ATOM      9  C   UNL     1      13.282  31.382  12.648  1.00  0.00     0.199 C 
BRANCH   9  10
ATOM     10  C   UNL     1      13.806  31.019  11.277  1.00  0.00     0.179 C 
ATOM     11  C   UNL     1      15.357  29.910  10.090  1.00  0.00     0.282 C 
ATOM     12  O   UNL     1      14.545  29.850  11.254  1.00  0.00    -0.341 OA
ATOM     13  C   UNL     1      14.478  29.734   8.908  1.00  0.00     0.202 C 
ATOM     14  C   UNL     1      13.400  30.791   8.912  1.00  0.00     0.179 C 
ATOM     15  C   UNL     1      12.695  30.945  10.234  1.00  0.00     0.177 C 
BRANCH  11  16
ATOM     16  O   UNL     1      16.387  28.972  10.212  1.00  0.00    -0.341 OA
BRANCH  16  17
ATOM     17  C   UNL     1      17.448  29.557  10.827  1.00  0.00     0.184 C 
ATOM     18  C   UNL     1      18.734  29.651  10.101  1.00  0.00     0.178 C 
ATOM     19  O   UNL     1      19.527  30.609  10.748  1.00  0.00    -0.341 OA
ATOM     20  C   UNL     1      19.910  30.148  12.016  1.00  0.00     0.281 C 
ATOM     21  C   UNL     1      17.807  28.792  12.141  1.00  0.00     0.180 C 
ATOM     22  C   UNL     1      18.722  29.780  12.878  1.00  0.00     0.202 C 
BRANCH  18  23
ATOM     23  C   UNL     1      18.534  30.091   8.682  1.00  0.00     0.191 C 
BRANCH  23  24
ATOM     24  O   UNL     1      18.115  29.048   7.857  1.00  0.00    -0.394 OA
ATOM     25  H   UNL     1      18.608  28.222   8.007  1.00  0.00     0.210 HD
ENDBRANCH  23  24
ENDBRANCH  18  23
BRANCH  20  26
ATOM     26  O   UNL     1      20.575  31.195  12.631  1.00  0.00    -0.350 OA
BRANCH  26  27
ATOM     27  C   UNL     1      20.037  32.436  12.475  1.00  0.00     0.169 C 
BRANCH  27  28
ATOM     28  C   UNL     1      20.283  33.273  13.703  1.00  0.00     0.119 C 
BRANCH  28  29
ATOM     29  N   UNL     1      19.513  32.726  14.818  1.00  0.00    -0.092 NA
ATOM     30  N   UNL     1      20.184  32.064  15.637  1.00  0.00     0.001 N 
ATOM     31  N   UNL     1      20.546  31.100  16.315  1.00  0.00    -0.003 NA
ENDBRANCH  28  29
ENDBRANCH  27  28
ENDBRANCH  26  27
ENDBRANCH  20  26
BRANCH  21  32
ATOM     32  O   UNL     1      16.687  28.523  12.881  1.00  0.00    -0.387 OA
ATOM     33  H   UNL     1      16.014  27.994  12.388  1.00  0.00     0.211 HD
ENDBRANCH  21  32
BRANCH  22  34
ATOM     34  O   UNL     1      19.168  29.256  14.061  1.00  0.00    -0.385 OA
ATOM     35  H   UNL     1      18.469  28.601  14.373  1.00  0.00     0.211 HD
ENDBRANCH  22  34
ENDBRANCH  16  17
ENDBRANCH  11  16
BRANCH  13  36
ATOM     36  O   UNL     1      15.186  29.919   7.710  1.00  0.00    -0.385 OA
ATOM     37  H   UNL     1      15.030  29.182   7.077  1.00  0.00     0.211 HD
ENDBRANCH  13  36
BRANCH  14  38
ATOM     38  O   UNL     1      12.512  30.633   7.854  1.00  0.00    -0.387 OA
ATOM     39  H   UNL     1      12.435  29.678   7.587  1.00  0.00     0.211 HD
ENDBRANCH  14  38
BRANCH  15  40
ATOM     40  O   UNL     1      11.864  29.873  10.524  1.00  0.00    -0.387 OA
ATOM     41  H   UNL     1      12.088  29.092   9.970  1.00  0.00     0.211 HD
ENDBRANCH  15  40
ENDBRANCH   9  10
ENDBRANCH   8   9
ENDBRANCH   3   8
BRANCH   3  42
ATOM     42  C   UNL     1      12.548  28.404  13.465  1.00  0.00     0.364 C 
ATOM     43  O   UNL     1      11.637  27.731  12.948  1.00  0.00    -0.246 OA
BRANCH  42  44
ATOM     44  O   UNL     1      13.816  27.833  13.491  1.00  0.00    -0.477 OA
ATOM     45  H   UNL     1      14.091  27.237  12.717  1.00  0.00     0.296 HD
ENDBRANCH  42  44
ENDBRANCH   3  42
BRANCH   6  46
ATOM     46  O   UNL     1      10.026  31.651  15.698  1.00  0.00    -0.391 OA
ATOM     47  H   UNL     1       9.086  31.377  15.839  1.00  0.00     0.211 HD
ENDBRANCH   6  46
BRANCH   7  48
ATOM     48  N   UNL     1      12.361  31.838  17.615  1.00  0.00    -0.348 N 
ATOM     49  C   UNL     1      12.117  33.233  17.763  1.00  0.00     0.217 C 
ATOM     50  H   UNL     1      12.559  31.280  18.467  1.00  0.00     0.163 HD
ATOM     51  C   UNL     1      12.157  33.843  19.117  1.00  0.00     0.114 C 
ATOM     52  O   UNL     1      11.864  33.973  16.754  1.00  0.00    -0.275 OA
ENDBRANCH   7  48
ENDBRANCH   1   2
BRANCH   1  53
ATOM     53  O   UNL     1      14.589  29.338  17.871  1.00  0.00    -0.388 OA
ATOM     54  H   UNL     1      14.038  29.656  18.644  1.00  0.00     0.211 HD
ENDBRANCH   1  53
BRANCH   1  55
ATOM     55  C   UNL     1      15.682  29.914  15.876  1.00  0.00     0.165 C 
BRANCH  55  56
ATOM     56  O   UNL     1      15.686  28.574  15.615  1.00  0.00    -0.388 OA
ATOM     57  H   UNL     1      16.456  28.259  15.079  1.00  0.00     0.211 HD
ENDBRANCH  55  56
BRANCH  55  58
ATOM     58  C   UNL     1      17.010  30.351  16.430  1.00  0.00     0.154 C 
BRANCH  58  59
ATOM     59  N   UNL     1      17.433  29.688  17.629  1.00  0.00    -0.319 N 
ATOM     60  C   UNL     1      18.316  28.598  17.683  1.00  0.00     0.407 C 
ATOM     61  H   UNL     1      17.027  30.077  18.535  1.00  0.00     0.167 HD
ATOM     62  O   UNL     1      18.836  28.093  16.674  1.00  0.00    -0.225 OA
BRANCH  60  63
ATOM     63  O   UNL     1      18.657  28.016  18.924  1.00  0.00    -0.443 OA
BRANCH  63  64
ATOM     64  C   UNL     1      18.599  28.824  20.108  1.00  0.00     0.294 C 
BRANCH  64  65
ATOM     65  C   UNL     1      17.196  28.843  20.597  1.00  0.00     0.120 A 
ATOM     66  C   UNL     1      16.625  29.743  21.464  1.00  0.00     0.138 A 
ATOM     67  N   UNL     1      16.242  27.967  20.274  1.00  0.00    -0.132 NA
ATOM     68  N   UNL     1      15.339  29.367  21.629  1.00  0.00    -0.252 N 
ATOM     69  N   UNL     1      15.141  28.288  20.893  1.00  0.00    -0.067 NA
BRANCH  68  70
ATOM     70  C   UNL     1      14.400  30.055  22.465  1.00  0.00     0.151 C 
BRANCH  70  71
ATOM     71  C   UNL     1      14.439  29.660  23.913  1.00  0.00     0.086 C 
BRANCH  71  72
ATOM     72  C   UNL     1      15.344  30.631  24.671  1.00  0.00     0.251 C 
BRANCH  72  73
ATOM     73  O   UNL     1      14.957  30.577  25.996  1.00  0.00    -0.353 OA
BRANCH  73  74
ATOM     74  C   UNL     1      13.675  31.071  26.194  1.00  0.00     0.160 C 
ATOM     75  C   UNL     1      13.648  32.133  27.275  1.00  0.00     0.035 C 
ENDBRANCH  73  74
ENDBRANCH  72  73
BRANCH  72  76
ATOM     76  O   UNL     1      15.364  31.869  24.102  1.00  0.00    -0.353 OA
BRANCH  76  77
ATOM     77  C   UNL     1      16.523  32.590  24.205  1.00  0.00     0.160 C 
ATOM     78  C   UNL     1      16.292  33.775  25.113  1.00  0.00     0.035 C 
ENDBRANCH  76  77
ENDBRANCH  72  76
ENDBRANCH  71  72
ENDBRANCH  70  71
ENDBRANCH  68  70
ENDBRANCH  64  65
ENDBRANCH  63  64
ENDBRANCH  60  63
ENDBRANCH  58  59
ENDBRANCH  55  58
ENDBRANCH   1  55
TORSDOF 36
