REMARK VINA RESULT:    -5.584      6.883     11.087
REMARK INTER + INTRA:         -21.839
REMARK INTER:                 -15.277
REMARK INTRA:                  -6.562
REMARK UNBOUND:                -7.606
REMARK SMILES CC(=O)N[C@@H]1[C@@H](O)C[C@](OC[C@H]2O[C@@H](O[C@H]3[C@H](O)[C@@H](O)[C@H](OCCN=[N+]=[N-])O[C@@H]3CO)[C@H](O)[C@@H](O)[C@H]2O)(C(=O)O)O[C@H]1C(O)[C@H](O)CNC(=O)OCc1cn(-c2ccc(CO)cn2)nn1
REMARK SMILES IDX 9 1 8 2 6 3 5 4 42 5 41 6 10 7 11 8 12 9 14 10 13 11 32 12
REMARK SMILES IDX 34 13 36 14 15 15 16 16 29 17 28 18 21 19 17 20 19 21 30 22
REMARK SMILES IDX 31 23 22 25 23 26 24 27 25 28 26 29 27 30 18 31 20 33 33 35
REMARK SMILES IDX 35 37 37 39 38 41 39 42 40 43 7 45 43 47 44 48 45 50 46 51
REMARK SMILES IDX 47 53 48 54 49 55 50 57 51 58 52 59 53 60 54 61 65 62 55 63
REMARK SMILES IDX 64 64 56 65 57 66 63 67 58 68 62 69 59 70 60 71 61 72 4 74
REMARK SMILES IDX 2 75 1 77 3 78
REMARK H PARENT 31 24 18 32 20 34 33 36 35 38 37 40 40 44 7 46 44 49 46 52
REMARK H PARENT 48 56 61 73 4 76
REMARK Flexibility Score: inf
ROOT
ATOM      1  C   UNL     1      21.471  29.927  22.822  1.00  0.00     0.272 C 
ATOM      2  C   UNL     1      20.357  29.900  23.802  1.00  0.00     0.113 C 
ATOM      3  C   UNL     1      19.082  30.464  23.239  1.00  0.00     0.145 C 
ATOM      4  C   UNL     1      18.806  29.864  21.874  1.00  0.00     0.142 C 
ATOM      5  C   UNL     1      19.995  29.972  21.011  1.00  0.00     0.178 C 
ATOM      6  O   UNL     1      21.127  29.488  21.569  1.00  0.00    -0.332 OA
ENDROOT
BRANCH   1   7
ATOM      7  O   UNL     1      22.580  29.200  23.216  1.00  0.00    -0.338 OA
BRANCH   7   8
ATOM      8  C   UNL     1      22.931  28.213  22.319  1.00  0.00     0.199 C 
BRANCH   8   9
ATOM      9  C   UNL     1      22.829  26.871  22.980  1.00  0.00     0.179 C 
ATOM     10  C   UNL     1      22.720  25.875  25.006  1.00  0.00     0.282 C 
ATOM     11  O   UNL     1      22.210  26.956  24.242  1.00  0.00    -0.341 OA
ATOM     12  C   UNL     1      22.592  24.616  24.251  1.00  0.00     0.202 C 
ATOM     13  C   UNL     1      21.700  24.668  23.022  1.00  0.00     0.179 C 
ATOM     14  C   UNL     1      22.025  25.899  22.180  1.00  0.00     0.177 C 
BRANCH  10  15
ATOM     15  O   UNL     1      22.114  25.876  26.266  1.00  0.00    -0.341 OA
BRANCH  15  16
ATOM     16  C   UNL     1      22.963  26.298  27.266  1.00  0.00     0.184 C 
ATOM     17  C   UNL     1      22.707  25.723  28.623  1.00  0.00     0.178 C 
ATOM     18  O   UNL     1      22.241  26.656  29.545  1.00  0.00    -0.341 OA
ATOM     19  C   UNL     1      21.095  27.294  29.142  1.00  0.00     0.281 C 
ATOM     20  C   UNL     1      22.759  27.820  27.382  1.00  0.00     0.180 C 
ATOM     21  C   UNL     1      21.282  27.969  27.774  1.00  0.00     0.202 C 
BRANCH  17  22
ATOM     22  C   UNL     1      24.069  25.271  29.180  1.00  0.00     0.191 C 
BRANCH  22  23
ATOM     23  O   UNL     1      23.874  24.505  30.340  1.00  0.00    -0.394 OA
ATOM     24  H   UNL     1      23.314  25.010  31.004  1.00  0.00     0.210 HD
ENDBRANCH  22  23
ENDBRANCH  17  22
BRANCH  19  25
ATOM     25  O   UNL     1      20.782  28.271  30.083  1.00  0.00    -0.350 OA
BRANCH  25  26
ATOM     26  C   UNL     1      20.402  29.464  29.525  1.00  0.00     0.169 C 
BRANCH  26  27
ATOM     27  C   UNL     1      19.055  29.855  30.119  1.00  0.00     0.119 C 
BRANCH  27  28
ATOM     28  N   UNL     1      18.402  30.850  29.279  1.00  0.00    -0.092 NA
ATOM     29  N   UNL     1      18.703  31.057  28.115  1.00  0.00     0.001 N 
ATOM     30  N   UNL     1      18.661  31.061  26.885  1.00  0.00    -0.003 NA
ENDBRANCH  27  28
ENDBRANCH  26  27
ENDBRANCH  25  26
ENDBRANCH  19  25
BRANCH  20  31
ATOM     31  O   UNL     1      23.617  28.408  28.270  1.00  0.00    -0.387 OA
ATOM     32  H   UNL     1      24.503  28.462  27.882  1.00  0.00     0.211 HD
ENDBRANCH  20  31
BRANCH  21  33
ATOM     33  O   UNL     1      20.554  27.286  26.804  1.00  0.00    -0.385 OA
ATOM     34  H   UNL     1      20.770  26.324  26.894  1.00  0.00     0.211 HD
ENDBRANCH  21  33
ENDBRANCH  15  16
ENDBRANCH  10  15
BRANCH  12  35
ATOM     35  O   UNL     1      23.878  24.200  23.831  1.00  0.00    -0.385 OA
ATOM     36  H   UNL     1      24.286  23.573  24.482  1.00  0.00     0.211 HD
ENDBRANCH  12  35
BRANCH  13  37
ATOM     37  O   UNL     1      20.358  24.578  23.346  1.00  0.00    -0.387 OA
ATOM     38  H   UNL     1      19.778  25.132  22.802  1.00  0.00     0.211 HD
ENDBRANCH  13  37
BRANCH  14  39
ATOM     39  O   UNL     1      20.829  26.440  21.761  1.00  0.00    -0.387 OA
ATOM     40  H   UNL     1      20.164  25.731  21.670  1.00  0.00     0.211 HD
ENDBRANCH  14  39
ENDBRANCH   8   9
ENDBRANCH   7   8
ENDBRANCH   1   7
BRANCH   1  41
ATOM     41  C   UNL     1      21.986  31.336  22.612  1.00  0.00     0.364 C 
ATOM     42  O   UNL     1      22.536  31.710  21.549  1.00  0.00    -0.246 OA
BRANCH  41  43
ATOM     43  O   UNL     1      21.865  32.280  23.611  1.00  0.00    -0.477 OA
ATOM     44  H   UNL     1      22.363  33.175  23.528  1.00  0.00     0.296 HD
ENDBRANCH  41  43
ENDBRANCH   1  41
BRANCH   3  45
ATOM     45  O   UNL     1      18.045  30.007  24.076  1.00  0.00    -0.391 OA
ATOM     46  H   UNL     1      18.325  29.865  24.998  1.00  0.00     0.211 HD
ENDBRANCH   3  45
BRANCH   5  47
ATOM     47  C   UNL     1      19.795  29.384  19.626  1.00  0.00     0.176 C 
BRANCH  47  48
ATOM     48  O   UNL     1      19.738  27.994  19.713  1.00  0.00    -0.388 OA
ATOM     49  H   UNL     1      19.616  27.708  20.648  1.00  0.00     0.211 HD
ENDBRANCH  47  48
BRANCH  47  50
ATOM     50  C   UNL     1      20.822  29.747  18.623  1.00  0.00     0.165 C 
BRANCH  50  51
ATOM     51  O   UNL     1      21.981  30.291  19.195  1.00  0.00    -0.388 OA
ATOM     52  H   UNL     1      21.890  30.495  20.138  1.00  0.00     0.211 HD
ENDBRANCH  50  51
BRANCH  50  53
ATOM     53  C   UNL     1      20.353  30.584  17.467  1.00  0.00     0.154 C 
BRANCH  53  54
ATOM     54  N   UNL     1      19.167  30.025  16.874  1.00  0.00    -0.319 N 
ATOM     55  C   UNL     1      17.916  30.661  17.053  1.00  0.00     0.407 C 
ATOM     56  H   UNL     1      19.234  29.124  16.296  1.00  0.00     0.167 HD
ATOM     57  O   UNL     1      17.777  31.714  17.714  1.00  0.00    -0.225 OA
BRANCH  55  58
ATOM     58  O   UNL     1      16.751  30.133  16.486  1.00  0.00    -0.443 OA
BRANCH  58  59
ATOM     59  C   UNL     1      16.374  28.821  16.793  1.00  0.00     0.294 C 
BRANCH  59  60
ATOM     60  C   UNL     1      16.193  28.523  18.207  1.00  0.00     0.121 A 
ATOM     61  C   UNL     1      15.332  29.143  19.078  1.00  0.00     0.146 A 
ATOM     62  N   UNL     1      16.837  27.589  18.927  1.00  0.00    -0.131 NA
ATOM     63  N   UNL     1      15.473  28.577  20.294  1.00  0.00    -0.202 N 
ATOM     64  N   UNL     1      16.393  27.640  20.158  1.00  0.00    -0.061 NA
BRANCH  63  65
ATOM     65  C   UNL     1      14.749  28.959  21.453  1.00  0.00     0.155 A 
ATOM     66  C   UNL     1      13.380  29.203  21.413  1.00  0.00     0.049 A 
ATOM     67  N   UNL     1      15.364  29.108  22.638  1.00  0.00    -0.237 NA
ATOM     68  C   UNL     1      12.690  29.584  22.556  1.00  0.00     0.011 A 
ATOM     69  C   UNL     1      14.710  29.479  23.765  1.00  0.00     0.119 A 
ATOM     70  C   UNL     1      13.348  29.729  23.758  1.00  0.00    -0.004 A 
BRANCH  70  71
ATOM     71  C   UNL     1      12.603  30.140  24.978  1.00  0.00     0.193 C 
BRANCH  71  72
ATOM     72  O   UNL     1      12.218  31.478  24.898  1.00  0.00    -0.392 OA
ATOM     73  H   UNL     1      12.335  31.953  25.747  1.00  0.00     0.211 HD
ENDBRANCH  71  72
ENDBRANCH  70  71
ENDBRANCH  63  65
ENDBRANCH  59  60
ENDBRANCH  58  59
ENDBRANCH  55  58
ENDBRANCH  53  54
ENDBRANCH  50  53
ENDBRANCH  47  50
ENDBRANCH   5  47
BRANCH   4  74
ATOM     74  N   UNL     1      17.632  30.513  21.290  1.00  0.00    -0.348 N 
ATOM     75  C   UNL     1      17.377  31.875  21.435  1.00  0.00     0.217 C 
ATOM     76  H   UNL     1      16.975  29.923  20.742  1.00  0.00     0.163 HD
ATOM     77  C   UNL     1      16.123  32.415  20.786  1.00  0.00     0.114 C 
ATOM     78  O   UNL     1      18.110  32.658  22.056  1.00  0.00    -0.275 OA
ENDBRANCH   4  74
TORSDOF 32
