REMARK VINA RESULT:    -6.326     14.424     19.132
REMARK INTER + INTRA:         -22.159
REMARK INTER:                 -14.030
REMARK INTRA:                  -8.129
REMARK UNBOUND:                -6.033
REMARK SMILES CC(=O)N[C@@H]1[C@@H](O)C[C@](OC[C@H]2O[C@@H](O[C@H]3[C@H](O)[C@@H](O)[C@H](OCCN=[N+]=[N-])O[C@@H]3CO)[C@H](O)[C@@H](O)[C@H]2O)(C(=O)O)O[C@H]1C(O)[C@H](O)CNC(=O)OCc1cn(-c2cccc(S(N)(=O)=O)c2)nn1
REMARK SMILES IDX 9 1 8 2 6 3 5 4 42 5 41 6 10 7 11 8 12 9 14 10 13 11 32 12
REMARK SMILES IDX 34 13 36 14 15 15 16 16 29 17 28 18 21 19 17 20 19 21 30 22
REMARK SMILES IDX 31 23 22 25 23 26 24 27 25 28 26 29 27 30 18 31 20 33 33 35
REMARK SMILES IDX 35 37 37 39 38 41 39 42 40 43 7 45 43 47 44 48 45 50 46 51
REMARK SMILES IDX 47 53 48 54 49 55 50 57 51 58 52 59 53 60 54 61 67 62 55 63
REMARK SMILES IDX 66 64 56 65 65 66 57 67 60 68 58 69 59 70 61 71 63 72 64 73
REMARK SMILES IDX 62 74 4 77 2 78 1 80 3 81
REMARK H PARENT 31 24 18 32 20 34 33 36 35 38 37 40 40 44 7 46 44 49 46 52
REMARK H PARENT 48 56 62 75 62 76 4 79
REMARK Flexibility Score: inf
ROOT
ATOM      1  C   UNL     1      19.488  30.776  27.901  1.00  0.00     0.272 C 
ATOM      2  C   UNL     1      19.986  32.224  27.728  1.00  0.00     0.113 C 
ATOM      3  C   UNL     1      21.440  32.251  28.049  1.00  0.00     0.145 C 
ATOM      4  C   UNL     1      22.199  31.332  27.159  1.00  0.00     0.142 C 
ATOM      5  C   UNL     1      21.422  30.127  26.761  1.00  0.00     0.178 C 
ATOM      6  O   UNL     1      20.116  30.001  27.021  1.00  0.00    -0.332 OA
ENDROOT
BRANCH   1   7
ATOM      7  O   UNL     1      18.103  30.886  27.607  1.00  0.00    -0.338 OA
BRANCH   7   8
ATOM      8  C   UNL     1      17.934  31.839  26.650  1.00  0.00     0.199 C 
BRANCH   8   9
ATOM      9  C   UNL     1      16.482  32.064  26.290  1.00  0.00     0.179 C 
ATOM     10  C   UNL     1      14.889  31.225  24.962  1.00  0.00     0.282 C 
ATOM     11  O   UNL     1      15.844  30.873  25.950  1.00  0.00    -0.341 OA
ATOM     12  C   UNL     1      14.095  32.415  25.358  1.00  0.00     0.202 C 
ATOM     13  C   UNL     1      14.239  32.828  26.801  1.00  0.00     0.179 C 
ATOM     14  C   UNL     1      15.668  32.765  27.307  1.00  0.00     0.177 C 
BRANCH  10  15
ATOM     15  O   UNL     1      14.183  30.129  24.538  1.00  0.00    -0.341 OA
BRANCH  15  16
ATOM     16  C   UNL     1      14.607  29.577  23.352  1.00  0.00     0.184 C 
ATOM     17  C   UNL     1      15.528  30.548  22.654  1.00  0.00     0.178 C 
ATOM     18  O   UNL     1      15.255  30.596  21.282  1.00  0.00    -0.341 OA
ATOM     19  C   UNL     1      14.080  31.289  21.109  1.00  0.00     0.281 C 
ATOM     20  C   UNL     1      13.368  29.310  22.526  1.00  0.00     0.180 C 
ATOM     21  C   UNL     1      12.964  30.471  21.674  1.00  0.00     0.202 C 
BRANCH  17  22
ATOM     22  C   UNL     1      16.979  30.213  22.793  1.00  0.00     0.191 C 
BRANCH  22  23
ATOM     23  O   UNL     1      17.196  29.326  23.866  1.00  0.00    -0.394 OA
ATOM     24  H   UNL     1      17.802  28.593  23.604  1.00  0.00     0.210 HD
ENDBRANCH  22  23
ENDBRANCH  17  22
BRANCH  19  25
ATOM     25  O   UNL     1      13.805  31.551  19.766  1.00  0.00    -0.350 OA
BRANCH  25  26
ATOM     26  C   UNL     1      14.768  31.137  18.887  1.00  0.00     0.169 C 
BRANCH  26  27
ATOM     27  C   UNL     1      14.468  29.824  18.196  1.00  0.00     0.119 C 
BRANCH  27  28
ATOM     28  N   UNL     1      15.619  28.942  18.212  1.00  0.00    -0.092 NA
ATOM     29  N   UNL     1      15.939  28.291  19.202  1.00  0.00     0.001 N 
ATOM     30  N   UNL     1      16.348  27.614  20.129  1.00  0.00    -0.003 NA
ENDBRANCH  27  28
ENDBRANCH  26  27
ENDBRANCH  25  26
ENDBRANCH  19  25
BRANCH  20  31
ATOM     31  O   UNL     1      13.632  28.227  21.667  1.00  0.00    -0.387 OA
ATOM     32  H   UNL     1      13.604  27.359  22.141  1.00  0.00     0.211 HD
ENDBRANCH  20  31
BRANCH  21  33
ATOM     33  O   UNL     1      12.130  31.345  22.410  1.00  0.00    -0.385 OA
ATOM     34  H   UNL     1      11.277  31.408  21.922  1.00  0.00     0.211 HD
ENDBRANCH  21  33
ENDBRANCH  15  16
ENDBRANCH  10  15
BRANCH  12  35
ATOM     35  O   UNL     1      14.292  33.527  24.503  1.00  0.00    -0.385 OA
ATOM     36  H   UNL     1      13.782  33.271  23.669  1.00  0.00     0.211 HD
ENDBRANCH  12  35
BRANCH  13  37
ATOM     37  O   UNL     1      13.334  32.179  27.620  1.00  0.00    -0.387 OA
ATOM     38  H   UNL     1      12.649  32.872  27.884  1.00  0.00     0.211 HD
ENDBRANCH  13  37
BRANCH  14  39
ATOM     39  O   UNL     1      15.653  32.002  28.480  1.00  0.00    -0.387 OA
ATOM     40  H   UNL     1      15.567  32.567  29.288  1.00  0.00     0.211 HD
ENDBRANCH  14  39
ENDBRANCH   8   9
ENDBRANCH   7   8
ENDBRANCH   1   7
BRANCH   1  41
ATOM     41  C   UNL     1      19.664  30.463  29.341  1.00  0.00     0.364 C 
ATOM     42  O   UNL     1      18.879  31.034  30.182  1.00  0.00    -0.246 OA
BRANCH  41  43
ATOM     43  O   UNL     1      20.583  29.616  29.888  1.00  0.00    -0.477 OA
ATOM     44  H   UNL     1      21.404  29.944  30.413  1.00  0.00     0.296 HD
ENDBRANCH  41  43
ENDBRANCH   1  41
BRANCH   3  45
ATOM     45  O   UNL     1      21.848  33.601  27.850  1.00  0.00    -0.391 OA
ATOM     46  H   UNL     1      21.033  34.040  27.453  1.00  0.00     0.211 HD
ENDBRANCH   3  45
BRANCH   5  47
ATOM     47  C   UNL     1      21.674  29.896  25.251  1.00  0.00     0.176 C 
BRANCH  47  48
ATOM     48  O   UNL     1      22.624  30.803  24.821  1.00  0.00    -0.388 OA
ATOM     49  H   UNL     1      22.360  31.739  24.848  1.00  0.00     0.211 HD
ENDBRANCH  47  48
BRANCH  47  50
ATOM     50  C   UNL     1      20.396  29.881  24.507  1.00  0.00     0.165 C 
BRANCH  50  51
ATOM     51  O   UNL     1      19.989  28.561  24.324  1.00  0.00    -0.388 OA
ATOM     52  H   UNL     1      20.526  28.235  23.547  1.00  0.00     0.211 HD
ENDBRANCH  50  51
BRANCH  50  53
ATOM     53  C   UNL     1      20.516  30.512  23.129  1.00  0.00     0.154 C 
BRANCH  53  54
ATOM     54  N   UNL     1      21.500  29.767  22.381  1.00  0.00    -0.319 N 
ATOM     55  C   UNL     1      21.322  29.588  20.957  1.00  0.00     0.407 C 
ATOM     56  H   UNL     1      22.343  29.340  22.826  1.00  0.00     0.167 HD
ATOM     57  O   UNL     1      20.324  30.070  20.362  1.00  0.00    -0.225 OA
BRANCH  55  58
ATOM     58  O   UNL     1      22.301  28.868  20.304  1.00  0.00    -0.443 OA
BRANCH  58  59
ATOM     59  C   UNL     1      22.243  27.476  20.215  1.00  0.00     0.294 C 
BRANCH  59  60
ATOM     60  C   UNL     1      21.885  26.857  21.500  1.00  0.00     0.121 A 
ATOM     61  C   UNL     1      22.806  26.608  22.529  1.00  0.00     0.144 A 
ATOM     62  N   UNL     1      20.708  26.432  21.940  1.00  0.00    -0.131 NA
ATOM     63  N   UNL     1      22.134  26.048  23.528  1.00  0.00    -0.220 N 
ATOM     64  N   UNL     1      20.889  25.953  23.157  1.00  0.00    -0.062 NA
BRANCH  63  65
ATOM     65  C   UNL     1      22.734  25.655  24.770  1.00  0.00     0.068 A 
ATOM     66  C   UNL     1      22.330  26.294  25.945  1.00  0.00     0.050 A 
ATOM     67  C   UNL     1      23.680  24.676  24.814  1.00  0.00     0.028 A 
ATOM     68  C   UNL     1      22.872  25.954  27.159  1.00  0.00     0.084 A 
ATOM     69  C   UNL     1      24.224  24.330  26.009  1.00  0.00     0.004 A 
ATOM     70  C   UNL     1      23.835  24.955  27.196  1.00  0.00     0.022 A 
BRANCH  68  71
ATOM     71  S   UNL     1      22.415  26.707  28.660  1.00  0.00     0.238 S 
ATOM     72  O   UNL     1      23.219  27.965  28.832  1.00  0.00    -0.207 OA
ATOM     73  O   UNL     1      22.698  25.794  29.808  1.00  0.00    -0.207 OA
BRANCH  71  74
ATOM     74  N   UNL     1      20.718  27.087  28.595  1.00  0.00    -0.225 NA
ATOM     75  H   UNL     1      20.178  26.217  28.799  1.00  0.00     0.137 HD
ATOM     76  H   UNL     1      20.459  27.550  27.699  1.00  0.00     0.137 HD
ENDBRANCH  71  74
ENDBRANCH  68  71
ENDBRANCH  63  65
ENDBRANCH  59  60
ENDBRANCH  58  59
ENDBRANCH  55  58
ENDBRANCH  53  54
ENDBRANCH  50  53
ENDBRANCH  47  50
ENDBRANCH   5  47
BRANCH   4  77
ATOM     77  N   UNL     1      23.386  30.895  27.911  1.00  0.00    -0.348 N 
ATOM     78  C   UNL     1      24.711  31.179  27.487  1.00  0.00     0.217 C 
ATOM     79  H   UNL     1      23.257  30.353  28.790  1.00  0.00     0.163 HD
ATOM     80  C   UNL     1      25.870  30.713  28.290  1.00  0.00     0.114 C 
ATOM     81  O   UNL     1      24.863  31.835  26.415  1.00  0.00    -0.275 OA
ENDBRANCH   4  77
TORSDOF 32
