REMARK VINA RESULT:    -5.389      4.859      9.522
REMARK INTER + INTRA:         -23.196
REMARK INTER:                 -14.836
REMARK INTRA:                  -8.359
REMARK UNBOUND:                -8.356
REMARK SMILES CC(=O)N[C@@H]1[C@@H](O)C[C@](OC[C@H]2O[C@@H](O[C@H]3[C@H](O)[C@@H](O)[C@H](OCCN=[N+]=[N-])O[C@@H]3CO)[C@H](O)[C@@H](O)[C@H]2O)(C(=O)O)O[C@H]1C(O)[C@H](O)CNC(=O)OCc1cn([C@@H](CCC(=O)O)C(=O)O)nn1
REMARK SMILES IDX 43 1 42 2 9 3 8 4 41 5 6 6 5 7 10 8 11 9 12 10 14 11 13 12
REMARK SMILES IDX 32 13 34 14 36 15 15 16 16 17 29 18 28 19 21 20 17 21 19 22
REMARK SMILES IDX 30 23 31 24 22 26 23 27 24 28 25 29 26 30 27 31 18 32 20 34
REMARK SMILES IDX 33 36 35 38 37 40 38 42 39 43 40 44 7 46 4 48 2 49 1 51 3 52
REMARK SMILES IDX 44 53 45 55 46 56 47 58 48 59 49 60 50 62 51 63 52 64 53 65
REMARK SMILES IDX 54 66 66 67 55 68 65 69 56 70 57 71 58 72 59 73 60 74 61 75
REMARK SMILES IDX 62 77 63 78 64 79
REMARK H PARENT 31 25 18 33 20 35 33 37 35 39 37 41 40 45 7 47 4 50 44 54
REMARK H PARENT 46 57 48 61 61 76 64 80
REMARK Flexibility Score: inf
ROOT
ATOM      1  C   UNL     1      26.568  26.302  16.375  1.00  0.00     0.176 C 
ENDROOT
BRANCH   1   2
ATOM      2  C   UNL     1      25.254  25.673  15.911  1.00  0.00     0.178 C 
ATOM      3  C   UNL     1      22.981  26.237  16.148  1.00  0.00     0.272 C 
ATOM      4  C   UNL     1      22.615  24.991  16.849  1.00  0.00     0.113 C 
ATOM      5  O   UNL     1      24.314  26.494  16.533  1.00  0.00    -0.332 OA
ATOM      6  C   UNL     1      23.822  24.224  17.319  1.00  0.00     0.145 C 
ATOM      7  C   UNL     1      25.039  24.295  16.468  1.00  0.00     0.142 C 
BRANCH   3   8
ATOM      8  O   UNL     1      22.245  27.313  16.600  1.00  0.00    -0.338 OA
BRANCH   8   9
ATOM      9  C   UNL     1      22.732  28.379  17.182  1.00  0.00     0.199 C 
BRANCH   9  10
ATOM     10  C   UNL     1      22.025  29.142  18.267  1.00  0.00     0.179 C 
ATOM     11  C   UNL     1      20.190  28.611  19.606  1.00  0.00     0.282 C 
ATOM     12  O   UNL     1      20.698  28.833  18.353  1.00  0.00    -0.341 OA
ATOM     13  C   UNL     1      20.944  27.459  20.233  1.00  0.00     0.202 C 
ATOM     14  C   UNL     1      22.368  27.870  20.429  1.00  0.00     0.179 C 
ATOM     15  C   UNL     1      22.779  29.024  19.586  1.00  0.00     0.177 C 
BRANCH  11  16
ATOM     16  O   UNL     1      18.848  28.245  19.481  1.00  0.00    -0.341 OA
BRANCH  16  17
ATOM     17  C   UNL     1      18.173  28.842  18.447  1.00  0.00     0.184 C 
ATOM     18  C   UNL     1      17.664  30.228  18.833  1.00  0.00     0.178 C 
ATOM     19  O   UNL     1      16.274  30.242  18.743  1.00  0.00    -0.341 OA
ATOM     20  C   UNL     1      15.718  29.435  19.775  1.00  0.00     0.281 C 
ATOM     21  C   UNL     1      16.956  27.989  18.151  1.00  0.00     0.180 C 
ATOM     22  C   UNL     1      16.077  28.024  19.420  1.00  0.00     0.202 C 
BRANCH  18  23
ATOM     23  C   UNL     1      18.191  31.252  17.843  1.00  0.00     0.191 C 
BRANCH  23  24
ATOM     24  O   UNL     1      19.018  30.679  16.895  1.00  0.00    -0.394 OA
ATOM     25  H   UNL     1      18.624  29.855  16.506  1.00  0.00     0.210 HD
ENDBRANCH  23  24
ENDBRANCH  18  23
BRANCH  20  26
ATOM     26  O   UNL     1      14.385  29.723  19.832  1.00  0.00    -0.350 OA
BRANCH  26  27
ATOM     27  C   UNL     1      13.703  29.175  20.882  1.00  0.00     0.169 C 
BRANCH  27  28
ATOM     28  C   UNL     1      12.934  30.181  21.714  1.00  0.00     0.119 C 
BRANCH  28  29
ATOM     29  N   UNL     1      13.806  30.989  22.543  1.00  0.00    -0.092 NA
ATOM     30  N   UNL     1      14.184  30.661  23.662  1.00  0.00     0.001 N 
ATOM     31  N   UNL     1      14.646  30.171  24.670  1.00  0.00    -0.003 NA
ENDBRANCH  28  29
ENDBRANCH  27  28
ENDBRANCH  26  27
ENDBRANCH  20  26
BRANCH  21  32
ATOM     32  O   UNL     1      16.238  28.439  17.051  1.00  0.00    -0.387 OA
ATOM     33  H   UNL     1      15.247  28.276  17.143  1.00  0.00     0.211 HD
ENDBRANCH  21  32
BRANCH  22  34
ATOM     34  O   UNL     1      16.942  27.555  20.440  1.00  0.00    -0.385 OA
ATOM     35  H   UNL     1      16.547  26.719  20.798  1.00  0.00     0.211 HD
ENDBRANCH  22  34
ENDBRANCH  16  17
ENDBRANCH  11  16
BRANCH  13  36
ATOM     36  O   UNL     1      20.363  27.096  21.449  1.00  0.00    -0.385 OA
ATOM     37  H   UNL     1      20.157  26.111  21.369  1.00  0.00     0.211 HD
ENDBRANCH  13  36
BRANCH  14  38
ATOM     38  O   UNL     1      23.256  26.803  20.260  1.00  0.00    -0.387 OA
ATOM     39  H   UNL     1      24.177  27.169  20.112  1.00  0.00     0.211 HD
ENDBRANCH  14  38
BRANCH  15  40
ATOM     40  O   UNL     1      24.135  28.852  19.302  1.00  0.00    -0.387 OA
ATOM     41  H   UNL     1      24.486  29.611  18.785  1.00  0.00     0.211 HD
ENDBRANCH  15  40
ENDBRANCH   9  10
ENDBRANCH   8   9
ENDBRANCH   3   8
BRANCH   3  42
ATOM     42  C   UNL     1      22.923  26.255  14.691  1.00  0.00     0.364 C 
ATOM     43  O   UNL     1      22.942  27.398  14.104  1.00  0.00    -0.246 OA
BRANCH  42  44
ATOM     44  O   UNL     1      22.844  25.187  13.818  1.00  0.00    -0.477 OA
ATOM     45  H   UNL     1      23.401  25.129  12.998  1.00  0.00     0.296 HD
ENDBRANCH  42  44
ENDBRANCH   3  42
BRANCH   6  46
ATOM     46  O   UNL     1      24.191  24.783  18.574  1.00  0.00    -0.391 OA
ATOM     47  H   UNL     1      24.669  24.117  19.130  1.00  0.00     0.211 HD
ENDBRANCH   6  46
BRANCH   7  48
ATOM     48  N   UNL     1      24.990  23.207  15.555  1.00  0.00    -0.348 N 
ATOM     49  C   UNL     1      26.036  22.268  15.378  1.00  0.00     0.217 C 
ATOM     50  H   UNL     1      24.150  23.029  14.970  1.00  0.00     0.163 HD
ATOM     51  C   UNL     1      25.917  21.140  14.387  1.00  0.00     0.114 C 
ATOM     52  O   UNL     1      27.070  22.355  16.035  1.00  0.00    -0.275 OA
ENDBRANCH   7  48
ENDBRANCH   1   2
BRANCH   1  53
ATOM     53  O   UNL     1      27.536  25.312  16.493  1.00  0.00    -0.388 OA
ATOM     54  H   UNL     1      27.459  24.866  17.378  1.00  0.00     0.211 HD
ENDBRANCH   1  53
BRANCH   1  55
ATOM     55  C   UNL     1      26.520  27.142  17.564  1.00  0.00     0.165 C 
BRANCH  55  56
ATOM     56  O   UNL     1      26.305  28.490  17.148  1.00  0.00    -0.388 OA
ATOM     57  H   UNL     1      27.180  28.864  16.890  1.00  0.00     0.211 HD
ENDBRANCH  55  56
BRANCH  55  58
ATOM     58  C   UNL     1      27.735  27.203  18.441  1.00  0.00     0.154 C 
BRANCH  58  59
ATOM     59  N   UNL     1      27.729  26.217  19.496  1.00  0.00    -0.319 N 
ATOM     60  C   UNL     1      26.917  26.313  20.665  1.00  0.00     0.407 C 
ATOM     61  H   UNL     1      28.350  25.396  19.420  1.00  0.00     0.167 HD
ATOM     62  O   UNL     1      26.162  27.270  20.831  1.00  0.00    -0.225 OA
BRANCH  60  63
ATOM     63  O   UNL     1      27.005  25.311  21.598  1.00  0.00    -0.443 OA
BRANCH  63  64
ATOM     64  C   UNL     1      26.350  24.081  21.483  1.00  0.00     0.294 C 
BRANCH  64  65
ATOM     65  C   UNL     1      24.971  24.199  22.019  1.00  0.00     0.120 A 
ATOM     66  C   UNL     1      24.550  24.307  23.328  1.00  0.00     0.139 A 
ATOM     67  N   UNL     1      23.834  24.199  21.274  1.00  0.00    -0.132 NA
ATOM     68  N   UNL     1      23.187  24.370  23.347  1.00  0.00    -0.238 N 
ATOM     69  N   UNL     1      22.794  24.300  22.074  1.00  0.00    -0.066 NA
BRANCH  68  70
ATOM     70  C   UNL     1      22.364  24.508  24.492  1.00  0.00     0.219 C 
BRANCH  70  71
ATOM     71  C   UNL     1      22.889  25.209  25.690  1.00  0.00     0.051 C 
BRANCH  71  72
ATOM     72  C   UNL     1      22.767  24.587  27.019  1.00  0.00     0.125 C 
BRANCH  72  73
ATOM     73  C   UNL     1      23.249  25.289  28.189  1.00  0.00     0.303 C 
ATOM     74  O   UNL     1      23.390  26.513  28.360  1.00  0.00    -0.252 OA
BRANCH  73  75
ATOM     75  O   UNL     1      23.631  24.523  29.337  1.00  0.00    -0.481 OA
ATOM     76  H   UNL     1      24.407  24.839  29.897  1.00  0.00     0.296 HD
ENDBRANCH  73  75
ENDBRANCH  72  73
ENDBRANCH  71  72
ENDBRANCH  70  71
BRANCH  70  77
ATOM     77  C   UNL     1      21.089  25.176  24.082  1.00  0.00     0.328 C 
ATOM     78  O   UNL     1      20.837  26.339  24.454  1.00  0.00    -0.250 OA
BRANCH  77  79
ATOM     79  O   UNL     1      20.154  24.540  23.287  1.00  0.00    -0.480 OA
ATOM     80  H   UNL     1      19.161  24.532  23.527  1.00  0.00     0.296 HD
ENDBRANCH  77  79
ENDBRANCH  70  77
ENDBRANCH  68  70
ENDBRANCH  64  65
ENDBRANCH  63  64
ENDBRANCH  60  63
ENDBRANCH  58  59
ENDBRANCH  55  58
ENDBRANCH   1  55
TORSDOF 36
