REMARK VINA RESULT:    -6.930      7.474     11.957
REMARK INTER + INTRA:         -23.215
REMARK INTER:                 -13.799
REMARK INTRA:                  -9.416
REMARK UNBOUND:                -5.144
REMARK SMILES CC(=O)N[C@@H]1[C@@H](O)C[C@](OC[C@H]2O[C@@H](O[C@H]3[C@H](O)[C@@H](O)[C@H](OCCN=[N+]=[N-])O[C@@H]3CO)[C@H](O)[C@@H](O)[C@H]2O)(C(=O)O)O[C@H]1C(O)[C@H](O)CNC(=O)OCc1cn(-c2cccc(C=CC(=O)O)c2)nn1
REMARK SMILES IDX 43 1 42 2 9 3 8 4 41 5 6 6 5 7 10 8 11 9 12 10 14 11 13 12
REMARK SMILES IDX 32 13 34 14 36 15 15 16 16 17 29 18 28 19 21 20 17 21 19 22
REMARK SMILES IDX 30 23 31 24 22 26 23 27 24 28 25 29 26 30 27 31 18 32 20 34
REMARK SMILES IDX 33 36 35 38 37 40 38 42 39 43 40 44 7 46 4 48 2 49 1 51 3 52
REMARK SMILES IDX 44 53 45 55 46 56 47 58 48 59 49 60 50 62 51 63 52 64 53 65
REMARK SMILES IDX 54 66 68 67 55 68 67 69 56 70 66 71 57 72 60 73 58 74 59 75
REMARK SMILES IDX 61 76 62 77 63 78 64 79 65 80
REMARK H PARENT 31 25 18 33 20 35 33 37 35 39 37 41 40 45 7 47 4 50 44 54
REMARK H PARENT 46 57 48 61 65 81
REMARK Flexibility Score: inf
ROOT
ATOM      1  C   UNL     1      23.590  25.460  27.615  1.00  0.00     0.176 C 
ENDROOT
BRANCH   1   2
ATOM      2  C   UNL     1      25.001  26.001  27.743  1.00  0.00     0.178 C 
ATOM      3  C   UNL     1      26.474  26.628  29.473  1.00  0.00     0.272 C 
ATOM      4  C   UNL     1      27.284  26.925  28.121  1.00  0.00     0.113 C 
ATOM      5  O   UNL     1      25.215  26.231  29.073  1.00  0.00    -0.332 OA
ATOM      6  C   UNL     1      26.459  27.918  27.384  1.00  0.00     0.145 C 
ATOM      7  C   UNL     1      25.148  27.281  26.968  1.00  0.00     0.142 C 
BRANCH   3   8
ATOM      8  O   UNL     1      26.403  27.841  30.033  1.00  0.00    -0.338 OA
BRANCH   8   9
ATOM      9  C   UNL     1      26.652  28.146  31.294  1.00  0.00     0.199 C 
BRANCH   9  10
ATOM     10  C   UNL     1      25.719  29.085  32.030  1.00  0.00     0.179 C 
ATOM     11  C   UNL     1      23.820  30.237  31.217  1.00  0.00     0.282 C 
ATOM     12  O   UNL     1      25.158  29.907  31.126  1.00  0.00    -0.341 OA
ATOM     13  C   UNL     1      23.402  30.262  32.634  1.00  0.00     0.202 C 
ATOM     14  C   UNL     1      23.651  29.001  33.403  1.00  0.00     0.179 C 
ATOM     15  C   UNL     1      24.675  28.178  32.667  1.00  0.00     0.177 C 
BRANCH  11  16
ATOM     16  O   UNL     1      23.153  29.390  30.359  1.00  0.00    -0.341 OA
BRANCH  16  17
ATOM     17  C   UNL     1      22.224  29.960  29.559  1.00  0.00     0.184 C 
ATOM     18  C   UNL     1      20.903  29.263  29.667  1.00  0.00     0.178 C 
ATOM     19  O   UNL     1      19.967  30.165  29.106  1.00  0.00    -0.341 OA
ATOM     20  C   UNL     1      20.122  30.197  27.718  1.00  0.00     0.281 C 
ATOM     21  C   UNL     1      22.591  29.876  28.074  1.00  0.00     0.180 C 
ATOM     22  C   UNL     1      21.501  30.575  27.289  1.00  0.00     0.202 C 
BRANCH  18  23
ATOM     23  C   UNL     1      20.480  28.918  31.050  1.00  0.00     0.191 C 
BRANCH  23  24
ATOM     24  O   UNL     1      21.015  27.678  31.395  1.00  0.00    -0.394 OA
ATOM     25  H   UNL     1      21.401  27.229  30.580  1.00  0.00     0.210 HD
ENDBRANCH  23  24
ENDBRANCH  18  23
BRANCH  20  26
ATOM     26  O   UNL     1      19.223  31.137  27.222  1.00  0.00    -0.350 OA
BRANCH  26  27
ATOM     27  C   UNL     1      18.497  31.750  28.239  1.00  0.00     0.169 C 
BRANCH  27  28
ATOM     28  C   UNL     1      17.081  31.224  28.184  1.00  0.00     0.119 C 
BRANCH  28  29
ATOM     29  N   UNL     1      16.528  31.195  29.517  1.00  0.00    -0.092 NA
ATOM     30  N   UNL     1      16.740  30.225  30.266  1.00  0.00     0.001 N 
ATOM     31  N   UNL     1      16.594  29.142  30.854  1.00  0.00    -0.003 NA
ENDBRANCH  28  29
ENDBRANCH  27  28
ENDBRANCH  26  27
ENDBRANCH  20  26
BRANCH  21  32
ATOM     32  O   UNL     1      23.781  30.534  27.787  1.00  0.00    -0.387 OA
ATOM     33  H   UNL     1      24.274  30.573  28.645  1.00  0.00     0.211 HD
ENDBRANCH  21  32
BRANCH  22  34
ATOM     34  O   UNL     1      21.652  30.139  25.953  1.00  0.00    -0.385 OA
ATOM     35  H   UNL     1      21.860  29.180  25.898  1.00  0.00     0.211 HD
ENDBRANCH  22  34
ENDBRANCH  16  17
ENDBRANCH  11  16
BRANCH  13  36
ATOM     36  O   UNL     1      24.109  31.300  33.308  1.00  0.00    -0.385 OA
ATOM     37  H   UNL     1      23.574  32.141  33.263  1.00  0.00     0.211 HD
ENDBRANCH  13  36
BRANCH  14  38
ATOM     38  O   UNL     1      22.494  28.265  33.672  1.00  0.00    -0.387 OA
ATOM     39  H   UNL     1      21.954  28.114  32.855  1.00  0.00     0.211 HD
ENDBRANCH  14  38
BRANCH  15  40
ATOM     40  O   UNL     1      24.039  27.411  31.710  1.00  0.00    -0.387 OA
ATOM     41  H   UNL     1      23.285  27.909  31.266  1.00  0.00     0.211 HD
ENDBRANCH  15  40
ENDBRANCH   9  10
ENDBRANCH   8   9
ENDBRANCH   3   8
BRANCH   3  42
ATOM     42  C   UNL     1      27.192  25.535  30.109  1.00  0.00     0.364 C 
ATOM     43  O   UNL     1      28.279  25.023  29.788  1.00  0.00    -0.246 OA
BRANCH  42  44
ATOM     44  O   UNL     1      26.598  24.952  31.255  1.00  0.00    -0.477 OA
ATOM     45  H   UNL     1      27.011  25.184  32.172  1.00  0.00     0.296 HD
ENDBRANCH  42  44
ENDBRANCH   3  42
BRANCH   6  46
ATOM     46  O   UNL     1      26.170  28.963  28.324  1.00  0.00    -0.391 OA
ATOM     47  H   UNL     1      25.459  28.654  28.951  1.00  0.00     0.211 HD
ENDBRANCH   6  46
BRANCH   7  48
ATOM     48  N   UNL     1      24.930  27.192  25.570  1.00  0.00    -0.348 N 
ATOM     49  C   UNL     1      24.497  28.190  24.693  1.00  0.00     0.217 C 
ATOM     50  H   UNL     1      25.086  26.228  25.096  1.00  0.00     0.163 HD
ATOM     51  C   UNL     1      24.317  27.851  23.225  1.00  0.00     0.114 C 
ATOM     52  O   UNL     1      24.241  29.376  25.035  1.00  0.00    -0.275 OA
ENDBRANCH   7  48
ENDBRANCH   1   2
BRANCH   1  53
ATOM     53  O   UNL     1      23.519  24.215  28.213  1.00  0.00    -0.388 OA
ATOM     54  H   UNL     1      24.348  23.705  28.205  1.00  0.00     0.211 HD
ENDBRANCH   1  53
BRANCH   1  55
ATOM     55  C   UNL     1      22.576  26.341  28.346  1.00  0.00     0.165 C 
BRANCH  55  56
ATOM     56  O   UNL     1      22.187  25.843  29.559  1.00  0.00    -0.388 OA
ATOM     57  H   UNL     1      21.585  26.429  30.073  1.00  0.00     0.211 HD
ENDBRANCH  55  56
BRANCH  55  58
ATOM     58  C   UNL     1      21.407  26.660  27.471  1.00  0.00     0.154 C 
BRANCH  58  59
ATOM     59  N   UNL     1      21.601  26.222  26.136  1.00  0.00    -0.319 N 
ATOM     60  C   UNL     1      20.923  26.795  25.036  1.00  0.00     0.407 C 
ATOM     61  H   UNL     1      22.272  25.437  25.917  1.00  0.00     0.167 HD
ATOM     62  O   UNL     1      20.099  27.736  25.198  1.00  0.00    -0.225 OA
BRANCH  60  63
ATOM     63  O   UNL     1      21.124  26.363  23.727  1.00  0.00    -0.443 OA
BRANCH  63  64
ATOM     64  C   UNL     1      21.233  24.948  23.532  1.00  0.00     0.294 C 
BRANCH  64  65
ATOM     65  C   UNL     1      22.668  24.642  23.384  1.00  0.00     0.121 A 
ATOM     66  C   UNL     1      23.356  24.317  22.218  1.00  0.00     0.144 A 
ATOM     67  N   UNL     1      23.581  24.631  24.369  1.00  0.00    -0.131 NA
ATOM     68  N   UNL     1      24.655  24.126  22.542  1.00  0.00    -0.220 N 
ATOM     69  N   UNL     1      24.758  24.321  23.841  1.00  0.00    -0.062 NA
BRANCH  68  70
ATOM     70  C   UNL     1      25.659  23.791  21.598  1.00  0.00     0.067 A 
ATOM     71  C   UNL     1      26.633  22.848  21.929  1.00  0.00     0.036 A 
ATOM     72  C   UNL     1      25.698  24.366  20.372  1.00  0.00     0.028 A 
ATOM     73  C   UNL     1      27.615  22.492  21.058  1.00  0.00    -0.023 A 
ATOM     74  C   UNL     1      26.684  24.033  19.447  1.00  0.00     0.003 A 
ATOM     75  C   UNL     1      27.624  23.098  19.816  1.00  0.00     0.008 A 
BRANCH  73  76
ATOM     76  C   UNL     1      28.628  21.517  21.399  1.00  0.00     0.015 C 
ATOM     77  C   UNL     1      28.304  20.310  21.787  1.00  0.00     0.094 C 
BRANCH  77  78
ATOM     78  C   UNL     1      29.363  19.355  22.123  1.00  0.00     0.328 C 
ATOM     79  O   UNL     1      29.432  18.249  21.575  1.00  0.00    -0.247 OA
BRANCH  78  80
ATOM     80  O   UNL     1      30.324  19.680  23.078  1.00  0.00    -0.478 OA
ATOM     81  H   UNL     1      30.235  19.243  23.997  1.00  0.00     0.297 HD
ENDBRANCH  78  80
ENDBRANCH  77  78
ENDBRANCH  73  76
ENDBRANCH  68  70
ENDBRANCH  64  65
ENDBRANCH  63  64
ENDBRANCH  60  63
ENDBRANCH  58  59
ENDBRANCH  55  58
ENDBRANCH   1  55
TORSDOF 33
