REMARK VINA RESULT:    -6.406      2.880      5.572
REMARK INTER + INTRA:         -24.699
REMARK INTER:                 -16.530
REMARK INTRA:                  -8.170
REMARK UNBOUND:                -7.995
REMARK SMILES CC(=O)N[C@@H]1[C@@H](O)C[C@](OC[C@H]2O[C@@H](O[C@H]3[C@H](O)[C@@H](O)[C@H](OCCN=[N+]=[N-])O[C@@H]3CO)[C@H](O)[C@@H](O)[C@H]2O)(C(=O)O)O[C@H]1C(O)[C@H](O)CNC(=O)OCc1cn(-c2ccc(-c3c4ccc(=O)cc-4oc4cc(O)ccc34)c(C(=O)[O-])c2)nn1
REMARK SMILES IDX 9 1 8 2 6 3 5 4 42 5 41 6 10 7 11 8 12 9 14 10 13 11 32 12
REMARK SMILES IDX 34 13 36 14 15 15 16 16 29 17 28 18 21 19 17 20 19 21 30 22
REMARK SMILES IDX 31 23 22 25 23 26 24 27 25 28 26 29 27 30 18 31 20 33 33 35
REMARK SMILES IDX 35 37 37 39 38 41 39 42 40 43 7 45 43 47 44 48 45 50 46 51
REMARK SMILES IDX 47 53 48 54 49 55 50 57 51 58 52 59 53 60 54 61 82 62 55 63
REMARK SMILES IDX 81 64 56 65 80 66 57 67 76 68 58 69 59 70 77 71 78 72 79 73
REMARK SMILES IDX 60 74 75 75 61 76 74 77 69 78 67 79 62 80 73 81 70 82 68 83
REMARK SMILES IDX 66 84 63 85 71 86 64 87 65 88 72 89 4 91 2 92 1 94 3 95
REMARK H PARENT 31 24 18 32 20 34 33 36 35 38 37 40 40 44 7 46 44 49 46 52
REMARK H PARENT 48 56 72 90 4 93
REMARK Flexibility Score: inf
ROOT
ATOM      1  C   UNL     1      21.640  30.823  24.716  1.00  0.00     0.272 C 
ATOM      2  C   UNL     1      21.164  31.505  25.974  1.00  0.00     0.113 C 
ATOM      3  C   UNL     1      19.667  31.576  26.081  1.00  0.00     0.145 C 
ATOM      4  C   UNL     1      19.091  31.296  24.716  1.00  0.00     0.142 C 
ATOM      5  C   UNL     1      19.917  32.079  23.730  1.00  0.00     0.178 C 
ATOM      6  O   UNL     1      21.136  31.469  23.561  1.00  0.00    -0.332 OA
ENDROOT
BRANCH   1   7
ATOM      7  O   UNL     1      21.391  29.482  24.629  1.00  0.00    -0.338 OA
BRANCH   7   8
ATOM      8  C   UNL     1      21.725  28.917  23.449  1.00  0.00     0.199 C 
BRANCH   8   9
ATOM      9  C   UNL     1      22.054  27.425  23.605  1.00  0.00     0.179 C 
ATOM     10  C   UNL     1      22.885  25.900  25.122  1.00  0.00     0.282 C 
ATOM     11  O   UNL     1      22.892  27.176  24.629  1.00  0.00    -0.341 OA
ATOM     12  C   UNL     1      22.511  24.847  24.155  1.00  0.00     0.202 C 
ATOM     13  C   UNL     1      21.229  25.153  23.416  1.00  0.00     0.179 C 
ATOM     14  C   UNL     1      20.822  26.599  23.653  1.00  0.00     0.177 C 
BRANCH  10  15
ATOM     15  O   UNL     1      22.174  25.937  26.320  1.00  0.00    -0.341 OA
BRANCH  15  16
ATOM     16  C   UNL     1      22.953  26.116  27.416  1.00  0.00     0.184 C 
ATOM     17  C   UNL     1      22.683  27.413  28.114  1.00  0.00     0.178 C 
ATOM     18  O   UNL     1      23.169  27.365  29.429  1.00  0.00    -0.341 OA
ATOM     19  C   UNL     1      24.426  26.774  29.480  1.00  0.00     0.281 C 
ATOM     20  C   UNL     1      24.455  26.167  27.081  1.00  0.00     0.180 C 
ATOM     21  C   UNL     1      25.170  26.896  28.199  1.00  0.00     0.202 C 
BRANCH  17  22
ATOM     22  C   UNL     1      21.211  27.683  28.165  1.00  0.00     0.191 C 
BRANCH  22  23
ATOM     23  O   UNL     1      20.810  28.221  26.940  1.00  0.00    -0.394 OA
ATOM     24  H   UNL     1      21.620  28.565  26.502  1.00  0.00     0.210 HD
ENDBRANCH  22  23
ENDBRANCH  17  22
BRANCH  19  25
ATOM     25  O   UNL     1      24.348  25.466  29.909  1.00  0.00    -0.350 OA
BRANCH  25  26
ATOM     26  C   UNL     1      24.556  25.299  31.272  1.00  0.00     0.169 C 
BRANCH  26  27
ATOM     27  C   UNL     1      25.926  25.883  31.571  1.00  0.00     0.119 C 
BRANCH  27  28
ATOM     28  N   UNL     1      26.984  24.969  31.234  1.00  0.00    -0.092 NA
ATOM     29  N   UNL     1      27.793  25.294  30.355  1.00  0.00     0.001 N 
ATOM     30  N   UNL     1      28.824  25.512  29.717  1.00  0.00    -0.003 NA
ENDBRANCH  27  28
ENDBRANCH  26  27
ENDBRANCH  25  26
ENDBRANCH  19  25
BRANCH  20  31
ATOM     31  O   UNL     1      24.901  24.849  27.087  1.00  0.00    -0.387 OA
ATOM     32  H   UNL     1      24.715  24.370  27.924  1.00  0.00     0.211 HD
ENDBRANCH  20  31
BRANCH  21  33
ATOM     33  O   UNL     1      25.478  28.219  27.878  1.00  0.00    -0.385 OA
ATOM     34  H   UNL     1      24.609  28.720  27.969  1.00  0.00     0.211 HD
ENDBRANCH  21  33
ENDBRANCH  15  16
ENDBRANCH  10  15
BRANCH  12  35
ATOM     35  O   UNL     1      23.554  24.642  23.216  1.00  0.00    -0.385 OA
ATOM     36  H   UNL     1      24.121  25.470  23.192  1.00  0.00     0.211 HD
ENDBRANCH  12  35
BRANCH  13  37
ATOM     37  O   UNL     1      20.218  24.254  23.715  1.00  0.00    -0.387 OA
ATOM     38  H   UNL     1      19.542  24.727  24.253  1.00  0.00     0.211 HD
ENDBRANCH  13  37
BRANCH  14  39
ATOM     39  O   UNL     1      20.132  26.651  24.856  1.00  0.00    -0.387 OA
ATOM     40  H   UNL     1      20.772  26.311  25.548  1.00  0.00     0.211 HD
ENDBRANCH  14  39
ENDBRANCH   8   9
ENDBRANCH   7   8
ENDBRANCH   1   7
BRANCH   1  41
ATOM     41  C   UNL     1      23.122  31.142  24.647  1.00  0.00     0.364 C 
ATOM     42  O   UNL     1      23.935  30.833  25.537  1.00  0.00    -0.246 OA
BRANCH  41  43
ATOM     43  O   UNL     1      23.634  31.816  23.542  1.00  0.00    -0.477 OA
ATOM     44  H   UNL     1      23.022  32.277  22.884  1.00  0.00     0.296 HD
ENDBRANCH  41  43
ENDBRANCH   1  41
BRANCH   3  45
ATOM     45  O   UNL     1      19.234  30.711  27.068  1.00  0.00    -0.391 OA
ATOM     46  H   UNL     1      18.913  31.260  27.825  1.00  0.00     0.211 HD
ENDBRANCH   3  45
BRANCH   5  47
ATOM     47  C   UNL     1      19.250  32.083  22.352  1.00  0.00     0.176 C 
BRANCH  47  48
ATOM     48  O   UNL     1      19.346  30.771  21.827  1.00  0.00    -0.388 OA
ATOM     49  H   UNL     1      20.099  30.277  22.190  1.00  0.00     0.211 HD
ENDBRANCH  47  48
BRANCH  47  50
ATOM     50  C   UNL     1      19.995  32.958  21.399  1.00  0.00     0.165 C 
BRANCH  50  51
ATOM     51  O   UNL     1      19.149  33.953  20.905  1.00  0.00    -0.388 OA
ATOM     52  H   UNL     1      18.227  33.590  20.863  1.00  0.00     0.211 HD
ENDBRANCH  50  51
BRANCH  50  53
ATOM     53  C   UNL     1      20.701  32.256  20.293  1.00  0.00     0.154 C 
BRANCH  53  54
ATOM     54  N   UNL     1      22.035  31.847  20.669  1.00  0.00    -0.319 N 
ATOM     55  C   UNL     1      22.542  30.535  20.517  1.00  0.00     0.407 C 
ATOM     56  H   UNL     1      22.725  32.539  21.094  1.00  0.00     0.167 HD
ATOM     57  O   UNL     1      21.822  29.643  20.027  1.00  0.00    -0.225 OA
BRANCH  55  58
ATOM     58  O   UNL     1      23.831  30.177  20.893  1.00  0.00    -0.443 OA
BRANCH  58  59
ATOM     59  C   UNL     1      24.708  29.455  20.021  1.00  0.00     0.294 C 
BRANCH  59  60
ATOM     60  C   UNL     1      25.189  28.289  20.804  1.00  0.00     0.121 A 
ATOM     61  C   UNL     1      25.912  27.225  20.339  1.00  0.00     0.144 A 
ATOM     62  N   UNL     1      25.003  28.058  22.135  1.00  0.00    -0.131 NA
ATOM     63  N   UNL     1      26.155  26.376  21.360  1.00  0.00    -0.220 N 
ATOM     64  N   UNL     1      25.587  26.914  22.437  1.00  0.00    -0.062 NA
BRANCH  63  65
ATOM     65  C   UNL     1      26.879  25.158  21.272  1.00  0.00     0.067 A 
ATOM     66  C   UNL     1      28.179  25.112  20.828  1.00  0.00     0.039 A 
ATOM     67  C   UNL     1      26.259  23.993  21.648  1.00  0.00     0.029 A 
ATOM     68  C   UNL     1      28.839  23.907  20.766  1.00  0.00     0.007 A 
ATOM     69  C   UNL     1      26.923  22.786  21.584  1.00  0.00     0.012 A 
ATOM     70  C   UNL     1      28.224  22.715  21.143  1.00  0.00    -0.008 A 
BRANCH  68  71
ATOM     71  C   UNL     1      30.224  23.821  20.298  1.00  0.00     0.072 C 
ATOM     72  O   UNL     1      31.198  23.953  21.077  1.00  0.00    -0.545 OA
ATOM     73  O   UNL     1      30.470  23.588  18.968  1.00  0.00    -0.545 OA
ENDBRANCH  68  71
BRANCH  70  74
ATOM     74  C   UNL     1      28.933  21.450  21.076  1.00  0.00     0.004 A 
ATOM     75  C   UNL     1      28.844  20.700  19.930  1.00  0.00     0.026 A 
ATOM     76  C   UNL     1      29.686  20.978  22.120  1.00  0.00     0.026 A 
ATOM     77  C   UNL     1      28.113  21.094  18.834  1.00  0.00     0.016 A 
ATOM     78  C   UNL     1      29.526  19.489  19.883  1.00  0.00     0.139 A 
ATOM     79  C   UNL     1      30.393  19.683  22.022  1.00  0.00     0.139 A 
ATOM     80  C   UNL     1      29.821  21.672  23.296  1.00  0.00     0.016 A 
ATOM     81  C   UNL     1      28.030  20.330  17.684  1.00  0.00     0.047 A 
ATOM     82  C   UNL     1      29.440  18.736  18.738  1.00  0.00     0.093 A 
ATOM     83  O   UNL     1      30.248  19.042  20.891  1.00  0.00    -0.456 OA
ATOM     84  C   UNL     1      31.146  19.215  23.069  1.00  0.00     0.099 A 
ATOM     85  C   UNL     1      30.583  21.187  24.344  1.00  0.00     0.053 A 
ATOM     86  C   UNL     1      28.703  19.129  17.629  1.00  0.00     0.119 A 
ATOM     87  C   UNL     1      31.230  19.971  24.214  1.00  0.00     0.182 A 
ATOM     88  O   UNL     1      31.909  19.584  25.203  1.00  0.00    -0.290 OA
BRANCH  86  89
ATOM     89  O   UNL     1      28.616  18.369  16.472  1.00  0.00    -0.508 OA
ATOM     90  H   UNL     1      29.352  18.503  15.784  1.00  0.00     0.293 HD
ENDBRANCH  86  89
ENDBRANCH  70  74
ENDBRANCH  63  65
ENDBRANCH  59  60
ENDBRANCH  58  59
ENDBRANCH  55  58
ENDBRANCH  53  54
ENDBRANCH  50  53
ENDBRANCH  47  50
ENDBRANCH   5  47
BRANCH   4  91
ATOM     91  N   UNL     1      17.684  31.622  24.628  1.00  0.00    -0.348 N 
ATOM     92  C   UNL     1      16.792  30.642  24.148  1.00  0.00     0.217 C 
ATOM     93  H   UNL     1      17.293  32.549  24.904  1.00  0.00     0.163 HD
ATOM     94  C   UNL     1      15.332  30.867  24.015  1.00  0.00     0.114 C 
ATOM     95  O   UNL     1      17.208  29.485  23.793  1.00  0.00    -0.275 OA
ENDBRANCH   4  91
TORSDOF 33
