REMARK VINA RESULT:    -6.407      2.948      8.704
REMARK INTER + INTRA:         -23.157
REMARK INTER:                 -16.305
REMARK INTRA:                  -6.852
REMARK UNBOUND:                -7.387
REMARK SMILES CC(=O)N[C@@H]1[C@@H](O)C[C@](OC[C@H]2O[C@@H](O[C@H]3[C@H](O)[C@@H](O)[C@H](OCCN=[N+]=[N-])O[C@@H]3CO)[C@H](O)[C@@H](O)[C@H]2O)(C(=O)O)O[C@H]1C(O)[C@H](O)CNC(=O)OCc1cn(C23CC4CC(CC(C4)C2)C3)nn1
REMARK SMILES IDX 9 1 8 2 6 3 5 4 42 5 41 6 10 7 11 8 12 9 14 10 13 11 32 12
REMARK SMILES IDX 34 13 36 14 15 15 16 16 29 17 28 18 21 19 17 20 19 21 30 22
REMARK SMILES IDX 31 23 22 25 23 26 24 27 25 28 26 29 27 30 18 31 20 33 33 35
REMARK SMILES IDX 35 37 37 39 38 41 39 42 40 43 7 45 43 47 44 48 45 50 46 51
REMARK SMILES IDX 47 53 48 54 49 55 50 57 51 58 52 59 53 60 54 61 67 62 55 63
REMARK SMILES IDX 66 64 56 65 65 66 64 67 57 68 60 69 62 70 58 71 59 72 61 73
REMARK SMILES IDX 63 74 4 75 2 76 1 78 3 79
REMARK H PARENT 31 24 18 32 20 34 33 36 35 38 37 40 40 44 7 46 44 49 46 52
REMARK H PARENT 48 56 4 77
REMARK Flexibility Score: inf
ROOT
ATOM      1  C   UNL     1      24.707  24.932  21.122  1.00  0.00     0.272 C 
ATOM      2  C   UNL     1      23.887  23.886  21.794  1.00  0.00     0.113 C 
ATOM      3  C   UNL     1      22.477  24.384  22.038  1.00  0.00     0.145 C 
ATOM      4  C   UNL     1      22.604  25.385  23.195  1.00  0.00     0.142 C 
ATOM      5  C   UNL     1      23.778  26.251  22.846  1.00  0.00     0.178 C 
ATOM      6  O   UNL     1      24.176  26.208  21.534  1.00  0.00    -0.332 OA
ENDROOT
BRANCH   1   7
ATOM      7  O   UNL     1      24.678  24.986  19.797  1.00  0.00    -0.338 OA
BRANCH   7   8
ATOM      8  C   UNL     1      24.930  25.978  18.983  1.00  0.00     0.199 C 
BRANCH   8   9
ATOM      9  C   UNL     1      24.661  25.943  17.515  1.00  0.00     0.179 C 
ATOM     10  C   UNL     1      24.855  24.785  15.600  1.00  0.00     0.282 C 
ATOM     11  O   UNL     1      25.149  24.698  16.976  1.00  0.00    -0.341 OA
ATOM     12  C   UNL     1      23.475  24.233  15.448  1.00  0.00     0.202 C 
ATOM     13  C   UNL     1      22.674  24.674  16.658  1.00  0.00     0.179 C 
ATOM     14  C   UNL     1      23.169  25.992  17.203  1.00  0.00     0.177 C 
BRANCH  10  15
ATOM     15  O   UNL     1      25.825  24.139  14.841  1.00  0.00    -0.341 OA
BRANCH  15  16
ATOM     16  C   UNL     1      26.607  23.374  15.655  1.00  0.00     0.184 C 
ATOM     17  C   UNL     1      28.049  23.719  15.741  1.00  0.00     0.178 C 
ATOM     18  O   UNL     1      28.526  23.109  16.923  1.00  0.00    -0.341 OA
ATOM     19  C   UNL     1      28.599  21.705  16.769  1.00  0.00     0.281 C 
ATOM     20  C   UNL     1      26.573  21.894  15.260  1.00  0.00     0.180 C 
ATOM     21  C   UNL     1      27.300  21.130  16.312  1.00  0.00     0.202 C 
BRANCH  17  22
ATOM     22  C   UNL     1      28.398  25.159  15.694  1.00  0.00     0.191 C 
BRANCH  22  23
ATOM     23  O   UNL     1      27.928  25.748  16.879  1.00  0.00    -0.394 OA
ATOM     24  H   UNL     1      28.158  25.201  17.674  1.00  0.00     0.210 HD
ENDBRANCH  22  23
ENDBRANCH  17  22
BRANCH  19  25
ATOM     25  O   UNL     1      28.874  21.226  18.029  1.00  0.00    -0.350 OA
BRANCH  25  26
ATOM     26  C   UNL     1      27.931  21.405  18.972  1.00  0.00     0.169 C 
BRANCH  26  27
ATOM     27  C   UNL     1      28.501  21.742  20.313  1.00  0.00     0.119 C 
BRANCH  27  28
ATOM     28  N   UNL     1      28.246  20.654  21.265  1.00  0.00    -0.092 NA
ATOM     29  N   UNL     1      28.699  19.550  20.993  1.00  0.00     0.001 N 
ATOM     30  N   UNL     1      28.848  18.329  20.769  1.00  0.00    -0.003 NA
ENDBRANCH  27  28
ENDBRANCH  26  27
ENDBRANCH  25  26
ENDBRANCH  19  25
BRANCH  20  31
ATOM     31  O   UNL     1      25.264  21.419  15.186  1.00  0.00    -0.387 OA
ATOM     32  H   UNL     1      24.919  21.578  14.280  1.00  0.00     0.211 HD
ENDBRANCH  20  31
BRANCH  21  33
ATOM     33  O   UNL     1      27.523  19.850  15.806  1.00  0.00    -0.385 OA
ATOM     34  H   UNL     1      27.697  19.217  16.529  1.00  0.00     0.211 HD
ENDBRANCH  21  33
ENDBRANCH  15  16
ENDBRANCH  10  15
BRANCH  12  35
ATOM     35  O   UNL     1      22.840  24.534  14.269  1.00  0.00    -0.385 OA
ATOM     36  H   UNL     1      22.595  25.489  14.246  1.00  0.00     0.211 HD
ENDBRANCH  12  35
BRANCH  13  37
ATOM     37  O   UNL     1      22.621  23.701  17.647  1.00  0.00    -0.387 OA
ATOM     38  H   UNL     1      22.183  22.873  17.268  1.00  0.00     0.211 HD
ENDBRANCH  13  37
BRANCH  14  39
ATOM     39  O   UNL     1      22.498  26.239  18.393  1.00  0.00    -0.387 OA
ATOM     40  H   UNL     1      22.813  25.645  19.124  1.00  0.00     0.211 HD
ENDBRANCH  14  39
ENDBRANCH   8   9
ENDBRANCH   7   8
ENDBRANCH   1   7
BRANCH   1  41
ATOM     41  C   UNL     1      26.059  24.963  21.704  1.00  0.00     0.364 C 
ATOM     42  O   UNL     1      26.902  25.857  21.556  1.00  0.00    -0.246 OA
BRANCH  41  43
ATOM     43  O   UNL     1      26.393  23.834  22.508  1.00  0.00    -0.477 OA
ATOM     44  H   UNL     1      25.678  23.427  23.071  1.00  0.00     0.296 HD
ENDBRANCH  41  43
ENDBRANCH   1  41
BRANCH   3  45
ATOM     45  O   UNL     1      22.039  25.095  20.928  1.00  0.00    -0.391 OA
ATOM     46  H   UNL     1      22.624  25.890  20.840  1.00  0.00     0.211 HD
ENDBRANCH   3  45
BRANCH   5  47
ATOM     47  C   UNL     1      23.429  27.772  23.065  1.00  0.00     0.176 C 
BRANCH  47  48
ATOM     48  O   UNL     1      22.096  27.672  23.517  1.00  0.00    -0.388 OA
ATOM     49  H   UNL     1      22.114  26.979  24.222  1.00  0.00     0.211 HD
ENDBRANCH  47  48
BRANCH  47  50
ATOM     50  C   UNL     1      23.473  28.489  21.792  1.00  0.00     0.165 C 
BRANCH  50  51
ATOM     51  O   UNL     1      24.715  29.062  21.461  1.00  0.00    -0.388 OA
ATOM     52  H   UNL     1      24.558  29.983  21.094  1.00  0.00     0.211 HD
ENDBRANCH  50  51
BRANCH  50  53
ATOM     53  C   UNL     1      22.406  29.477  21.514  1.00  0.00     0.154 C 
BRANCH  53  54
ATOM     54  N   UNL     1      21.551  29.148  20.434  1.00  0.00    -0.319 N 
ATOM     55  C   UNL     1      20.571  28.146  20.378  1.00  0.00     0.407 C 
ATOM     56  H   UNL     1      21.684  29.760  19.534  1.00  0.00     0.167 HD
ATOM     57  O   UNL     1      20.369  27.393  21.343  1.00  0.00    -0.225 OA
BRANCH  55  58
ATOM     58  O   UNL     1      19.811  28.009  19.191  1.00  0.00    -0.443 OA
BRANCH  58  59
ATOM     59  C   UNL     1      18.870  29.009  18.895  1.00  0.00     0.294 C 
BRANCH  59  60
ATOM     60  C   UNL     1      17.639  28.773  19.666  1.00  0.00     0.120 A 
ATOM     61  C   UNL     1      16.980  29.712  20.416  1.00  0.00     0.138 A 
ATOM     62  N   UNL     1      16.937  27.632  19.786  1.00  0.00    -0.132 NA
ATOM     63  N   UNL     1      15.914  29.118  20.959  1.00  0.00    -0.246 N 
ATOM     64  N   UNL     1      15.914  27.861  20.561  1.00  0.00    -0.066 NA
BRANCH  63  65
ATOM     65  C   UNL     1      14.972  29.805  21.821  1.00  0.00     0.065 C 
ATOM     66  C   UNL     1      15.114  31.279  21.609  1.00  0.00     0.034 C 
ATOM     67  C   UNL     1      13.567  29.297  21.564  1.00  0.00     0.034 C 
ATOM     68  C   UNL     1      15.296  29.504  23.273  1.00  0.00     0.034 C 
ATOM     69  C   UNL     1      14.126  32.033  22.463  1.00  0.00    -0.008 C 
ATOM     70  C   UNL     1      12.596  30.104  22.374  1.00  0.00    -0.008 C 
ATOM     71  C   UNL     1      14.286  30.237  24.124  1.00  0.00    -0.008 C 
ATOM     72  C   UNL     1      14.398  31.721  23.913  1.00  0.00     0.007 C 
ATOM     73  C   UNL     1      12.739  31.567  22.085  1.00  0.00     0.007 C 
ATOM     74  C   UNL     1      12.870  29.819  23.844  1.00  0.00     0.007 C 
ENDBRANCH  63  65
ENDBRANCH  59  60
ENDBRANCH  58  59
ENDBRANCH  55  58
ENDBRANCH  53  54
ENDBRANCH  50  53
ENDBRANCH  47  50
ENDBRANCH   5  47
BRANCH   4  75
ATOM     75  N   UNL     1      22.887  24.623  24.416  1.00  0.00    -0.348 N 
ATOM     76  C   UNL     1      22.415  25.060  25.685  1.00  0.00     0.217 C 
ATOM     77  H   UNL     1      23.451  23.737  24.366  1.00  0.00     0.163 HD
ATOM     78  C   UNL     1      22.722  24.266  26.929  1.00  0.00     0.114 C 
ATOM     79  O   UNL     1      21.744  26.114  25.735  1.00  0.00    -0.275 OA
ENDBRANCH   4  75
TORSDOF 30
