REMARK VINA RESULT:    -6.475      5.012      8.039
REMARK INTER + INTRA:         -24.879
REMARK INTER:                 -18.051
REMARK INTRA:                  -6.828
REMARK UNBOUND:                -7.995
REMARK SMILES CC(=O)N[C@@H]1[C@@H](O)C[C@](OC[C@H]2O[C@@H](O[C@H]3[C@H](O)[C@@H](O)[C@H](OCCN=[N+]=[N-])O[C@@H]3CO)[C@H](O)[C@@H](O)[C@H]2O)(C(=O)O)O[C@H]1C(O)[C@H](O)CNC(=O)OCc1cn(-c2ccc(-c3c4ccc(=O)cc-4oc4cc(O)ccc34)c(C(=O)[O-])c2)nn1
REMARK SMILES IDX 9 1 8 2 6 3 5 4 42 5 41 6 10 7 11 8 12 9 14 10 13 11 32 12
REMARK SMILES IDX 34 13 36 14 15 15 16 16 29 17 28 18 21 19 17 20 19 21 30 22
REMARK SMILES IDX 31 23 22 25 23 26 24 27 25 28 26 29 27 30 18 31 20 33 33 35
REMARK SMILES IDX 35 37 37 39 38 41 39 42 40 43 7 45 43 47 44 48 45 50 46 51
REMARK SMILES IDX 47 53 48 54 49 55 50 57 51 58 52 59 53 60 54 61 82 62 55 63
REMARK SMILES IDX 81 64 56 65 80 66 57 67 76 68 58 69 59 70 77 71 78 72 79 73
REMARK SMILES IDX 60 74 75 75 61 76 74 77 69 78 67 79 62 80 73 81 70 82 68 83
REMARK SMILES IDX 66 84 63 85 71 86 64 87 65 88 72 89 4 91 2 92 1 94 3 95
REMARK H PARENT 31 24 18 32 20 34 33 36 35 38 37 40 40 44 7 46 44 49 46 52
REMARK H PARENT 48 56 72 90 4 93
REMARK Flexibility Score: inf
ROOT
ATOM      1  C   UNL     1      24.140  26.018  29.179  1.00  0.00     0.272 C 
ATOM      2  C   UNL     1      23.256  25.921  30.397  1.00  0.00     0.113 C 
ATOM      3  C   UNL     1      23.877  26.515  31.630  1.00  0.00     0.145 C 
ATOM      4  C   UNL     1      25.354  26.677  31.373  1.00  0.00     0.142 C 
ATOM      5  C   UNL     1      25.817  25.409  30.707  1.00  0.00     0.178 C 
ATOM      6  O   UNL     1      25.390  25.389  29.403  1.00  0.00    -0.332 OA
ENDROOT
BRANCH   1   7
ATOM      7  O   UNL     1      24.348  27.276  28.687  1.00  0.00    -0.338 OA
BRANCH   7   8
ATOM      8  C   UNL     1      23.231  28.019  28.539  1.00  0.00     0.199 C 
BRANCH   8   9
ATOM      9  C   UNL     1      22.955  28.344  27.063  1.00  0.00     0.179 C 
ATOM     10  C   UNL     1      23.430  27.617  24.927  1.00  0.00     0.282 C 
ATOM     11  O   UNL     1      23.835  27.766  26.224  1.00  0.00    -0.341 OA
ATOM     12  C   UNL     1      22.446  28.612  24.450  1.00  0.00     0.202 C 
ATOM     13  C   UNL     1      21.264  28.764  25.378  1.00  0.00     0.179 C 
ATOM     14  C   UNL     1      21.543  28.067  26.700  1.00  0.00     0.177 C 
BRANCH  10  15
ATOM     15  O   UNL     1      23.096  26.273  24.763  1.00  0.00    -0.341 OA
BRANCH  15  16
ATOM     16  C   UNL     1      23.387  25.783  23.532  1.00  0.00     0.184 C 
ATOM     17  C   UNL     1      22.642  24.523  23.218  1.00  0.00     0.178 C 
ATOM     18  O   UNL     1      22.631  24.299  21.834  1.00  0.00    -0.341 OA
ATOM     19  C   UNL     1      23.878  24.550  21.273  1.00  0.00     0.281 C 
ATOM     20  C   UNL     1      24.870  25.400  23.374  1.00  0.00     0.180 C 
ATOM     21  C   UNL     1      24.988  24.395  22.249  1.00  0.00     0.202 C 
BRANCH  17  22
ATOM     22  C   UNL     1      21.225  24.622  23.692  1.00  0.00     0.191 C 
BRANCH  22  23
ATOM     23  O   UNL     1      20.416  24.995  22.616  1.00  0.00    -0.394 OA
ATOM     24  H   UNL     1      19.505  24.692  22.826  1.00  0.00     0.210 HD
ENDBRANCH  22  23
ENDBRANCH  17  22
BRANCH  19  25
ATOM     25  O   UNL     1      23.908  25.779  20.648  1.00  0.00    -0.350 OA
BRANCH  25  26
ATOM     26  C   UNL     1      23.022  25.900  19.584  1.00  0.00     0.169 C 
BRANCH  26  27
ATOM     27  C   UNL     1      22.299  27.221  19.778  1.00  0.00     0.119 C 
BRANCH  27  28
ATOM     28  N   UNL     1      21.138  27.079  20.614  1.00  0.00    -0.092 NA
ATOM     29  N   UNL     1      20.749  28.060  21.262  1.00  0.00     0.001 N 
ATOM     30  N   UNL     1      20.059  28.941  21.776  1.00  0.00    -0.003 NA
ENDBRANCH  27  28
ENDBRANCH  26  27
ENDBRANCH  25  26
ENDBRANCH  19  25
BRANCH  20  31
ATOM     31  O   UNL     1      25.531  26.558  22.973  1.00  0.00    -0.387 OA
ATOM     32  H   UNL     1      25.722  27.181  23.707  1.00  0.00     0.211 HD
ENDBRANCH  20  31
BRANCH  21  33
ATOM     33  O   UNL     1      25.127  23.082  22.703  1.00  0.00    -0.385 OA
ATOM     34  H   UNL     1      26.091  22.846  22.532  1.00  0.00     0.211 HD
ENDBRANCH  21  33
ENDBRANCH  15  16
ENDBRANCH  10  15
BRANCH  12  35
ATOM     35  O   UNL     1      23.066  29.876  24.272  1.00  0.00    -0.385 OA
ATOM     36  H   UNL     1      23.702  29.806  23.499  1.00  0.00     0.211 HD
ENDBRANCH  12  35
BRANCH  13  37
ATOM     37  O   UNL     1      20.077  28.353  24.794  1.00  0.00    -0.387 OA
ATOM     38  H   UNL     1      20.300  27.766  24.035  1.00  0.00     0.211 HD
ENDBRANCH  13  37
BRANCH  14  39
ATOM     39  O   UNL     1      21.236  26.722  26.541  1.00  0.00    -0.387 OA
ATOM     40  H   UNL     1      21.797  26.238  27.215  1.00  0.00     0.211 HD
ENDBRANCH  14  39
ENDBRANCH   8   9
ENDBRANCH   7   8
ENDBRANCH   1   7
BRANCH   1  41
ATOM     41  C   UNL     1      23.490  25.098  28.162  1.00  0.00     0.364 C 
ATOM     42  O   UNL     1      22.346  24.628  28.292  1.00  0.00    -0.246 OA
BRANCH  41  43
ATOM     43  O   UNL     1      24.184  24.740  27.010  1.00  0.00    -0.477 OA
ATOM     44  H   UNL     1      23.833  24.020  26.394  1.00  0.00     0.296 HD
ENDBRANCH  41  43
ENDBRANCH   1  41
BRANCH   3  45
ATOM     45  O   UNL     1      23.224  27.689  31.954  1.00  0.00    -0.391 OA
ATOM     46  H   UNL     1      23.910  28.347  32.224  1.00  0.00     0.211 HD
ENDBRANCH   3  45
BRANCH   5  47
ATOM     47  C   UNL     1      27.347  25.359  30.652  1.00  0.00     0.176 C 
BRANCH  47  48
ATOM     48  O   UNL     1      27.814  25.117  31.967  1.00  0.00    -0.388 OA
ATOM     49  H   UNL     1      28.226  25.899  32.368  1.00  0.00     0.211 HD
ENDBRANCH  47  48
BRANCH  47  50
ATOM     50  C   UNL     1      27.912  26.683  30.257  1.00  0.00     0.165 C 
BRANCH  50  51
ATOM     51  O   UNL     1      27.808  26.852  28.875  1.00  0.00    -0.388 OA
ATOM     52  H   UNL     1      28.447  26.236  28.433  1.00  0.00     0.211 HD
ENDBRANCH  50  51
BRANCH  50  53
ATOM     53  C   UNL     1      29.296  26.962  30.728  1.00  0.00     0.154 C 
BRANCH  53  54
ATOM     54  N   UNL     1      30.158  25.808  30.607  1.00  0.00    -0.319 N 
ATOM     55  C   UNL     1      30.868  25.461  29.433  1.00  0.00     0.407 C 
ATOM     56  H   UNL     1      30.306  25.141  31.425  1.00  0.00     0.167 HD
ATOM     57  O   UNL     1      30.773  26.171  28.415  1.00  0.00    -0.225 OA
BRANCH  55  58
ATOM     58  O   UNL     1      31.686  24.341  29.353  1.00  0.00    -0.443 OA
BRANCH  58  59
ATOM     59  C   UNL     1      32.974  24.379  28.727  1.00  0.00     0.294 C 
BRANCH  59  60
ATOM     60  C   UNL     1      32.915  23.396  27.615  1.00  0.00     0.121 A 
ATOM     61  C   UNL     1      32.124  23.457  26.501  1.00  0.00     0.144 A 
ATOM     62  N   UNL     1      33.639  22.247  27.494  1.00  0.00    -0.131 NA
ATOM     63  N   UNL     1      32.363  22.376  25.730  1.00  0.00    -0.220 N 
ATOM     64  N   UNL     1      33.290  21.661  26.364  1.00  0.00    -0.062 NA
BRANCH  63  65
ATOM     65  C   UNL     1      31.737  22.087  24.490  1.00  0.00     0.067 A 
ATOM     66  C   UNL     1      32.279  22.478  23.288  1.00  0.00     0.039 A 
ATOM     67  C   UNL     1      30.555  21.389  24.494  1.00  0.00     0.029 A 
ATOM     68  C   UNL     1      31.635  22.169  22.113  1.00  0.00     0.007 A 
ATOM     69  C   UNL     1      29.911  21.081  23.314  1.00  0.00     0.012 A 
ATOM     70  C   UNL     1      30.434  21.462  22.100  1.00  0.00    -0.008 A 
BRANCH  68  71
ATOM     71  C   UNL     1      32.184  22.570  20.816  1.00  0.00     0.072 C 
ATOM     72  O   UNL     1      32.964  21.832  20.167  1.00  0.00    -0.545 OA
ATOM     73  O   UNL     1      31.837  23.789  20.288  1.00  0.00    -0.545 OA
ENDBRANCH  68  71
BRANCH  70  74
ATOM     74  C   UNL     1      29.766  21.140  20.853  1.00  0.00     0.004 A 
ATOM     75  C   UNL     1      30.064  19.954  20.227  1.00  0.00     0.026 A 
ATOM     76  C   UNL     1      28.849  21.981  20.276  1.00  0.00     0.026 A 
ATOM     77  C   UNL     1      30.969  19.051  20.732  1.00  0.00     0.016 A 
ATOM     78  C   UNL     1      29.417  19.662  19.032  1.00  0.00     0.139 A 
ATOM     79  C   UNL     1      28.188  21.625  19.002  1.00  0.00     0.139 A 
ATOM     80  C   UNL     1      28.502  23.181  20.842  1.00  0.00     0.016 A 
ATOM     81  C   UNL     1      31.261  17.859  20.094  1.00  0.00     0.047 A 
ATOM     82  C   UNL     1      29.713  18.477  18.404  1.00  0.00     0.093 A 
ATOM     83  O   UNL     1      28.537  20.476  18.484  1.00  0.00    -0.456 OA
ATOM     84  C   UNL     1      27.272  22.469  18.429  1.00  0.00     0.099 A 
ATOM     85  C   UNL     1      27.575  24.023  20.252  1.00  0.00     0.053 A 
ATOM     86  C   UNL     1      30.626  17.561  18.908  1.00  0.00     0.119 A 
ATOM     87  C   UNL     1      26.978  23.655  19.060  1.00  0.00     0.182 A 
ATOM     88  O   UNL     1      26.143  24.464  18.574  1.00  0.00    -0.290 OA
BRANCH  86  89
ATOM     89  O   UNL     1      30.924  16.364  18.275  1.00  0.00    -0.508 OA
ATOM     90  H   UNL     1      30.978  16.388  17.260  1.00  0.00     0.293 HD
ENDBRANCH  86  89
ENDBRANCH  70  74
ENDBRANCH  63  65
ENDBRANCH  59  60
ENDBRANCH  58  59
ENDBRANCH  55  58
ENDBRANCH  53  54
ENDBRANCH  50  53
ENDBRANCH  47  50
ENDBRANCH   5  47
BRANCH   4  91
ATOM     91  N   UNL     1      26.099  26.964  32.580  1.00  0.00    -0.348 N 
ATOM     92  C   UNL     1      26.331  28.310  32.927  1.00  0.00     0.217 C 
ATOM     93  H   UNL     1      26.477  26.222  33.209  1.00  0.00     0.163 HD
ATOM     94  C   UNL     1      27.083  28.719  34.139  1.00  0.00     0.114 C 
ATOM     95  O   UNL     1      25.895  29.267  32.197  1.00  0.00    -0.275 OA
ENDBRANCH   4  91
TORSDOF 33
