REMARK VINA RESULT:    -5.350      8.830     13.619
REMARK INTER + INTRA:         -21.397
REMARK INTER:                 -14.153
REMARK INTRA:                  -7.244
REMARK UNBOUND:                -7.602
REMARK SMILES CC(=O)N[C@@H]1[C@@H](O)C[C@](OC[C@H]2O[C@@H](O[C@H]3[C@H](O)[C@@H](O)[C@H](OCCN=[N+]=[N-])O[C@@H]3CO)[C@H](O)[C@@H](O)[C@H]2O)(C(=O)O)O[C@H]1C(O)[C@H](O)CNC(=O)OCc1cn(CC(=O)Nc2ncccn2)nn1
REMARK SMILES IDX 9 1 8 2 6 3 5 4 42 5 41 6 10 7 11 8 12 9 14 10 13 11 32 12
REMARK SMILES IDX 34 13 36 14 15 15 16 16 29 17 28 18 21 19 17 20 19 21 30 22
REMARK SMILES IDX 31 23 22 25 23 26 24 27 25 28 26 29 27 30 18 31 20 33 33 35
REMARK SMILES IDX 35 37 37 39 38 41 39 42 40 43 7 45 43 47 44 48 45 50 46 51
REMARK SMILES IDX 47 53 48 54 49 55 50 57 51 58 52 59 53 60 54 61 67 62 55 63
REMARK SMILES IDX 66 64 56 65 57 66 58 67 59 68 60 70 61 71 65 72 62 73 64 74
REMARK SMILES IDX 63 75 4 76 2 77 1 79 3 80
REMARK H PARENT 31 24 18 32 20 34 33 36 35 38 37 40 40 44 7 46 44 49 46 52
REMARK H PARENT 48 56 59 69 4 78
REMARK Flexibility Score: inf
ROOT
ATOM      1  C   UNL     1      20.724  20.760  11.620  1.00  0.00     0.272 C 
ATOM      2  C   UNL     1      19.402  20.117  12.003  1.00  0.00     0.113 C 
ATOM      3  C   UNL     1      19.013  19.088  11.022  1.00  0.00     0.145 C 
ATOM      4  C   UNL     1      20.118  18.135  10.594  1.00  0.00     0.142 C 
ATOM      5  C   UNL     1      21.458  18.712  10.688  1.00  0.00     0.178 C 
ATOM      6  O   UNL     1      21.588  19.607  11.741  1.00  0.00    -0.332 OA
ENDROOT
BRANCH   1   7
ATOM      7  O   UNL     1      21.091  21.595  12.584  1.00  0.00    -0.338 OA
BRANCH   7   8
ATOM      8  C   UNL     1      21.597  22.752  12.733  1.00  0.00     0.199 C 
BRANCH   8   9
ATOM      9  C   UNL     1      22.965  23.114  13.206  1.00  0.00     0.179 C 
ATOM     10  C   UNL     1      24.138  23.176  15.225  1.00  0.00     0.282 C 
ATOM     11  O   UNL     1      22.914  22.995  14.662  1.00  0.00    -0.341 OA
ATOM     12  C   UNL     1      24.976  21.864  15.076  1.00  0.00     0.202 C 
ATOM     13  C   UNL     1      24.249  21.145  13.958  1.00  0.00     0.179 C 
ATOM     14  C   UNL     1      24.088  22.211  12.851  1.00  0.00     0.177 C 
BRANCH  10  15
ATOM     15  O   UNL     1      23.992  23.408  16.599  1.00  0.00    -0.341 OA
BRANCH  15  16
ATOM     16  C   UNL     1      24.413  24.677  16.976  1.00  0.00     0.184 C 
ATOM     17  C   UNL     1      25.694  24.513  17.805  1.00  0.00     0.178 C 
ATOM     18  O   UNL     1      25.596  25.183  19.015  1.00  0.00    -0.341 OA
ATOM     19  C   UNL     1      24.576  24.643  19.812  1.00  0.00     0.281 C 
ATOM     20  C   UNL     1      23.345  25.371  17.734  1.00  0.00     0.180 C 
ATOM     21  C   UNL     1      23.279  25.094  19.205  1.00  0.00     0.202 C 
BRANCH  17  22
ATOM     22  C   UNL     1      26.868  25.120  17.055  1.00  0.00     0.191 C 
BRANCH  22  23
ATOM     23  O   UNL     1      27.001  24.549  15.789  1.00  0.00    -0.394 OA
ATOM     24  H   UNL     1      27.184  25.232  15.087  1.00  0.00     0.210 HD
ENDBRANCH  22  23
ENDBRANCH  17  22
BRANCH  19  25
ATOM     25  O   UNL     1      24.749  25.192  21.068  1.00  0.00    -0.350 OA
BRANCH  25  26
ATOM     26  C   UNL     1      24.282  26.485  21.180  1.00  0.00     0.169 C 
BRANCH  26  27
ATOM     27  C   UNL     1      23.830  26.860  22.575  1.00  0.00     0.119 C 
BRANCH  27  28
ATOM     28  N   UNL     1      22.934  25.864  23.138  1.00  0.00    -0.092 NA
ATOM     29  N   UNL     1      21.868  25.562  22.592  1.00  0.00     0.001 N 
ATOM     30  N   UNL     1      20.804  25.495  21.985  1.00  0.00    -0.003 NA
ENDBRANCH  27  28
ENDBRANCH  26  27
ENDBRANCH  25  26
ENDBRANCH  19  25
BRANCH  20  31
ATOM     31  O   UNL     1      23.543  26.775  17.621  1.00  0.00    -0.387 OA
ATOM     32  H   UNL     1      23.432  27.047  16.665  1.00  0.00     0.211 HD
ENDBRANCH  20  31
BRANCH  21  33
ATOM     33  O   UNL     1      22.298  24.134  19.435  1.00  0.00    -0.385 OA
ATOM     34  H   UNL     1      22.720  23.298  19.746  1.00  0.00     0.211 HD
ENDBRANCH  21  33
ENDBRANCH  15  16
ENDBRANCH  10  15
BRANCH  12  35
ATOM     35  O   UNL     1      26.226  22.216  14.553  1.00  0.00    -0.385 OA
ATOM     36  H   UNL     1      26.057  22.950  13.903  1.00  0.00     0.211 HD
ENDBRANCH  12  35
BRANCH  13  37
ATOM     37  O   UNL     1      23.060  20.587  14.341  1.00  0.00    -0.387 OA
ATOM     38  H   UNL     1      23.058  20.242  15.255  1.00  0.00     0.211 HD
ENDBRANCH  13  37
BRANCH  14  39
ATOM     39  O   UNL     1      24.117  21.582  11.657  1.00  0.00    -0.387 OA
ATOM     40  H   UNL     1      23.877  20.625  11.727  1.00  0.00     0.211 HD
ENDBRANCH  14  39
ENDBRANCH   8   9
ENDBRANCH   7   8
ENDBRANCH   1   7
BRANCH   1  41
ATOM     41  C   UNL     1      20.819  21.262  10.266  1.00  0.00     0.364 C 
ATOM     42  O   UNL     1      21.961  21.557   9.774  1.00  0.00    -0.246 OA
BRANCH  41  43
ATOM     43  O   UNL     1      19.760  21.471   9.415  1.00  0.00    -0.477 OA
ATOM     44  H   UNL     1      19.412  22.353   9.125  1.00  0.00     0.296 HD
ENDBRANCH  41  43
ENDBRANCH   1  41
BRANCH   3  45
ATOM     45  O   UNL     1      17.955  18.344  11.603  1.00  0.00    -0.391 OA
ATOM     46  H   UNL     1      17.222  18.980  11.865  1.00  0.00     0.211 HD
ENDBRANCH   3  45
BRANCH   5  47
ATOM     47  C   UNL     1      22.593  17.684  10.942  1.00  0.00     0.176 C 
BRANCH  47  48
ATOM     48  O   UNL     1      22.447  16.498  10.332  1.00  0.00    -0.388 OA
ATOM     49  H   UNL     1      21.531  16.300   9.989  1.00  0.00     0.211 HD
ENDBRANCH  47  48
BRANCH  47  50
ATOM     50  C   UNL     1      23.909  18.238  11.193  1.00  0.00     0.165 C 
BRANCH  50  51
ATOM     51  O   UNL     1      24.027  19.324  10.168  1.00  0.00    -0.388 OA
ATOM     52  H   UNL     1      23.501  20.078  10.476  1.00  0.00     0.211 HD
ENDBRANCH  50  51
BRANCH  50  53
ATOM     53  C   UNL     1      25.171  17.528  11.165  1.00  0.00     0.154 C 
BRANCH  53  54
ATOM     54  N   UNL     1      26.366  17.860  11.788  1.00  0.00    -0.319 N 
ATOM     55  C   UNL     1      27.099  19.052  11.959  1.00  0.00     0.407 C 
ATOM     56  H   UNL     1      26.866  16.979  12.263  1.00  0.00     0.167 HD
ATOM     57  O   UNL     1      26.696  20.130  11.483  1.00  0.00    -0.225 OA
BRANCH  55  58
ATOM     58  O   UNL     1      28.277  19.075  12.660  1.00  0.00    -0.443 OA
BRANCH  58  59
ATOM     59  C   UNL     1      28.567  18.598  13.896  1.00  0.00     0.294 C 
BRANCH  59  60
ATOM     60  C   UNL     1      28.497  19.610  14.974  1.00  0.00     0.120 A 
ATOM     61  C   UNL     1      29.422  20.635  15.213  1.00  0.00     0.138 A 
ATOM     62  N   UNL     1      27.601  19.749  15.990  1.00  0.00    -0.132 NA
ATOM     63  N   UNL     1      29.081  21.325  16.307  1.00  0.00    -0.243 N 
ATOM     64  N   UNL     1      27.972  20.757  16.747  1.00  0.00    -0.067 NA
BRANCH  63  65
ATOM     65  C   UNL     1      29.736  22.459  16.928  1.00  0.00     0.246 C 
BRANCH  65  66
ATOM     66  C   UNL     1      30.144  22.041  18.325  1.00  0.00     0.248 C 
ATOM     67  O   UNL     1      31.340  21.805  18.623  1.00  0.00    -0.272 OA
ATOM     68  N   UNL     1      29.162  21.906  19.338  1.00  0.00    -0.293 N 
ATOM     69  H   UNL     1      28.179  22.115  19.033  1.00  0.00     0.173 HD
BRANCH  68  70
ATOM     70  C   UNL     1      29.393  21.539  20.681  1.00  0.00     0.229 A 
ATOM     71  N   UNL     1      29.356  20.277  21.143  1.00  0.00    -0.221 NA
ATOM     72  N   UNL     1      29.662  22.519  21.566  1.00  0.00    -0.221 NA
ATOM     73  C   UNL     1      29.575  19.964  22.454  1.00  0.00     0.117 A 
ATOM     74  C   UNL     1      29.886  22.271  22.857  1.00  0.00     0.117 A 
ATOM     75  C   UNL     1      29.848  20.989  23.335  1.00  0.00     0.040 A 
ENDBRANCH  68  70
ENDBRANCH  65  66
ENDBRANCH  63  65
ENDBRANCH  59  60
ENDBRANCH  58  59
ENDBRANCH  55  58
ENDBRANCH  53  54
ENDBRANCH  50  53
ENDBRANCH  47  50
ENDBRANCH   5  47
BRANCH   4  76
ATOM     76  N   UNL     1      19.710  17.607   9.327  1.00  0.00    -0.348 N 
ATOM     77  C   UNL     1      20.217  18.150   8.087  1.00  0.00     0.217 C 
ATOM     78  H   UNL     1      19.028  16.806   9.247  1.00  0.00     0.163 HD
ATOM     79  C   UNL     1      19.757  17.553   6.816  1.00  0.00     0.114 C 
ATOM     80  O   UNL     1      21.022  19.103   8.105  1.00  0.00    -0.275 OA
ENDBRANCH   4  76
TORSDOF 32
