REMARK VINA RESULT:    -6.005     10.459     16.817
REMARK INTER + INTRA:         -24.259
REMARK INTER:                 -13.509
REMARK INTRA:                 -10.751
REMARK UNBOUND:                -8.074
REMARK SMILES CC(=O)N[C@@H]1[C@@H](O)C[C@](OC[C@H]2O[C@@H](O[C@H]3[C@H](O)[C@@H](O)[C@H](OCCN=[N+]=[N-])O[C@@H]3CO)[C@H](O)[C@@H](O)[C@H]2O)(C(=O)O)O[C@H]1C(O)[C@H](O)CNC(=O)OCc1cn(C[C@@H](C)CN2CCN(c3ccc(Cl)cc3)CC2)nn1
REMARK SMILES IDX 43 1 42 2 9 3 8 4 41 5 6 6 5 7 10 8 11 9 12 10 14 11 13 12
REMARK SMILES IDX 32 13 34 14 36 15 15 16 16 17 29 18 28 19 21 20 17 21 19 22
REMARK SMILES IDX 30 23 31 24 22 26 23 27 24 28 25 29 26 30 27 31 18 32 20 34
REMARK SMILES IDX 33 36 35 38 37 40 38 42 39 43 40 44 7 46 4 48 2 49 1 51 3 52
REMARK SMILES IDX 44 53 45 55 46 56 47 58 48 59 49 60 50 62 51 63 52 64 53 65
REMARK SMILES IDX 54 66 74 67 55 68 73 69 56 70 57 71 58 72 59 73 60 74 61 75
REMARK SMILES IDX 72 76 62 77 71 78 63 79 64 80 65 81 70 82 66 83 69 84 67 85
REMARK SMILES IDX 68 86
REMARK H PARENT 31 25 18 33 20 35 33 37 35 39 37 41 40 45 7 47 4 50 44 54
REMARK H PARENT 46 57 48 61
REMARK Flexibility Score: inf
ROOT
ATOM      1  C   UNL     1      14.479  33.642  23.088  1.00  0.00     0.176 C 
ENDROOT
BRANCH   1   2
ATOM      2  C   UNL     1      14.408  32.139  23.317  1.00  0.00     0.178 C 
ATOM      3  C   UNL     1      14.609  30.037  22.258  1.00  0.00     0.272 C 
ATOM      4  C   UNL     1      13.790  29.547  23.347  1.00  0.00     0.113 C 
ATOM      5  O   UNL     1      14.476  31.456  22.148  1.00  0.00    -0.332 OA
ATOM      6  C   UNL     1      12.658  30.487  23.717  1.00  0.00     0.145 C 
ATOM      7  C   UNL     1      13.310  31.768  24.256  1.00  0.00     0.142 C 
BRANCH   3   8
ATOM      8  O   UNL     1      14.447  29.606  21.010  1.00  0.00    -0.338 OA
BRANCH   8   9
ATOM      9  C   UNL     1      14.122  30.275  19.935  1.00  0.00     0.199 C 
BRANCH   9  10
ATOM     10  C   UNL     1      15.121  31.012  19.090  1.00  0.00     0.179 C 
ATOM     11  C   UNL     1      16.852  30.325  17.684  1.00  0.00     0.282 C 
ATOM     12  O   UNL     1      16.315  30.368  18.943  1.00  0.00    -0.341 OA
ATOM     13  C   UNL     1      15.936  29.519  16.783  1.00  0.00     0.202 C 
ATOM     14  C   UNL     1      14.594  30.173  16.771  1.00  0.00     0.179 C 
ATOM     15  C   UNL     1      14.470  31.308  17.730  1.00  0.00     0.177 C 
BRANCH  11  16
ATOM     16  O   UNL     1      18.066  29.606  17.802  1.00  0.00    -0.341 OA
BRANCH  16  17
ATOM     17  C   UNL     1      18.702  29.967  18.963  1.00  0.00     0.184 C 
ATOM     18  C   UNL     1      19.858  30.917  18.725  1.00  0.00     0.178 C 
ATOM     19  O   UNL     1      21.090  30.388  18.957  1.00  0.00    -0.341 OA
ATOM     20  C   UNL     1      21.299  29.835  20.208  1.00  0.00     0.281 C 
ATOM     21  C   UNL     1      19.158  28.750  19.762  1.00  0.00     0.180 C 
ATOM     22  C   UNL     1      20.066  29.265  20.855  1.00  0.00     0.202 C 
BRANCH  18  23
ATOM     23  C   UNL     1      19.639  32.261  19.403  1.00  0.00     0.191 C 
BRANCH  23  24
ATOM     24  O   UNL     1      18.481  32.290  20.140  1.00  0.00    -0.394 OA
ATOM     25  H   UNL     1      18.639  31.719  20.953  1.00  0.00     0.210 HD
ENDBRANCH  23  24
ENDBRANCH  18  23
BRANCH  20  26
ATOM     26  O   UNL     1      21.922  30.718  21.082  1.00  0.00    -0.350 OA
BRANCH  26  27
ATOM     27  C   UNL     1      23.008  31.379  20.585  1.00  0.00     0.169 C 
BRANCH  27  28
ATOM     28  C   UNL     1      23.059  32.807  21.047  1.00  0.00     0.119 C 
BRANCH  28  29
ATOM     29  N   UNL     1      22.125  32.987  22.146  1.00  0.00    -0.092 NA
ATOM     30  N   UNL     1      21.285  33.904  22.091  1.00  0.00     0.001 N 
ATOM     31  N   UNL     1      20.515  34.838  21.913  1.00  0.00    -0.003 NA
ENDBRANCH  28  29
ENDBRANCH  27  28
ENDBRANCH  26  27
ENDBRANCH  20  26
BRANCH  21  32
ATOM     32  O   UNL     1      18.073  28.129  20.376  1.00  0.00    -0.387 OA
ATOM     33  H   UNL     1      18.148  27.160  20.133  1.00  0.00     0.211 HD
ENDBRANCH  21  32
BRANCH  22  34
ATOM     34  O   UNL     1      20.466  28.162  21.647  1.00  0.00    -0.385 OA
ATOM     35  H   UNL     1      20.830  27.428  21.126  1.00  0.00     0.211 HD
ENDBRANCH  22  34
ENDBRANCH  16  17
ENDBRANCH  11  16
BRANCH  13  36
ATOM     36  O   UNL     1      16.524  29.441  15.532  1.00  0.00    -0.385 OA
ATOM     37  H   UNL     1      16.933  28.530  15.463  1.00  0.00     0.211 HD
ENDBRANCH  13  36
BRANCH  14  38
ATOM     38  O   UNL     1      13.540  29.264  16.938  1.00  0.00    -0.387 OA
ATOM     39  H   UNL     1      13.417  28.711  16.133  1.00  0.00     0.211 HD
ENDBRANCH  14  38
BRANCH  15  40
ATOM     40  O   UNL     1      13.155  31.645  17.935  1.00  0.00    -0.387 OA
ATOM     41  H   UNL     1      12.804  32.241  17.234  1.00  0.00     0.211 HD
ENDBRANCH  15  40
ENDBRANCH   9  10
ENDBRANCH   8   9
ENDBRANCH   3   8
BRANCH   3  42
ATOM     42  C   UNL     1      16.077  29.936  22.626  1.00  0.00     0.364 C 
ATOM     43  O   UNL     1      16.435  29.324  23.692  1.00  0.00    -0.246 OA
BRANCH  42  44
ATOM     44  O   UNL     1      17.097  30.473  21.884  1.00  0.00    -0.477 OA
ATOM     45  H   UNL     1      17.532  31.352  22.135  1.00  0.00     0.296 HD
ENDBRANCH  42  44
ENDBRANCH   3  42
BRANCH   6  46
ATOM     46  O   UNL     1      11.956  30.761  22.543  1.00  0.00    -0.391 OA
ATOM     47  H   UNL     1      12.554  31.093  21.831  1.00  0.00     0.211 HD
ENDBRANCH   6  46
BRANCH   7  48
ATOM     48  N   UNL     1      13.791  31.472  25.590  1.00  0.00    -0.348 N 
ATOM     49  C   UNL     1      13.379  32.269  26.688  1.00  0.00     0.217 C 
ATOM     50  H   UNL     1      14.453  30.673  25.792  1.00  0.00     0.163 HD
ATOM     51  C   UNL     1      13.902  31.928  28.058  1.00  0.00     0.114 C 
ATOM     52  O   UNL     1      12.594  33.252  26.573  1.00  0.00    -0.275 OA
ENDBRANCH   7  48
ENDBRANCH   1   2
BRANCH   1  53
ATOM     53  O   UNL     1      14.418  34.253  24.340  1.00  0.00    -0.388 OA
ATOM     54  H   UNL     1      14.877  33.715  25.025  1.00  0.00     0.211 HD
ENDBRANCH   1  53
BRANCH   1  55
ATOM     55  C   UNL     1      15.759  34.103  22.449  1.00  0.00     0.165 C 
BRANCH  55  56
ATOM     56  O   UNL     1      16.130  33.425  21.318  1.00  0.00    -0.388 OA
ATOM     57  H   UNL     1      15.375  33.056  20.830  1.00  0.00     0.211 HD
ENDBRANCH  55  56
BRANCH  55  58
ATOM     58  C   UNL     1      16.906  34.249  23.390  1.00  0.00     0.154 C 
BRANCH  58  59
ATOM     59  N   UNL     1      17.918  33.248  23.046  1.00  0.00    -0.319 N 
ATOM     60  C   UNL     1      18.499  32.417  24.032  1.00  0.00     0.407 C 
ATOM     61  H   UNL     1      18.212  33.152  22.053  1.00  0.00     0.167 HD
ATOM     62  O   UNL     1      18.126  32.564  25.221  1.00  0.00    -0.225 OA
BRANCH  60  63
ATOM     63  O   UNL     1      19.452  31.471  23.682  1.00  0.00    -0.443 OA
BRANCH  63  64
ATOM     64  C   UNL     1      20.460  31.153  24.641  1.00  0.00     0.294 C 
BRANCH  64  65
ATOM     65  C   UNL     1      20.493  29.708  24.965  1.00  0.00     0.120 A 
ATOM     66  C   UNL     1      21.272  29.085  25.913  1.00  0.00     0.138 A 
ATOM     67  N   UNL     1      19.768  28.718  24.391  1.00  0.00    -0.132 NA
ATOM     68  N   UNL     1      20.990  27.787  25.870  1.00  0.00    -0.252 N 
ATOM     69  N   UNL     1      20.080  27.568  24.948  1.00  0.00    -0.067 NA
BRANCH  68  70
ATOM     70  C   UNL     1      21.621  26.775  26.720  1.00  0.00     0.150 C 
BRANCH  70  71
ATOM     71  C   UNL     1      22.821  26.145  26.008  1.00  0.00     0.022 C 
ATOM     72  C   UNL     1      23.907  26.029  27.056  1.00  0.00     0.011 C 
BRANCH  71  73
ATOM     73  C   UNL     1      22.424  24.804  25.474  1.00  0.00     0.089 C 
BRANCH  73  74
ATOM     74  N   UNL     1      22.593  24.550  24.104  1.00  0.00    -0.299 NA
ATOM     75  C   UNL     1      23.860  24.588  23.506  1.00  0.00     0.106 C 
ATOM     76  C   UNL     1      21.479  24.895  23.281  1.00  0.00     0.106 C 
ATOM     77  C   UNL     1      23.900  25.486  22.270  1.00  0.00     0.132 C 
ATOM     78  C   UNL     1      21.707  24.366  21.876  1.00  0.00     0.132 C 
ATOM     79  N   UNL     1      22.844  25.073  21.347  1.00  0.00    -0.369 N 
BRANCH  79  80
ATOM     80  C   UNL     1      22.965  25.381  19.987  1.00  0.00     0.037 A 
ATOM     81  C   UNL     1      22.393  26.522  19.431  1.00  0.00     0.027 A 
ATOM     82  C   UNL     1      23.669  24.580  19.097  1.00  0.00     0.027 A 
ATOM     83  C   UNL     1      22.503  26.850  18.101  1.00  0.00     0.022 A 
ATOM     84  C   UNL     1      23.782  24.907  17.760  1.00  0.00     0.022 A 
ATOM     85  C   UNL     1      23.203  26.044  17.242  1.00  0.00     0.041 A 
ATOM     86  Cl  UNL     1      23.343  26.457  15.565  1.00  0.00    -0.084 Cl
ENDBRANCH  79  80
ENDBRANCH  73  74
ENDBRANCH  71  73
ENDBRANCH  70  71
ENDBRANCH  68  70
ENDBRANCH  64  65
ENDBRANCH  63  64
ENDBRANCH  60  63
ENDBRANCH  58  59
ENDBRANCH  55  58
ENDBRANCH   1  55
TORSDOF 34
