REMARK VINA RESULT:    -4.683      2.456      4.273
REMARK INTER + INTRA:         -24.018
REMARK INTER:                 -14.952
REMARK INTRA:                  -9.066
REMARK UNBOUND:               -10.710
REMARK SMILES CC(=O)N[C@@H]1[C@@H](O)C[C@](OC[C@H]2O[C@@H](O[C@H]3[C@H](O)[C@@H](O)[C@H](OCCN=[N+]=[N-])O[C@@H]3CO)[C@H](O)[C@@H](O)[C@H]2O)(C(=O)O)O[C@H]1C(O)[C@H](O)CNC(=O)OCc1cn(CC(=O)NCC(O)Cn2ccnc2[N+](=O)[O-])nn1
REMARK SMILES IDX 47 1 45 2 43 3 42 4 9 5 8 6 41 7 6 8 5 9 10 10 11 11 12 12
REMARK SMILES IDX 14 13 13 14 32 15 34 16 36 17 15 18 16 19 29 20 28 21 21 22
REMARK SMILES IDX 17 23 19 24 30 25 31 26 22 28 23 29 24 30 25 31 26 32 27 33
REMARK SMILES IDX 18 34 20 36 33 38 35 40 37 42 38 44 39 45 40 46 7 48 4 50
REMARK SMILES IDX 2 51 1 53 3 54 44 55 46 57 48 59 49 60 50 62 51 63 52 64
REMARK SMILES IDX 53 65 54 66 73 67 55 68 72 69 56 70 57 71 58 72 59 73 60 75
REMARK SMILES IDX 61 76 62 77 63 79 64 80 65 81 68 82 66 83 67 84 69 85 70 86
REMARK SMILES IDX 71 87
REMARK H PARENT 31 27 18 35 20 37 33 39 35 41 37 43 40 47 7 49 4 52 44 56
REMARK H PARENT 46 58 48 61 59 74 62 78
REMARK Flexibility Score: inf
ROOT
ATOM      1  C   UNL     1       5.164  21.611  32.649  1.00  0.00     0.154 C 
ENDROOT
BRANCH   1   2
ATOM      2  C   UNL     1       5.149  23.098  32.762  1.00  0.00     0.165 C 
BRANCH   2   3
ATOM      3  C   UNL     1       3.932  23.784  32.264  1.00  0.00     0.176 C 
BRANCH   3   4
ATOM      4  C   UNL     1       3.856  25.253  32.326  1.00  0.00     0.178 C 
ATOM      5  C   UNL     1       4.683  27.271  31.523  1.00  0.00     0.272 C 
ATOM      6  C   UNL     1       3.365  27.739  32.033  1.00  0.00     0.113 C 
ATOM      7  O   UNL     1       4.838  25.874  31.584  1.00  0.00    -0.332 OA
ATOM      8  C   UNL     1       3.004  27.238  33.391  1.00  0.00     0.145 C 
ATOM      9  C   UNL     1       3.742  25.894  33.657  1.00  0.00     0.142 C 
BRANCH   5  10
ATOM     10  O   UNL     1       5.795  27.833  32.076  1.00  0.00    -0.338 OA
BRANCH  10  11
ATOM     11  C   UNL     1       5.794  29.177  32.284  1.00  0.00     0.199 C 
BRANCH  11  12
ATOM     12  C   UNL     1       5.973  29.553  33.742  1.00  0.00     0.179 C 
ATOM     13  C   UNL     1       6.943  28.794  35.721  1.00  0.00     0.282 C 
ATOM     14  O   UNL     1       6.247  28.508  34.552  1.00  0.00    -0.341 OA
ATOM     15  C   UNL     1       6.547  30.131  36.297  1.00  0.00     0.202 C 
ATOM     16  C   UNL     1       6.759  31.248  35.302  1.00  0.00     0.179 C 
ATOM     17  C   UNL     1       6.959  30.677  33.911  1.00  0.00     0.177 C 
BRANCH  13  18
ATOM     18  O   UNL     1       8.285  28.732  35.599  1.00  0.00    -0.341 OA
BRANCH  18  19
ATOM     19  C   UNL     1       8.941  27.566  35.487  1.00  0.00     0.184 C 
ATOM     20  C   UNL     1      10.044  27.293  36.473  1.00  0.00     0.178 C 
ATOM     21  O   UNL     1      10.252  25.912  36.453  1.00  0.00    -0.341 OA
ATOM     22  C   UNL     1      10.834  25.509  35.256  1.00  0.00     0.281 C 
ATOM     23  C   UNL     1       9.618  27.400  34.117  1.00  0.00     0.180 C 
ATOM     24  C   UNL     1      10.063  25.956  34.051  1.00  0.00     0.202 C 
BRANCH  20  25
ATOM     25  C   UNL     1       9.593  27.651  37.859  1.00  0.00     0.191 C 
BRANCH  25  26
ATOM     26  O   UNL     1       9.666  29.031  38.088  1.00  0.00    -0.394 OA
ATOM     27  H   UNL     1       9.268  29.152  39.007  1.00  0.00     0.210 HD
ENDBRANCH  25  26
ENDBRANCH  20  25
BRANCH  22  28
ATOM     28  O   UNL     1      10.847  24.116  35.253  1.00  0.00    -0.350 OA
BRANCH  28  29
ATOM     29  C   UNL     1       9.758  23.596  35.954  1.00  0.00     0.169 C 
BRANCH  29  30
ATOM     30  C   UNL     1       8.665  23.347  34.912  1.00  0.00     0.119 C 
BRANCH  30  31
ATOM     31  N   UNL     1       7.369  23.741  35.437  1.00  0.00    -0.092 NA
ATOM     32  N   UNL     1       7.338  24.113  36.629  1.00  0.00     0.001 N 
ATOM     33  N   UNL     1       7.287  24.751  37.673  1.00  0.00    -0.003 NA
ENDBRANCH  30  31
ENDBRANCH  29  30
ENDBRANCH  28  29
ENDBRANCH  22  28
BRANCH  23  34
ATOM     34  O   UNL     1       8.712  27.592  33.080  1.00  0.00    -0.387 OA
ATOM     35  H   UNL     1       8.633  26.687  32.641  1.00  0.00     0.211 HD
ENDBRANCH  23  34
BRANCH  24  36
ATOM     36  O   UNL     1      10.831  25.680  32.921  1.00  0.00    -0.385 OA
ATOM     37  H   UNL     1      10.870  24.684  32.812  1.00  0.00     0.211 HD
ENDBRANCH  24  36
ENDBRANCH  18  19
ENDBRANCH  13  18
BRANCH  15  38
ATOM     38  O   UNL     1       5.231  30.117  36.779  1.00  0.00    -0.385 OA
ATOM     39  H   UNL     1       5.325  30.098  37.783  1.00  0.00     0.211 HD
ENDBRANCH  15  38
BRANCH  16  40
ATOM     40  O   UNL     1       7.898  31.986  35.612  1.00  0.00    -0.387 OA
ATOM     41  H   UNL     1       7.887  32.894  35.186  1.00  0.00     0.211 HD
ENDBRANCH  16  40
BRANCH  17  42
ATOM     42  O   UNL     1       8.260  30.341  33.623  1.00  0.00    -0.387 OA
ATOM     43  H   UNL     1       8.558  30.672  32.732  1.00  0.00     0.211 HD
ENDBRANCH  17  42
ENDBRANCH  11  12
ENDBRANCH  10  11
ENDBRANCH   5  10
BRANCH   5  44
ATOM     44  C   UNL     1       4.686  27.538  30.036  1.00  0.00     0.364 C 
ATOM     45  O   UNL     1       5.267  26.706  29.317  1.00  0.00    -0.246 OA
BRANCH  44  46
ATOM     46  O   UNL     1       4.087  28.636  29.464  1.00  0.00    -0.477 OA
ATOM     47  H   UNL     1       4.043  28.734  28.434  1.00  0.00     0.296 HD
ENDBRANCH  44  46
ENDBRANCH   5  44
BRANCH   8  48
ATOM     48  O   UNL     1       3.170  28.087  34.437  1.00  0.00    -0.391 OA
ATOM     49  H   UNL     1       3.508  28.971  34.232  1.00  0.00     0.211 HD
ENDBRANCH   8  48
BRANCH   9  50
ATOM     50  N   UNL     1       3.005  25.220  34.659  1.00  0.00    -0.348 N 
ATOM     51  C   UNL     1       3.401  25.280  36.043  1.00  0.00     0.217 C 
ATOM     52  H   UNL     1       2.160  24.677  34.439  1.00  0.00     0.163 HD
ATOM     53  C   UNL     1       2.645  24.571  37.110  1.00  0.00     0.114 C 
ATOM     54  O   UNL     1       4.414  25.950  36.333  1.00  0.00    -0.275 OA
ENDBRANCH   9  50
ENDBRANCH   3   4
BRANCH   3  55
ATOM     55  O   UNL     1       2.823  23.172  32.901  1.00  0.00    -0.388 OA
ATOM     56  H   UNL     1       2.024  23.456  32.429  1.00  0.00     0.211 HD
ENDBRANCH   3  55
ENDBRANCH   2   3
BRANCH   2  57
ATOM     57  O   UNL     1       6.358  23.680  32.463  1.00  0.00    -0.388 OA
ATOM     58  H   UNL     1       6.565  24.505  32.940  1.00  0.00     0.211 HD
ENDBRANCH   2  57
ENDBRANCH   1   2
BRANCH   1  59
ATOM     59  N   UNL     1       4.751  21.199  31.335  1.00  0.00    -0.319 N 
ATOM     60  C   UNL     1       3.548  20.494  31.079  1.00  0.00     0.407 C 
ATOM     61  H   UNL     1       5.356  21.417  30.489  1.00  0.00     0.167 HD
ATOM     62  O   UNL     1       2.790  20.217  32.031  1.00  0.00    -0.225 OA
BRANCH  60  63
ATOM     63  O   UNL     1       3.144  20.079  29.828  1.00  0.00    -0.443 OA
BRANCH  63  64
ATOM     64  C   UNL     1       1.992  20.590  29.211  1.00  0.00     0.294 C 
BRANCH  64  65
ATOM     65  C   UNL     1       2.076  21.953  28.692  1.00  0.00     0.120 A 
ATOM     66  C   UNL     1       1.786  23.130  29.334  1.00  0.00     0.138 A 
ATOM     67  N   UNL     1       2.448  22.317  27.453  1.00  0.00    -0.132 NA
ATOM     68  N   UNL     1       1.987  24.160  28.479  1.00  0.00    -0.243 N 
ATOM     69  N   UNL     1       2.384  23.654  27.354  1.00  0.00    -0.067 NA
BRANCH  68  70
ATOM     70  C   UNL     1       1.816  25.575  28.783  1.00  0.00     0.245 C 
BRANCH  70  71
ATOM     71  C   UNL     1       2.048  26.363  27.555  1.00  0.00     0.241 C 
ATOM     72  O   UNL     1       1.073  26.819  26.867  1.00  0.00    -0.273 OA
ATOM     73  N   UNL     1       3.353  26.667  27.066  1.00  0.00    -0.352 N 
ATOM     74  H   UNL     1       4.177  26.321  27.587  1.00  0.00     0.163 HD
BRANCH  73  75
ATOM     75  C   UNL     1       3.480  27.450  25.851  1.00  0.00     0.151 C 
BRANCH  75  76
ATOM     76  C   UNL     1       4.847  27.354  25.249  1.00  0.00     0.168 C 
BRANCH  76  77
ATOM     77  O   UNL     1       5.214  26.048  24.973  1.00  0.00    -0.388 OA
ATOM     78  H   UNL     1       4.811  25.473  25.665  1.00  0.00     0.211 HD
ENDBRANCH  76  77
BRANCH  76  79
ATOM     79  C   UNL     1       5.822  27.988  26.230  1.00  0.00     0.239 C 
BRANCH  79  80
ATOM     80  N   UNL     1       6.881  28.681  25.555  1.00  0.00    -0.227 N 
ATOM     81  C   UNL     1       6.884  30.013  25.281  1.00  0.00     0.204 A 
ATOM     82  C   UNL     1       8.045  28.208  25.045  1.00  0.00     0.434 A 
ATOM     83  C   UNL     1       8.039  30.336  24.612  1.00  0.00     0.245 A 
ATOM     84  N   UNL     1       8.738  29.214  24.477  1.00  0.00    -0.074 NA
BRANCH  82  85
ATOM     85  N   UNL     1       8.479  26.851  25.113  1.00  0.00    -0.047 N 
ATOM     86  O   UNL     1       8.189  25.992  24.280  1.00  0.00    -0.390 OA
ATOM     87  O   UNL     1       9.271  26.470  26.188  1.00  0.00    -0.390 OA
ENDBRANCH  82  85
ENDBRANCH  79  80
ENDBRANCH  76  79
ENDBRANCH  75  76
ENDBRANCH  73  75
ENDBRANCH  70  71
ENDBRANCH  68  70
ENDBRANCH  64  65
ENDBRANCH  63  64
ENDBRANCH  60  63
ENDBRANCH   1  59
TORSDOF 37
