REMARK VINA RESULT:    -5.035      4.121      8.628
REMARK INTER + INTRA:         -21.771
REMARK INTER:                 -13.935
REMARK INTRA:                  -7.837
REMARK UNBOUND:                -8.936
REMARK SMILES CC(=O)N[C@@H]1[C@@H](O)C[C@](OC[C@H]2O[C@@H](O[C@H]3[C@H](O)[C@@H](O)[C@H](OCCN=[N+]=[N-])O[C@@H]3CO)[C@H](O)[C@@H](O)[C@H]2O)(C(=O)O)O[C@H]1C(O)[C@H](O)CNC(=O)OCc1cn(-c2ccc(S(N)(=O)=O)cc2)nn1
REMARK SMILES IDX 9 1 8 2 6 3 5 4 42 5 41 6 10 7 11 8 12 9 14 10 13 11 32 12
REMARK SMILES IDX 34 13 36 14 15 15 16 16 29 17 28 18 21 19 17 20 19 21 30 22
REMARK SMILES IDX 31 23 22 25 23 26 24 27 25 28 26 29 27 30 18 31 20 33 33 35
REMARK SMILES IDX 35 37 37 39 38 41 39 42 40 43 7 45 43 47 44 48 45 50 46 51
REMARK SMILES IDX 47 53 48 54 49 55 50 57 51 58 52 59 53 60 54 61 67 62 55 63
REMARK SMILES IDX 66 64 56 65 57 66 65 67 58 68 64 69 59 70 60 71 62 72 63 73
REMARK SMILES IDX 61 74 4 77 2 78 1 80 3 81
REMARK H PARENT 31 24 18 32 20 34 33 36 35 38 37 40 40 44 7 46 44 49 46 52
REMARK H PARENT 48 56 61 75 61 76 4 79
REMARK Flexibility Score: inf
ROOT
ATOM      1  C   UNL     1      13.488  31.514  20.510  1.00  0.00     0.272 C 
ATOM      2  C   UNL     1      14.337  32.747  20.860  1.00  0.00     0.113 C 
ATOM      3  C   UNL     1      15.404  32.430  21.849  1.00  0.00     0.145 C 
ATOM      4  C   UNL     1      14.855  31.478  22.880  1.00  0.00     0.142 C 
ATOM      5  C   UNL     1      13.333  31.653  22.819  1.00  0.00     0.178 C 
ATOM      6  O   UNL     1      12.930  31.000  21.656  1.00  0.00    -0.332 OA
ENDROOT
BRANCH   1   7
ATOM      7  O   UNL     1      14.348  30.647  19.848  1.00  0.00    -0.338 OA
BRANCH   7   8
ATOM      8  C   UNL     1      14.060  29.322  20.017  1.00  0.00     0.199 C 
BRANCH   8   9
ATOM      9  C   UNL     1      15.177  28.517  19.331  1.00  0.00     0.179 C 
ATOM     10  C   UNL     1      16.794  28.922  17.690  1.00  0.00     0.282 C 
ATOM     11  O   UNL     1      15.470  29.163  18.173  1.00  0.00    -0.341 OA
ATOM     12  C   UNL     1      17.666  29.570  18.726  1.00  0.00     0.202 C 
ATOM     13  C   UNL     1      17.606  28.770  20.021  1.00  0.00     0.179 C 
ATOM     14  C   UNL     1      16.275  28.150  20.245  1.00  0.00     0.177 C 
BRANCH  10  15
ATOM     15  O   UNL     1      16.897  29.536  16.490  1.00  0.00    -0.341 OA
BRANCH  15  16
ATOM     16  C   UNL     1      15.800  30.369  16.146  1.00  0.00     0.184 C 
ATOM     17  C   UNL     1      15.407  30.061  14.774  1.00  0.00     0.178 C 
ATOM     18  O   UNL     1      15.063  31.125  13.965  1.00  0.00    -0.341 OA
ATOM     19  C   UNL     1      14.617  32.255  14.590  1.00  0.00     0.281 C 
ATOM     20  C   UNL     1      16.166  31.809  16.422  1.00  0.00     0.180 C 
ATOM     21  C   UNL     1      15.758  32.802  15.406  1.00  0.00     0.202 C 
BRANCH  17  22
ATOM     22  C   UNL     1      14.278  29.058  14.660  1.00  0.00     0.191 C 
BRANCH  22  23
ATOM     23  O   UNL     1      13.479  29.091  15.794  1.00  0.00    -0.394 OA
ATOM     24  H   UNL     1      13.195  28.185  16.076  1.00  0.00     0.210 HD
ENDBRANCH  22  23
ENDBRANCH  17  22
BRANCH  19  25
ATOM     25  O   UNL     1      13.456  32.130  15.313  1.00  0.00    -0.350 OA
BRANCH  25  26
ATOM     26  C   UNL     1      12.360  32.449  14.521  1.00  0.00     0.169 C 
BRANCH  26  27
ATOM     27  C   UNL     1      11.106  32.309  15.379  1.00  0.00     0.119 C 
BRANCH  27  28
ATOM     28  N   UNL     1      10.880  30.911  15.619  1.00  0.00    -0.092 NA
ATOM     29  N   UNL     1      10.580  30.119  14.697  1.00  0.00     0.001 N 
ATOM     30  N   UNL     1       9.766  29.454  14.034  1.00  0.00    -0.003 NA
ENDBRANCH  27  28
ENDBRANCH  26  27
ENDBRANCH  25  26
ENDBRANCH  19  25
BRANCH  20  31
ATOM     31  O   UNL     1      15.661  32.228  17.656  1.00  0.00    -0.387 OA
ATOM     32  H   UNL     1      15.150  31.491  18.062  1.00  0.00     0.211 HD
ENDBRANCH  20  31
BRANCH  21  33
ATOM     33  O   UNL     1      16.784  33.213  14.562  1.00  0.00    -0.385 OA
ATOM     34  H   UNL     1      16.319  33.442  13.694  1.00  0.00     0.211 HD
ENDBRANCH  21  33
ENDBRANCH  15  16
ENDBRANCH  10  15
BRANCH  12  35
ATOM     35  O   UNL     1      18.939  29.854  18.330  1.00  0.00    -0.385 OA
ATOM     36  H   UNL     1      19.189  30.798  18.356  1.00  0.00     0.211 HD
ENDBRANCH  12  35
BRANCH  13  37
ATOM     37  O   UNL     1      18.106  29.495  21.089  1.00  0.00    -0.387 OA
ATOM     38  H   UNL     1      18.712  29.006  21.683  1.00  0.00     0.211 HD
ENDBRANCH  13  37
BRANCH  14  39
ATOM     39  O   UNL     1      15.869  28.501  21.556  1.00  0.00    -0.387 OA
ATOM     40  H   UNL     1      16.711  28.491  22.097  1.00  0.00     0.211 HD
ENDBRANCH  14  39
ENDBRANCH   8   9
ENDBRANCH   7   8
ENDBRANCH   1   7
BRANCH   1  41
ATOM     41  C   UNL     1      12.446  32.054  19.558  1.00  0.00     0.364 C 
ATOM     42  O   UNL     1      11.378  32.555  19.985  1.00  0.00    -0.246 OA
BRANCH  41  43
ATOM     43  O   UNL     1      12.637  32.017  18.191  1.00  0.00    -0.477 OA
ATOM     44  H   UNL     1      11.823  31.941  17.599  1.00  0.00     0.296 HD
ENDBRANCH  41  43
ENDBRANCH   1  41
BRANCH   3  45
ATOM     45  O   UNL     1      16.510  31.928  21.167  1.00  0.00    -0.391 OA
ATOM     46  H   UNL     1      16.508  30.944  21.229  1.00  0.00     0.211 HD
ENDBRANCH   3  45
BRANCH   5  47
ATOM     47  C   UNL     1      12.669  31.003  24.003  1.00  0.00     0.176 C 
BRANCH  47  48
ATOM     48  O   UNL     1      12.368  31.872  25.031  1.00  0.00    -0.388 OA
ATOM     49  H   UNL     1      12.534  32.820  24.798  1.00  0.00     0.211 HD
ENDBRANCH  47  48
BRANCH  47  50
ATOM     50  C   UNL     1      11.419  30.272  23.569  1.00  0.00     0.165 C 
BRANCH  50  51
ATOM     51  O   UNL     1      10.357  31.185  23.393  1.00  0.00    -0.388 OA
ATOM     52  H   UNL     1       9.662  31.042  24.097  1.00  0.00     0.211 HD
ENDBRANCH  50  51
BRANCH  50  53
ATOM     53  C   UNL     1      11.017  29.206  24.556  1.00  0.00     0.154 C 
BRANCH  53  54
ATOM     54  N   UNL     1       9.592  28.972  24.546  1.00  0.00    -0.319 N 
ATOM     55  C   UNL     1       9.067  27.797  25.143  1.00  0.00     0.407 C 
ATOM     56  H   UNL     1       8.921  29.637  24.113  1.00  0.00     0.167 HD
ATOM     57  O   UNL     1       9.872  26.975  25.673  1.00  0.00    -0.225 OA
BRANCH  55  58
ATOM     58  O   UNL     1       7.720  27.482  25.190  1.00  0.00    -0.443 OA
BRANCH  58  59
ATOM     59  C   UNL     1       6.749  28.377  25.675  1.00  0.00     0.294 C 
BRANCH  59  60
ATOM     60  C   UNL     1       6.037  28.990  24.522  1.00  0.00     0.121 A 
ATOM     61  C   UNL     1       6.549  29.143  23.228  1.00  0.00     0.144 A 
ATOM     62  N   UNL     1       4.802  29.517  24.452  1.00  0.00    -0.131 NA
ATOM     63  N   UNL     1       5.616  29.745  22.450  1.00  0.00    -0.220 N 
ATOM     64  N   UNL     1       4.580  29.958  23.206  1.00  0.00    -0.062 NA
BRANCH  63  65
ATOM     65  C   UNL     1       5.747  30.084  21.065  1.00  0.00     0.066 A 
ATOM     66  C   UNL     1       6.198  31.325  20.674  1.00  0.00     0.030 A 
ATOM     67  C   UNL     1       5.429  29.177  20.079  1.00  0.00     0.030 A 
ATOM     68  C   UNL     1       6.328  31.650  19.325  1.00  0.00     0.024 A 
ATOM     69  C   UNL     1       5.555  29.492  18.727  1.00  0.00     0.024 A 
ATOM     70  C   UNL     1       6.008  30.738  18.340  1.00  0.00     0.082 A 
BRANCH  70  71
ATOM     71  S   UNL     1       6.184  31.181  16.642  1.00  0.00     0.238 S 
ATOM     72  O   UNL     1       7.620  31.510  16.316  1.00  0.00    -0.207 OA
ATOM     73  O   UNL     1       5.780  30.039  15.760  1.00  0.00    -0.207 OA
BRANCH  71  74
ATOM     74  N   UNL     1       5.190  32.550  16.254  1.00  0.00    -0.225 NA
ATOM     75  H   UNL     1       5.507  33.353  16.867  1.00  0.00     0.137 HD
ATOM     76  H   UNL     1       4.172  32.356  16.404  1.00  0.00     0.137 HD
ENDBRANCH  71  74
ENDBRANCH  70  71
ENDBRANCH  63  65
ENDBRANCH  59  60
ENDBRANCH  58  59
ENDBRANCH  55  58
ENDBRANCH  53  54
ENDBRANCH  50  53
ENDBRANCH  47  50
ENDBRANCH   5  47
BRANCH   4  77
ATOM     77  N   UNL     1      15.343  31.701  24.215  1.00  0.00    -0.348 N 
ATOM     78  C   UNL     1      16.507  31.044  24.666  1.00  0.00     0.217 C 
ATOM     79  H   UNL     1      14.852  32.346  24.862  1.00  0.00     0.163 HD
ATOM     80  C   UNL     1      16.979  31.300  26.049  1.00  0.00     0.114 C 
ATOM     81  O   UNL     1      17.162  30.253  23.948  1.00  0.00    -0.275 OA
ENDBRANCH   4  77
TORSDOF 32
