REMARK VINA RESULT:    -5.306      4.516     10.286
REMARK INTER + INTRA:         -21.414
REMARK INTER:                 -14.983
REMARK INTRA:                  -6.431
REMARK UNBOUND:                -8.354
REMARK SMILES CC(=O)N[C@@H]1[C@@H](O)C[C@](OC[C@H]2O[C@@H](O[C@H]3[C@H](O)[C@@H](O)[C@H](OCCN=[N+]=[N-])O[C@@H]3CO)[C@H](O)[C@@H](O)[C@H]2O)(C(=O)O)O[C@H]1C(O)[C@H](O)CNC(=O)OCc1cn(-c2cccc(Cl)c2)nn1
REMARK SMILES IDX 9 1 8 2 6 3 5 4 42 5 41 6 10 7 11 8 12 9 14 10 13 11 32 12
REMARK SMILES IDX 34 13 36 14 15 15 16 16 29 17 28 18 21 19 17 20 19 21 30 22
REMARK SMILES IDX 31 23 22 25 23 26 24 27 25 28 26 29 27 30 18 31 20 33 33 35
REMARK SMILES IDX 35 37 37 39 38 41 39 42 40 43 7 45 43 47 44 48 45 50 46 51
REMARK SMILES IDX 47 53 48 54 49 55 50 57 51 58 52 59 53 60 54 61 64 62 55 63
REMARK SMILES IDX 63 64 56 65 57 66 62 67 58 68 60 69 59 70 61 71 4 72 2 73
REMARK SMILES IDX 1 75 3 76
REMARK H PARENT 31 24 18 32 20 34 33 36 35 38 37 40 40 44 7 46 44 49 46 52
REMARK H PARENT 48 56 4 74
REMARK Flexibility Score: inf
ROOT
ATOM      1  C   UNL     1      19.550  30.064  23.785  1.00  0.00     0.272 C 
ATOM      2  C   UNL     1      19.980  30.877  22.646  1.00  0.00     0.113 C 
ATOM      3  C   UNL     1      20.697  30.214  21.518  1.00  0.00     0.145 C 
ATOM      4  C   UNL     1      20.941  28.743  21.744  1.00  0.00     0.142 C 
ATOM      5  C   UNL     1      21.208  28.616  23.253  1.00  0.00     0.178 C 
ATOM      6  O   UNL     1      19.978  28.736  23.828  1.00  0.00    -0.332 OA
ENDROOT
BRANCH   1   7
ATOM      7  O   UNL     1      18.241  30.041  24.155  1.00  0.00    -0.338 OA
BRANCH   7   8
ATOM      8  C   UNL     1      17.448  31.111  24.190  1.00  0.00     0.199 C 
BRANCH   8   9
ATOM      9  C   UNL     1      16.084  31.061  23.586  1.00  0.00     0.179 C 
ATOM     10  C   UNL     1      14.960  30.471  21.657  1.00  0.00     0.282 C 
ATOM     11  O   UNL     1      16.187  30.405  22.341  1.00  0.00    -0.341 OA
ATOM     12  C   UNL     1      13.911  29.767  22.461  1.00  0.00     0.202 C 
ATOM     13  C   UNL     1      13.815  30.125  23.910  1.00  0.00     0.179 C 
ATOM     14  C   UNL     1      15.213  30.154  24.487  1.00  0.00     0.177 C 
BRANCH  10  15
ATOM     15  O   UNL     1      15.159  29.737  20.517  1.00  0.00    -0.341 OA
BRANCH  15  16
ATOM     16  C   UNL     1      16.287  30.022  19.749  1.00  0.00     0.184 C 
ATOM     17  C   UNL     1      16.085  31.011  18.699  1.00  0.00     0.178 C 
ATOM     18  O   UNL     1      16.604  30.657  17.476  1.00  0.00    -0.341 OA
ATOM     19  C   UNL     1      16.537  29.300  17.178  1.00  0.00     0.281 C 
ATOM     20  C   UNL     1      16.920  28.706  19.457  1.00  0.00     0.180 C 
ATOM     21  C   UNL     1      17.570  28.675  18.109  1.00  0.00     0.202 C 
BRANCH  17  22
ATOM     22  C   UNL     1      16.789  32.333  19.051  1.00  0.00     0.191 C 
BRANCH  22  23
ATOM     23  O   UNL     1      17.688  32.047  20.110  1.00  0.00    -0.394 OA
ATOM     24  H   UNL     1      18.531  32.506  19.942  1.00  0.00     0.210 HD
ENDBRANCH  22  23
ENDBRANCH  17  22
BRANCH  19  25
ATOM     25  O   UNL     1      16.909  29.122  15.876  1.00  0.00    -0.350 OA
BRANCH  25  26
ATOM     26  C   UNL     1      15.912  28.803  14.991  1.00  0.00     0.169 C 
BRANCH  26  27
ATOM     27  C   UNL     1      15.959  29.539  13.678  1.00  0.00     0.119 C 
BRANCH  27  28
ATOM     28  N   UNL     1      17.372  29.603  13.274  1.00  0.00    -0.092 NA
ATOM     29  N   UNL     1      17.721  28.812  12.372  1.00  0.00     0.001 N 
ATOM     30  N   UNL     1      18.043  28.385  11.248  1.00  0.00    -0.003 NA
ENDBRANCH  27  28
ENDBRANCH  26  27
ENDBRANCH  25  26
ENDBRANCH  19  25
BRANCH  20  31
ATOM     31  O   UNL     1      17.835  28.366  20.472  1.00  0.00    -0.387 OA
ATOM     32  H   UNL     1      18.037  29.213  20.942  1.00  0.00     0.211 HD
ENDBRANCH  20  31
BRANCH  21  33
ATOM     33  O   UNL     1      17.768  27.336  17.754  1.00  0.00    -0.385 OA
ATOM     34  H   UNL     1      17.471  27.148  16.850  1.00  0.00     0.211 HD
ENDBRANCH  21  33
ENDBRANCH  15  16
ENDBRANCH  10  15
BRANCH  12  35
ATOM     35  O   UNL     1      12.628  29.991  21.936  1.00  0.00    -0.385 OA
ATOM     36  H   UNL     1      12.142  30.683  22.438  1.00  0.00     0.211 HD
ENDBRANCH  12  35
BRANCH  13  37
ATOM     37  O   UNL     1      13.117  29.111  24.568  1.00  0.00    -0.387 OA
ATOM     38  H   UNL     1      13.222  28.229  24.172  1.00  0.00     0.211 HD
ENDBRANCH  13  37
BRANCH  14  39
ATOM     39  O   UNL     1      15.745  28.863  24.257  1.00  0.00    -0.387 OA
ATOM     40  H   UNL     1      16.709  28.828  24.357  1.00  0.00     0.211 HD
ENDBRANCH  14  39
ENDBRANCH   8   9
ENDBRANCH   7   8
ENDBRANCH   1   7
BRANCH   1  41
ATOM     41  C   UNL     1      20.247  30.666  25.015  1.00  0.00     0.364 C 
ATOM     42  O   UNL     1      20.811  31.774  24.995  1.00  0.00    -0.246 OA
BRANCH  41  43
ATOM     43  O   UNL     1      20.248  29.940  26.212  1.00  0.00    -0.477 OA
ATOM     44  H   UNL     1      20.429  30.453  27.083  1.00  0.00     0.296 HD
ENDBRANCH  41  43
ENDBRANCH   1  41
BRANCH   3  45
ATOM     45  O   UNL     1      20.080  30.376  20.290  1.00  0.00    -0.391 OA
ATOM     46  H   UNL     1      20.723  30.569  19.569  1.00  0.00     0.211 HD
ENDBRANCH   3  45
BRANCH   5  47
ATOM     47  C   UNL     1      21.953  27.332  23.576  1.00  0.00     0.176 C 
BRANCH  47  48
ATOM     48  O   UNL     1      23.019  27.768  24.406  1.00  0.00    -0.388 OA
ATOM     49  H   UNL     1      22.924  27.283  25.279  1.00  0.00     0.211 HD
ENDBRANCH  47  48
BRANCH  47  50
ATOM     50  C   UNL     1      21.076  26.469  24.459  1.00  0.00     0.165 C 
BRANCH  50  51
ATOM     51  O   UNL     1      21.175  26.893  25.774  1.00  0.00    -0.388 OA
ATOM     52  H   UNL     1      21.486  27.822  25.865  1.00  0.00     0.211 HD
ENDBRANCH  50  51
BRANCH  50  53
ATOM     53  C   UNL     1      21.590  25.027  24.409  1.00  0.00     0.154 C 
BRANCH  53  54
ATOM     54  N   UNL     1      22.602  24.851  23.403  1.00  0.00    -0.319 N 
ATOM     55  C   UNL     1      22.376  24.617  22.038  1.00  0.00     0.407 C 
ATOM     56  H   UNL     1      23.622  24.902  23.719  1.00  0.00     0.167 HD
ATOM     57  O   UNL     1      21.205  24.568  21.595  1.00  0.00    -0.225 OA
BRANCH  55  58
ATOM     58  O   UNL     1      23.451  24.430  21.123  1.00  0.00    -0.443 OA
BRANCH  58  59
ATOM     59  C   UNL     1      24.714  24.965  21.417  1.00  0.00     0.294 C 
BRANCH  59  60
ATOM     60  C   UNL     1      25.849  24.089  21.026  1.00  0.00     0.121 A 
ATOM     61  C   UNL     1      26.510  23.150  21.824  1.00  0.00     0.144 A 
ATOM     62  N   UNL     1      26.494  24.013  19.850  1.00  0.00    -0.131 NA
ATOM     63  N   UNL     1      27.494  22.566  21.118  1.00  0.00    -0.220 N 
ATOM     64  N   UNL     1      27.474  23.096  19.923  1.00  0.00    -0.062 NA
BRANCH  63  65
ATOM     65  C   UNL     1      28.353  21.572  21.660  1.00  0.00     0.068 A 
ATOM     66  C   UNL     1      28.462  20.297  21.154  1.00  0.00     0.028 A 
ATOM     67  C   UNL     1      29.156  21.863  22.776  1.00  0.00     0.049 A 
ATOM     68  C   UNL     1      29.320  19.359  21.722  1.00  0.00     0.004 A 
ATOM     69  C   UNL     1      30.001  20.935  23.335  1.00  0.00     0.043 A 
ATOM     70  C   UNL     1      30.098  19.664  22.817  1.00  0.00     0.020 A 
ATOM     71  Cl  UNL     1      30.998  21.317  24.731  1.00  0.00    -0.084 Cl
ENDBRANCH  63  65
ENDBRANCH  59  60
ENDBRANCH  58  59
ENDBRANCH  55  58
ENDBRANCH  53  54
ENDBRANCH  50  53
ENDBRANCH  47  50
ENDBRANCH   5  47
BRANCH   4  72
ATOM     72  N   UNL     1      21.990  28.215  20.935  1.00  0.00    -0.348 N 
ATOM     73  C   UNL     1      21.718  27.594  19.665  1.00  0.00     0.217 C 
ATOM     74  H   UNL     1      23.007  28.237  21.183  1.00  0.00     0.163 HD
ATOM     75  C   UNL     1      22.781  27.042  18.813  1.00  0.00     0.114 C 
ATOM     76  O   UNL     1      20.529  27.526  19.286  1.00  0.00    -0.275 OA
ENDBRANCH   4  72
TORSDOF 30
