REMARK VINA RESULT:    -4.747      5.108      9.630
REMARK INTER + INTRA:         -20.302
REMARK INTER:                 -11.962
REMARK INTRA:                  -8.339
REMARK UNBOUND:                -8.339
REMARK SMILES CC(=O)N[C@@H]1[C@@H](O)C[C@](OC[C@H]2O[C@@H](O[C@H]3[C@H](O)[C@@H](O)[C@H](OCCN=[N+]=[N-])O[C@@H]3CO)[C@H](O)[C@@H](O)[C@H]2O)(C(=O)O)O[C@H]1C(O)[C@H](O)CNC(=O)OCc1cn(Cc2ccccc2)nn1
REMARK SMILES IDX 9 1 8 2 6 3 5 4 42 5 41 6 10 7 11 8 12 9 14 10 13 11 32 12
REMARK SMILES IDX 34 13 36 14 15 15 16 16 29 17 28 18 21 19 17 20 19 21 30 22
REMARK SMILES IDX 31 23 22 25 23 26 24 27 25 28 26 29 27 30 18 31 20 33 33 35
REMARK SMILES IDX 35 37 37 39 38 41 39 42 40 43 7 45 43 47 44 48 45 50 46 51
REMARK SMILES IDX 47 53 48 54 49 55 50 57 51 58 52 59 53 60 54 61 64 62 55 63
REMARK SMILES IDX 63 64 56 65 57 66 58 67 62 68 59 69 61 70 60 71 4 72 2 73
REMARK SMILES IDX 1 75 3 76
REMARK H PARENT 31 24 18 32 20 34 33 36 35 38 37 40 40 44 7 46 44 49 46 52
REMARK H PARENT 48 56 4 74
REMARK Flexibility Score: inf
ROOT
ATOM      1  C   UNL     1      15.575  29.712  21.872  1.00  0.00     0.272 C 
ATOM      2  C   UNL     1      16.144  30.032  23.204  1.00  0.00     0.113 C 
ATOM      3  C   UNL     1      17.552  30.462  23.050  1.00  0.00     0.145 C 
ATOM      4  C   UNL     1      18.087  30.355  21.613  1.00  0.00     0.142 C 
ATOM      5  C   UNL     1      17.647  29.108  20.971  1.00  0.00     0.178 C 
ATOM      6  O   UNL     1      16.358  28.675  21.332  1.00  0.00    -0.332 OA
ENDROOT
BRANCH   1   7
ATOM      7  O   UNL     1      15.456  30.766  20.990  1.00  0.00    -0.338 OA
BRANCH   7   8
ATOM      8  C   UNL     1      14.563  31.703  21.483  1.00  0.00     0.199 C 
BRANCH   8   9
ATOM      9  C   UNL     1      13.983  32.574  20.393  1.00  0.00     0.179 C 
ATOM     10  C   UNL     1      14.651  33.636  18.426  1.00  0.00     0.282 C 
ATOM     11  O   UNL     1      14.936  33.339  19.760  1.00  0.00    -0.341 OA
ATOM     12  C   UNL     1      13.216  33.925  18.186  1.00  0.00     0.202 C 
ATOM     13  C   UNL     1      12.379  32.727  18.509  1.00  0.00     0.179 C 
ATOM     14  C   UNL     1      13.125  31.794  19.433  1.00  0.00     0.177 C 
BRANCH  10  15
ATOM     15  O   UNL     1      15.101  32.633  17.582  1.00  0.00    -0.341 OA
BRANCH  15  16
ATOM     16  C   UNL     1      16.272  32.953  16.906  1.00  0.00     0.184 C 
ATOM     17  C   UNL     1      16.152  32.615  15.467  1.00  0.00     0.178 C 
ATOM     18  O   UNL     1      17.389  32.921  14.860  1.00  0.00    -0.341 OA
ATOM     19  C   UNL     1      18.243  31.857  15.215  1.00  0.00     0.281 C 
ATOM     20  C   UNL     1      17.341  32.035  17.522  1.00  0.00     0.180 C 
ATOM     21  C   UNL     1      18.581  31.959  16.695  1.00  0.00     0.202 C 
BRANCH  17  22
ATOM     22  C   UNL     1      15.044  33.402  14.774  1.00  0.00     0.191 C 
BRANCH  22  23
ATOM     23  O   UNL     1      13.845  32.689  14.992  1.00  0.00    -0.394 OA
ATOM     24  H   UNL     1      14.069  31.813  15.386  1.00  0.00     0.210 HD
ENDBRANCH  22  23
ENDBRANCH  17  22
BRANCH  19  25
ATOM     25  O   UNL     1      19.388  31.928  14.462  1.00  0.00    -0.350 OA
BRANCH  25  26
ATOM     26  C   UNL     1      19.330  31.015  13.427  1.00  0.00     0.169 C 
BRANCH  26  27
ATOM     27  C   UNL     1      18.423  29.846  13.664  1.00  0.00     0.119 C 
BRANCH  27  28
ATOM     28  N   UNL     1      17.631  29.681  12.435  1.00  0.00    -0.092 NA
ATOM     29  N   UNL     1      18.074  28.902  11.592  1.00  0.00     0.001 N 
ATOM     30  N   UNL     1      18.149  28.099  10.652  1.00  0.00    -0.003 NA
ENDBRANCH  27  28
ENDBRANCH  26  27
ENDBRANCH  25  26
ENDBRANCH  19  25
BRANCH  20  31
ATOM     31  O   UNL     1      17.660  32.641  18.755  1.00  0.00    -0.387 OA
ATOM     32  H   UNL     1      18.148  33.498  18.634  1.00  0.00     0.211 HD
ENDBRANCH  20  31
BRANCH  21  33
ATOM     33  O   UNL     1      19.297  30.813  17.039  1.00  0.00    -0.385 OA
ATOM     34  H   UNL     1      20.281  30.952  17.006  1.00  0.00     0.211 HD
ENDBRANCH  21  33
ENDBRANCH  15  16
ENDBRANCH  10  15
BRANCH  12  35
ATOM     35  O   UNL     1      12.778  35.066  18.881  1.00  0.00    -0.385 OA
ATOM     36  H   UNL     1      11.957  35.367  18.417  1.00  0.00     0.211 HD
ENDBRANCH  12  35
BRANCH  13  37
ATOM     37  O   UNL     1      12.049  32.078  17.325  1.00  0.00    -0.387 OA
ATOM     38  H   UNL     1      11.726  31.150  17.479  1.00  0.00     0.211 HD
ENDBRANCH  13  37
BRANCH  14  39
ATOM     39  O   UNL     1      13.754  30.760  18.795  1.00  0.00    -0.387 OA
ATOM     40  H   UNL     1      13.450  30.540  17.892  1.00  0.00     0.211 HD
ENDBRANCH  14  39
ENDBRANCH   8   9
ENDBRANCH   7   8
ENDBRANCH   1   7
BRANCH   1  41
ATOM     41  C   UNL     1      14.220  29.066  21.973  1.00  0.00     0.364 C 
ATOM     42  O   UNL     1      13.735  28.514  20.985  1.00  0.00    -0.246 OA
BRANCH  41  43
ATOM     43  O   UNL     1      13.534  29.096  23.167  1.00  0.00    -0.477 OA
ATOM     44  H   UNL     1      13.989  29.303  24.057  1.00  0.00     0.296 HD
ENDBRANCH  41  43
ENDBRANCH   1  41
BRANCH   3  45
ATOM     45  O   UNL     1      17.795  31.792  23.440  1.00  0.00    -0.391 OA
ATOM     46  H   UNL     1      18.732  31.982  23.598  1.00  0.00     0.211 HD
ENDBRANCH   3  45
BRANCH   5  47
ATOM     47  C   UNL     1      17.712  28.971  19.508  1.00  0.00     0.176 C 
BRANCH  47  48
ATOM     48  O   UNL     1      18.907  28.504  19.005  1.00  0.00    -0.388 OA
ATOM     49  H   UNL     1      18.843  27.677  18.479  1.00  0.00     0.211 HD
ENDBRANCH  47  48
BRANCH  47  50
ATOM     50  C   UNL     1      16.576  28.284  18.806  1.00  0.00     0.165 C 
BRANCH  50  51
ATOM     51  O   UNL     1      16.407  26.981  19.160  1.00  0.00    -0.388 OA
ATOM     52  H   UNL     1      16.521  26.340  18.430  1.00  0.00     0.211 HD
ENDBRANCH  50  51
BRANCH  50  53
ATOM     53  C   UNL     1      16.506  28.625  17.347  1.00  0.00     0.154 C 
BRANCH  53  54
ATOM     54  N   UNL     1      15.322  29.346  16.957  1.00  0.00    -0.319 N 
ATOM     55  C   UNL     1      14.724  29.292  15.656  1.00  0.00     0.407 C 
ATOM     56  H   UNL     1      14.802  29.982  17.633  1.00  0.00     0.167 HD
ATOM     57  O   UNL     1      15.247  28.580  14.768  1.00  0.00    -0.225 OA
BRANCH  55  58
ATOM     58  O   UNL     1      13.582  30.011  15.355  1.00  0.00    -0.443 OA
BRANCH  58  59
ATOM     59  C   UNL     1      12.325  29.390  15.466  1.00  0.00     0.294 C 
BRANCH  59  60
ATOM     60  C   UNL     1      11.907  28.788  14.182  1.00  0.00     0.120 A 
ATOM     61  C   UNL     1      11.160  29.464  13.208  1.00  0.00     0.138 A 
ATOM     62  N   UNL     1      12.117  27.570  13.671  1.00  0.00    -0.132 NA
ATOM     63  N   UNL     1      10.960  28.633  12.173  1.00  0.00    -0.248 N 
ATOM     64  N   UNL     1      11.537  27.504  12.463  1.00  0.00    -0.067 NA
BRANCH  63  65
ATOM     65  C   UNL     1      10.236  28.963  10.966  1.00  0.00     0.181 C 
BRANCH  65  66
ATOM     66  C   UNL     1      10.751  28.141   9.843  1.00  0.00    -0.026 A 
ATOM     67  C   UNL     1      12.031  28.304   9.342  1.00  0.00     0.005 A 
ATOM     68  C   UNL     1       9.920  27.182   9.284  1.00  0.00     0.005 A 
ATOM     69  C   UNL     1      12.465  27.513   8.293  1.00  0.00     0.000 A 
ATOM     70  C   UNL     1      10.365  26.398   8.237  1.00  0.00     0.000 A 
ATOM     71  C   UNL     1      11.634  26.567   7.747  1.00  0.00     0.000 A 
ENDBRANCH  65  66
ENDBRANCH  63  65
ENDBRANCH  59  60
ENDBRANCH  58  59
ENDBRANCH  55  58
ENDBRANCH  53  54
ENDBRANCH  50  53
ENDBRANCH  47  50
ENDBRANCH   5  47
BRANCH   4  72
ATOM     72  N   UNL     1      19.542  30.312  21.862  1.00  0.00    -0.348 N 
ATOM     73  C   UNL     1      20.490  30.931  21.015  1.00  0.00     0.217 C 
ATOM     74  H   UNL     1      19.896  29.801  22.699  1.00  0.00     0.163 HD
ATOM     75  C   UNL     1      21.957  30.866  21.290  1.00  0.00     0.114 C 
ATOM     76  O   UNL     1      20.076  31.551  20.006  1.00  0.00    -0.275 OA
ENDBRANCH   4  72
TORSDOF 31
