REMARK VINA RESULT:    -5.524      2.855     10.421
REMARK INTER + INTRA:         -20.365
REMARK INTER:                 -13.901
REMARK INTRA:                  -6.464
REMARK UNBOUND:                -6.769
REMARK SMILES CC(=O)N[C@@H]1[C@@H](O)C[C@](OC[C@H]2O[C@@H](O[C@H]3[C@H](O)[C@@H](O)[C@H](OCCN=[N+]=[N-])O[C@@H]3CO)[C@H](O)[C@@H](O)[C@H]2O)(C(=O)O)O[C@H]1C(O)[C@H](O)CNC(=O)OCc1cn(-c2cccnc2)nn1
REMARK SMILES IDX 9 1 8 2 6 3 5 4 42 5 41 6 10 7 11 8 12 9 14 10 13 11 32 12
REMARK SMILES IDX 34 13 36 14 15 15 16 16 29 17 28 18 21 19 17 20 19 21 30 22
REMARK SMILES IDX 31 23 22 25 23 26 24 27 25 28 26 29 27 30 18 31 20 33 33 35
REMARK SMILES IDX 35 37 37 39 38 41 39 42 40 43 7 45 43 47 44 48 45 50 46 51
REMARK SMILES IDX 47 53 48 54 49 55 50 57 51 58 52 59 53 60 54 61 63 62 55 63
REMARK SMILES IDX 62 64 56 65 57 66 61 67 58 68 60 69 59 70 4 71 2 72 1 74
REMARK SMILES IDX 3 75
REMARK H PARENT 31 24 18 32 20 34 33 36 35 38 37 40 40 44 7 46 44 49 46 52
REMARK H PARENT 48 56 4 73
REMARK Flexibility Score: inf
ROOT
ATOM      1  C   UNL     1      16.529  30.269  22.035  1.00  0.00     0.272 C 
ATOM      2  C   UNL     1      15.676  29.067  21.984  1.00  0.00     0.113 C 
ATOM      3  C   UNL     1      14.253  29.371  22.301  1.00  0.00     0.145 C 
ATOM      4  C   UNL     1      13.751  30.663  21.708  1.00  0.00     0.142 C 
ATOM      5  C   UNL     1      14.776  31.387  20.912  1.00  0.00     0.178 C 
ATOM      6  O   UNL     1      16.010  31.453  21.543  1.00  0.00    -0.332 OA
ENDROOT
BRANCH   1   7
ATOM      7  O   UNL     1      17.725  30.101  21.340  1.00  0.00    -0.338 OA
BRANCH   7   8
ATOM      8  C   UNL     1      17.688  29.318  20.230  1.00  0.00     0.199 C 
BRANCH   8   9
ATOM      9  C   UNL     1      18.375  30.109  19.100  1.00  0.00     0.179 C 
ATOM     10  C   UNL     1      20.240  28.704  18.908  1.00  0.00     0.282 C 
ATOM     11  O   UNL     1      19.706  29.949  19.160  1.00  0.00    -0.341 OA
ATOM     12  C   UNL     1      19.559  28.074  17.742  1.00  0.00     0.202 C 
ATOM     13  C   UNL     1      18.904  29.197  16.926  1.00  0.00     0.179 C 
ATOM     14  C   UNL     1      17.765  29.780  17.749  1.00  0.00     0.177 C 
BRANCH  10  15
ATOM     15  O   UNL     1      20.135  27.984  20.096  1.00  0.00    -0.341 OA
BRANCH  15  16
ATOM     16  C   UNL     1      21.321  27.601  20.631  1.00  0.00     0.184 C 
ATOM     17  C   UNL     1      22.001  28.606  21.509  1.00  0.00     0.178 C 
ATOM     18  O   UNL     1      22.828  27.901  22.384  1.00  0.00    -0.341 OA
ATOM     19  C   UNL     1      23.562  26.893  21.768  1.00  0.00     0.281 C 
ATOM     20  C   UNL     1      22.370  27.240  19.584  1.00  0.00     0.180 C 
ATOM     21  C   UNL     1      23.731  27.105  20.282  1.00  0.00     0.202 C 
BRANCH  17  22
ATOM     22  C   UNL     1      21.122  29.515  22.284  1.00  0.00     0.191 C 
BRANCH  22  23
ATOM     23  O   UNL     1      20.032  28.875  22.814  1.00  0.00    -0.394 OA
ATOM     24  H   UNL     1      19.987  27.971  22.411  1.00  0.00     0.210 HD
ENDBRANCH  22  23
ENDBRANCH  17  22
BRANCH  19  25
ATOM     25  O   UNL     1      23.063  25.642  21.986  1.00  0.00    -0.350 OA
BRANCH  25  26
ATOM     26  C   UNL     1      23.026  25.137  23.236  1.00  0.00     0.169 C 
BRANCH  26  27
ATOM     27  C   UNL     1      21.701  24.827  23.840  1.00  0.00     0.119 C 
BRANCH  27  28
ATOM     28  N   UNL     1      20.801  25.913  24.018  1.00  0.00    -0.092 NA
ATOM     29  N   UNL     1      20.905  26.727  24.960  1.00  0.00     0.001 N 
ATOM     30  N   UNL     1      20.758  27.108  26.134  1.00  0.00    -0.003 NA
ENDBRANCH  27  28
ENDBRANCH  26  27
ENDBRANCH  25  26
ENDBRANCH  19  25
BRANCH  20  31
ATOM     31  O   UNL     1      22.068  25.999  19.041  1.00  0.00    -0.387 OA
ATOM     32  H   UNL     1      21.311  26.033  18.400  1.00  0.00     0.211 HD
ENDBRANCH  20  31
BRANCH  21  33
ATOM     33  O   UNL     1      24.547  28.207  20.033  1.00  0.00    -0.385 OA
ATOM     34  H   UNL     1      25.278  27.920  19.432  1.00  0.00     0.211 HD
ENDBRANCH  21  33
ENDBRANCH  15  16
ENDBRANCH  10  15
BRANCH  12  35
ATOM     35  O   UNL     1      20.525  27.543  16.865  1.00  0.00    -0.385 OA
ATOM     36  H   UNL     1      20.045  27.164  16.067  1.00  0.00     0.211 HD
ENDBRANCH  12  35
BRANCH  13  37
ATOM     37  O   UNL     1      18.502  28.786  15.681  1.00  0.00    -0.387 OA
ATOM     38  H   UNL     1      18.462  29.562  15.067  1.00  0.00     0.211 HD
ENDBRANCH  13  37
BRANCH  14  39
ATOM     39  O   UNL     1      16.703  28.902  17.833  1.00  0.00    -0.387 OA
ATOM     40  H   UNL     1      16.931  28.102  17.288  1.00  0.00     0.211 HD
ENDBRANCH  14  39
ENDBRANCH   8   9
ENDBRANCH   7   8
ENDBRANCH   1   7
BRANCH   1  41
ATOM     41  C   UNL     1      16.900  30.482  23.489  1.00  0.00     0.364 C 
ATOM     42  O   UNL     1      16.313  31.371  24.126  1.00  0.00    -0.246 OA
BRANCH  41  43
ATOM     43  O   UNL     1      17.859  29.737  24.131  1.00  0.00    -0.477 OA
ATOM     44  H   UNL     1      17.733  29.261  25.016  1.00  0.00     0.296 HD
ENDBRANCH  41  43
ENDBRANCH   1  41
BRANCH   3  45
ATOM     45  O   UNL     1      13.496  28.283  21.806  1.00  0.00    -0.391 OA
ATOM     46  H   UNL     1      13.582  27.488  22.366  1.00  0.00     0.211 HD
ENDBRANCH   3  45
BRANCH   5  47
ATOM     47  C   UNL     1      14.896  30.976  19.482  1.00  0.00     0.176 C 
BRANCH  47  48
ATOM     48  O   UNL     1      15.105  32.151  18.715  1.00  0.00    -0.388 OA
ATOM     49  H   UNL     1      14.244  32.401  18.280  1.00  0.00     0.211 HD
ENDBRANCH  47  48
BRANCH  47  50
ATOM     50  C   UNL     1      13.712  30.296  18.873  1.00  0.00     0.165 C 
BRANCH  50  51
ATOM     51  O   UNL     1      14.168  28.909  18.806  1.00  0.00    -0.388 OA
ATOM     52  H   UNL     1      15.114  28.948  19.088  1.00  0.00     0.211 HD
ENDBRANCH  50  51
BRANCH  50  53
ATOM     53  C   UNL     1      13.451  30.609  17.435  1.00  0.00     0.154 C 
BRANCH  53  54
ATOM     54  N   UNL     1      14.099  29.787  16.464  1.00  0.00    -0.319 N 
ATOM     55  C   UNL     1      15.011  30.425  15.543  1.00  0.00     0.407 C 
ATOM     56  H   UNL     1      14.003  28.782  16.355  1.00  0.00     0.167 HD
ATOM     57  O   UNL     1      15.185  31.656  15.649  1.00  0.00    -0.225 OA
BRANCH  55  58
ATOM     58  O   UNL     1      15.674  29.713  14.575  1.00  0.00    -0.443 OA
BRANCH  58  59
ATOM     59  C   UNL     1      15.197  29.713  13.252  1.00  0.00     0.294 C 
BRANCH  59  60
ATOM     60  C   UNL     1      13.798  29.233  13.249  1.00  0.00     0.121 A 
ATOM     61  C   UNL     1      12.681  29.808  12.689  1.00  0.00     0.144 A 
ATOM     62  N   UNL     1      13.349  28.079  13.827  1.00  0.00    -0.131 NA
ATOM     63  N   UNL     1      11.615  29.025  12.926  1.00  0.00    -0.219 N 
ATOM     64  N   UNL     1      12.053  27.989  13.617  1.00  0.00    -0.062 NA
BRANCH  63  65
ATOM     65  C   UNL     1      10.248  29.176  12.557  1.00  0.00     0.085 A 
ATOM     66  C   UNL     1       9.284  29.618  13.438  1.00  0.00     0.031 A 
ATOM     67  C   UNL     1       9.819  28.871  11.279  1.00  0.00     0.139 A 
ATOM     68  C   UNL     1       7.967  29.749  13.061  1.00  0.00     0.022 A 
ATOM     69  N   UNL     1       8.518  29.003  10.920  1.00  0.00    -0.262 NA
ATOM     70  C   UNL     1       7.578  29.435  11.779  1.00  0.00     0.111 A 
ENDBRANCH  63  65
ENDBRANCH  59  60
ENDBRANCH  58  59
ENDBRANCH  55  58
ENDBRANCH  53  54
ENDBRANCH  50  53
ENDBRANCH  47  50
ENDBRANCH   5  47
BRANCH   4  71
ATOM     71  N   UNL     1      13.227  31.539  22.753  1.00  0.00    -0.348 N 
ATOM     72  C   UNL     1      12.093  31.235  23.545  1.00  0.00     0.217 C 
ATOM     73  H   UNL     1      13.697  32.463  22.958  1.00  0.00     0.163 HD
ATOM     74  C   UNL     1      11.590  32.168  24.601  1.00  0.00     0.114 C 
ATOM     75  O   UNL     1      11.473  30.150  23.374  1.00  0.00    -0.275 OA
ENDBRANCH   4  71
TORSDOF 30
