REMARK VINA RESULT:    -4.907     13.783     18.018
REMARK INTER + INTRA:         -21.253
REMARK INTER:                 -13.441
REMARK INTRA:                  -7.811
REMARK UNBOUND:                -8.028
REMARK SMILES CCN(CC)CCn1cc(COC(=O)NC[C@@H](O)C(O)[C@@H]2O[C@@](OC[C@H]3O[C@@H](O[C@H]4[C@H](O)[C@@H](O)[C@H](OCCN=[N+]=[N-])O[C@@H]4CO)[C@H](O)[C@@H](O)[C@H]3O)(C(=O)O)C[C@H](O)[C@H]2NC(C)=O)nn1
REMARK SMILES IDX 19 1 21 2 23 3 55 4 22 5 56 6 58 7 24 8 25 9 26 10 28 11
REMARK SMILES IDX 27 12 46 13 48 14 50 15 29 16 30 17 43 18 42 19 35 20 31 21
REMARK SMILES IDX 33 22 44 23 45 24 36 26 37 27 38 28 39 29 40 30 41 31 32 32
REMARK SMILES IDX 34 34 47 36 49 38 51 40 52 42 53 43 54 44 57 46 59 48 60 49
REMARK SMILES IDX 61 51 62 52 20 53 17 55 18 56 16 58 15 59 13 60 14 62 12 63
REMARK SMILES IDX 11 64 10 65 9 66 63 67 8 68 64 69 7 70 6 71 3 72 2 73 1 74
REMARK SMILES IDX 4 75 5 76
REMARK H PARENT 45 25 32 33 34 35 47 37 49 39 51 41 54 45 57 47 59 50 20 54
REMARK H PARENT 18 57 15 61
REMARK Flexibility Score: inf
ROOT
ATOM      1  C   UNL     1       5.798  23.750  33.698  1.00  0.00     0.176 C 
ENDROOT
BRANCH   1   2
ATOM      2  C   UNL     1       4.463  23.156  33.334  1.00  0.00     0.178 C 
ATOM      3  C   UNL     1       3.276  22.148  31.639  1.00  0.00     0.272 C 
ATOM      4  C   UNL     1       2.311  21.998  32.825  1.00  0.00     0.113 C 
ATOM      5  O   UNL     1       4.485  22.663  32.052  1.00  0.00    -0.332 OA
ATOM      6  C   UNL     1       2.063  23.275  33.559  1.00  0.00     0.145 C 
ATOM      7  C   UNL     1       3.320  24.145  33.405  1.00  0.00     0.142 C 
BRANCH   3   8
ATOM      8  O   UNL     1       2.622  22.904  30.696  1.00  0.00    -0.338 OA
BRANCH   8   9
ATOM      9  C   UNL     1       1.407  22.425  30.272  1.00  0.00     0.199 C 
BRANCH   9  10
ATOM     10  C   UNL     1       1.124  22.837  28.816  1.00  0.00     0.179 C 
ATOM     11  C   UNL     1       2.130  24.470  27.454  1.00  0.00     0.282 C 
ATOM     12  O   UNL     1       1.601  24.092  28.679  1.00  0.00    -0.341 OA
ATOM     13  C   UNL     1       1.558  23.704  26.329  1.00  0.00     0.202 C 
ATOM     14  C   UNL     1       1.677  22.213  26.479  1.00  0.00     0.179 C 
ATOM     15  C   UNL     1       1.851  21.862  27.941  1.00  0.00     0.177 C 
BRANCH  11  16
ATOM     16  O   UNL     1       3.505  24.435  27.635  1.00  0.00    -0.341 OA
BRANCH  16  17
ATOM     17  C   UNL     1       4.151  25.572  27.299  1.00  0.00     0.184 C 
ATOM     18  C   UNL     1       4.064  26.636  28.362  1.00  0.00     0.178 C 
ATOM     19  O   UNL     1       4.870  27.735  27.944  1.00  0.00    -0.341 OA
ATOM     20  C   UNL     1       4.145  28.472  27.034  1.00  0.00     0.281 C 
ATOM     21  C   UNL     1       3.637  26.205  26.010  1.00  0.00     0.180 C 
ATOM     22  C   UNL     1       3.299  27.654  26.161  1.00  0.00     0.202 C 
BRANCH  18  23
ATOM     23  C   UNL     1       4.408  26.206  29.742  1.00  0.00     0.191 C 
BRANCH  23  24
ATOM     24  O   UNL     1       3.228  25.860  30.390  1.00  0.00    -0.394 OA
ATOM     25  H   UNL     1       2.599  25.346  29.825  1.00  0.00     0.210 HD
ENDBRANCH  23  24
ENDBRANCH  18  23
BRANCH  20  26
ATOM     26  O   UNL     1       4.937  29.405  26.372  1.00  0.00    -0.350 OA
BRANCH  26  27
ATOM     27  C   UNL     1       6.252  29.066  26.258  1.00  0.00     0.169 C 
BRANCH  27  28
ATOM     28  C   UNL     1       6.819  29.347  24.879  1.00  0.00     0.119 C 
BRANCH  28  29
ATOM     29  N   UNL     1       7.901  28.437  24.560  1.00  0.00    -0.092 NA
ATOM     30  N   UNL     1       7.742  27.213  24.469  1.00  0.00     0.001 N 
ATOM     31  N   UNL     1       7.686  26.036  24.832  1.00  0.00    -0.003 NA
ENDBRANCH  28  29
ENDBRANCH  27  28
ENDBRANCH  26  27
ENDBRANCH  20  26
BRANCH  21  32
ATOM     32  O   UNL     1       4.607  26.058  25.036  1.00  0.00    -0.387 OA
ATOM     33  H   UNL     1       5.118  25.226  25.098  1.00  0.00     0.211 HD
ENDBRANCH  21  32
BRANCH  22  34
ATOM     34  O   UNL     1       1.940  27.826  26.525  1.00  0.00    -0.385 OA
ATOM     35  H   UNL     1       1.578  28.508  25.902  1.00  0.00     0.211 HD
ENDBRANCH  22  34
ENDBRANCH  16  17
ENDBRANCH  11  16
BRANCH  13  36
ATOM     36  O   UNL     1       0.163  23.991  26.261  1.00  0.00    -0.385 OA
ATOM     37  H   UNL     1      -0.141  24.446  27.066  1.00  0.00     0.211 HD
ENDBRANCH  13  36
BRANCH  14  38
ATOM     38  O   UNL     1       2.666  21.643  25.692  1.00  0.00    -0.387 OA
ATOM     39  H   UNL     1       2.419  21.565  24.756  1.00  0.00     0.211 HD
ENDBRANCH  14  38
BRANCH  15  40
ATOM     40  O   UNL     1       3.206  21.922  28.234  1.00  0.00    -0.387 OA
ATOM     41  H   UNL     1       3.391  22.682  28.858  1.00  0.00     0.211 HD
ENDBRANCH  15  40
ENDBRANCH   9  10
ENDBRANCH   8   9
ENDBRANCH   3   8
BRANCH   3  42
ATOM     42  C   UNL     1       3.484  20.759  31.158  1.00  0.00     0.364 C 
ATOM     43  O   UNL     1       2.728  19.811  31.562  1.00  0.00    -0.246 OA
BRANCH  42  44
ATOM     44  O   UNL     1       4.469  20.376  30.270  1.00  0.00    -0.477 OA
ATOM     45  H   UNL     1       4.619  20.908  29.420  1.00  0.00     0.296 HD
ENDBRANCH  42  44
ENDBRANCH   3  42
BRANCH   6  46
ATOM     46  O   UNL     1       0.909  23.935  33.214  1.00  0.00    -0.391 OA
ATOM     47  H   UNL     1       0.151  23.426  33.600  1.00  0.00     0.211 HD
ENDBRANCH   6  46
BRANCH   7  48
ATOM     48  N   UNL     1       3.425  25.107  34.449  1.00  0.00    -0.348 N 
ATOM     49  C   UNL     1       2.859  26.416  34.230  1.00  0.00     0.217 C 
ATOM     50  H   UNL     1       3.871  24.956  35.371  1.00  0.00     0.163 HD
ATOM     51  C   UNL     1       2.932  27.469  35.273  1.00  0.00     0.114 C 
ATOM     52  O   UNL     1       2.287  26.710  33.147  1.00  0.00    -0.275 OA
ENDBRANCH   7  48
ENDBRANCH   1   2
BRANCH   1  53
ATOM     53  O   UNL     1       5.872  23.844  35.081  1.00  0.00    -0.388 OA
ATOM     54  H   UNL     1       6.061  22.930  35.464  1.00  0.00     0.211 HD
ENDBRANCH   1  53
BRANCH   1  55
ATOM     55  C   UNL     1       6.850  22.785  33.215  1.00  0.00     0.165 C 
BRANCH  55  56
ATOM     56  O   UNL     1       6.348  21.481  33.299  1.00  0.00    -0.388 OA
ATOM     57  H   UNL     1       7.064  20.901  33.656  1.00  0.00     0.211 HD
ENDBRANCH  55  56
BRANCH  55  58
ATOM     58  C   UNL     1       8.158  22.860  33.910  1.00  0.00     0.154 C 
BRANCH  58  59
ATOM     59  N   UNL     1       8.804  24.124  33.813  1.00  0.00    -0.319 N 
ATOM     60  C   UNL     1       9.831  24.463  34.758  1.00  0.00     0.407 C 
ATOM     61  H   UNL     1       8.555  24.804  33.094  1.00  0.00     0.167 HD
ATOM     62  O   UNL     1      10.158  23.670  35.664  1.00  0.00    -0.225 OA
BRANCH  60  63
ATOM     63  O   UNL     1      10.449  25.697  34.640  1.00  0.00    -0.443 OA
BRANCH  63  64
ATOM     64  C   UNL     1       9.918  26.800  35.393  1.00  0.00     0.294 C 
BRANCH  64  65
ATOM     65  C   UNL     1       8.491  26.915  35.064  1.00  0.00     0.120 A 
ATOM     66  C   UNL     1       8.012  27.476  33.875  1.00  0.00     0.138 A 
ATOM     67  N   UNL     1       7.405  26.552  35.741  1.00  0.00    -0.132 NA
ATOM     68  N   UNL     1       6.669  27.426  33.887  1.00  0.00    -0.251 N 
ATOM     69  N   UNL     1       6.329  26.868  35.017  1.00  0.00    -0.067 NA
BRANCH  68  70
ATOM     70  C   UNL     1       5.760  27.896  32.858  1.00  0.00     0.161 C 
BRANCH  70  71
ATOM     71  C   UNL     1       6.292  29.214  32.340  1.00  0.00     0.108 C 
BRANCH  71  72
ATOM     72  N   UNL     1       5.262  30.150  31.994  1.00  0.00    -0.302 NA
BRANCH  72  73
ATOM     73  C   UNL     1       4.161  30.114  32.917  1.00  0.00     0.081 C 
ATOM     74  C   UNL     1       4.263  31.324  33.838  1.00  0.00     0.021 C 
ENDBRANCH  72  73
BRANCH  72  75
ATOM     75  C   UNL     1       4.860  30.065  30.625  1.00  0.00     0.081 C 
ATOM     76  C   UNL     1       3.386  29.732  30.511  1.00  0.00     0.021 C 
ENDBRANCH  72  75
ENDBRANCH  71  72
ENDBRANCH  70  71
ENDBRANCH  68  70
ENDBRANCH  64  65
ENDBRANCH  63  64
ENDBRANCH  60  63
ENDBRANCH  58  59
ENDBRANCH  55  58
ENDBRANCH   1  55
TORSDOF 34
