REMARK VINA RESULT:    -5.944      3.012      4.247
REMARK INTER + INTRA:         -21.408
REMARK INTER:                 -14.631
REMARK INTRA:                  -6.778
REMARK UNBOUND:                -6.778
REMARK SMILES CC(=O)N[C@@H]1[C@@H](O)C[C@](OC[C@H]2O[C@@H](O[C@H]3[C@H](O)[C@@H](O)[C@H](OCCN=[N+]=[N-])O[C@@H]3CO)[C@H](O)[C@@H](O)[C@H]2O)(C(=O)O)O[C@H]1C(O)[C@H](O)CNC(=O)OCc1cn(-c2ccc3c(c2)OCO3)nn1
REMARK SMILES IDX 9 1 8 2 6 3 5 4 42 5 41 6 10 7 11 8 12 9 14 10 13 11 32 12
REMARK SMILES IDX 34 13 36 14 15 15 16 16 29 17 28 18 21 19 17 20 19 21 30 22
REMARK SMILES IDX 31 23 22 25 23 26 24 27 25 28 26 29 27 30 18 31 20 33 33 35
REMARK SMILES IDX 35 37 37 39 38 41 39 42 40 43 7 45 43 47 44 48 45 50 46 51
REMARK SMILES IDX 47 53 48 54 49 55 50 57 51 58 52 59 53 60 54 61 66 62 55 63
REMARK SMILES IDX 65 64 56 65 57 66 61 67 58 68 60 69 59 70 62 71 64 72 63 73
REMARK SMILES IDX 4 74 2 75 1 77 3 78
REMARK H PARENT 31 24 18 32 20 34 33 36 35 38 37 40 40 44 7 46 44 49 46 52
REMARK H PARENT 48 56 4 76
REMARK Flexibility Score: inf
ROOT
ATOM      1  C   UNL     1      22.878  24.806  22.880  1.00  0.00     0.272 C 
ATOM      2  C   UNL     1      23.989  23.898  22.433  1.00  0.00     0.113 C 
ATOM      3  C   UNL     1      25.366  24.582  22.529  1.00  0.00     0.145 C 
ATOM      4  C   UNL     1      25.338  25.675  21.481  1.00  0.00     0.142 C 
ATOM      5  C   UNL     1      24.100  26.494  21.777  1.00  0.00     0.178 C 
ATOM      6  O   UNL     1      23.410  26.127  22.882  1.00  0.00    -0.332 OA
ENDROOT
BRANCH   1   7
ATOM      7  O   UNL     1      22.464  24.598  24.120  1.00  0.00    -0.338 OA
BRANCH   7   8
ATOM      8  C   UNL     1      22.854  25.021  25.283  1.00  0.00     0.199 C 
BRANCH   8   9
ATOM      9  C   UNL     1      22.311  26.280  25.904  1.00  0.00     0.179 C 
ATOM     10  C   UNL     1      22.142  27.248  28.015  1.00  0.00     0.282 C 
ATOM     11  O   UNL     1      22.284  26.111  27.265  1.00  0.00    -0.341 OA
ATOM     12  C   UNL     1      21.773  28.460  27.227  1.00  0.00     0.202 C 
ATOM     13  C   UNL     1      22.754  28.719  26.096  1.00  0.00     0.179 C 
ATOM     14  C   UNL     1      23.284  27.433  25.547  1.00  0.00     0.177 C 
BRANCH  10  15
ATOM     15  O   UNL     1      23.398  27.514  28.597  1.00  0.00    -0.341 OA
BRANCH  15  16
ATOM     16  C   UNL     1      23.476  27.134  29.911  1.00  0.00     0.184 C 
ATOM     17  C   UNL     1      24.400  28.066  30.650  1.00  0.00     0.178 C 
ATOM     18  O   UNL     1      25.727  27.715  30.574  1.00  0.00    -0.341 OA
ATOM     19  C   UNL     1      26.040  27.026  29.401  1.00  0.00     0.281 C 
ATOM     20  C   UNL     1      23.968  25.705  29.936  1.00  0.00     0.180 C 
ATOM     21  C   UNL     1      25.359  25.681  29.342  1.00  0.00     0.202 C 
BRANCH  17  22
ATOM     22  C   UNL     1      24.039  28.155  32.127  1.00  0.00     0.191 C 
BRANCH  22  23
ATOM     23  O   UNL     1      22.729  27.752  32.351  1.00  0.00    -0.394 OA
ATOM     24  H   UNL     1      22.670  26.798  32.666  1.00  0.00     0.210 HD
ENDBRANCH  22  23
ENDBRANCH  17  22
BRANCH  19  25
ATOM     25  O   UNL     1      27.411  26.810  29.447  1.00  0.00    -0.350 OA
BRANCH  25  26
ATOM     26  C   UNL     1      27.847  26.973  30.758  1.00  0.00     0.169 C 
BRANCH  26  27
ATOM     27  C   UNL     1      28.367  25.660  31.331  1.00  0.00     0.119 C 
BRANCH  27  28
ATOM     28  N   UNL     1      28.971  24.925  30.209  1.00  0.00    -0.092 NA
ATOM     29  N   UNL     1      30.142  25.203  29.870  1.00  0.00     0.001 N 
ATOM     30  N   UNL     1      31.280  25.657  29.659  1.00  0.00    -0.003 NA
ENDBRANCH  27  28
ENDBRANCH  26  27
ENDBRANCH  25  26
ENDBRANCH  19  25
BRANCH  20  31
ATOM     31  O   UNL     1      23.916  25.128  31.189  1.00  0.00    -0.387 OA
ATOM     32  H   UNL     1      23.238  24.395  31.268  1.00  0.00     0.211 HD
ENDBRANCH  20  31
BRANCH  21  33
ATOM     33  O   UNL     1      25.235  25.332  27.996  1.00  0.00    -0.385 OA
ATOM     34  H   UNL     1      24.424  25.712  27.572  1.00  0.00     0.211 HD
ENDBRANCH  21  33
ENDBRANCH  15  16
ENDBRANCH  10  15
BRANCH  12  35
ATOM     35  O   UNL     1      20.484  28.433  26.698  1.00  0.00    -0.385 OA
ATOM     36  H   UNL     1      20.316  27.505  26.344  1.00  0.00     0.211 HD
ENDBRANCH  12  35
BRANCH  13  37
ATOM     37  O   UNL     1      23.791  29.506  26.602  1.00  0.00    -0.387 OA
ATOM     38  H   UNL     1      23.552  30.443  26.728  1.00  0.00     0.211 HD
ENDBRANCH  13  37
BRANCH  14  39
ATOM     39  O   UNL     1      24.529  27.188  26.118  1.00  0.00    -0.387 OA
ATOM     40  H   UNL     1      24.641  26.282  26.450  1.00  0.00     0.211 HD
ENDBRANCH  14  39
ENDBRANCH   8   9
ENDBRANCH   7   8
ENDBRANCH   1   7
BRANCH   1  41
ATOM     41  C   UNL     1      21.769  24.830  21.872  1.00  0.00     0.364 C 
ATOM     42  O   UNL     1      21.940  24.089  20.842  1.00  0.00    -0.246 OA
BRANCH  41  43
ATOM     43  O   UNL     1      20.624  25.556  21.953  1.00  0.00    -0.477 OA
ATOM     44  H   UNL     1      20.399  26.174  22.716  1.00  0.00     0.296 HD
ENDBRANCH  41  43
ENDBRANCH   1  41
BRANCH   3  45
ATOM     45  O   UNL     1      25.419  25.122  23.821  1.00  0.00    -0.391 OA
ATOM     46  H   UNL     1      25.304  26.098  23.791  1.00  0.00     0.211 HD
ENDBRANCH   3  45
BRANCH   5  47
ATOM     47  C   UNL     1      24.637  27.908  22.083  1.00  0.00     0.176 C 
BRANCH  47  48
ATOM     48  O   UNL     1      25.600  28.317  21.207  1.00  0.00    -0.388 OA
ATOM     49  H   UNL     1      25.260  28.596  20.321  1.00  0.00     0.211 HD
ENDBRANCH  47  48
BRANCH  47  50
ATOM     50  C   UNL     1      23.504  28.927  22.121  1.00  0.00     0.165 C 
BRANCH  50  51
ATOM     51  O   UNL     1      22.290  28.376  21.883  1.00  0.00    -0.388 OA
ATOM     52  H   UNL     1      22.238  27.398  21.871  1.00  0.00     0.211 HD
ENDBRANCH  50  51
BRANCH  50  53
ATOM     53  C   UNL     1      23.854  29.977  21.114  1.00  0.00     0.154 C 
BRANCH  53  54
ATOM     54  N   UNL     1      23.000  29.944  19.967  1.00  0.00    -0.319 N 
ATOM     55  C   UNL     1      23.290  29.302  18.736  1.00  0.00     0.407 C 
ATOM     56  H   UNL     1      22.037  30.433  19.983  1.00  0.00     0.167 HD
ATOM     57  O   UNL     1      24.360  28.680  18.573  1.00  0.00    -0.225 OA
BRANCH  55  58
ATOM     58  O   UNL     1      22.392  29.342  17.665  1.00  0.00    -0.443 OA
BRANCH  58  59
ATOM     59  C   UNL     1      21.403  28.373  17.445  1.00  0.00     0.294 C 
BRANCH  59  60
ATOM     60  C   UNL     1      20.483  28.352  18.632  1.00  0.00     0.121 A 
ATOM     61  C   UNL     1      19.296  29.077  18.756  1.00  0.00     0.144 A 
ATOM     62  N   UNL     1      20.596  27.656  19.770  1.00  0.00    -0.131 NA
ATOM     63  N   UNL     1      18.743  28.795  19.956  1.00  0.00    -0.220 N 
ATOM     64  N   UNL     1      19.566  27.931  20.531  1.00  0.00    -0.062 NA
BRANCH  63  65
ATOM     65  C   UNL     1      17.545  29.291  20.500  1.00  0.00     0.070 A 
ATOM     66  C   UNL     1      17.523  30.491  21.156  1.00  0.00     0.032 A 
ATOM     67  C   UNL     1      16.378  28.579  20.378  1.00  0.00     0.079 A 
ATOM     68  C   UNL     1      16.320  30.975  21.690  1.00  0.00     0.053 A 
ATOM     69  C   UNL     1      15.186  29.039  20.897  1.00  0.00     0.167 A 
ATOM     70  C   UNL     1      15.168  30.242  21.553  1.00  0.00     0.165 A 
ATOM     71  O   UNL     1      13.918  28.502  20.892  1.00  0.00    -0.454 OA
ATOM     72  O   UNL     1      13.865  30.478  21.975  1.00  0.00    -0.454 OA
ATOM     73  C   UNL     1      13.156  29.278  21.825  1.00  0.00     0.468 C 
ENDBRANCH  63  65
ENDBRANCH  59  60
ENDBRANCH  58  59
ENDBRANCH  55  58
ENDBRANCH  53  54
ENDBRANCH  50  53
ENDBRANCH  47  50
ENDBRANCH   5  47
BRANCH   4  74
ATOM     74  N   UNL     1      25.356  25.082  20.178  1.00  0.00    -0.348 N 
ATOM     75  C   UNL     1      26.242  25.558  19.143  1.00  0.00     0.217 C 
ATOM     76  H   UNL     1      24.752  24.289  19.876  1.00  0.00     0.163 HD
ATOM     77  C   UNL     1      26.251  24.934  17.793  1.00  0.00     0.114 C 
ATOM     78  O   UNL     1      27.003  26.500  19.388  1.00  0.00    -0.275 OA
ENDBRANCH   4  74
TORSDOF 30
