REMARK VINA RESULT:    -6.478      5.509     16.139
REMARK INTER + INTRA:         -23.737
REMARK INTER:                 -16.744
REMARK INTRA:                  -6.993
REMARK UNBOUND:                -7.033
REMARK SMILES CC(=O)N[C@@H]1[C@@H](O)C[C@](OC[C@H]2O[C@@H](O[C@H]3[C@H](O)[C@@H](O)[C@H](OCCN=[N+]=[N-])O[C@@H]3CO)[C@H](O)[C@@H](O)[C@H]2O)(C(=O)O)O[C@H]1C(O)[C@H](O)CNC(=O)OCc1cn(C(C)(C)C(=O)c2c[nH]c3ccccc23)nn1
REMARK SMILES IDX 9 1 8 2 6 3 5 4 42 5 41 6 10 7 11 8 12 9 14 10 13 11 32 12
REMARK SMILES IDX 34 13 36 14 15 15 16 16 29 17 28 18 21 19 17 20 19 21 30 22
REMARK SMILES IDX 31 23 22 25 23 26 24 27 25 28 26 29 27 30 18 31 20 33 33 35
REMARK SMILES IDX 35 37 37 39 38 41 39 42 40 43 7 45 43 47 44 48 45 50 46 51
REMARK SMILES IDX 47 53 48 54 49 55 50 57 51 58 52 59 53 60 54 61 71 62 55 63
REMARK SMILES IDX 70 64 56 65 57 66 58 67 59 68 60 69 61 70 62 71 69 72 63 73
REMARK SMILES IDX 64 74 68 75 65 77 67 78 66 79 4 80 2 81 1 83 3 84
REMARK H PARENT 31 24 18 32 20 34 33 36 35 38 37 40 40 44 7 46 44 49 46 52
REMARK H PARENT 48 56 63 76 4 82
REMARK Flexibility Score: inf
ROOT
ATOM      1  C   UNL     1      22.364  25.746  25.264  1.00  0.00     0.272 C 
ATOM      2  C   UNL     1      22.930  24.572  24.483  1.00  0.00     0.113 C 
ATOM      3  C   UNL     1      24.388  24.772  24.152  1.00  0.00     0.145 C 
ATOM      4  C   UNL     1      24.501  25.947  23.120  1.00  0.00     0.142 C 
ATOM      5  C   UNL     1      23.442  26.919  23.527  1.00  0.00     0.178 C 
ATOM      6  O   UNL     1      23.169  26.819  24.875  1.00  0.00    -0.332 OA
ENDROOT
BRANCH   1   7
ATOM      7  O   UNL     1      22.289  25.621  26.592  1.00  0.00    -0.338 OA
BRANCH   7   8
ATOM      8  C   UNL     1      22.808  26.226  27.607  1.00  0.00     0.199 C 
BRANCH   8   9
ATOM      9  C   UNL     1      22.000  26.130  28.902  1.00  0.00     0.179 C 
ATOM     10  C   UNL     1      23.477  27.206  30.415  1.00  0.00     0.282 C 
ATOM     11  O   UNL     1      22.809  26.113  29.987  1.00  0.00    -0.341 OA
ATOM     12  C   UNL     1      22.656  28.466  30.422  1.00  0.00     0.202 C 
ATOM     13  C   UNL     1      21.195  28.133  30.146  1.00  0.00     0.179 C 
ATOM     14  C   UNL     1      21.028  27.278  28.948  1.00  0.00     0.177 C 
BRANCH  10  15
ATOM     15  O   UNL     1      24.611  27.416  29.650  1.00  0.00    -0.341 OA
BRANCH  15  16
ATOM     16  C   UNL     1      25.772  27.378  30.366  1.00  0.00     0.184 C 
ATOM     17  C   UNL     1      26.796  28.414  30.076  1.00  0.00     0.178 C 
ATOM     18  O   UNL     1      27.655  28.452  31.194  1.00  0.00    -0.341 OA
ATOM     19  C   UNL     1      28.329  27.285  31.411  1.00  0.00     0.281 C 
ATOM     20  C   UNL     1      26.466  26.031  30.306  1.00  0.00     0.180 C 
ATOM     21  C   UNL     1      27.466  26.042  31.442  1.00  0.00     0.202 C 
BRANCH  17  22
ATOM     22  C   UNL     1      26.249  29.821  29.943  1.00  0.00     0.191 C 
BRANCH  22  23
ATOM     23  O   UNL     1      27.145  30.676  30.594  1.00  0.00    -0.394 OA
ATOM     24  H   UNL     1      27.951  30.863  30.059  1.00  0.00     0.210 HD
ENDBRANCH  22  23
ENDBRANCH  17  22
BRANCH  19  25
ATOM     25  O   UNL     1      28.923  27.367  32.674  1.00  0.00    -0.350 OA
BRANCH  25  26
ATOM     26  C   UNL     1      28.085  28.085  33.506  1.00  0.00     0.169 C 
BRANCH  26  27
ATOM     27  C   UNL     1      28.178  27.643  34.942  1.00  0.00     0.119 C 
BRANCH  27  28
ATOM     28  N   UNL     1      27.421  26.443  35.225  1.00  0.00    -0.092 NA
ATOM     29  N   UNL     1      27.858  25.319  34.907  1.00  0.00     0.001 N 
ATOM     30  N   UNL     1      28.517  24.282  35.023  1.00  0.00    -0.003 NA
ENDBRANCH  27  28
ENDBRANCH  26  27
ENDBRANCH  25  26
ENDBRANCH  19  25
BRANCH  20  31
ATOM     31  O   UNL     1      25.602  24.972  30.456  1.00  0.00    -0.387 OA
ATOM     32  H   UNL     1      25.048  24.909  29.648  1.00  0.00     0.211 HD
ENDBRANCH  20  31
BRANCH  21  33
ATOM     33  O   UNL     1      28.315  24.949  31.270  1.00  0.00    -0.385 OA
ATOM     34  H   UNL     1      27.809  24.105  31.118  1.00  0.00     0.211 HD
ENDBRANCH  21  33
ENDBRANCH  15  16
ENDBRANCH  10  15
BRANCH  12  35
ATOM     35  O   UNL     1      22.773  29.207  31.598  1.00  0.00    -0.385 OA
ATOM     36  H   UNL     1      22.200  28.813  32.288  1.00  0.00     0.211 HD
ENDBRANCH  12  35
BRANCH  13  37
ATOM     37  O   UNL     1      20.564  29.388  29.974  1.00  0.00    -0.387 OA
ATOM     38  H   UNL     1      20.594  29.668  29.027  1.00  0.00     0.211 HD
ENDBRANCH  13  37
BRANCH  14  39
ATOM     39  O   UNL     1      21.229  28.034  27.767  1.00  0.00    -0.387 OA
ATOM     40  H   UNL     1      20.473  28.669  27.654  1.00  0.00     0.211 HD
ENDBRANCH  14  39
ENDBRANCH   8   9
ENDBRANCH   7   8
ENDBRANCH   1   7
BRANCH   1  41
ATOM     41  C   UNL     1      20.984  25.976  24.782  1.00  0.00     0.364 C 
ATOM     42  O   UNL     1      20.314  26.912  25.289  1.00  0.00    -0.246 OA
BRANCH  41  43
ATOM     43  O   UNL     1      20.384  25.231  23.818  1.00  0.00    -0.477 OA
ATOM     44  H   UNL     1      19.461  25.379  23.414  1.00  0.00     0.296 HD
ENDBRANCH  41  43
ENDBRANCH   1  41
BRANCH   3  45
ATOM     45  O   UNL     1      25.184  25.185  25.194  1.00  0.00    -0.391 OA
ATOM     46  H   UNL     1      25.411  24.453  25.836  1.00  0.00     0.211 HD
ENDBRANCH   3  45
BRANCH   5  47
ATOM     47  C   UNL     1      23.686  28.356  23.248  1.00  0.00     0.176 C 
BRANCH  47  48
ATOM     48  O   UNL     1      24.441  28.580  22.119  1.00  0.00    -0.388 OA
ATOM     49  H   UNL     1      25.330  29.000  22.286  1.00  0.00     0.211 HD
ENDBRANCH  47  48
BRANCH  47  50
ATOM     50  C   UNL     1      22.506  29.291  23.400  1.00  0.00     0.165 C 
BRANCH  50  51
ATOM     51  O   UNL     1      22.226  29.608  24.689  1.00  0.00    -0.388 OA
ATOM     52  H   UNL     1      23.008  29.611  25.260  1.00  0.00     0.211 HD
ENDBRANCH  50  51
BRANCH  50  53
ATOM     53  C   UNL     1      21.384  28.773  22.562  1.00  0.00     0.154 C 
BRANCH  53  54
ATOM     54  N   UNL     1      21.612  28.632  21.173  1.00  0.00    -0.319 N 
ATOM     55  C   UNL     1      21.490  27.387  20.463  1.00  0.00     0.407 C 
ATOM     56  H   UNL     1      21.892  29.475  20.586  1.00  0.00     0.167 HD
ATOM     57  O   UNL     1      21.188  26.328  21.049  1.00  0.00    -0.225 OA
BRANCH  55  58
ATOM     58  O   UNL     1      21.706  27.327  19.099  1.00  0.00    -0.443 OA
BRANCH  58  59
ATOM     59  C   UNL     1      21.406  28.397  18.249  1.00  0.00     0.294 C 
BRANCH  59  60
ATOM     60  C   UNL     1      19.921  28.453  18.081  1.00  0.00     0.120 A 
ATOM     61  C   UNL     1      19.034  29.127  18.942  1.00  0.00     0.139 A 
ATOM     62  N   UNL     1      19.122  27.900  17.159  1.00  0.00    -0.132 NA
ATOM     63  N   UNL     1      17.776  28.954  18.516  1.00  0.00    -0.239 N 
ATOM     64  N   UNL     1      17.843  28.211  17.438  1.00  0.00    -0.066 NA
BRANCH  63  65
ATOM     65  C   UNL     1      16.600  29.504  19.155  1.00  0.00     0.122 C 
ATOM     66  C   UNL     1      15.404  29.224  18.180  1.00  0.00     0.046 C 
ATOM     67  C   UNL     1      16.617  31.011  19.260  1.00  0.00     0.046 C 
BRANCH  65  68
ATOM     68  C   UNL     1      16.281  28.832  20.400  1.00  0.00     0.192 C 
ATOM     69  O   UNL     1      16.291  27.528  20.321  1.00  0.00    -0.291 OA
BRANCH  68  70
ATOM     70  C   UNL     1      15.957  29.353  21.693  1.00  0.00     0.045 A 
ATOM     71  C   UNL     1      16.917  29.786  22.616  1.00  0.00     0.095 A 
ATOM     72  C   UNL     1      14.729  29.516  22.302  1.00  0.00     0.010 A 
ATOM     73  N   UNL     1      16.284  30.179  23.704  1.00  0.00    -0.360 N 
ATOM     74  C   UNL     1      14.964  30.040  23.576  1.00  0.00     0.046 A 
ATOM     75  C   UNL     1      13.431  29.285  21.938  1.00  0.00     0.011 A 
ATOM     76  H   UNL     1      16.788  30.553  24.558  1.00  0.00     0.166 HD
ATOM     77  C   UNL     1      13.921  30.317  24.443  1.00  0.00     0.027 A 
ATOM     78  C   UNL     1      12.384  29.564  22.814  1.00  0.00     0.001 A 
ATOM     79  C   UNL     1      12.636  30.075  24.053  1.00  0.00     0.002 A 
ENDBRANCH  68  70
ENDBRANCH  65  68
ENDBRANCH  63  65
ENDBRANCH  59  60
ENDBRANCH  58  59
ENDBRANCH  55  58
ENDBRANCH  53  54
ENDBRANCH  50  53
ENDBRANCH  47  50
ENDBRANCH   5  47
BRANCH   4  80
ATOM     80  N   UNL     1      24.151  25.296  21.861  1.00  0.00    -0.348 N 
ATOM     81  C   UNL     1      24.802  25.552  20.628  1.00  0.00     0.217 C 
ATOM     82  H   UNL     1      23.365  24.591  21.857  1.00  0.00     0.163 HD
ATOM     83  C   UNL     1      24.440  24.888  19.348  1.00  0.00     0.114 C 
ATOM     84  O   UNL     1      25.751  26.409  20.658  1.00  0.00    -0.275 OA
ENDBRANCH   4  80
TORSDOF 32
