REMARK VINA RESULT:    -5.404     14.052     20.167
REMARK INTER + INTRA:         -22.344
REMARK INTER:                 -13.346
REMARK INTRA:                  -8.998
REMARK UNBOUND:                -7.304
REMARK SMILES CC(=O)N[C@@H]1[C@@H](O)C[C@](OC[C@H]2O[C@@H](O[C@H]3[C@H](O)[C@@H](O)[C@H](OCCN=[N+]=[N-])O[C@@H]3CO)[C@H](O)[C@@H](O)[C@H]2O)(C(=O)O)O[C@H]1C(O)[C@H](O)CNC(=O)OCc1cn(CCCCCC(=O)O)nn1
REMARK SMILES IDX 47 1 45 2 43 3 42 4 9 5 8 6 41 7 6 8 5 9 10 10 11 11 12 12
REMARK SMILES IDX 14 13 13 14 32 15 34 16 36 17 15 18 16 19 29 20 28 21 21 22
REMARK SMILES IDX 17 23 19 24 30 25 31 26 22 28 23 29 24 30 25 31 26 32 27 33
REMARK SMILES IDX 18 34 20 36 33 38 35 40 37 42 38 44 39 45 40 46 7 48 4 50
REMARK SMILES IDX 2 51 1 53 3 54 44 55 46 57 48 59 49 60 50 62 51 63 52 64
REMARK SMILES IDX 53 65 54 66 65 67 55 68 64 69 56 70 57 71 58 72 59 73 60 74
REMARK SMILES IDX 61 75 62 76 63 77
REMARK H PARENT 31 27 18 35 20 37 33 39 35 41 37 43 40 47 7 49 4 52 44 56
REMARK H PARENT 46 58 48 61 63 78
REMARK Flexibility Score: inf
ROOT
ATOM      1  C   UNL     1       2.440  25.658  27.634  1.00  0.00     0.154 C 
ENDROOT
BRANCH   1   2
ATOM      2  C   UNL     1       2.562  25.177  26.208  1.00  0.00     0.165 C 
BRANCH   2   3
ATOM      3  C   UNL     1       2.847  23.712  26.268  1.00  0.00     0.176 C 
BRANCH   3   4
ATOM      4  C   UNL     1       1.973  22.910  27.169  1.00  0.00     0.178 C 
ATOM      5  C   UNL     1       1.800  21.900  29.175  1.00  0.00     0.272 C 
ATOM      6  C   UNL     1       0.337  21.978  28.879  1.00  0.00     0.113 C 
ATOM      7  O   UNL     1       2.643  22.130  28.096  1.00  0.00    -0.332 OA
ATOM      8  C   UNL     1      -0.098  21.740  27.484  1.00  0.00     0.145 C 
ATOM      9  C   UNL     1       1.024  21.967  26.463  1.00  0.00     0.142 C 
BRANCH   5  10
ATOM     10  O   UNL     1       2.149  20.739  29.863  1.00  0.00    -0.338 OA
BRANCH  10  11
ATOM     11  C   UNL     1       1.152  20.059  30.485  1.00  0.00     0.199 C 
BRANCH  11  12
ATOM     12  C   UNL     1       1.589  19.866  31.925  1.00  0.00     0.179 C 
ATOM     13  C   UNL     1       3.216  19.996  33.454  1.00  0.00     0.282 C 
ATOM     14  O   UNL     1       2.691  20.626  32.287  1.00  0.00    -0.341 OA
ATOM     15  C   UNL     1       2.211  19.435  34.355  1.00  0.00     0.202 C 
ATOM     16  C   UNL     1       0.799  19.927  34.207  1.00  0.00     0.179 C 
ATOM     17  C   UNL     1       0.457  20.362  32.807  1.00  0.00     0.177 C 
BRANCH  13  18
ATOM     18  O   UNL     1       4.228  20.787  33.991  1.00  0.00    -0.341 OA
BRANCH  18  19
ATOM     19  C   UNL     1       4.207  22.085  33.641  1.00  0.00     0.184 C 
ATOM     20  C   UNL     1       5.565  22.638  33.333  1.00  0.00     0.178 C 
ATOM     21  O   UNL     1       5.327  23.831  32.618  1.00  0.00    -0.341 OA
ATOM     22  C   UNL     1       4.790  24.781  33.419  1.00  0.00     0.281 C 
ATOM     23  C   UNL     1       3.755  22.966  34.856  1.00  0.00     0.180 C 
ATOM     24  C   UNL     1       4.446  24.304  34.779  1.00  0.00     0.202 C 
BRANCH  20  25
ATOM     25  C   UNL     1       6.399  21.753  32.444  1.00  0.00     0.191 C 
BRANCH  25  26
ATOM     26  O   UNL     1       5.639  21.225  31.422  1.00  0.00    -0.394 OA
ATOM     27  H   UNL     1       5.993  20.318  31.223  1.00  0.00     0.210 HD
ENDBRANCH  25  26
ENDBRANCH  20  25
BRANCH  22  28
ATOM     28  O   UNL     1       3.705  25.451  32.840  1.00  0.00    -0.350 OA
BRANCH  28  29
ATOM     29  C   UNL     1       3.517  26.707  33.361  1.00  0.00     0.169 C 
BRANCH  29  30
ATOM     30  C   UNL     1       2.080  26.851  33.840  1.00  0.00     0.119 C 
BRANCH  30  31
ATOM     31  N   UNL     1       1.170  26.123  32.970  1.00  0.00    -0.092 NA
ATOM     32  N   UNL     1       0.270  25.422  33.472  1.00  0.00     0.001 N 
ATOM     33  N   UNL     1      -0.307  24.403  33.854  1.00  0.00    -0.003 NA
ENDBRANCH  30  31
ENDBRANCH  29  30
ENDBRANCH  28  29
ENDBRANCH  22  28
BRANCH  23  34
ATOM     34  O   UNL     1       2.384  23.194  34.746  1.00  0.00    -0.387 OA
ATOM     35  H   UNL     1       2.222  24.182  34.733  1.00  0.00     0.211 HD
ENDBRANCH  23  34
BRANCH  24  36
ATOM     36  O   UNL     1       5.485  24.432  35.710  1.00  0.00    -0.385 OA
ATOM     37  H   UNL     1       5.700  25.378  35.907  1.00  0.00     0.211 HD
ENDBRANCH  24  36
ENDBRANCH  18  19
ENDBRANCH  13  18
BRANCH  15  38
ATOM     38  O   UNL     1       2.124  18.018  34.230  1.00  0.00    -0.385 OA
ATOM     39  H   UNL     1       1.963  17.769  33.302  1.00  0.00     0.211 HD
ENDBRANCH  15  38
BRANCH  16  40
ATOM     40  O   UNL     1       0.516  21.014  35.052  1.00  0.00    -0.387 OA
ATOM     41  H   UNL     1       0.913  20.922  35.937  1.00  0.00     0.211 HD
ENDBRANCH  16  40
BRANCH  17  42
ATOM     42  O   UNL     1       0.506  21.778  32.739  1.00  0.00    -0.387 OA
ATOM     43  H   UNL     1      -0.262  22.032  32.135  1.00  0.00     0.211 HD
ENDBRANCH  17  42
ENDBRANCH  11  12
ENDBRANCH  10  11
ENDBRANCH   5  10
BRANCH   5  44
ATOM     44  C   UNL     1       2.096  23.005  30.129  1.00  0.00     0.364 C 
ATOM     45  O   UNL     1       1.184  23.758  30.538  1.00  0.00    -0.246 OA
BRANCH  44  46
ATOM     46  O   UNL     1       3.379  23.209  30.573  1.00  0.00    -0.477 OA
ATOM     47  H   UNL     1       4.212  23.067  29.978  1.00  0.00     0.296 HD
ENDBRANCH  44  46
ENDBRANCH   5  44
BRANCH   8  48
ATOM     48  O   UNL     1      -0.769  20.540  27.264  1.00  0.00    -0.391 OA
ATOM     49  H   UNL     1      -0.102  19.817  27.270  1.00  0.00     0.211 HD
ENDBRANCH   8  48
BRANCH   9  50
ATOM     50  N   UNL     1       0.519  22.439  25.221  1.00  0.00    -0.348 N 
ATOM     51  C   UNL     1       0.156  21.513  24.214  1.00  0.00     0.217 C 
ATOM     52  H   UNL     1       0.409  23.446  25.039  1.00  0.00     0.163 HD
ATOM     53  C   UNL     1      -0.378  21.980  22.908  1.00  0.00     0.114 C 
ATOM     54  O   UNL     1       0.267  20.262  24.377  1.00  0.00    -0.275 OA
ENDBRANCH   9  50
ENDBRANCH   3   4
BRANCH   3  55
ATOM     55  O   UNL     1       4.196  23.469  26.613  1.00  0.00    -0.388 OA
ATOM     56  H   UNL     1       4.666  23.059  25.852  1.00  0.00     0.211 HD
ENDBRANCH   3  55
ENDBRANCH   2   3
BRANCH   2  57
ATOM     57  O   UNL     1       3.617  25.860  25.613  1.00  0.00    -0.388 OA
ATOM     58  H   UNL     1       3.293  26.181  24.734  1.00  0.00     0.211 HD
ENDBRANCH   2  57
ENDBRANCH   1   2
BRANCH   1  59
ATOM     59  N   UNL     1       3.675  26.064  28.225  1.00  0.00    -0.319 N 
ATOM     60  C   UNL     1       3.630  26.772  29.469  1.00  0.00     0.407 C 
ATOM     61  H   UNL     1       4.595  25.873  27.798  1.00  0.00     0.167 HD
ATOM     62  O   UNL     1       2.529  27.023  30.020  1.00  0.00    -0.225 OA
BRANCH  60  63
ATOM     63  O   UNL     1       4.772  27.202  30.104  1.00  0.00    -0.443 OA
BRANCH  63  64
ATOM     64  C   UNL     1       5.096  28.528  30.338  1.00  0.00     0.294 C 
BRANCH  64  65
ATOM     65  C   UNL     1       4.906  29.464  29.223  1.00  0.00     0.120 A 
ATOM     66  C   UNL     1       5.514  29.436  27.994  1.00  0.00     0.138 A 
ATOM     67  N   UNL     1       4.090  30.542  29.234  1.00  0.00    -0.132 NA
ATOM     68  N   UNL     1       5.062  30.480  27.297  1.00  0.00    -0.252 N 
ATOM     69  N   UNL     1       4.210  31.121  28.071  1.00  0.00    -0.067 NA
BRANCH  68  70
ATOM     70  C   UNL     1       5.444  30.825  25.934  1.00  0.00     0.146 C 
BRANCH  70  71
ATOM     71  C   UNL     1       6.816  30.211  25.658  1.00  0.00     0.024 C 
BRANCH  71  72
ATOM     72  C   UNL     1       6.936  29.760  24.232  1.00  0.00     0.002 C 
BRANCH  72  73
ATOM     73  C   UNL     1       7.274  28.298  24.186  1.00  0.00     0.012 C 
BRANCH  73  74
ATOM     74  C   UNL     1       8.532  27.957  24.913  1.00  0.00     0.122 C 
BRANCH  74  75
ATOM     75  C   UNL     1       8.561  26.496  25.201  1.00  0.00     0.303 C 
ATOM     76  O   UNL     1       8.135  25.684  24.350  1.00  0.00    -0.252 OA
BRANCH  75  77
ATOM     77  O   UNL     1       9.057  26.011  26.407  1.00  0.00    -0.481 OA
ATOM     78  H   UNL     1       8.491  25.364  26.961  1.00  0.00     0.296 HD
ENDBRANCH  75  77
ENDBRANCH  74  75
ENDBRANCH  73  74
ENDBRANCH  72  73
ENDBRANCH  71  72
ENDBRANCH  70  71
ENDBRANCH  68  70
ENDBRANCH  64  65
ENDBRANCH  63  64
ENDBRANCH  60  63
ENDBRANCH   1  59
TORSDOF 36
