REMARK VINA RESULT:    -4.973      6.119     10.246
REMARK INTER + INTRA:         -21.386
REMARK INTER:                 -15.038
REMARK INTRA:                  -6.348
REMARK UNBOUND:                -8.562
REMARK SMILES CC(=O)N[C@@H]1[C@@H](O)C[C@](OC[C@H]2O[C@@H](O[C@H]3[C@H](O)[C@@H](O)[C@H](OCCN=[N+]=[N-])O[C@@H]3CO)[C@H](O)[C@@H](O)[C@H]2O)(C(=O)O)O[C@H]1C(O)[C@H](O)CNC(=O)OCc1cn(Cc2ccc(C#N)cc2)nn1
REMARK SMILES IDX 9 1 8 2 6 3 5 4 42 5 41 6 10 7 11 8 12 9 14 10 13 11 32 12
REMARK SMILES IDX 34 13 36 14 15 15 16 16 29 17 28 18 21 19 17 20 19 21 30 22
REMARK SMILES IDX 31 23 22 25 23 26 24 27 25 28 26 29 27 30 18 31 20 33 33 35
REMARK SMILES IDX 35 37 37 39 38 41 39 42 40 43 7 45 43 47 44 48 45 50 46 51
REMARK SMILES IDX 47 53 48 54 49 55 50 57 51 58 52 59 53 60 54 61 66 62 55 63
REMARK SMILES IDX 65 64 56 65 57 66 58 67 64 68 59 69 63 70 60 71 61 72 62 73
REMARK SMILES IDX 4 74 2 75 1 77 3 78
REMARK H PARENT 31 24 18 32 20 34 33 36 35 38 37 40 40 44 7 46 44 49 46 52
REMARK H PARENT 48 56 4 76
REMARK Flexibility Score: inf
ROOT
ATOM      1  C   UNL     1      15.677  29.647  20.503  1.00  0.00     0.272 C 
ATOM      2  C   UNL     1      14.679  28.794  21.205  1.00  0.00     0.113 C 
ATOM      3  C   UNL     1      13.811  29.504  22.182  1.00  0.00     0.145 C 
ATOM      4  C   UNL     1      14.616  30.678  22.762  1.00  0.00     0.142 C 
ATOM      5  C   UNL     1      16.058  30.277  22.676  1.00  0.00     0.178 C 
ATOM      6  O   UNL     1      16.496  30.369  21.386  1.00  0.00    -0.332 OA
ENDROOT
BRANCH   1   7
ATOM      7  O   UNL     1      15.180  30.483  19.526  1.00  0.00    -0.338 OA
BRANCH   7   8
ATOM      8  C   UNL     1      15.331  31.806  19.769  1.00  0.00     0.199 C 
BRANCH   8   9
ATOM      9  C   UNL     1      14.692  32.673  18.670  1.00  0.00     0.179 C 
ATOM     10  C   UNL     1      14.388  32.664  16.382  1.00  0.00     0.282 C 
ATOM     11  O   UNL     1      15.067  32.093  17.458  1.00  0.00    -0.341 OA
ATOM     12  C   UNL     1      12.908  32.479  16.456  1.00  0.00     0.202 C 
ATOM     13  C   UNL     1      12.555  31.768  17.741  1.00  0.00     0.179 C 
ATOM     14  C   UNL     1      13.200  32.583  18.853  1.00  0.00     0.177 C 
BRANCH  10  15
ATOM     15  O   UNL     1      14.849  32.028  15.232  1.00  0.00    -0.341 OA
BRANCH  15  16
ATOM     16  C   UNL     1      15.828  31.070  15.487  1.00  0.00     0.184 C 
ATOM     17  C   UNL     1      17.009  31.318  14.618  1.00  0.00     0.178 C 
ATOM     18  O   UNL     1      17.079  30.590  13.465  1.00  0.00    -0.341 OA
ATOM     19  C   UNL     1      15.962  29.871  13.123  1.00  0.00     0.281 C 
ATOM     20  C   UNL     1      15.292  29.675  15.460  1.00  0.00     0.180 C 
ATOM     21  C   UNL     1      15.657  28.887  14.230  1.00  0.00     0.202 C 
BRANCH  17  22
ATOM     22  C   UNL     1      18.281  31.198  15.453  1.00  0.00     0.191 C 
BRANCH  22  23
ATOM     23  O   UNL     1      17.903  31.175  16.796  1.00  0.00    -0.394 OA
ATOM     24  H   UNL     1      18.505  30.572  17.330  1.00  0.00     0.210 HD
ENDBRANCH  22  23
ENDBRANCH  17  22
BRANCH  19  25
ATOM     25  O   UNL     1      16.308  29.127  11.976  1.00  0.00    -0.350 OA
BRANCH  25  26
ATOM     26  C   UNL     1      17.680  28.921  11.918  1.00  0.00     0.169 C 
BRANCH  26  27
ATOM     27  C   UNL     1      18.177  28.993  10.488  1.00  0.00     0.119 C 
BRANCH  27  28
ATOM     28  N   UNL     1      19.451  28.321  10.316  1.00  0.00    -0.092 NA
ATOM     29  N   UNL     1      20.493  28.908  10.560  1.00  0.00     0.001 N 
ATOM     30  N   UNL     1      21.569  29.160  11.124  1.00  0.00    -0.003 NA
ENDBRANCH  27  28
ENDBRANCH  26  27
ENDBRANCH  25  26
ENDBRANCH  19  25
BRANCH  20  31
ATOM     31  O   UNL     1      15.591  28.952  16.621  1.00  0.00    -0.387 OA
ATOM     32  H   UNL     1      15.198  29.411  17.421  1.00  0.00     0.211 HD
ENDBRANCH  20  31
BRANCH  21  33
ATOM     33  O   UNL     1      14.638  28.011  13.850  1.00  0.00    -0.385 OA
ATOM     34  H   UNL     1      14.300  27.591  14.684  1.00  0.00     0.211 HD
ENDBRANCH  21  33
ENDBRANCH  15  16
ENDBRANCH  10  15
BRANCH  12  35
ATOM     35  O   UNL     1      12.177  33.644  16.386  1.00  0.00    -0.385 OA
ATOM     36  H   UNL     1      11.419  33.528  15.747  1.00  0.00     0.211 HD
ENDBRANCH  12  35
BRANCH  13  37
ATOM     37  O   UNL     1      13.053  30.477  17.674  1.00  0.00    -0.387 OA
ATOM     38  H   UNL     1      12.507  29.851  17.152  1.00  0.00     0.211 HD
ENDBRANCH  13  37
BRANCH  14  39
ATOM     39  O   UNL     1      12.833  32.174  20.112  1.00  0.00    -0.387 OA
ATOM     40  H   UNL     1      13.328  32.685  20.788  1.00  0.00     0.211 HD
ENDBRANCH  14  39
ENDBRANCH   8   9
ENDBRANCH   7   8
ENDBRANCH   1   7
BRANCH   1  41
ATOM     41  C   UNL     1      16.644  28.706  19.844  1.00  0.00     0.364 C 
ATOM     42  O   UNL     1      16.670  27.514  20.167  1.00  0.00    -0.246 OA
BRANCH  41  43
ATOM     43  O   UNL     1      17.491  29.199  18.880  1.00  0.00    -0.477 OA
ATOM     44  H   UNL     1      17.567  28.818  17.945  1.00  0.00     0.296 HD
ENDBRANCH  41  43
ENDBRANCH   1  41
BRANCH   3  45
ATOM     45  O   UNL     1      12.572  29.875  21.743  1.00  0.00    -0.391 OA
ATOM     46  H   UNL     1      11.864  29.484  22.294  1.00  0.00     0.211 HD
ENDBRANCH   3  45
BRANCH   5  47
ATOM     47  C   UNL     1      16.961  31.070  23.630  1.00  0.00     0.176 C 
BRANCH  47  48
ATOM     48  O   UNL     1      16.889  30.366  24.854  1.00  0.00    -0.388 OA
ATOM     49  H   UNL     1      16.434  29.504  24.682  1.00  0.00     0.211 HD
ENDBRANCH  47  48
BRANCH  47  50
ATOM     50  C   UNL     1      18.351  31.097  23.174  1.00  0.00     0.165 C 
BRANCH  50  51
ATOM     51  O   UNL     1      18.769  29.807  22.728  1.00  0.00    -0.388 OA
ATOM     52  H   UNL     1      19.422  29.512  23.438  1.00  0.00     0.211 HD
ENDBRANCH  50  51
BRANCH  50  53
ATOM     53  C   UNL     1      19.366  31.648  24.095  1.00  0.00     0.154 C 
BRANCH  53  54
ATOM     54  N   UNL     1      19.742  31.006  25.277  1.00  0.00    -0.319 N 
ATOM     55  C   UNL     1      20.465  29.815  25.473  1.00  0.00     0.407 C 
ATOM     56  H   UNL     1      19.442  31.479  26.200  1.00  0.00     0.167 HD
ATOM     57  O   UNL     1      20.922  29.133  24.545  1.00  0.00    -0.225 OA
BRANCH  55  58
ATOM     58  O   UNL     1      20.716  29.328  26.766  1.00  0.00    -0.443 OA
BRANCH  58  59
ATOM     59  C   UNL     1      22.006  29.464  27.337  1.00  0.00     0.294 C 
BRANCH  59  60
ATOM     60  C   UNL     1      22.701  28.132  27.246  1.00  0.00     0.120 A 
ATOM     61  C   UNL     1      22.084  26.965  26.842  1.00  0.00     0.138 A 
ATOM     62  N   UNL     1      23.976  27.808  27.527  1.00  0.00    -0.132 NA
ATOM     63  N   UNL     1      23.006  25.968  26.892  1.00  0.00    -0.248 N 
ATOM     64  N   UNL     1      24.101  26.520  27.301  1.00  0.00    -0.067 NA
BRANCH  63  65
ATOM     65  C   UNL     1      22.686  24.592  26.548  1.00  0.00     0.181 C 
BRANCH  65  66
ATOM     66  C   UNL     1      22.562  24.592  25.044  1.00  0.00    -0.026 A 
ATOM     67  C   UNL     1      23.713  24.570  24.297  1.00  0.00     0.007 A 
ATOM     68  C   UNL     1      21.299  24.615  24.449  1.00  0.00     0.007 A 
ATOM     69  C   UNL     1      23.698  24.573  22.921  1.00  0.00     0.020 A 
ATOM     70  C   UNL     1      21.283  24.617  23.077  1.00  0.00     0.020 A 
ATOM     71  C   UNL     1      22.424  24.597  22.342  1.00  0.00     0.052 A 
BRANCH  71  72
ATOM     72  C   UNL     1      22.380  24.620  20.885  1.00  0.00     0.099 C 
ATOM     73  N   UNL     1      22.360  24.653  19.721  1.00  0.00    -0.192 NA
ENDBRANCH  71  72
ENDBRANCH  65  66
ENDBRANCH  63  65
ENDBRANCH  59  60
ENDBRANCH  58  59
ENDBRANCH  55  58
ENDBRANCH  53  54
ENDBRANCH  50  53
ENDBRANCH  47  50
ENDBRANCH   5  47
BRANCH   4  74
ATOM     74  N   UNL     1      14.153  30.986  24.092  1.00  0.00    -0.348 N 
ATOM     75  C   UNL     1      13.188  32.014  24.255  1.00  0.00     0.217 C 
ATOM     76  H   UNL     1      14.493  30.489  24.930  1.00  0.00     0.163 HD
ATOM     77  C   UNL     1      12.667  32.385  25.583  1.00  0.00     0.114 C 
ATOM     78  O   UNL     1      12.737  32.656  23.248  1.00  0.00    -0.275 OA
ENDBRANCH   4  74
TORSDOF 32
