REMARK VINA RESULT:    -5.808      3.545      9.833
REMARK INTER + INTRA:         -22.396
REMARK INTER:                 -13.791
REMARK INTRA:                  -8.605
REMARK UNBOUND:                -7.759
REMARK SMILES CC(=O)N[C@@H]1[C@@H](O)C[C@](OC[C@H]2O[C@@H](O[C@H]3[C@H](O)[C@@H](O)[C@H](OCCN=[N+]=[N-])O[C@@H]3CO)[C@H](O)[C@@H](O)[C@H]2O)(C(=O)O)O[C@H]1C(O)[C@H](O)CNC(=O)OCc1cn(-c2cc(Cl)ccc2C(=O)N(C)C)nn1
REMARK SMILES IDX 9 1 8 2 6 3 5 4 42 5 41 6 10 7 11 8 12 9 14 10 13 11 32 12
REMARK SMILES IDX 34 13 36 14 15 15 16 16 29 17 28 18 21 19 17 20 19 21 30 22
REMARK SMILES IDX 31 23 22 25 23 26 24 27 25 28 26 29 27 30 18 31 20 33 33 35
REMARK SMILES IDX 35 37 37 39 38 41 39 42 40 43 7 45 43 47 44 48 45 50 46 51
REMARK SMILES IDX 47 53 48 54 49 55 50 57 51 58 52 59 53 60 54 61 69 62 55 63
REMARK SMILES IDX 68 64 56 65 57 66 62 67 58 68 61 69 59 70 60 71 63 72 64 73
REMARK SMILES IDX 65 74 66 75 67 76 4 77 2 78 1 80 3 81
REMARK H PARENT 31 24 18 32 20 34 33 36 35 38 37 40 40 44 7 46 44 49 46 52
REMARK H PARENT 48 56 4 79
REMARK Flexibility Score: inf
ROOT
ATOM      1  C   UNL     1      23.343  25.344  22.290  1.00  0.00     0.272 C 
ATOM      2  C   UNL     1      22.657  24.217  22.965  1.00  0.00     0.113 C 
ATOM      3  C   UNL     1      21.359  24.686  23.572  1.00  0.00     0.145 C 
ATOM      4  C   UNL     1      21.711  25.771  24.561  1.00  0.00     0.142 C 
ATOM      5  C   UNL     1      22.486  26.850  23.930  1.00  0.00     0.178 C 
ATOM      6  O   UNL     1      23.214  26.592  22.813  1.00  0.00    -0.332 OA
ENDROOT
BRANCH   1   7
ATOM      7  O   UNL     1      22.993  25.431  20.953  1.00  0.00    -0.338 OA
BRANCH   7   8
ATOM      8  C   UNL     1      22.884  24.293  20.233  1.00  0.00     0.199 C 
BRANCH   8   9
ATOM      9  C   UNL     1      22.936  24.626  18.734  1.00  0.00     0.179 C 
ATOM     10  C   UNL     1      22.929  26.541  17.449  1.00  0.00     0.282 C 
ATOM     11  O   UNL     1      22.308  25.821  18.536  1.00  0.00    -0.341 OA
ATOM     12  C   UNL     1      23.158  25.540  16.340  1.00  0.00     0.202 C 
ATOM     13  C   UNL     1      24.245  24.551  16.707  1.00  0.00     0.179 C 
ATOM     14  C   UNL     1      24.301  24.438  18.221  1.00  0.00     0.177 C 
BRANCH  10  15
ATOM     15  O   UNL     1      24.016  27.106  17.965  1.00  0.00    -0.341 OA
BRANCH  15  16
ATOM     16  C   UNL     1      24.011  28.390  18.480  1.00  0.00     0.184 C 
ATOM     17  C   UNL     1      25.347  28.976  18.160  1.00  0.00     0.178 C 
ATOM     18  O   UNL     1      25.436  30.284  18.669  1.00  0.00    -0.341 OA
ATOM     19  C   UNL     1      25.637  30.028  20.069  1.00  0.00     0.281 C 
ATOM     20  C   UNL     1      23.790  28.360  19.971  1.00  0.00     0.180 C 
ATOM     21  C   UNL     1      24.344  29.580  20.642  1.00  0.00     0.202 C 
BRANCH  17  22
ATOM     22  C   UNL     1      25.599  28.992  16.667  1.00  0.00     0.191 C 
BRANCH  22  23
ATOM     23  O   UNL     1      26.172  27.792  16.305  1.00  0.00    -0.394 OA
ATOM     24  H   UNL     1      26.775  27.474  17.022  1.00  0.00     0.210 HD
ENDBRANCH  22  23
ENDBRANCH  17  22
BRANCH  19  25
ATOM     25  O   UNL     1      26.139  31.140  20.623  1.00  0.00    -0.350 OA
BRANCH  25  26
ATOM     26  C   UNL     1      27.211  31.711  19.959  1.00  0.00     0.169 C 
BRANCH  26  27
ATOM     27  C   UNL     1      27.393  33.186  20.254  1.00  0.00     0.119 C 
BRANCH  27  28
ATOM     28  N   UNL     1      27.715  33.397  21.649  1.00  0.00    -0.092 NA
ATOM     29  N   UNL     1      26.924  33.966  22.393  1.00  0.00     0.001 N 
ATOM     30  N   UNL     1      25.966  34.478  23.009  1.00  0.00    -0.003 NA
ENDBRANCH  27  28
ENDBRANCH  26  27
ENDBRANCH  25  26
ENDBRANCH  19  25
BRANCH  20  31
ATOM     31  O   UNL     1      22.429  28.305  20.288  1.00  0.00    -0.387 OA
ATOM     32  H   UNL     1      22.001  27.508  19.857  1.00  0.00     0.211 HD
ENDBRANCH  20  31
BRANCH  21  33
ATOM     33  O   UNL     1      24.497  29.314  22.001  1.00  0.00    -0.385 OA
ATOM     34  H   UNL     1      24.954  28.466  22.186  1.00  0.00     0.211 HD
ENDBRANCH  21  33
ENDBRANCH  15  16
ENDBRANCH  10  15
BRANCH  12  35
ATOM     35  O   UNL     1      21.963  24.803  16.219  1.00  0.00    -0.385 OA
ATOM     36  H   UNL     1      21.281  25.101  16.902  1.00  0.00     0.211 HD
ENDBRANCH  12  35
BRANCH  13  37
ATOM     37  O   UNL     1      25.492  24.875  16.245  1.00  0.00    -0.387 OA
ATOM     38  H   UNL     1      25.587  25.823  15.986  1.00  0.00     0.211 HD
ENDBRANCH  13  37
BRANCH  14  39
ATOM     39  O   UNL     1      25.319  25.135  18.806  1.00  0.00    -0.387 OA
ATOM     40  H   UNL     1      25.561  24.841  19.712  1.00  0.00     0.211 HD
ENDBRANCH  14  39
ENDBRANCH   8   9
ENDBRANCH   7   8
ENDBRANCH   1   7
BRANCH   1  41
ATOM     41  C   UNL     1      24.848  25.018  22.244  1.00  0.00     0.364 C 
ATOM     42  O   UNL     1      25.571  25.863  21.669  1.00  0.00    -0.246 OA
BRANCH  41  43
ATOM     43  O   UNL     1      25.391  23.893  22.782  1.00  0.00    -0.477 OA
ATOM     44  H   UNL     1      26.302  23.817  23.175  1.00  0.00     0.296 HD
ENDBRANCH  41  43
ENDBRANCH   1  41
BRANCH   3  45
ATOM     45  O   UNL     1      20.491  25.059  22.586  1.00  0.00    -0.391 OA
ATOM     46  H   UNL     1      20.618  24.692  21.706  1.00  0.00     0.211 HD
ENDBRANCH   3  45
BRANCH   5  47
ATOM     47  C   UNL     1      21.710  28.129  23.642  1.00  0.00     0.176 C 
BRANCH  47  48
ATOM     48  O   UNL     1      20.873  28.062  22.564  1.00  0.00    -0.388 OA
ATOM     49  H   UNL     1      20.477  28.930  22.285  1.00  0.00     0.211 HD
ENDBRANCH  47  48
BRANCH  47  50
ATOM     50  C   UNL     1      21.021  28.744  24.804  1.00  0.00     0.165 C 
BRANCH  50  51
ATOM     51  O   UNL     1      19.660  29.025  24.538  1.00  0.00    -0.388 OA
ATOM     52  H   UNL     1      19.180  29.275  25.363  1.00  0.00     0.211 HD
ENDBRANCH  50  51
BRANCH  50  53
ATOM     53  C   UNL     1      21.630  30.156  24.962  1.00  0.00     0.154 C 
BRANCH  53  54
ATOM     54  N   UNL     1      20.872  31.111  24.204  1.00  0.00    -0.319 N 
ATOM     55  C   UNL     1      21.447  31.822  23.132  1.00  0.00     0.407 C 
ATOM     56  H   UNL     1      19.852  31.314  24.426  1.00  0.00     0.167 HD
ATOM     57  O   UNL     1      22.636  31.626  22.792  1.00  0.00    -0.225 OA
BRANCH  55  58
ATOM     58  O   UNL     1      20.709  32.772  22.415  1.00  0.00    -0.443 OA
BRANCH  58  59
ATOM     59  C   UNL     1      20.021  32.441  21.241  1.00  0.00     0.294 C 
BRANCH  59  60
ATOM     60  C   UNL     1      19.029  31.351  21.489  1.00  0.00     0.121 A 
ATOM     61  C   UNL     1      17.631  31.530  21.444  1.00  0.00     0.144 A 
ATOM     62  N   UNL     1      19.211  30.072  21.779  1.00  0.00    -0.131 NA
ATOM     63  N   UNL     1      17.045  30.369  21.705  1.00  0.00    -0.219 N 
ATOM     64  N   UNL     1      18.042  29.497  21.906  1.00  0.00    -0.062 NA
BRANCH  63  65
ATOM     65  C   UNL     1      15.687  29.982  21.784  1.00  0.00     0.081 A 
ATOM     66  C   UNL     1      14.892  30.482  22.822  1.00  0.00     0.049 A 
ATOM     67  C   UNL     1      15.071  29.113  20.929  1.00  0.00     0.065 A 
ATOM     68  C   UNL     1      13.593  30.117  22.963  1.00  0.00     0.043 A 
ATOM     69  C   UNL     1      13.724  28.732  21.075  1.00  0.00     0.017 A 
ATOM     70  Cl  UNL     1      12.652  30.783  24.290  1.00  0.00    -0.084 Cl
ATOM     71  C   UNL     1      12.978  29.244  22.107  1.00  0.00     0.021 A 
BRANCH  67  72
ATOM     72  C   UNL     1      15.768  28.552  19.768  1.00  0.00     0.255 C 
ATOM     73  O   UNL     1      16.333  27.446  19.887  1.00  0.00    -0.269 OA
ATOM     74  N   UNL     1      15.793  29.247  18.556  1.00  0.00    -0.345 N 
ATOM     75  C   UNL     1      15.128  30.542  18.431  1.00  0.00     0.146 C 
ATOM     76  C   UNL     1      16.472  28.707  17.380  1.00  0.00     0.146 C 
ENDBRANCH  67  72
ENDBRANCH  63  65
ENDBRANCH  59  60
ENDBRANCH  58  59
ENDBRANCH  55  58
ENDBRANCH  53  54
ENDBRANCH  50  53
ENDBRANCH  47  50
ENDBRANCH   5  47
BRANCH   4  77
ATOM     77  N   UNL     1      22.426  25.111  25.657  1.00  0.00    -0.348 N 
ATOM     78  C   UNL     1      22.324  25.542  26.997  1.00  0.00     0.217 C 
ATOM     79  H   UNL     1      23.038  24.297  25.455  1.00  0.00     0.163 HD
ATOM     80  C   UNL     1      23.046  24.880  28.111  1.00  0.00     0.114 C 
ATOM     81  O   UNL     1      21.589  26.529  27.261  1.00  0.00    -0.275 OA
ENDBRANCH   4  77
TORSDOF 31
