REMARK VINA RESULT:    -6.162      7.247     12.612
REMARK INTER + INTRA:         -22.556
REMARK INTER:                 -16.676
REMARK INTRA:                  -5.880
REMARK UNBOUND:                -7.387
REMARK SMILES CC(=O)N[C@@H]1[C@@H](O)C[C@](OC[C@H]2O[C@@H](O[C@H]3[C@H](O)[C@@H](O)[C@H](OCCN=[N+]=[N-])O[C@@H]3CO)[C@H](O)[C@@H](O)[C@H]2O)(C(=O)O)O[C@H]1C(O)[C@H](O)CNC(=O)OCc1cn(C23CC4CC(CC(C4)C2)C3)nn1
REMARK SMILES IDX 9 1 8 2 6 3 5 4 42 5 41 6 10 7 11 8 12 9 14 10 13 11 32 12
REMARK SMILES IDX 34 13 36 14 15 15 16 16 29 17 28 18 21 19 17 20 19 21 30 22
REMARK SMILES IDX 31 23 22 25 23 26 24 27 25 28 26 29 27 30 18 31 20 33 33 35
REMARK SMILES IDX 35 37 37 39 38 41 39 42 40 43 7 45 43 47 44 48 45 50 46 51
REMARK SMILES IDX 47 53 48 54 49 55 50 57 51 58 52 59 53 60 54 61 67 62 55 63
REMARK SMILES IDX 66 64 56 65 65 66 64 67 57 68 60 69 62 70 58 71 59 72 61 73
REMARK SMILES IDX 63 74 4 75 2 76 1 78 3 79
REMARK H PARENT 31 24 18 32 20 34 33 36 35 38 37 40 40 44 7 46 44 49 46 52
REMARK H PARENT 48 56 4 77
REMARK Flexibility Score: inf
ROOT
ATOM      1  C   UNL     1      14.447  30.923  22.347  1.00  0.00     0.272 C 
ATOM      2  C   UNL     1      15.350  31.191  23.501  1.00  0.00     0.113 C 
ATOM      3  C   UNL     1      15.047  30.249  24.649  1.00  0.00     0.145 C 
ATOM      4  C   UNL     1      13.724  30.757  25.241  1.00  0.00     0.142 C 
ATOM      5  C   UNL     1      12.828  30.999  24.064  1.00  0.00     0.178 C 
ATOM      6  O   UNL     1      13.217  30.404  22.890  1.00  0.00    -0.332 OA
ENDROOT
BRANCH   1   7
ATOM      7  O   UNL     1      14.822  30.004  21.468  1.00  0.00    -0.338 OA
BRANCH   7   8
ATOM      8  C   UNL     1      14.115  29.305  20.618  1.00  0.00     0.199 C 
BRANCH   8   9
ATOM      9  C   UNL     1      14.531  29.033  19.210  1.00  0.00     0.179 C 
ATOM     10  C   UNL     1      15.208  29.903  17.252  1.00  0.00     0.282 C 
ATOM     11  O   UNL     1      14.847  30.282  18.562  1.00  0.00    -0.341 OA
ATOM     12  C   UNL     1      16.677  29.635  17.303  1.00  0.00     0.202 C 
ATOM     13  C   UNL     1      16.973  28.976  18.637  1.00  0.00     0.179 C 
ATOM     14  C   UNL     1      15.793  28.179  19.139  1.00  0.00     0.177 C 
BRANCH  10  15
ATOM     15  O   UNL     1      14.826  30.871  16.331  1.00  0.00    -0.341 OA
BRANCH  15  16
ATOM     16  C   UNL     1      13.672  30.486  15.716  1.00  0.00     0.184 C 
ATOM     17  C   UNL     1      12.391  30.833  16.384  1.00  0.00     0.178 C 
ATOM     18  O   UNL     1      11.393  30.737  15.388  1.00  0.00    -0.341 OA
ATOM     19  C   UNL     1      11.156  29.385  15.045  1.00  0.00     0.281 C 
ATOM     20  C   UNL     1      13.612  28.971  15.499  1.00  0.00     0.180 C 
ATOM     21  C   UNL     1      12.414  28.681  14.664  1.00  0.00     0.202 C 
BRANCH  17  22
ATOM     22  C   UNL     1      12.334  32.136  17.088  1.00  0.00     0.191 C 
BRANCH  22  23
ATOM     23  O   UNL     1      12.623  31.901  18.441  1.00  0.00    -0.394 OA
ATOM     24  H   UNL     1      12.864  32.740  18.914  1.00  0.00     0.210 HD
ENDBRANCH  22  23
ENDBRANCH  17  22
BRANCH  19  25
ATOM     25  O   UNL     1      10.330  29.441  13.945  1.00  0.00    -0.350 OA
BRANCH  25  26
ATOM     26  C   UNL     1      10.820  30.038  12.843  1.00  0.00     0.169 C 
BRANCH  26  27
ATOM     27  C   UNL     1      10.500  29.295  11.585  1.00  0.00     0.119 C 
BRANCH  27  28
ATOM     28  N   UNL     1      10.576  27.847  11.813  1.00  0.00    -0.092 NA
ATOM     29  N   UNL     1       9.581  27.183  11.554  1.00  0.00     0.001 N 
ATOM     30  N   UNL     1       8.612  26.395  11.600  1.00  0.00    -0.003 NA
ENDBRANCH  27  28
ENDBRANCH  26  27
ENDBRANCH  25  26
ENDBRANCH  19  25
BRANCH  20  31
ATOM     31  O   UNL     1      14.746  28.509  14.831  1.00  0.00    -0.387 OA
ATOM     32  H   UNL     1      15.492  28.458  15.468  1.00  0.00     0.211 HD
ENDBRANCH  20  31
BRANCH  21  33
ATOM     33  O   UNL     1      12.200  27.305  14.721  1.00  0.00    -0.385 OA
ATOM     34  H   UNL     1      12.897  26.866  15.244  1.00  0.00     0.211 HD
ENDBRANCH  21  33
ENDBRANCH  15  16
ENDBRANCH  10  15
BRANCH  12  35
ATOM     35  O   UNL     1      17.187  28.919  16.249  1.00  0.00    -0.385 OA
ATOM     36  H   UNL     1      17.720  29.505  15.661  1.00  0.00     0.211 HD
ENDBRANCH  12  35
BRANCH  13  37
ATOM     37  O   UNL     1      17.419  29.881  19.591  1.00  0.00    -0.387 OA
ATOM     38  H   UNL     1      17.055  29.608  20.494  1.00  0.00     0.211 HD
ENDBRANCH  13  37
BRANCH  14  39
ATOM     39  O   UNL     1      16.085  27.751  20.426  1.00  0.00    -0.387 OA
ATOM     40  H   UNL     1      15.448  28.124  21.091  1.00  0.00     0.211 HD
ENDBRANCH  14  39
ENDBRANCH   8   9
ENDBRANCH   7   8
ENDBRANCH   1   7
BRANCH   1  41
ATOM     41  C   UNL     1      14.003  32.193  21.749  1.00  0.00     0.364 C 
ATOM     42  O   UNL     1      12.979  32.371  21.077  1.00  0.00    -0.246 OA
BRANCH  41  43
ATOM     43  O   UNL     1      14.867  33.303  21.986  1.00  0.00    -0.477 OA
ATOM     44  H   UNL     1      14.854  34.059  21.335  1.00  0.00     0.296 HD
ENDBRANCH  41  43
ENDBRANCH   1  41
BRANCH   3  45
ATOM     45  O   UNL     1      14.811  28.975  24.150  1.00  0.00    -0.391 OA
ATOM     46  H   UNL     1      14.119  29.059  23.446  1.00  0.00     0.211 HD
ENDBRANCH   3  45
BRANCH   5  47
ATOM     47  C   UNL     1      11.398  30.387  24.320  1.00  0.00     0.176 C 
BRANCH  47  48
ATOM     48  O   UNL     1      11.570  29.091  23.788  1.00  0.00    -0.388 OA
ATOM     49  H   UNL     1      12.321  28.700  24.298  1.00  0.00     0.211 HD
ENDBRANCH  47  48
BRANCH  47  50
ATOM     50  C   UNL     1      10.391  31.115  23.550  1.00  0.00     0.165 C 
BRANCH  50  51
ATOM     51  O   UNL     1      10.847  32.274  22.897  1.00  0.00    -0.388 OA
ATOM     52  H   UNL     1      11.812  32.148  22.651  1.00  0.00     0.211 HD
ENDBRANCH  50  51
BRANCH  50  53
ATOM     53  C   UNL     1       9.100  31.418  24.208  1.00  0.00     0.154 C 
BRANCH  53  54
ATOM     54  N   UNL     1       7.965  30.819  23.608  1.00  0.00    -0.319 N 
ATOM     55  C   UNL     1       7.403  29.564  23.880  1.00  0.00     0.407 C 
ATOM     56  H   UNL     1       7.476  31.423  22.835  1.00  0.00     0.167 HD
ATOM     57  O   UNL     1       7.905  28.806  24.725  1.00  0.00    -0.225 OA
BRANCH  55  58
ATOM     58  O   UNL     1       6.243  29.174  23.167  1.00  0.00    -0.443 OA
BRANCH  58  59
ATOM     59  C   UNL     1       5.513  30.175  22.503  1.00  0.00     0.294 C 
BRANCH  59  60
ATOM     60  C   UNL     1       5.456  29.873  21.065  1.00  0.00     0.120 A 
ATOM     61  C   UNL     1       5.807  30.734  20.057  1.00  0.00     0.138 A 
ATOM     62  N   UNL     1       5.063  28.733  20.467  1.00  0.00    -0.132 NA
ATOM     63  N   UNL     1       5.619  30.097  18.899  1.00  0.00    -0.246 N 
ATOM     64  N   UNL     1       5.169  28.890  19.177  1.00  0.00    -0.066 NA
BRANCH  63  65
ATOM     65  C   UNL     1       5.887  30.698  17.607  1.00  0.00     0.065 C 
ATOM     66  C   UNL     1       7.360  30.927  17.481  1.00  0.00     0.034 C 
ATOM     67  C   UNL     1       5.321  29.829  16.502  1.00  0.00     0.034 C 
ATOM     68  C   UNL     1       5.191  32.044  17.515  1.00  0.00     0.034 C 
ATOM     69  C   UNL     1       7.690  31.521  16.135  1.00  0.00    -0.008 C 
ATOM     70  C   UNL     1       5.716  30.403  15.173  1.00  0.00    -0.008 C 
ATOM     71  C   UNL     1       5.499  32.622  16.154  1.00  0.00    -0.008 C 
ATOM     72  C   UNL     1       6.977  32.844  15.998  1.00  0.00     0.007 C 
ATOM     73  C   UNL     1       7.202  30.560  15.075  1.00  0.00     0.007 C 
ATOM     74  C   UNL     1       5.024  31.750  15.026  1.00  0.00     0.007 C 
ENDBRANCH  63  65
ENDBRANCH  59  60
ENDBRANCH  58  59
ENDBRANCH  55  58
ENDBRANCH  53  54
ENDBRANCH  50  53
ENDBRANCH  47  50
ENDBRANCH   5  47
BRANCH   4  75
ATOM     75  N   UNL     1      14.000  32.020  25.933  1.00  0.00    -0.348 N 
ATOM     76  C   UNL     1      13.945  32.112  27.351  1.00  0.00     0.217 C 
ATOM     77  H   UNL     1      14.241  32.882  25.381  1.00  0.00     0.163 HD
ATOM     78  C   UNL     1      14.225  33.422  28.043  1.00  0.00     0.114 C 
ATOM     79  O   UNL     1      13.659  31.082  28.000  1.00  0.00    -0.275 OA
ENDBRANCH   4  75
TORSDOF 30
