REMARK VINA RESULT:    -6.485     10.690     15.230
REMARK INTER + INTRA:         -22.053
REMARK INTER:                 -13.397
REMARK INTRA:                  -8.656
REMARK UNBOUND:                -5.144
REMARK SMILES CC(=O)N[C@@H]1[C@@H](O)C[C@](OC[C@H]2O[C@@H](O[C@H]3[C@H](O)[C@@H](O)[C@H](OCCN=[N+]=[N-])O[C@@H]3CO)[C@H](O)[C@@H](O)[C@H]2O)(C(=O)O)O[C@H]1C(O)[C@H](O)CNC(=O)OCc1cn(-c2cccc(C=CC(=O)O)c2)nn1
REMARK SMILES IDX 43 1 42 2 9 3 8 4 41 5 6 6 5 7 10 8 11 9 12 10 14 11 13 12
REMARK SMILES IDX 32 13 34 14 36 15 15 16 16 17 29 18 28 19 21 20 17 21 19 22
REMARK SMILES IDX 30 23 31 24 22 26 23 27 24 28 25 29 26 30 27 31 18 32 20 34
REMARK SMILES IDX 33 36 35 38 37 40 38 42 39 43 40 44 7 46 4 48 2 49 1 51 3 52
REMARK SMILES IDX 44 53 45 55 46 56 47 58 48 59 49 60 50 62 51 63 52 64 53 65
REMARK SMILES IDX 54 66 68 67 55 68 67 69 56 70 66 71 57 72 60 73 58 74 59 75
REMARK SMILES IDX 61 76 62 77 63 78 64 79 65 80
REMARK H PARENT 31 25 18 33 20 35 33 37 35 39 37 41 40 45 7 47 4 50 44 54
REMARK H PARENT 46 57 48 61 65 81
REMARK Flexibility Score: inf
ROOT
ATOM      1  C   UNL     1      23.516  19.687  13.401  1.00  0.00     0.176 C 
ENDROOT
BRANCH   1   2
ATOM      2  C   UNL     1      22.480  20.514  12.667  1.00  0.00     0.178 C 
ATOM      3  C   UNL     1      20.531  20.133  11.395  1.00  0.00     0.272 C 
ATOM      4  C   UNL     1      20.721  21.726  11.382  1.00  0.00     0.113 C 
ATOM      5  O   UNL     1      21.637  19.632  12.049  1.00  0.00    -0.332 OA
ATOM      6  C   UNL     1      22.047  21.955  10.750  1.00  0.00     0.145 C 
ATOM      7  C   UNL     1      23.138  21.399  11.645  1.00  0.00     0.142 C 
BRANCH   3   8
ATOM      8  O   UNL     1      20.605  19.830  10.094  1.00  0.00    -0.338 OA
BRANCH   8   9
ATOM      9  C   UNL     1      19.849  18.967   9.438  1.00  0.00     0.199 C 
BRANCH   9  10
ATOM     10  C   UNL     1      20.472  18.097   8.367  1.00  0.00     0.179 C 
ATOM     11  C   UNL     1      22.719  18.015   7.634  1.00  0.00     0.282 C 
ATOM     12  O   UNL     1      21.567  18.725   7.904  1.00  0.00    -0.341 OA
ATOM     13  C   UNL     1      22.377  16.650   7.186  1.00  0.00     0.202 C 
ATOM     14  C   UNL     1      21.518  15.858   8.124  1.00  0.00     0.179 C 
ATOM     15  C   UNL     1      20.844  16.805   9.081  1.00  0.00     0.177 C 
BRANCH  11  16
ATOM     16  O   UNL     1      23.526  18.149   8.743  1.00  0.00    -0.341 OA
BRANCH  16  17
ATOM     17  C   UNL     1      24.837  18.377   8.505  1.00  0.00     0.184 C 
ATOM     18  C   UNL     1      25.709  17.500   9.350  1.00  0.00     0.178 C 
ATOM     19  O   UNL     1      26.986  17.558   8.741  1.00  0.00    -0.341 OA
ATOM     20  C   UNL     1      27.566  18.804   8.989  1.00  0.00     0.281 C 
ATOM     21  C   UNL     1      25.262  19.806   8.854  1.00  0.00     0.180 C 
ATOM     22  C   UNL     1      26.731  19.947   8.513  1.00  0.00     0.202 C 
BRANCH  18  23
ATOM     23  C   UNL     1      25.278  16.081   9.446  1.00  0.00     0.191 C 
BRANCH  23  24
ATOM     24  O   UNL     1      25.248  15.525   8.169  1.00  0.00    -0.394 OA
ATOM     25  H   UNL     1      26.154  15.603   7.736  1.00  0.00     0.210 HD
ENDBRANCH  23  24
ENDBRANCH  18  23
BRANCH  20  26
ATOM     26  O   UNL     1      28.788  18.833   8.324  1.00  0.00    -0.350 OA
BRANCH  26  27
ATOM     27  C   UNL     1      29.843  19.123   9.185  1.00  0.00     0.169 C 
BRANCH  27  28
ATOM     28  C   UNL     1      30.671  20.221   8.555  1.00  0.00     0.119 C 
BRANCH  28  29
ATOM     29  N   UNL     1      30.187  21.504   9.006  1.00  0.00    -0.092 NA
ATOM     30  N   UNL     1      30.399  21.883  10.171  1.00  0.00     0.001 N 
ATOM     31  N   UNL     1      30.241  22.096  11.383  1.00  0.00    -0.003 NA
ENDBRANCH  28  29
ENDBRANCH  27  28
ENDBRANCH  26  27
ENDBRANCH  20  26
BRANCH  21  32
ATOM     32  O   UNL     1      24.580  20.757   8.106  1.00  0.00    -0.387 OA
ATOM     33  H   UNL     1      23.842  20.266   7.665  1.00  0.00     0.211 HD
ENDBRANCH  21  32
BRANCH  22  34
ATOM     34  O   UNL     1      27.175  21.099   9.201  1.00  0.00    -0.385 OA
ATOM     35  H   UNL     1      27.040  21.025  10.172  1.00  0.00     0.211 HD
ENDBRANCH  22  34
ENDBRANCH  16  17
ENDBRANCH  11  16
BRANCH  13  36
ATOM     36  O   UNL     1      21.669  16.731   5.951  1.00  0.00    -0.385 OA
ATOM     37  H   UNL     1      21.243  17.631   5.877  1.00  0.00     0.211 HD
ENDBRANCH  13  36
BRANCH  14  38
ATOM     38  O   UNL     1      22.204  14.844   8.798  1.00  0.00    -0.387 OA
ATOM     39  H   UNL     1      22.451  14.099   8.193  1.00  0.00     0.211 HD
ENDBRANCH  14  38
BRANCH  15  40
ATOM     40  O   UNL     1      21.690  17.055  10.143  1.00  0.00    -0.387 OA
ATOM     41  H   UNL     1      21.510  17.950  10.569  1.00  0.00     0.211 HD
ENDBRANCH  15  40
ENDBRANCH   9  10
ENDBRANCH   8   9
ENDBRANCH   3   8
BRANCH   3  42
ATOM     42  C   UNL     1      19.318  19.905  12.163  1.00  0.00     0.364 C 
ATOM     43  O   UNL     1      18.196  20.423  12.023  1.00  0.00    -0.246 OA
BRANCH  42  44
ATOM     44  O   UNL     1      19.391  18.969  13.224  1.00  0.00    -0.477 OA
ATOM     45  H   UNL     1      20.329  18.732  13.582  1.00  0.00     0.296 HD
ENDBRANCH  42  44
ENDBRANCH   3  42
BRANCH   6  46
ATOM     46  O   UNL     1      22.037  21.196   9.532  1.00  0.00    -0.391 OA
ATOM     47  H   UNL     1      21.949  20.227   9.749  1.00  0.00     0.211 HD
ENDBRANCH   6  46
BRANCH   7  48
ATOM     48  N   UNL     1      24.059  22.353  12.147  1.00  0.00    -0.348 N 
ATOM     49  C   UNL     1      25.026  23.080  11.447  1.00  0.00     0.217 C 
ATOM     50  H   UNL     1      24.053  22.545  13.215  1.00  0.00     0.163 HD
ATOM     51  C   UNL     1      25.919  24.040  12.212  1.00  0.00     0.114 C 
ATOM     52  O   UNL     1      25.217  22.998  10.204  1.00  0.00    -0.275 OA
ENDBRANCH   7  48
ENDBRANCH   1   2
BRANCH   1  53
ATOM     53  O   UNL     1      22.908  19.008  14.442  1.00  0.00    -0.388 OA
ATOM     54  H   UNL     1      23.276  18.126  14.629  1.00  0.00     0.211 HD
ENDBRANCH   1  53
BRANCH   1  55
ATOM     55  C   UNL     1      24.132  18.617  12.499  1.00  0.00     0.165 C 
BRANCH  55  56
ATOM     56  O   UNL     1      23.399  17.465  12.430  1.00  0.00    -0.388 OA
ATOM     57  H   UNL     1      22.432  17.580  12.582  1.00  0.00     0.211 HD
ENDBRANCH  55  56
BRANCH  55  58
ATOM     58  C   UNL     1      25.557  18.353  12.869  1.00  0.00     0.154 C 
BRANCH  58  59
ATOM     59  N   UNL     1      26.079  19.349  13.734  1.00  0.00    -0.319 N 
ATOM     60  C   UNL     1      26.907  20.400  13.279  1.00  0.00     0.407 C 
ATOM     61  H   UNL     1      25.862  19.336  14.767  1.00  0.00     0.167 HD
ATOM     62  O   UNL     1      27.225  20.497  12.062  1.00  0.00    -0.225 OA
BRANCH  60  63
ATOM     63  O   UNL     1      27.412  21.377  14.133  1.00  0.00    -0.443 OA
BRANCH  63  64
ATOM     64  C   UNL     1      28.762  21.200  14.579  1.00  0.00     0.294 C 
BRANCH  64  65
ATOM     65  C   UNL     1      28.706  20.415  15.825  1.00  0.00     0.121 A 
ATOM     66  C   UNL     1      28.700  20.891  17.134  1.00  0.00     0.144 A 
ATOM     67  N   UNL     1      28.641  19.077  15.917  1.00  0.00    -0.131 NA
ATOM     68  N   UNL     1      28.629  19.825  17.963  1.00  0.00    -0.220 N 
ATOM     69  N   UNL     1      28.596  18.750  17.202  1.00  0.00    -0.062 NA
BRANCH  68  70
ATOM     70  C   UNL     1      28.590  19.930  19.377  1.00  0.00     0.067 A 
ATOM     71  C   UNL     1      28.210  21.134  19.971  1.00  0.00     0.036 A 
ATOM     72  C   UNL     1      28.915  18.884  20.174  1.00  0.00     0.028 A 
ATOM     73  C   UNL     1      28.156  21.284  21.321  1.00  0.00    -0.023 A 
ATOM     74  C   UNL     1      28.874  18.990  21.561  1.00  0.00     0.003 A 
ATOM     75  C   UNL     1      28.493  20.196  22.104  1.00  0.00     0.008 A 
BRANCH  73  76
ATOM     76  C   UNL     1      27.765  22.532  21.940  1.00  0.00     0.015 C 
ATOM     77  C   UNL     1      26.748  23.223  21.491  1.00  0.00     0.094 C 
BRANCH  77  78
ATOM     78  C   UNL     1      26.388  24.481  22.148  1.00  0.00     0.328 C 
ATOM     79  O   UNL     1      26.726  25.574  21.680  1.00  0.00    -0.247 OA
BRANCH  78  80
ATOM     80  O   UNL     1      25.648  24.470  23.328  1.00  0.00    -0.478 OA
ATOM     81  H   UNL     1      25.372  23.558  23.698  1.00  0.00     0.297 HD
ENDBRANCH  78  80
ENDBRANCH  77  78
ENDBRANCH  73  76
ENDBRANCH  68  70
ENDBRANCH  64  65
ENDBRANCH  63  64
ENDBRANCH  60  63
ENDBRANCH  58  59
ENDBRANCH  55  58
ENDBRANCH   1  55
TORSDOF 33
