REMARK VINA RESULT:    -5.596      2.743      6.058
REMARK INTER + INTRA:         -20.532
REMARK INTER:                 -14.546
REMARK INTRA:                  -5.986
REMARK UNBOUND:                -6.268
REMARK SMILES CC(=O)N[C@@H]1[C@@H](O)C[C@](OC[C@H]2O[C@@H](O[C@H]3[C@H](O)[C@@H](O)[C@H](OCCN=[N+]=[N-])O[C@@H]3CO)[C@H](O)[C@@H](O)[C@H]2O)(C(=O)O)O[C@H]1C(O)[C@H](O)CNC(=O)OCc1cn(C(C)(C)CO)nn1
REMARK SMILES IDX 9 1 8 2 6 3 5 4 42 5 41 6 10 7 11 8 12 9 14 10 13 11 32 12
REMARK SMILES IDX 34 13 36 14 15 15 16 16 29 17 28 18 21 19 17 20 19 21 30 22
REMARK SMILES IDX 31 23 22 25 23 26 24 27 25 28 26 29 27 30 18 31 20 33 33 35
REMARK SMILES IDX 35 37 37 39 38 41 39 42 40 43 7 45 43 47 44 48 45 50 46 51
REMARK SMILES IDX 47 53 48 54 49 55 50 57 51 58 52 59 53 60 54 61 62 62 55 63
REMARK SMILES IDX 61 64 56 65 57 66 58 67 59 68 60 69 4 71 2 72 1 74 3 75
REMARK H PARENT 31 24 18 32 20 34 33 36 35 38 37 40 40 44 7 46 44 49 46 52
REMARK H PARENT 48 56 60 70 4 73
REMARK Flexibility Score: inf
ROOT
ATOM      1  C   UNL     1      18.310  28.969  20.109  1.00  0.00     0.272 C 
ATOM      2  C   UNL     1      18.928  30.330  19.931  1.00  0.00     0.113 C 
ATOM      3  C   UNL     1      18.746  31.089  21.223  1.00  0.00     0.145 C 
ATOM      4  C   UNL     1      17.234  31.407  21.292  1.00  0.00     0.142 C 
ATOM      5  C   UNL     1      16.515  30.101  21.141  1.00  0.00     0.178 C 
ATOM      6  O   UNL     1      17.362  29.012  21.200  1.00  0.00    -0.332 OA
ENDROOT
BRANCH   1   7
ATOM      7  O   UNL     1      19.179  28.012  20.521  1.00  0.00    -0.338 OA
BRANCH   7   8
ATOM      8  C   UNL     1      20.476  28.023  20.263  1.00  0.00     0.199 C 
BRANCH   8   9
ATOM      9  C   UNL     1      21.529  27.482  21.141  1.00  0.00     0.179 C 
ATOM     10  C   UNL     1      22.227  27.576  23.337  1.00  0.00     0.282 C 
ATOM     11  O   UNL     1      21.159  27.763  22.499  1.00  0.00    -0.341 OA
ATOM     12  C   UNL     1      23.327  26.714  22.829  1.00  0.00     0.202 C 
ATOM     13  C   UNL     1      22.871  25.610  21.901  1.00  0.00     0.179 C 
ATOM     14  C   UNL     1      21.624  25.961  21.155  1.00  0.00     0.177 C 
BRANCH  10  15
ATOM     15  O   UNL     1      21.728  27.170  24.578  1.00  0.00    -0.341 OA
BRANCH  15  16
ATOM     16  C   UNL     1      22.703  26.863  25.497  1.00  0.00     0.184 C 
ATOM     17  C   UNL     1      22.438  25.583  26.258  1.00  0.00     0.178 C 
ATOM     18  O   UNL     1      22.640  25.699  27.618  1.00  0.00    -0.341 OA
ATOM     19  C   UNL     1      21.843  26.600  28.268  1.00  0.00     0.281 C 
ATOM     20  C   UNL     1      22.703  28.020  26.513  1.00  0.00     0.180 C 
ATOM     21  C   UNL     1      21.477  27.759  27.368  1.00  0.00     0.202 C 
BRANCH  17  22
ATOM     22  C   UNL     1      23.465  24.578  25.751  1.00  0.00     0.191 C 
BRANCH  22  23
ATOM     23  O   UNL     1      24.152  24.027  26.833  1.00  0.00    -0.394 OA
ATOM     24  H   UNL     1      25.065  23.757  26.621  1.00  0.00     0.210 HD
ENDBRANCH  22  23
ENDBRANCH  17  22
BRANCH  19  25
ATOM     25  O   UNL     1      22.515  27.006  29.408  1.00  0.00    -0.350 OA
BRANCH  25  26
ATOM     26  C   UNL     1      23.055  26.013  30.163  1.00  0.00     0.169 C 
BRANCH  26  27
ATOM     27  C   UNL     1      24.309  26.420  30.922  1.00  0.00     0.119 C 
BRANCH  27  28
ATOM     28  N   UNL     1      25.475  25.722  30.416  1.00  0.00    -0.092 NA
ATOM     29  N   UNL     1      25.689  25.780  29.197  1.00  0.00     0.001 N 
ATOM     30  N   UNL     1      26.190  26.067  28.088  1.00  0.00    -0.003 NA
ENDBRANCH  27  28
ENDBRANCH  26  27
ENDBRANCH  25  26
ENDBRANCH  19  25
BRANCH  20  31
ATOM     31  O   UNL     1      23.890  27.874  27.236  1.00  0.00    -0.387 OA
ATOM     32  H   UNL     1      23.889  28.615  27.899  1.00  0.00     0.211 HD
ENDBRANCH  20  31
BRANCH  21  33
ATOM     33  O   UNL     1      20.463  27.306  26.507  1.00  0.00    -0.385 OA
ATOM     34  H   UNL     1      20.425  26.303  26.520  1.00  0.00     0.211 HD
ENDBRANCH  21  33
ENDBRANCH  15  16
ENDBRANCH  10  15
BRANCH  12  35
ATOM     35  O   UNL     1      24.408  27.414  22.291  1.00  0.00    -0.385 OA
ATOM     36  H   UNL     1      25.213  26.907  22.518  1.00  0.00     0.211 HD
ENDBRANCH  12  35
BRANCH  13  37
ATOM     37  O   UNL     1      22.720  24.398  22.597  1.00  0.00    -0.387 OA
ATOM     38  H   UNL     1      21.759  24.181  22.725  1.00  0.00     0.211 HD
ENDBRANCH  13  37
BRANCH  14  39
ATOM     39  O   UNL     1      20.542  25.499  21.939  1.00  0.00    -0.387 OA
ATOM     40  H   UNL     1      20.111  24.739  21.495  1.00  0.00     0.211 HD
ENDBRANCH  14  39
ENDBRANCH   8   9
ENDBRANCH   7   8
ENDBRANCH   1   7
BRANCH   1  41
ATOM     41  C   UNL     1      17.472  28.572  18.978  1.00  0.00     0.364 C 
ATOM     42  O   UNL     1      16.786  27.547  18.987  1.00  0.00    -0.246 OA
BRANCH  41  43
ATOM     43  O   UNL     1      17.393  29.334  17.798  1.00  0.00    -0.477 OA
ATOM     44  H   UNL     1      16.816  30.167  17.827  1.00  0.00     0.296 HD
ENDBRANCH  41  43
ENDBRANCH   1  41
BRANCH   3  45
ATOM     45  O   UNL     1      18.965  30.192  22.270  1.00  0.00    -0.391 OA
ATOM     46  H   UNL     1      19.259  29.320  21.938  1.00  0.00     0.211 HD
ENDBRANCH   3  45
BRANCH   5  47
ATOM     47  C   UNL     1      15.644  29.955  22.403  1.00  0.00     0.176 C 
BRANCH  47  48
ATOM     48  O   UNL     1      16.364  29.183  23.347  1.00  0.00    -0.388 OA
ATOM     49  H   UNL     1      16.309  29.557  24.242  1.00  0.00     0.211 HD
ENDBRANCH  47  48
BRANCH  47  50
ATOM     50  C   UNL     1      14.392  29.136  22.135  1.00  0.00     0.165 C 
BRANCH  50  51
ATOM     51  O   UNL     1      14.502  28.320  21.058  1.00  0.00    -0.388 OA
ATOM     52  H   UNL     1      13.899  27.541  21.037  1.00  0.00     0.211 HD
ENDBRANCH  50  51
BRANCH  50  53
ATOM     53  C   UNL     1      13.193  30.054  22.005  1.00  0.00     0.154 C 
BRANCH  53  54
ATOM     54  N   UNL     1      13.035  30.698  20.753  1.00  0.00    -0.319 N 
ATOM     55  C   UNL     1      13.411  32.018  20.486  1.00  0.00     0.407 C 
ATOM     56  H   UNL     1      12.597  30.151  19.934  1.00  0.00     0.167 HD
ATOM     57  O   UNL     1      13.935  32.746  21.344  1.00  0.00    -0.225 OA
BRANCH  55  58
ATOM     58  O   UNL     1      13.209  32.598  19.210  1.00  0.00    -0.443 OA
BRANCH  58  59
ATOM     59  C   UNL     1      12.090  32.262  18.422  1.00  0.00     0.294 C 
BRANCH  59  60
ATOM     60  C   UNL     1      12.441  31.612  17.142  1.00  0.00     0.120 A 
ATOM     61  C   UNL     1      13.703  31.311  16.673  1.00  0.00     0.139 A 
ATOM     62  N   UNL     1      11.594  31.188  16.191  1.00  0.00    -0.132 NA
ATOM     63  N   UNL     1      13.593  30.716  15.459  1.00  0.00    -0.244 N 
ATOM     64  N   UNL     1      12.299  30.654  15.190  1.00  0.00    -0.066 NA
BRANCH  63  65
ATOM     65  C   UNL     1      14.691  30.251  14.650  1.00  0.00     0.082 C 
ATOM     66  C   UNL     1      15.841  31.208  14.759  1.00  0.00     0.039 C 
ATOM     67  C   UNL     1      14.278  30.218  13.171  1.00  0.00     0.039 C 
BRANCH  65  68
ATOM     68  C   UNL     1      15.163  28.870  15.003  1.00  0.00     0.186 C 
BRANCH  68  69
ATOM     69  O   UNL     1      14.766  27.905  14.106  1.00  0.00    -0.394 OA
ATOM     70  H   UNL     1      15.379  27.161  13.997  1.00  0.00     0.210 HD
ENDBRANCH  68  69
ENDBRANCH  65  68
ENDBRANCH  63  65
ENDBRANCH  59  60
ENDBRANCH  58  59
ENDBRANCH  55  58
ENDBRANCH  53  54
ENDBRANCH  50  53
ENDBRANCH  47  50
ENDBRANCH   5  47
BRANCH   4  71
ATOM     71  N   UNL     1      16.996  32.365  20.259  1.00  0.00    -0.348 N 
ATOM     72  C   UNL     1      17.063  33.772  20.389  1.00  0.00     0.217 C 
ATOM     73  H   UNL     1      16.738  32.030  19.283  1.00  0.00     0.163 HD
ATOM     74  C   UNL     1      16.795  34.691  19.251  1.00  0.00     0.114 C 
ATOM     75  O   UNL     1      17.354  34.267  21.491  1.00  0.00    -0.275 OA
ENDBRANCH   4  71
TORSDOF 32
