REMARK VINA RESULT:    -5.595      4.901     12.759
REMARK INTER + INTRA:         -21.191
REMARK INTER:                 -15.941
REMARK INTRA:                  -5.250
REMARK UNBOUND:                -7.419
REMARK SMILES CC(=O)N[C@@H]1[C@@H](O)C[C@](OC[C@H]2O[C@@H](O[C@H]3[C@H](O)[C@@H](O)[C@H](OCCN=[N+]=[N-])O[C@@H]3CO)[C@H](O)[C@@H](O)[C@H]2O)(C(=O)O)O[C@H]1C(O)[C@H](O)CNC(=O)OCc1cn(-c2ccc(C)cc2)nn1
REMARK SMILES IDX 9 1 8 2 6 3 5 4 42 5 41 6 10 7 11 8 12 9 14 10 13 11 32 12
REMARK SMILES IDX 34 13 36 14 15 15 16 16 29 17 28 18 21 19 17 20 19 21 30 22
REMARK SMILES IDX 31 23 22 25 23 26 24 27 25 28 26 29 27 30 18 31 20 33 33 35
REMARK SMILES IDX 35 37 37 39 38 41 39 42 40 43 7 45 43 47 44 48 45 50 46 51
REMARK SMILES IDX 47 53 48 54 49 55 50 57 51 58 52 59 53 60 54 61 64 62 55 63
REMARK SMILES IDX 63 64 56 65 57 66 62 67 58 68 61 69 59 70 60 71 4 72 2 73
REMARK SMILES IDX 1 75 3 76
REMARK H PARENT 31 24 18 32 20 34 33 36 35 38 37 40 40 44 7 46 44 49 46 52
REMARK H PARENT 48 56 4 74
REMARK Flexibility Score: inf
ROOT
ATOM      1  C   UNL     1      24.647  26.263  20.385  1.00  0.00     0.272 C 
ATOM      2  C   UNL     1      23.866  24.987  20.092  1.00  0.00     0.113 C 
ATOM      3  C   UNL     1      23.378  24.339  21.332  1.00  0.00     0.145 C 
ATOM      4  C   UNL     1      23.037  25.263  22.447  1.00  0.00     0.142 C 
ATOM      5  C   UNL     1      23.080  26.752  22.121  1.00  0.00     0.178 C 
ATOM      6  O   UNL     1      24.098  27.050  21.279  1.00  0.00    -0.332 OA
ENDROOT
BRANCH   1   7
ATOM      7  O   UNL     1      24.633  26.958  19.136  1.00  0.00    -0.338 OA
BRANCH   7   8
ATOM      8  C   UNL     1      23.651  26.380  18.328  1.00  0.00     0.199 C 
BRANCH   8   9
ATOM      9  C   UNL     1      23.728  26.841  16.922  1.00  0.00     0.179 C 
ATOM     10  C   UNL     1      23.244  26.294  14.749  1.00  0.00     0.282 C 
ATOM     11  O   UNL     1      22.986  26.005  16.085  1.00  0.00    -0.341 OA
ATOM     12  C   UNL     1      22.663  27.608  14.386  1.00  0.00     0.202 C 
ATOM     13  C   UNL     1      22.294  28.383  15.620  1.00  0.00     0.179 C 
ATOM     14  C   UNL     1      23.323  28.276  16.726  1.00  0.00     0.177 C 
BRANCH  10  15
ATOM     15  O   UNL     1      22.685  25.301  13.949  1.00  0.00    -0.341 OA
BRANCH  15  16
ATOM     16  C   UNL     1      23.650  24.685  13.150  1.00  0.00     0.184 C 
ATOM     17  C   UNL     1      23.136  24.186  11.829  1.00  0.00     0.178 C 
ATOM     18  O   UNL     1      23.258  22.794  11.755  1.00  0.00    -0.341 OA
ATOM     19  C   UNL     1      22.440  22.215  12.708  1.00  0.00     0.281 C 
ATOM     20  C   UNL     1      24.131  23.488  13.942  1.00  0.00     0.180 C 
ATOM     21  C   UNL     1      22.902  22.582  14.105  1.00  0.00     0.202 C 
BRANCH  17  22
ATOM     22  C   UNL     1      24.023  24.706  10.685  1.00  0.00     0.191 C 
BRANCH  22  23
ATOM     23  O   UNL     1      25.164  23.918  10.556  1.00  0.00    -0.394 OA
ATOM     24  H   UNL     1      25.913  24.537  10.306  1.00  0.00     0.210 HD
ENDBRANCH  22  23
ENDBRANCH  17  22
BRANCH  19  25
ATOM     25  O   UNL     1      22.362  20.837  12.581  1.00  0.00    -0.350 OA
BRANCH  25  26
ATOM     26  C   UNL     1      21.363  20.415  11.740  1.00  0.00     0.169 C 
BRANCH  26  27
ATOM     27  C   UNL     1      20.038  21.097  11.924  1.00  0.00     0.119 C 
BRANCH  27  28
ATOM     28  N   UNL     1      18.970  20.152  12.142  1.00  0.00    -0.092 NA
ATOM     29  N   UNL     1      18.738  19.289  11.313  1.00  0.00     0.001 N 
ATOM     30  N   UNL     1      18.551  18.356  10.531  1.00  0.00    -0.003 NA
ENDBRANCH  27  28
ENDBRANCH  26  27
ENDBRANCH  25  26
ENDBRANCH  19  25
BRANCH  20  31
ATOM     31  O   UNL     1      25.149  22.792  13.306  1.00  0.00    -0.387 OA
ATOM     32  H   UNL     1      24.917  21.833  13.352  1.00  0.00     0.211 HD
ENDBRANCH  20  31
BRANCH  21  33
ATOM     33  O   UNL     1      21.911  23.419  14.655  1.00  0.00    -0.385 OA
ATOM     34  H   UNL     1      21.435  22.997  15.407  1.00  0.00     0.211 HD
ENDBRANCH  21  33
ENDBRANCH  15  16
ENDBRANCH  10  15
BRANCH  12  35
ATOM     35  O   UNL     1      23.526  28.362  13.568  1.00  0.00    -0.385 OA
ATOM     36  H   UNL     1      23.457  27.919  12.661  1.00  0.00     0.211 HD
ENDBRANCH  12  35
BRANCH  13  37
ATOM     37  O   UNL     1      21.019  28.048  16.003  1.00  0.00    -0.387 OA
ATOM     38  H   UNL     1      20.938  27.125  16.406  1.00  0.00     0.211 HD
ENDBRANCH  13  37
BRANCH  14  39
ATOM     39  O   UNL     1      22.763  28.730  17.905  1.00  0.00    -0.387 OA
ATOM     40  H   UNL     1      23.397  29.120  18.540  1.00  0.00     0.211 HD
ENDBRANCH  14  39
ENDBRANCH   8   9
ENDBRANCH   7   8
ENDBRANCH   1   7
BRANCH   1  41
ATOM     41  C   UNL     1      26.019  25.813  20.694  1.00  0.00     0.364 C 
ATOM     42  O   UNL     1      26.595  26.044  21.781  1.00  0.00    -0.246 OA
BRANCH  41  43
ATOM     43  O   UNL     1      26.702  25.081  19.704  1.00  0.00    -0.477 OA
ATOM     44  H   UNL     1      26.457  25.242  18.726  1.00  0.00     0.296 HD
ENDBRANCH  41  43
ENDBRANCH   1  41
BRANCH   3  45
ATOM     45  O   UNL     1      22.338  23.427  21.043  1.00  0.00    -0.391 OA
ATOM     46  H   UNL     1      22.670  22.904  20.244  1.00  0.00     0.211 HD
ENDBRANCH   3  45
BRANCH   5  47
ATOM     47  C   UNL     1      21.720  27.176  21.605  1.00  0.00     0.176 C 
BRANCH  47  48
ATOM     48  O   UNL     1      20.752  26.186  21.681  1.00  0.00    -0.388 OA
ATOM     49  H   UNL     1      20.465  26.017  20.745  1.00  0.00     0.211 HD
ENDBRANCH  47  48
BRANCH  47  50
ATOM     50  C   UNL     1      21.207  28.504  21.902  1.00  0.00     0.165 C 
BRANCH  50  51
ATOM     51  O   UNL     1      20.624  28.675  23.175  1.00  0.00    -0.388 OA
ATOM     52  H   UNL     1      20.781  29.601  23.498  1.00  0.00     0.211 HD
ENDBRANCH  50  51
BRANCH  50  53
ATOM     53  C   UNL     1      20.371  29.261  20.931  1.00  0.00     0.154 C 
BRANCH  53  54
ATOM     54  N   UNL     1      19.528  28.444  20.098  1.00  0.00    -0.319 N 
ATOM     55  C   UNL     1      19.381  28.715  18.706  1.00  0.00     0.407 C 
ATOM     56  H   UNL     1      19.008  27.634  20.508  1.00  0.00     0.167 HD
ATOM     57  O   UNL     1      20.015  29.676  18.205  1.00  0.00    -0.225 OA
BRANCH  55  58
ATOM     58  O   UNL     1      18.549  27.929  17.938  1.00  0.00    -0.443 OA
BRANCH  58  59
ATOM     59  C   UNL     1      17.228  28.245  17.662  1.00  0.00     0.294 C 
BRANCH  59  60
ATOM     60  C   UNL     1      16.431  28.355  18.885  1.00  0.00     0.121 A 
ATOM     61  C   UNL     1      15.410  29.292  19.131  1.00  0.00     0.144 A 
ATOM     62  N   UNL     1      16.493  27.629  19.992  1.00  0.00    -0.131 NA
ATOM     63  N   UNL     1      14.928  29.074  20.353  1.00  0.00    -0.220 N 
ATOM     64  N   UNL     1      15.599  28.061  20.860  1.00  0.00    -0.062 NA
BRANCH  63  65
ATOM     65  C   UNL     1      13.871  29.847  20.951  1.00  0.00     0.066 A 
ATOM     66  C   UNL     1      13.416  30.988  20.329  1.00  0.00     0.029 A 
ATOM     67  C   UNL     1      13.274  29.475  22.138  1.00  0.00     0.029 A 
ATOM     68  C   UNL     1      12.379  31.737  20.893  1.00  0.00     0.005 A 
ATOM     69  C   UNL     1      12.236  30.225  22.704  1.00  0.00     0.005 A 
ATOM     70  C   UNL     1      11.785  31.363  22.078  1.00  0.00    -0.051 A 
ATOM     71  C   UNL     1      10.667  32.160  22.677  1.00  0.00     0.044 C 
ENDBRANCH  63  65
ENDBRANCH  59  60
ENDBRANCH  58  59
ENDBRANCH  55  58
ENDBRANCH  53  54
ENDBRANCH  50  53
ENDBRANCH  47  50
ENDBRANCH   5  47
BRANCH   4  72
ATOM     72  N   UNL     1      23.740  24.945  23.675  1.00  0.00    -0.348 N 
ATOM     73  C   UNL     1      23.086  24.616  24.901  1.00  0.00     0.217 C 
ATOM     74  H   UNL     1      24.778  24.953  23.712  1.00  0.00     0.163 HD
ATOM     75  C   UNL     1      23.860  24.306  26.143  1.00  0.00     0.114 C 
ATOM     76  O   UNL     1      21.830  24.606  24.855  1.00  0.00    -0.275 OA
ENDBRANCH   4  72
TORSDOF 30
