REMARK VINA RESULT:    -6.392      3.812     14.975
REMARK INTER + INTRA:         -21.458
REMARK INTER:                 -16.952
REMARK INTRA:                  -4.506
REMARK UNBOUND:                -5.351
REMARK SMILES CC(=O)N[C@@H]1[C@@H](O)C[C@](OC[C@H]2O[C@@H](O[C@H]3[C@H](O)[C@@H](O)[C@H](OCCN=[N+]=[N-])O[C@@H]3CO)[C@H](O)[C@@H](O)[C@H]2O)(C(=O)O)O[C@H]1C(O)[C@H](O)CNC(=O)OCc1cn(-c2ccc([N+](=O)[O-])cc2)nn1
REMARK SMILES IDX 9 1 8 2 6 3 5 4 42 5 41 6 10 7 11 8 12 9 14 10 13 11 32 12
REMARK SMILES IDX 34 13 36 14 15 15 16 16 29 17 28 18 21 19 17 20 19 21 30 22
REMARK SMILES IDX 31 23 22 25 23 26 24 27 25 28 26 29 27 30 18 31 20 33 33 35
REMARK SMILES IDX 35 37 37 39 38 41 39 42 40 43 7 45 43 47 44 48 45 50 46 51
REMARK SMILES IDX 47 53 48 54 49 55 50 57 51 58 52 59 53 60 54 61 66 62 55 63
REMARK SMILES IDX 65 64 56 65 57 66 64 67 58 68 63 69 59 70 60 71 61 72 62 73
REMARK SMILES IDX 4 74 2 75 1 77 3 78
REMARK H PARENT 31 24 18 32 20 34 33 36 35 38 37 40 40 44 7 46 44 49 46 52
REMARK H PARENT 48 56 4 76
REMARK Flexibility Score: inf
ROOT
ATOM      1  C   UNL     1      25.272  25.015  20.511  1.00  0.00     0.272 C 
ATOM      2  C   UNL     1      25.387  26.499  20.642  1.00  0.00     0.113 C 
ATOM      3  C   UNL     1      24.233  27.156  20.017  1.00  0.00     0.145 C 
ATOM      4  C   UNL     1      23.361  26.263  19.115  1.00  0.00     0.142 C 
ATOM      5  C   UNL     1      24.218  25.310  18.422  1.00  0.00     0.178 C 
ATOM      6  O   UNL     1      25.227  24.703  19.163  1.00  0.00    -0.332 OA
ENDROOT
BRANCH   1   7
ATOM      7  O   UNL     1      24.292  24.430  21.250  1.00  0.00    -0.338 OA
BRANCH   7   8
ATOM      8  C   UNL     1      24.149  24.854  22.532  1.00  0.00     0.199 C 
BRANCH   8   9
ATOM      9  C   UNL     1      22.930  24.232  23.201  1.00  0.00     0.179 C 
ATOM     10  C   UNL     1      22.229  25.641  24.931  1.00  0.00     0.282 C 
ATOM     11  O   UNL     1      22.854  24.498  24.543  1.00  0.00    -0.341 OA
ATOM     12  C   UNL     1      21.619  26.501  23.901  1.00  0.00     0.202 C 
ATOM     13  C   UNL     1      20.955  25.687  22.822  1.00  0.00     0.179 C 
ATOM     14  C   UNL     1      21.651  24.421  22.468  1.00  0.00     0.177 C 
BRANCH  10  15
ATOM     15  O   UNL     1      23.085  26.310  25.800  1.00  0.00    -0.341 OA
BRANCH  15  16
ATOM     16  C   UNL     1      22.719  26.379  27.102  1.00  0.00     0.184 C 
ATOM     17  C   UNL     1      22.935  27.735  27.738  1.00  0.00     0.178 C 
ATOM     18  O   UNL     1      22.572  27.647  29.097  1.00  0.00    -0.341 OA
ATOM     19  C   UNL     1      23.548  26.922  29.780  1.00  0.00     0.281 C 
ATOM     20  C   UNL     1      23.681  25.450  27.869  1.00  0.00     0.180 C 
ATOM     21  C   UNL     1      23.324  25.469  29.343  1.00  0.00     0.202 C 
BRANCH  17  22
ATOM     22  C   UNL     1      22.086  28.835  27.153  1.00  0.00     0.191 C 
BRANCH  22  23
ATOM     23  O   UNL     1      20.804  28.258  26.976  1.00  0.00    -0.394 OA
ATOM     24  H   UNL     1      20.793  27.325  27.319  1.00  0.00     0.210 HD
ENDBRANCH  22  23
ENDBRANCH  17  22
BRANCH  19  25
ATOM     25  O   UNL     1      23.346  27.002  31.133  1.00  0.00    -0.350 OA
BRANCH  25  26
ATOM     26  C   UNL     1      23.790  28.148  31.742  1.00  0.00     0.169 C 
BRANCH  26  27
ATOM     27  C   UNL     1      24.700  27.933  32.919  1.00  0.00     0.119 C 
BRANCH  27  28
ATOM     28  N   UNL     1      24.757  26.496  33.197  1.00  0.00    -0.092 NA
ATOM     29  N   UNL     1      24.697  26.103  34.353  1.00  0.00     0.001 N 
ATOM     30  N   UNL     1      24.399  25.736  35.478  1.00  0.00    -0.003 NA
ENDBRANCH  27  28
ENDBRANCH  26  27
ENDBRANCH  25  26
ENDBRANCH  19  25
BRANCH  20  31
ATOM     31  O   UNL     1      23.716  24.192  27.337  1.00  0.00    -0.387 OA
ATOM     32  H   UNL     1      23.268  23.498  27.859  1.00  0.00     0.211 HD
ENDBRANCH  20  31
BRANCH  21  33
ATOM     33  O   UNL     1      24.119  24.590  30.027  1.00  0.00    -0.385 OA
ATOM     34  H   UNL     1      23.547  23.960  30.527  1.00  0.00     0.211 HD
ENDBRANCH  21  33
ENDBRANCH  15  16
ENDBRANCH  10  15
BRANCH  12  35
ATOM     35  O   UNL     1      20.567  27.233  24.486  1.00  0.00    -0.385 OA
ATOM     36  H   UNL     1      19.794  26.669  24.680  1.00  0.00     0.211 HD
ENDBRANCH  12  35
BRANCH  13  37
ATOM     37  O   UNL     1      20.762  26.510  21.686  1.00  0.00    -0.387 OA
ATOM     38  H   UNL     1      19.880  26.910  21.766  1.00  0.00     0.211 HD
ENDBRANCH  13  37
BRANCH  14  39
ATOM     39  O   UNL     1      21.851  24.225  21.109  1.00  0.00    -0.387 OA
ATOM     40  H   UNL     1      21.571  23.291  20.905  1.00  0.00     0.211 HD
ENDBRANCH  14  39
ENDBRANCH   8   9
ENDBRANCH   7   8
ENDBRANCH   1   7
BRANCH   1  41
ATOM     41  C   UNL     1      26.599  24.417  20.930  1.00  0.00     0.364 C 
ATOM     42  O   UNL     1      26.701  23.190  21.121  1.00  0.00    -0.246 OA
BRANCH  41  43
ATOM     43  O   UNL     1      27.683  25.232  21.103  1.00  0.00    -0.477 OA
ATOM     44  H   UNL     1      27.647  26.246  21.158  1.00  0.00     0.296 HD
ENDBRANCH  41  43
ENDBRANCH   1  41
BRANCH   3  45
ATOM     45  O   UNL     1      23.373  27.685  20.976  1.00  0.00    -0.391 OA
ATOM     46  H   UNL     1      23.847  27.872  21.810  1.00  0.00     0.211 HD
ENDBRANCH   3  45
BRANCH   5  47
ATOM     47  C   UNL     1      23.688  24.228  17.588  1.00  0.00     0.176 C 
BRANCH  47  48
ATOM     48  O   UNL     1      22.314  24.258  17.330  1.00  0.00    -0.388 OA
ATOM     49  H   UNL     1      22.041  24.880  16.633  1.00  0.00     0.211 HD
ENDBRANCH  47  48
BRANCH  47  50
ATOM     50  C   UNL     1      24.336  23.875  16.289  1.00  0.00     0.165 C 
BRANCH  50  51
ATOM     51  O   UNL     1      25.672  24.111  16.185  1.00  0.00    -0.388 OA
ATOM     52  H   UNL     1      26.163  23.931  17.029  1.00  0.00     0.211 HD
ENDBRANCH  50  51
BRANCH  50  53
ATOM     53  C   UNL     1      23.483  24.202  15.092  1.00  0.00     0.154 C 
BRANCH  53  54
ATOM     54  N   UNL     1      22.722  23.099  14.568  1.00  0.00    -0.319 N 
ATOM     55  C   UNL     1      22.201  23.037  13.254  1.00  0.00     0.407 C 
ATOM     56  H   UNL     1      22.518  22.260  15.173  1.00  0.00     0.167 HD
ATOM     57  O   UNL     1      22.383  23.979  12.476  1.00  0.00    -0.225 OA
BRANCH  55  58
ATOM     58  O   UNL     1      21.475  21.933  12.801  1.00  0.00    -0.443 OA
BRANCH  58  59
ATOM     59  C   UNL     1      20.095  21.945  12.551  1.00  0.00     0.294 C 
BRANCH  59  60
ATOM     60  C   UNL     1      19.693  20.736  11.801  1.00  0.00     0.121 A 
ATOM     61  C   UNL     1      20.320  20.151  10.703  1.00  0.00     0.144 A 
ATOM     62  N   UNL     1      18.620  19.925  12.041  1.00  0.00    -0.131 NA
ATOM     63  N   UNL     1      19.640  19.051  10.330  1.00  0.00    -0.220 N 
ATOM     64  N   UNL     1      18.623  18.945  11.156  1.00  0.00    -0.062 NA
BRANCH  63  65
ATOM     65  C   UNL     1      19.958  18.158   9.257  1.00  0.00     0.067 A 
ATOM     66  C   UNL     1      20.865  17.130   9.362  1.00  0.00     0.035 A 
ATOM     67  C   UNL     1      19.335  18.326   8.028  1.00  0.00     0.035 A 
ATOM     68  C   UNL     1      21.145  16.296   8.281  1.00  0.00     0.088 A 
ATOM     69  C   UNL     1      19.610  17.502   6.957  1.00  0.00     0.088 A 
ATOM     70  C   UNL     1      20.519  16.471   7.060  1.00  0.00     0.269 A 
BRANCH  70  71
ATOM     71  N   UNL     1      20.816  15.614   5.963  1.00  0.00     0.062 N 
ATOM     72  O   UNL     1      20.134  15.545   4.929  1.00  0.00    -0.258 OA
ATOM     73  O   UNL     1      21.926  14.814   6.060  1.00  0.00    -0.258 OA
ENDBRANCH  70  71
ENDBRANCH  63  65
ENDBRANCH  59  60
ENDBRANCH  58  59
ENDBRANCH  55  58
ENDBRANCH  53  54
ENDBRANCH  50  53
ENDBRANCH  47  50
ENDBRANCH   5  47
BRANCH   4  74
ATOM     74  N   UNL     1      22.858  27.262  18.157  1.00  0.00    -0.348 N 
ATOM     75  C   UNL     1      21.578  27.833  18.261  1.00  0.00     0.217 C 
ATOM     76  H   UNL     1      23.491  27.547  17.390  1.00  0.00     0.163 HD
ATOM     77  C   UNL     1      21.162  28.835  17.233  1.00  0.00     0.114 C 
ATOM     78  O   UNL     1      20.786  27.538  19.169  1.00  0.00    -0.275 OA
ENDBRANCH   4  74
TORSDOF 31
