REMARK VINA RESULT:    -6.394      4.081      7.105
REMARK INTER + INTRA:         -23.285
REMARK INTER:                 -15.561
REMARK INTRA:                  -7.725
REMARK UNBOUND:                -6.425
REMARK SMILES CC(=O)N[C@@H]1[C@@H](O)C[C@](OC[C@H]2O[C@@H](O[C@H]3[C@H](O)[C@@H](O)[C@H](OCCN=[N+]=[N-])O[C@@H]3CO)[C@H](O)[C@@H](O)[C@H]2O)(C(=O)O)O[C@H]1C(O)[C@H](O)CNC(=O)OCc1cn(-c2ccc(S(=O)(=O)Nc3nccs3)cc2)nn1
REMARK SMILES IDX 43 1 42 2 9 3 8 4 41 5 6 6 5 7 10 8 11 9 12 10 14 11 13 12
REMARK SMILES IDX 32 13 34 14 36 15 15 16 16 17 29 18 28 19 21 20 17 21 19 22
REMARK SMILES IDX 30 23 31 24 22 26 23 27 24 28 25 29 26 30 27 31 18 32 20 34
REMARK SMILES IDX 33 36 35 38 37 40 38 42 39 43 40 44 7 46 4 48 2 49 1 51 3 52
REMARK SMILES IDX 44 53 45 55 46 56 47 58 48 59 49 60 50 62 51 63 52 64 53 65
REMARK SMILES IDX 54 66 72 67 55 68 71 69 56 70 57 71 70 72 58 73 69 74 59 75
REMARK SMILES IDX 60 76 61 77 62 78 63 79 64 81 65 82 68 83 66 84 67 85
REMARK H PARENT 31 25 18 33 20 35 33 37 35 39 37 41 40 45 7 47 4 50 44 54
REMARK H PARENT 46 57 48 61 63 80
REMARK Flexibility Score: inf
ROOT
ATOM      1  C   UNL     1      21.631  28.963  24.658  1.00  0.00     0.176 C 
ENDROOT
BRANCH   1   2
ATOM      2  C   UNL     1      20.669  29.681  23.773  1.00  0.00     0.178 C 
ATOM      3  C   UNL     1      18.392  30.195  23.892  1.00  0.00     0.272 C 
ATOM      4  C   UNL     1      18.823  30.877  22.575  1.00  0.00     0.113 C 
ATOM      5  O   UNL     1      19.396  29.393  24.356  1.00  0.00    -0.332 OA
ATOM      6  C   UNL     1      19.511  29.958  21.638  1.00  0.00     0.145 C 
ATOM      7  C   UNL     1      20.553  29.116  22.378  1.00  0.00     0.142 C 
BRANCH   3   8
ATOM      8  O   UNL     1      17.280  29.421  23.676  1.00  0.00    -0.338 OA
BRANCH   8   9
ATOM      9  C   UNL     1      16.087  30.099  23.686  1.00  0.00     0.199 C 
BRANCH   9  10
ATOM     10  C   UNL     1      15.498  30.295  22.309  1.00  0.00     0.179 C 
ATOM     11  C   UNL     1      15.467  29.706  20.156  1.00  0.00     0.282 C 
ATOM     12  O   UNL     1      15.754  29.227  21.456  1.00  0.00    -0.341 OA
ATOM     13  C   UNL     1      13.966  29.653  20.008  1.00  0.00     0.202 C 
ATOM     14  C   UNL     1      13.313  29.499  21.385  1.00  0.00     0.179 C 
ATOM     15  C   UNL     1      13.985  30.430  22.377  1.00  0.00     0.177 C 
BRANCH  11  16
ATOM     16  O   UNL     1      16.074  28.986  19.184  1.00  0.00    -0.341 OA
BRANCH  16  17
ATOM     17  C   UNL     1      16.469  29.695  18.064  1.00  0.00     0.184 C 
ATOM     18  C   UNL     1      16.156  29.118  16.743  1.00  0.00     0.178 C 
ATOM     19  O   UNL     1      17.146  29.569  15.826  1.00  0.00    -0.341 OA
ATOM     20  C   UNL     1      18.346  28.868  16.010  1.00  0.00     0.281 C 
ATOM     21  C   UNL     1      17.941  30.073  18.149  1.00  0.00     0.180 C 
ATOM     22  C   UNL     1      18.833  29.056  17.435  1.00  0.00     0.202 C 
BRANCH  18  23
ATOM     23  C   UNL     1      14.856  29.620  16.114  1.00  0.00     0.191 C 
BRANCH  23  24
ATOM     24  O   UNL     1      13.740  29.373  16.853  1.00  0.00    -0.394 OA
ATOM     25  H   UNL     1      13.271  30.215  17.053  1.00  0.00     0.210 HD
ENDBRANCH  23  24
ENDBRANCH  18  23
BRANCH  20  26
ATOM     26  O   UNL     1      19.266  29.360  15.111  1.00  0.00    -0.350 OA
BRANCH  26  27
ATOM     27  C   UNL     1      18.768  30.212  14.160  1.00  0.00     0.169 C 
BRANCH  27  28
ATOM     28  C   UNL     1      19.457  31.556  14.129  1.00  0.00     0.119 C 
BRANCH  28  29
ATOM     29  N   UNL     1      18.546  32.517  14.695  1.00  0.00    -0.092 NA
ATOM     30  N   UNL     1      17.359  32.480  14.384  1.00  0.00     0.001 N 
ATOM     31  N   UNL     1      16.290  32.784  13.850  1.00  0.00    -0.003 NA
ENDBRANCH  28  29
ENDBRANCH  27  28
ENDBRANCH  26  27
ENDBRANCH  20  26
BRANCH  21  32
ATOM     32  O   UNL     1      18.176  31.304  17.538  1.00  0.00    -0.387 OA
ATOM     33  H   UNL     1      17.366  31.864  17.537  1.00  0.00     0.211 HD
ENDBRANCH  21  32
BRANCH  22  34
ATOM     34  O   UNL     1      18.914  27.866  18.145  1.00  0.00    -0.385 OA
ATOM     35  H   UNL     1      19.161  27.164  17.502  1.00  0.00     0.211 HD
ENDBRANCH  22  34
ENDBRANCH  16  17
ENDBRANCH  11  16
BRANCH  13  36
ATOM     36  O   UNL     1      13.435  30.877  19.529  1.00  0.00    -0.385 OA
ATOM     37  H   UNL     1      13.239  30.839  18.581  1.00  0.00     0.211 HD
ENDBRANCH  13  36
BRANCH  14  38
ATOM     38  O   UNL     1      13.332  28.173  21.792  1.00  0.00    -0.387 OA
ATOM     39  H   UNL     1      14.257  27.829  21.897  1.00  0.00     0.211 HD
ENDBRANCH  14  38
BRANCH  15  40
ATOM     40  O   UNL     1      13.499  30.130  23.639  1.00  0.00    -0.387 OA
ATOM     41  H   UNL     1      13.363  29.184  23.809  1.00  0.00     0.211 HD
ENDBRANCH  15  40
ENDBRANCH   9  10
ENDBRANCH   8   9
ENDBRANCH   3   8
BRANCH   3  42
ATOM     42  C   UNL     1      18.115  31.293  24.821  1.00  0.00     0.364 C 
ATOM     43  O   UNL     1      18.056  31.114  26.080  1.00  0.00    -0.246 OA
BRANCH  42  44
ATOM     44  O   UNL     1      17.900  32.594  24.402  1.00  0.00    -0.477 OA
ATOM     45  H   UNL     1      18.466  33.356  24.798  1.00  0.00     0.296 HD
ENDBRANCH  42  44
ENDBRANCH   3  42
BRANCH   6  46
ATOM     46  O   UNL     1      18.635  29.144  20.921  1.00  0.00    -0.391 OA
ATOM     47  H   UNL     1      18.219  29.667  20.195  1.00  0.00     0.211 HD
ENDBRANCH   6  46
BRANCH   7  48
ATOM     48  N   UNL     1      21.755  29.054  21.627  1.00  0.00    -0.348 N 
ATOM     49  C   UNL     1      21.884  28.123  20.558  1.00  0.00     0.217 C 
ATOM     50  H   UNL     1      22.564  29.674  21.825  1.00  0.00     0.163 HD
ATOM     51  C   UNL     1      23.095  27.996  19.730  1.00  0.00     0.114 C 
ATOM     52  O   UNL     1      20.902  27.349  20.292  1.00  0.00    -0.275 OA
ENDBRANCH   7  48
ENDBRANCH   1   2
BRANCH   1  53
ATOM     53  O   UNL     1      21.577  27.570  24.337  1.00  0.00    -0.388 OA
ATOM     54  H   UNL     1      21.394  27.039  25.133  1.00  0.00     0.211 HD
ENDBRANCH   1  53
BRANCH   1  55
ATOM     55  C   UNL     1      21.436  29.122  26.138  1.00  0.00     0.165 C 
BRANCH  55  56
ATOM     56  O   UNL     1      21.087  30.508  26.286  1.00  0.00    -0.388 OA
ATOM     57  H   UNL     1      20.970  30.903  25.384  1.00  0.00     0.211 HD
ENDBRANCH  55  56
BRANCH  55  58
ATOM     58  C   UNL     1      22.755  29.022  26.895  1.00  0.00     0.154 C 
BRANCH  58  59
ATOM     59  N   UNL     1      23.341  27.754  26.547  1.00  0.00    -0.319 N 
ATOM     60  C   UNL     1      24.100  26.966  27.452  1.00  0.00     0.407 C 
ATOM     61  H   UNL     1      23.220  27.349  25.562  1.00  0.00     0.167 HD
ATOM     62  O   UNL     1      24.279  27.337  28.618  1.00  0.00    -0.225 OA
BRANCH  60  63
ATOM     63  O   UNL     1      24.666  25.759  27.061  1.00  0.00    -0.443 OA
BRANCH  63  64
ATOM     64  C   UNL     1      23.970  24.592  26.721  1.00  0.00     0.294 C 
BRANCH  64  65
ATOM     65  C   UNL     1      23.359  24.595  25.382  1.00  0.00     0.121 A 
ATOM     66  C   UNL     1      24.041  24.622  24.161  1.00  0.00     0.144 A 
ATOM     67  N   UNL     1      22.072  24.568  25.041  1.00  0.00    -0.131 NA
ATOM     68  N   UNL     1      23.153  24.610  23.134  1.00  0.00    -0.220 N 
ATOM     69  N   UNL     1      21.962  24.578  23.702  1.00  0.00    -0.062 NA
BRANCH  68  70
ATOM     70  C   UNL     1      23.500  24.625  21.739  1.00  0.00     0.066 A 
ATOM     71  C   UNL     1      22.607  24.302  20.758  1.00  0.00     0.030 A 
ATOM     72  C   UNL     1      24.795  24.970  21.391  1.00  0.00     0.030 A 
ATOM     73  C   UNL     1      22.998  24.319  19.420  1.00  0.00     0.024 A 
ATOM     74  C   UNL     1      25.227  25.002  20.087  1.00  0.00     0.024 A 
ATOM     75  C   UNL     1      24.293  24.667  19.116  1.00  0.00     0.088 A 
BRANCH  75  76
ATOM     76  S   UNL     1      24.815  24.692  17.449  1.00  0.00     0.263 S 
ATOM     77  O   UNL     1      24.402  26.026  16.858  1.00  0.00    -0.201 OA
ATOM     78  O   UNL     1      24.041  23.621  16.733  1.00  0.00    -0.201 OA
BRANCH  76  79
ATOM     79  N   UNL     1      26.496  24.438  17.360  1.00  0.00    -0.255 N 
ATOM     80  H   UNL     1      27.104  25.247  17.143  1.00  0.00     0.182 HD
BRANCH  79  81
ATOM     81  C   UNL     1      27.016  23.172  17.575  1.00  0.00     0.196 A 
ATOM     82  N   UNL     1      27.449  22.443  18.528  1.00  0.00    -0.228 NA
ATOM     83  S   UNL     1      27.249  21.986  16.165  1.00  0.00    -0.105 S 
ATOM     84  C   UNL     1      27.895  21.246  18.425  1.00  0.00     0.125 A 
ATOM     85  C   UNL     1      27.932  20.643  17.197  1.00  0.00     0.089 A 
ENDBRANCH  79  81
ENDBRANCH  76  79
ENDBRANCH  75  76
ENDBRANCH  68  70
ENDBRANCH  64  65
ENDBRANCH  63  64
ENDBRANCH  60  63
ENDBRANCH  58  59
ENDBRANCH  55  58
ENDBRANCH   1  55
TORSDOF 33
