REMARK VINA RESULT:    -6.394      9.498     15.694
REMARK INTER + INTRA:         -21.974
REMARK INTER:                 -14.910
REMARK INTRA:                  -7.064
REMARK UNBOUND:                -5.863
REMARK SMILES CC(=O)N[C@@H]1[C@@H](O)C[C@](OC[C@H]2O[C@@H](O[C@H]3[C@H](O)[C@@H](O)[C@H](OCCN=[N+]=[N-])O[C@@H]3CO)[C@H](O)[C@@H](O)[C@H]2O)(C(=O)O)O[C@H]1C(O)[C@H](O)CNC(=O)OCc1cn(-c2ncccc2C#N)nn1
REMARK SMILES IDX 9 1 8 2 6 3 5 4 42 5 41 6 10 7 11 8 12 9 14 10 13 11 32 12
REMARK SMILES IDX 34 13 36 14 15 15 16 16 29 17 28 18 21 19 17 20 19 21 30 22
REMARK SMILES IDX 31 23 22 25 23 26 24 27 25 28 26 29 27 30 18 31 20 33 33 35
REMARK SMILES IDX 35 37 37 39 38 41 39 42 40 43 7 45 43 47 44 48 45 50 46 51
REMARK SMILES IDX 47 53 48 54 49 55 50 57 51 58 52 59 53 60 54 61 65 62 55 63
REMARK SMILES IDX 64 64 56 65 57 66 61 67 58 68 60 69 59 70 62 71 63 72 4 73
REMARK SMILES IDX 2 74 1 76 3 77
REMARK H PARENT 31 24 18 32 20 34 33 36 35 38 37 40 40 44 7 46 44 49 46 52
REMARK H PARENT 48 56 4 75
REMARK Flexibility Score: inf
ROOT
ATOM      1  C   UNL     1      30.422  19.258  19.213  1.00  0.00     0.272 C 
ATOM      2  C   UNL     1      31.364  20.113  18.478  1.00  0.00     0.113 C 
ATOM      3  C   UNL     1      31.507  19.749  17.052  1.00  0.00     0.145 C 
ATOM      4  C   UNL     1      30.322  19.120  16.399  1.00  0.00     0.142 C 
ATOM      5  C   UNL     1      29.081  19.005  17.237  1.00  0.00     0.178 C 
ATOM      6  O   UNL     1      29.278  18.912  18.532  1.00  0.00    -0.332 OA
ENDROOT
BRANCH   1   7
ATOM      7  O   UNL     1      29.984  19.596  20.430  1.00  0.00    -0.338 OA
BRANCH   7   8
ATOM      8  C   UNL     1      29.120  19.118  21.271  1.00  0.00     0.199 C 
BRANCH   8   9
ATOM      9  C   UNL     1      29.441  19.720  22.644  1.00  0.00     0.179 C 
ATOM     10  C   UNL     1      31.111  20.379  24.028  1.00  0.00     0.282 C 
ATOM     11  O   UNL     1      30.731  19.440  23.000  1.00  0.00    -0.341 OA
ATOM     12  C   UNL     1      31.306  21.722  23.424  1.00  0.00     0.202 C 
ATOM     13  C   UNL     1      30.082  22.137  22.602  1.00  0.00     0.179 C 
ATOM     14  C   UNL     1      29.015  21.131  22.816  1.00  0.00     0.177 C 
BRANCH  10  15
ATOM     15  O   UNL     1      32.205  19.941  24.689  1.00  0.00    -0.341 OA
BRANCH  15  16
ATOM     16  C   UNL     1      31.973  19.040  25.690  1.00  0.00     0.184 C 
ATOM     17  C   UNL     1      33.154  19.068  26.705  1.00  0.00     0.178 C 
ATOM     18  O   UNL     1      33.855  17.870  26.581  1.00  0.00    -0.341 OA
ATOM     19  C   UNL     1      34.244  17.660  25.250  1.00  0.00     0.281 C 
ATOM     20  C   UNL     1      31.796  17.616  25.231  1.00  0.00     0.180 C 
ATOM     21  C   UNL     1      33.053  17.162  24.480  1.00  0.00     0.202 C 
BRANCH  17  22
ATOM     22  C   UNL     1      32.597  19.270  28.077  1.00  0.00     0.191 C 
BRANCH  22  23
ATOM     23  O   UNL     1      31.193  19.360  28.067  1.00  0.00    -0.394 OA
ATOM     24  H   UNL     1      30.808  19.218  28.964  1.00  0.00     0.210 HD
ENDBRANCH  22  23
ENDBRANCH  17  22
BRANCH  19  25
ATOM     25  O   UNL     1      35.282  16.756  25.280  1.00  0.00    -0.350 OA
BRANCH  25  26
ATOM     26  C   UNL     1      34.817  15.433  25.164  1.00  0.00     0.169 C 
BRANCH  26  27
ATOM     27  C   UNL     1      35.662  14.662  24.171  1.00  0.00     0.119 C 
BRANCH  27  28
ATOM     28  N   UNL     1      34.742  14.198  23.123  1.00  0.00    -0.092 NA
ATOM     29  N   UNL     1      34.690  14.922  22.095  1.00  0.00     0.001 N 
ATOM     30  N   UNL     1      34.318  15.739  21.238  1.00  0.00    -0.003 NA
ENDBRANCH  27  28
ENDBRANCH  26  27
ENDBRANCH  25  26
ENDBRANCH  19  25
BRANCH  20  31
ATOM     31  O   UNL     1      31.534  16.745  26.263  1.00  0.00    -0.387 OA
ATOM     32  H   UNL     1      30.616  16.680  26.573  1.00  0.00     0.211 HD
ENDBRANCH  20  31
BRANCH  21  33
ATOM     33  O   UNL     1      33.025  17.652  23.178  1.00  0.00    -0.385 OA
ATOM     34  H   UNL     1      33.109  18.643  23.240  1.00  0.00     0.211 HD
ENDBRANCH  21  33
ENDBRANCH  15  16
ENDBRANCH  10  15
BRANCH  12  35
ATOM     35  O   UNL     1      31.533  22.675  24.402  1.00  0.00    -0.385 OA
ATOM     36  H   UNL     1      32.531  22.695  24.575  1.00  0.00     0.211 HD
ENDBRANCH  12  35
BRANCH  13  37
ATOM     37  O   UNL     1      30.453  22.224  21.240  1.00  0.00    -0.387 OA
ATOM     38  H   UNL     1      31.006  21.433  20.986  1.00  0.00     0.211 HD
ENDBRANCH  13  37
BRANCH  14  39
ATOM     39  O   UNL     1      27.858  21.372  22.069  1.00  0.00    -0.387 OA
ATOM     40  H   UNL     1      28.071  21.981  21.291  1.00  0.00     0.211 HD
ENDBRANCH  14  39
ENDBRANCH   8   9
ENDBRANCH   7   8
ENDBRANCH   1   7
BRANCH   1  41
ATOM     41  C   UNL     1      31.161  17.937  19.420  1.00  0.00     0.364 C 
ATOM     42  O   UNL     1      30.821  16.868  18.942  1.00  0.00    -0.246 OA
BRANCH  41  43
ATOM     43  O   UNL     1      32.322  17.929  20.217  1.00  0.00    -0.477 OA
ATOM     44  H   UNL     1      32.530  18.659  20.882  1.00  0.00     0.296 HD
ENDBRANCH  41  43
ENDBRANCH   1  41
BRANCH   3  45
ATOM     45  O   UNL     1      31.983  20.845  16.307  1.00  0.00    -0.391 OA
ATOM     46  H   UNL     1      32.970  20.653  16.182  1.00  0.00     0.211 HD
ENDBRANCH   3  45
BRANCH   5  47
ATOM     47  C   UNL     1      28.043  20.098  16.852  1.00  0.00     0.176 C 
BRANCH  47  48
ATOM     48  O   UNL     1      28.302  20.410  15.484  1.00  0.00    -0.388 OA
ATOM     49  H   UNL     1      28.263  21.370  15.334  1.00  0.00     0.211 HD
ENDBRANCH  47  48
BRANCH  47  50
ATOM     50  C   UNL     1      28.115  21.338  17.581  1.00  0.00     0.165 C 
BRANCH  50  51
ATOM     51  O   UNL     1      27.827  21.292  18.967  1.00  0.00    -0.388 OA
ATOM     52  H   UNL     1      28.685  21.439  19.478  1.00  0.00     0.211 HD
ENDBRANCH  50  51
BRANCH  50  53
ATOM     53  C   UNL     1      27.217  22.422  17.078  1.00  0.00     0.154 C 
BRANCH  53  54
ATOM     54  N   UNL     1      26.809  23.465  17.933  1.00  0.00    -0.319 N 
ATOM     55  C   UNL     1      26.826  24.845  17.730  1.00  0.00     0.407 C 
ATOM     56  H   UNL     1      26.422  23.172  18.911  1.00  0.00     0.167 HD
ATOM     57  O   UNL     1      27.251  25.271  16.628  1.00  0.00    -0.225 OA
BRANCH  55  58
ATOM     58  O   UNL     1      26.366  25.705  18.747  1.00  0.00    -0.443 OA
BRANCH  58  59
ATOM     59  C   UNL     1      27.010  25.685  19.986  1.00  0.00     0.294 C 
BRANCH  59  60
ATOM     60  C   UNL     1      26.247  24.989  21.005  1.00  0.00     0.121 A 
ATOM     61  C   UNL     1      25.552  25.557  22.005  1.00  0.00     0.146 A 
ATOM     62  N   UNL     1      26.149  23.600  21.173  1.00  0.00    -0.131 NA
ATOM     63  N   UNL     1      25.029  24.620  22.785  1.00  0.00    -0.201 N 
ATOM     64  N   UNL     1      25.416  23.505  22.241  1.00  0.00    -0.060 NA
BRANCH  63  65
ATOM     65  C   UNL     1      24.183  24.717  23.912  1.00  0.00     0.173 A 
ATOM     66  N   UNL     1      24.805  24.669  25.119  1.00  0.00    -0.236 NA
ATOM     67  C   UNL     1      22.787  24.712  23.798  1.00  0.00     0.097 A 
ATOM     68  C   UNL     1      23.973  24.601  26.299  1.00  0.00     0.113 A 
ATOM     69  C   UNL     1      22.060  24.637  24.966  1.00  0.00     0.025 A 
ATOM     70  C   UNL     1      22.671  24.584  26.148  1.00  0.00     0.022 A 
BRANCH  67  71
ATOM     71  C   UNL     1      22.067  24.867  22.575  1.00  0.00     0.103 C 
ATOM     72  N   UNL     1      21.460  24.978  21.535  1.00  0.00    -0.192 NA
ENDBRANCH  67  71
ENDBRANCH  63  65
ENDBRANCH  59  60
ENDBRANCH  58  59
ENDBRANCH  55  58
ENDBRANCH  53  54
ENDBRANCH  50  53
ENDBRANCH  47  50
ENDBRANCH   5  47
BRANCH   4  73
ATOM     73  N   UNL     1      30.810  17.908  15.778  1.00  0.00    -0.348 N 
ATOM     74  C   UNL     1      30.585  17.456  14.475  1.00  0.00     0.217 C 
ATOM     75  H   UNL     1      31.418  17.245  16.384  1.00  0.00     0.163 HD
ATOM     76  C   UNL     1      31.226  16.173  13.980  1.00  0.00     0.114 C 
ATOM     77  O   UNL     1      29.871  18.035  13.627  1.00  0.00    -0.275 OA
ENDBRANCH   4  73
TORSDOF 31
