REMARK VINA RESULT:    -6.577      8.608     12.853
REMARK INTER + INTRA:         -21.924
REMARK INTER:                 -14.447
REMARK INTRA:                  -7.477
REMARK UNBOUND:                -5.351
REMARK SMILES CC(=O)N[C@@H]1[C@@H](O)C[C@](OC[C@H]2O[C@@H](O[C@H]3[C@H](O)[C@@H](O)[C@H](OCCN=[N+]=[N-])O[C@@H]3CO)[C@H](O)[C@@H](O)[C@H]2O)(C(=O)O)O[C@H]1C(O)[C@H](O)CNC(=O)OCc1cn(-c2ccc([N+](=O)[O-])cc2)nn1
REMARK SMILES IDX 9 1 8 2 6 3 5 4 42 5 41 6 10 7 11 8 12 9 14 10 13 11 32 12
REMARK SMILES IDX 34 13 36 14 15 15 16 16 29 17 28 18 21 19 17 20 19 21 30 22
REMARK SMILES IDX 31 23 22 25 23 26 24 27 25 28 26 29 27 30 18 31 20 33 33 35
REMARK SMILES IDX 35 37 37 39 38 41 39 42 40 43 7 45 43 47 44 48 45 50 46 51
REMARK SMILES IDX 47 53 48 54 49 55 50 57 51 58 52 59 53 60 54 61 66 62 55 63
REMARK SMILES IDX 65 64 56 65 57 66 64 67 58 68 63 69 59 70 60 71 61 72 62 73
REMARK SMILES IDX 4 74 2 75 1 77 3 78
REMARK H PARENT 31 24 18 32 20 34 33 36 35 38 37 40 40 44 7 46 44 49 46 52
REMARK H PARENT 48 56 4 76
REMARK Flexibility Score: inf
ROOT
ATOM      1  C   UNL     1      25.315  29.346  21.283  1.00  0.00     0.272 C 
ATOM      2  C   UNL     1      24.798  29.897  22.572  1.00  0.00     0.113 C 
ATOM      3  C   UNL     1      23.347  29.693  22.668  1.00  0.00     0.145 C 
ATOM      4  C   UNL     1      22.641  29.283  21.363  1.00  0.00     0.142 C 
ATOM      5  C   UNL     1      23.287  29.954  20.243  1.00  0.00     0.178 C 
ATOM      6  O   UNL     1      24.678  30.005  20.246  1.00  0.00    -0.332 OA
ENDROOT
BRANCH   1   7
ATOM      7  O   UNL     1      25.302  27.990  21.171  1.00  0.00    -0.338 OA
BRANCH   7   8
ATOM      8  C   UNL     1      25.659  27.467  19.971  1.00  0.00     0.199 C 
BRANCH   8   9
ATOM      9  C   UNL     1      25.611  25.944  19.980  1.00  0.00     0.179 C 
ATOM     10  C   UNL     1      23.730  25.264  21.192  1.00  0.00     0.282 C 
ATOM     11  O   UNL     1      25.078  25.426  21.130  1.00  0.00    -0.341 OA
ATOM     12  C   UNL     1      22.921  25.599  20.005  1.00  0.00     0.202 C 
ATOM     13  C   UNL     1      23.607  25.180  18.732  1.00  0.00     0.179 C 
ATOM     14  C   UNL     1      25.086  25.329  18.733  1.00  0.00     0.177 C 
BRANCH  10  15
ATOM     15  O   UNL     1      23.291  25.862  22.369  1.00  0.00    -0.341 OA
BRANCH  15  16
ATOM     16  C   UNL     1      23.313  25.109  23.494  1.00  0.00     0.184 C 
ATOM     17  C   UNL     1      22.014  25.112  24.270  1.00  0.00     0.178 C 
ATOM     18  O   UNL     1      22.198  24.344  25.438  1.00  0.00    -0.341 OA
ATOM     19  C   UNL     1      22.994  25.060  26.331  1.00  0.00     0.281 C 
ATOM     20  C   UNL     1      24.320  25.785  24.446  1.00  0.00     0.180 C 
ATOM     21  C   UNL     1      24.405  24.987  25.732  1.00  0.00     0.202 C 
BRANCH  17  22
ATOM     22  C   UNL     1      20.855  24.486  23.541  1.00  0.00     0.191 C 
BRANCH  22  23
ATOM     23  O   UNL     1      20.500  25.422  22.538  1.00  0.00    -0.394 OA
ATOM     24  H   UNL     1      20.086  24.959  21.762  1.00  0.00     0.210 HD
ENDBRANCH  22  23
ENDBRANCH  17  22
BRANCH  19  25
ATOM     25  O   UNL     1      23.013  24.447  27.556  1.00  0.00    -0.350 OA
BRANCH  25  26
ATOM     26  C   UNL     1      22.332  25.085  28.561  1.00  0.00     0.169 C 
BRANCH  26  27
ATOM     27  C   UNL     1      22.936  26.385  29.013  1.00  0.00     0.119 C 
BRANCH  27  28
ATOM     28  N   UNL     1      21.890  27.410  28.987  1.00  0.00    -0.092 NA
ATOM     29  N   UNL     1      21.456  27.800  27.913  1.00  0.00     0.001 N 
ATOM     30  N   UNL     1      20.884  27.994  26.853  1.00  0.00    -0.003 NA
ENDBRANCH  27  28
ENDBRANCH  26  27
ENDBRANCH  25  26
ENDBRANCH  19  25
BRANCH  20  31
ATOM     31  O   UNL     1      25.534  25.987  23.852  1.00  0.00    -0.387 OA
ATOM     32  H   UNL     1      26.149  26.575  24.333  1.00  0.00     0.211 HD
ENDBRANCH  20  31
BRANCH  21  33
ATOM     33  O   UNL     1      25.351  25.531  26.558  1.00  0.00    -0.385 OA
ATOM     34  H   UNL     1      25.995  26.046  26.015  1.00  0.00     0.211 HD
ENDBRANCH  21  33
ENDBRANCH  15  16
ENDBRANCH  10  15
BRANCH  12  35
ATOM     35  O   UNL     1      21.737  24.836  20.034  1.00  0.00    -0.385 OA
ATOM     36  H   UNL     1      21.429  24.607  19.137  1.00  0.00     0.211 HD
ENDBRANCH  12  35
BRANCH  13  37
ATOM     37  O   UNL     1      23.015  25.872  17.648  1.00  0.00    -0.387 OA
ATOM     38  H   UNL     1      22.573  26.657  18.013  1.00  0.00     0.211 HD
ENDBRANCH  13  37
BRANCH  14  39
ATOM     39  O   UNL     1      25.608  25.983  17.626  1.00  0.00    -0.387 OA
ATOM     40  H   UNL     1      25.575  25.342  16.865  1.00  0.00     0.211 HD
ENDBRANCH  14  39
ENDBRANCH   8   9
ENDBRANCH   7   8
ENDBRANCH   1   7
BRANCH   1  41
ATOM     41  C   UNL     1      26.746  29.818  21.127  1.00  0.00     0.364 C 
ATOM     42  O   UNL     1      27.613  29.472  21.951  1.00  0.00    -0.246 OA
BRANCH  41  43
ATOM     43  O   UNL     1      27.078  30.630  20.079  1.00  0.00    -0.477 OA
ATOM     44  H   UNL     1      26.870  30.438  19.103  1.00  0.00     0.296 HD
ENDBRANCH  41  43
ENDBRANCH   1  41
BRANCH   3  45
ATOM     45  O   UNL     1      23.037  28.702  23.597  1.00  0.00    -0.391 OA
ATOM     46  H   UNL     1      23.842  28.230  23.891  1.00  0.00     0.211 HD
ENDBRANCH   3  45
BRANCH   5  47
ATOM     47  C   UNL     1      22.943  29.677  18.846  1.00  0.00     0.176 C 
BRANCH  47  48
ATOM     48  O   UNL     1      22.342  28.442  18.587  1.00  0.00    -0.388 OA
ATOM     49  H   UNL     1      22.960  27.716  18.395  1.00  0.00     0.211 HD
ENDBRANCH  47  48
BRANCH  47  50
ATOM     50  C   UNL     1      22.184  30.674  18.032  1.00  0.00     0.165 C 
BRANCH  50  51
ATOM     51  O   UNL     1      21.338  31.501  18.705  1.00  0.00    -0.388 OA
ATOM     52  H   UNL     1      21.418  32.449  18.422  1.00  0.00     0.211 HD
ENDBRANCH  50  51
BRANCH  50  53
ATOM     53  C   UNL     1      21.708  30.126  16.714  1.00  0.00     0.154 C 
BRANCH  53  54
ATOM     54  N   UNL     1      20.311  29.783  16.667  1.00  0.00    -0.319 N 
ATOM     55  C   UNL     1      19.812  28.460  16.605  1.00  0.00     0.407 C 
ATOM     56  H   UNL     1      19.577  30.540  16.679  1.00  0.00     0.167 HD
ATOM     57  O   UNL     1      20.598  27.508  16.579  1.00  0.00    -0.225 OA
BRANCH  55  58
ATOM     58  O   UNL     1      18.442  28.192  16.569  1.00  0.00    -0.443 OA
BRANCH  58  59
ATOM     59  C   UNL     1      17.449  29.102  16.962  1.00  0.00     0.294 C 
BRANCH  59  60
ATOM     60  C   UNL     1      16.873  28.712  18.266  1.00  0.00     0.121 A 
ATOM     61  C   UNL     1      16.001  29.435  19.077  1.00  0.00     0.144 A 
ATOM     62  N   UNL     1      17.067  27.544  18.946  1.00  0.00    -0.131 NA
ATOM     63  N   UNL     1      15.704  28.714  20.174  1.00  0.00    -0.220 N 
ATOM     64  N   UNL     1      16.363  27.582  20.063  1.00  0.00    -0.062 NA
BRANCH  63  65
ATOM     65  C   UNL     1      14.835  29.088  21.249  1.00  0.00     0.067 A 
ATOM     66  C   UNL     1      13.506  29.398  21.084  1.00  0.00     0.035 A 
ATOM     67  C   UNL     1      15.343  29.159  22.538  1.00  0.00     0.035 A 
ATOM     68  C   UNL     1      12.706  29.766  22.164  1.00  0.00     0.088 A 
ATOM     69  C   UNL     1      14.555  29.524  23.609  1.00  0.00     0.088 A 
ATOM     70  C   UNL     1      13.222  29.834  23.446  1.00  0.00     0.269 A 
BRANCH  70  71
ATOM     71  N   UNL     1      12.396  30.215  24.540  1.00  0.00     0.062 N 
ATOM     72  O   UNL     1      11.156  30.147  24.535  1.00  0.00    -0.258 OA
ATOM     73  O   UNL     1      13.012  30.689  25.671  1.00  0.00    -0.258 OA
ENDBRANCH  70  71
ENDBRANCH  63  65
ENDBRANCH  59  60
ENDBRANCH  58  59
ENDBRANCH  55  58
ENDBRANCH  53  54
ENDBRANCH  50  53
ENDBRANCH  47  50
ENDBRANCH   5  47
BRANCH   4  74
ATOM     74  N   UNL     1      21.307  29.866  21.586  1.00  0.00    -0.348 N 
ATOM     75  C   UNL     1      20.120  29.178  21.284  1.00  0.00     0.217 C 
ATOM     76  H   UNL     1      21.267  30.818  21.990  1.00  0.00     0.163 HD
ATOM     77  C   UNL     1      18.817  29.863  21.545  1.00  0.00     0.114 C 
ATOM     78  O   UNL     1      20.113  28.031  20.812  1.00  0.00    -0.275 OA
ENDBRANCH   4  74
TORSDOF 31
