REMARK VINA RESULT:    -4.941      3.441     10.831
REMARK INTER + INTRA:         -21.553
REMARK INTER:                 -14.780
REMARK INTRA:                  -6.773
REMARK UNBOUND:                -9.390
REMARK SMILES CC(=O)N[C@@H]1[C@@H](O)C[C@](OC[C@H]2O[C@@H](O[C@H]3[C@H](O)[C@@H](O)[C@H](OCCN=[N+]=[N-])O[C@@H]3CO)[C@H](O)[C@@H](O)[C@H]2O)(C(=O)O)O[C@H]1C(O)[C@H](O)CNC(=O)OCc1cn(-c2ccncc2)nn1
REMARK SMILES IDX 9 1 8 2 6 3 5 4 42 5 41 6 10 7 11 8 12 9 14 10 13 11 32 12
REMARK SMILES IDX 34 13 36 14 15 15 16 16 29 17 28 18 21 19 17 20 19 21 30 22
REMARK SMILES IDX 31 23 22 25 23 26 24 27 25 28 26 29 27 30 18 31 20 33 33 35
REMARK SMILES IDX 35 37 37 39 38 41 39 42 40 43 7 45 43 47 44 48 45 50 46 51
REMARK SMILES IDX 47 53 48 54 49 55 50 57 51 58 52 59 53 60 54 61 63 62 55 63
REMARK SMILES IDX 62 64 56 65 57 66 61 67 58 68 60 69 59 70 4 71 2 72 1 74
REMARK SMILES IDX 3 75
REMARK H PARENT 31 24 18 32 20 34 33 36 35 38 37 40 40 44 7 46 44 49 46 52
REMARK H PARENT 48 56 4 73
REMARK Flexibility Score: inf
ROOT
ATOM      1  C   UNL     1      23.225  24.602  22.442  1.00  0.00     0.272 C 
ATOM      2  C   UNL     1      24.244  23.545  21.970  1.00  0.00     0.113 C 
ATOM      3  C   UNL     1      25.672  24.064  22.168  1.00  0.00     0.145 C 
ATOM      4  C   UNL     1      25.847  25.229  21.137  1.00  0.00     0.142 C 
ATOM      5  C   UNL     1      24.684  26.150  21.365  1.00  0.00     0.178 C 
ATOM      6  O   UNL     1      24.024  25.759  22.523  1.00  0.00    -0.332 OA
ENDROOT
BRANCH   1   7
ATOM      7  O   UNL     1      22.840  24.358  23.679  1.00  0.00    -0.338 OA
BRANCH   7   8
ATOM      8  C   UNL     1      23.078  24.624  24.886  1.00  0.00     0.199 C 
BRANCH   8   9
ATOM      9  C   UNL     1      22.116  25.412  25.723  1.00  0.00     0.179 C 
ATOM     10  C   UNL     1      22.268  26.877  27.554  1.00  0.00     0.282 C 
ATOM     11  O   UNL     1      22.957  26.084  26.666  1.00  0.00    -0.341 OA
ATOM     12  C   UNL     1      21.568  27.995  26.846  1.00  0.00     0.202 C 
ATOM     13  C   UNL     1      20.681  27.425  25.738  1.00  0.00     0.179 C 
ATOM     14  C   UNL     1      21.530  26.543  24.872  1.00  0.00     0.177 C 
BRANCH  10  15
ATOM     15  O   UNL     1      23.286  27.403  28.390  1.00  0.00    -0.341 OA
BRANCH  15  16
ATOM     16  C   UNL     1      24.500  26.839  28.181  1.00  0.00     0.184 C 
ATOM     17  C   UNL     1      25.159  26.334  29.400  1.00  0.00     0.178 C 
ATOM     18  O   UNL     1      26.357  25.666  29.068  1.00  0.00    -0.341 OA
ATOM     19  C   UNL     1      27.260  26.774  28.848  1.00  0.00     0.281 C 
ATOM     20  C   UNL     1      25.422  27.928  27.550  1.00  0.00     0.180 C 
ATOM     21  C   UNL     1      26.846  27.403  27.571  1.00  0.00     0.202 C 
BRANCH  17  22
ATOM     22  C   UNL     1      24.304  25.439  30.215  1.00  0.00     0.191 C 
BRANCH  22  23
ATOM     23  O   UNL     1      23.569  24.537  29.431  1.00  0.00    -0.394 OA
ATOM     24  H   UNL     1      23.685  24.830  28.479  1.00  0.00     0.210 HD
ENDBRANCH  22  23
ENDBRANCH  17  22
BRANCH  19  25
ATOM     25  O   UNL     1      28.496  26.196  28.755  1.00  0.00    -0.350 OA
BRANCH  25  26
ATOM     26  C   UNL     1      28.769  25.343  29.780  1.00  0.00     0.169 C 
BRANCH  26  27
ATOM     27  C   UNL     1      29.000  25.960  31.121  1.00  0.00     0.119 C 
BRANCH  27  28
ATOM     28  N   UNL     1      28.261  25.304  32.180  1.00  0.00    -0.092 NA
ATOM     29  N   UNL     1      27.190  25.700  32.619  1.00  0.00     0.001 N 
ATOM     30  N   UNL     1      26.269  26.312  33.168  1.00  0.00    -0.003 NA
ENDBRANCH  27  28
ENDBRANCH  26  27
ENDBRANCH  25  26
ENDBRANCH  19  25
BRANCH  20  31
ATOM     31  O   UNL     1      25.024  28.058  26.241  1.00  0.00    -0.387 OA
ATOM     32  H   UNL     1      24.937  29.028  25.978  1.00  0.00     0.211 HD
ENDBRANCH  20  31
BRANCH  21  33
ATOM     33  O   UNL     1      27.733  28.412  27.225  1.00  0.00    -0.385 OA
ATOM     34  H   UNL     1      27.247  29.100  26.701  1.00  0.00     0.211 HD
ENDBRANCH  21  33
ENDBRANCH  15  16
ENDBRANCH  10  15
BRANCH  12  35
ATOM     35  O   UNL     1      20.709  28.692  27.729  1.00  0.00    -0.385 OA
ATOM     36  H   UNL     1      20.021  28.038  27.994  1.00  0.00     0.211 HD
ENDBRANCH  12  35
BRANCH  13  37
ATOM     37  O   UNL     1      20.085  28.401  24.975  1.00  0.00    -0.387 OA
ATOM     38  H   UNL     1      19.123  28.168  24.787  1.00  0.00     0.211 HD
ENDBRANCH  13  37
BRANCH  14  39
ATOM     39  O   UNL     1      22.636  27.246  24.367  1.00  0.00    -0.387 OA
ATOM     40  H   UNL     1      23.452  26.662  24.424  1.00  0.00     0.211 HD
ENDBRANCH  14  39
ENDBRANCH   8   9
ENDBRANCH   7   8
ENDBRANCH   1   7
BRANCH   1  41
ATOM     41  C   UNL     1      22.136  24.749  21.471  1.00  0.00     0.364 C 
ATOM     42  O   UNL     1      22.200  24.239  20.305  1.00  0.00    -0.246 OA
BRANCH  41  43
ATOM     43  O   UNL     1      20.977  25.439  21.736  1.00  0.00    -0.477 OA
ATOM     44  H   UNL     1      20.263  25.180  22.382  1.00  0.00     0.296 HD
ENDBRANCH  41  43
ENDBRANCH   1  41
BRANCH   3  45
ATOM     45  O   UNL     1      25.797  24.607  23.418  1.00  0.00    -0.391 OA
ATOM     46  H   UNL     1      26.670  25.020  23.560  1.00  0.00     0.211 HD
ENDBRANCH   3  45
BRANCH   5  47
ATOM     47  C   UNL     1      25.102  27.587  21.704  1.00  0.00     0.176 C 
BRANCH  47  48
ATOM     48  O   UNL     1      25.339  27.459  23.143  1.00  0.00    -0.388 OA
ATOM     49  H   UNL     1      24.540  26.980  23.516  1.00  0.00     0.211 HD
ENDBRANCH  47  48
BRANCH  47  50
ATOM     50  C   UNL     1      24.097  28.640  21.530  1.00  0.00     0.165 C 
BRANCH  50  51
ATOM     51  O   UNL     1      23.779  29.425  22.612  1.00  0.00    -0.388 OA
ATOM     52  H   UNL     1      24.099  30.358  22.490  1.00  0.00     0.211 HD
ENDBRANCH  50  51
BRANCH  50  53
ATOM     53  C   UNL     1      23.014  28.355  20.563  1.00  0.00     0.154 C 
BRANCH  53  54
ATOM     54  N   UNL     1      21.987  29.357  20.452  1.00  0.00    -0.319 N 
ATOM     55  C   UNL     1      20.828  29.309  21.264  1.00  0.00     0.407 C 
ATOM     56  H   UNL     1      22.122  30.103  19.747  1.00  0.00     0.167 HD
ATOM     57  O   UNL     1      20.741  28.363  22.079  1.00  0.00    -0.225 OA
BRANCH  55  58
ATOM     58  O   UNL     1      19.813  30.221  21.210  1.00  0.00    -0.443 OA
BRANCH  58  59
ATOM     59  C   UNL     1      18.462  29.988  21.547  1.00  0.00     0.294 C 
BRANCH  59  60
ATOM     60  C   UNL     1      17.700  29.388  20.403  1.00  0.00     0.121 A 
ATOM     61  C   UNL     1      17.049  30.010  19.361  1.00  0.00     0.144 A 
ATOM     62  N   UNL     1      17.514  28.062  20.198  1.00  0.00    -0.131 NA
ATOM     63  N   UNL     1      16.499  29.072  18.570  1.00  0.00    -0.220 N 
ATOM     64  N   UNL     1      16.798  27.886  19.103  1.00  0.00    -0.062 NA
BRANCH  63  65
ATOM     65  C   UNL     1      15.744  29.327  17.393  1.00  0.00     0.069 A 
ATOM     66  C   UNL     1      16.178  29.039  16.117  1.00  0.00     0.048 A 
ATOM     67  C   UNL     1      14.496  29.892  17.536  1.00  0.00     0.048 A 
ATOM     68  C   UNL     1      15.406  29.300  14.997  1.00  0.00     0.113 A 
ATOM     69  C   UNL     1      13.731  30.150  16.411  1.00  0.00     0.113 A 
ATOM     70  N   UNL     1      14.186  29.856  15.187  1.00  0.00    -0.265 NA
ENDBRANCH  63  65
ENDBRANCH  59  60
ENDBRANCH  58  59
ENDBRANCH  55  58
ENDBRANCH  53  54
ENDBRANCH  50  53
ENDBRANCH  47  50
ENDBRANCH   5  47
BRANCH   4  71
ATOM     71  N   UNL     1      25.807  24.539  19.871  1.00  0.00    -0.348 N 
ATOM     72  C   UNL     1      26.944  24.112  19.149  1.00  0.00     0.217 C 
ATOM     73  H   UNL     1      24.885  24.334  19.444  1.00  0.00     0.163 HD
ATOM     74  C   UNL     1      26.779  23.415  17.865  1.00  0.00     0.114 C 
ATOM     75  O   UNL     1      28.087  24.323  19.600  1.00  0.00    -0.275 OA
ENDBRANCH   4  71
TORSDOF 30
