REMARK VINA RESULT:    -6.312     17.658     22.413
REMARK INTER + INTRA:         -23.068
REMARK INTER:                 -15.290
REMARK INTRA:                  -7.778
REMARK UNBOUND:                -6.425
REMARK SMILES CC(=O)N[C@@H]1[C@@H](O)C[C@](OC[C@H]2O[C@@H](O[C@H]3[C@H](O)[C@@H](O)[C@H](OCCN=[N+]=[N-])O[C@@H]3CO)[C@H](O)[C@@H](O)[C@H]2O)(C(=O)O)O[C@H]1C(O)[C@H](O)CNC(=O)OCc1cn(-c2ccc(S(=O)(=O)Nc3nccs3)cc2)nn1
REMARK SMILES IDX 43 1 42 2 9 3 8 4 41 5 6 6 5 7 10 8 11 9 12 10 14 11 13 12
REMARK SMILES IDX 32 13 34 14 36 15 15 16 16 17 29 18 28 19 21 20 17 21 19 22
REMARK SMILES IDX 30 23 31 24 22 26 23 27 24 28 25 29 26 30 27 31 18 32 20 34
REMARK SMILES IDX 33 36 35 38 37 40 38 42 39 43 40 44 7 46 4 48 2 49 1 51 3 52
REMARK SMILES IDX 44 53 45 55 46 56 47 58 48 59 49 60 50 62 51 63 52 64 53 65
REMARK SMILES IDX 54 66 72 67 55 68 71 69 56 70 57 71 70 72 58 73 69 74 59 75
REMARK SMILES IDX 60 76 61 77 62 78 63 79 64 81 65 82 68 83 66 84 67 85
REMARK H PARENT 31 25 18 33 20 35 33 37 35 39 37 41 40 45 7 47 4 50 44 54
REMARK H PARENT 46 57 48 61 63 80
REMARK Flexibility Score: inf
ROOT
ATOM      1  C   UNL     1       5.192  22.939  32.940  1.00  0.00     0.176 C 
ENDROOT
BRANCH   1   2
ATOM      2  C   UNL     1       3.756  22.537  32.966  1.00  0.00     0.178 C 
ATOM      3  C   UNL     1       2.437  21.062  31.721  1.00  0.00     0.272 C 
ATOM      4  C   UNL     1       1.445  21.591  32.780  1.00  0.00     0.113 C 
ATOM      5  O   UNL     1       3.595  21.788  31.759  1.00  0.00    -0.332 OA
ATOM      6  C   UNL     1       1.374  23.070  32.830  1.00  0.00     0.145 C 
ATOM      7  C   UNL     1       2.779  23.677  32.805  1.00  0.00     0.142 C 
BRANCH   3   8
ATOM      8  O   UNL     1       1.891  21.179  30.468  1.00  0.00    -0.338 OA
BRANCH   8   9
ATOM      9  C   UNL     1       2.779  21.503  29.474  1.00  0.00     0.199 C 
BRANCH   9  10
ATOM     10  C   UNL     1       2.252  22.544  28.515  1.00  0.00     0.179 C 
ATOM     11  C   UNL     1       2.681  24.049  26.923  1.00  0.00     0.282 C 
ATOM     12  O   UNL     1       3.151  22.845  27.498  1.00  0.00    -0.341 OA
ATOM     13  C   UNL     1       1.546  23.664  26.005  1.00  0.00     0.202 C 
ATOM     14  C   UNL     1       1.077  22.241  26.326  1.00  0.00     0.179 C 
ATOM     15  C   UNL     1       0.983  22.062  27.830  1.00  0.00     0.177 C 
BRANCH  11  16
ATOM     16  O   UNL     1       3.641  24.722  26.248  1.00  0.00    -0.341 OA
BRANCH  16  17
ATOM     17  C   UNL     1       3.678  26.090  26.451  1.00  0.00     0.184 C 
ATOM     18  C   UNL     1       3.133  26.954  25.389  1.00  0.00     0.178 C 
ATOM     19  O   UNL     1       3.821  28.198  25.443  1.00  0.00    -0.341 OA
ATOM     20  C   UNL     1       5.103  28.078  24.888  1.00  0.00     0.281 C 
ATOM     21  C   UNL     1       5.077  26.544  26.848  1.00  0.00     0.180 C 
ATOM     22  C   UNL     1       5.886  27.017  25.639  1.00  0.00     0.202 C 
BRANCH  18  23
ATOM     23  C   UNL     1       1.673  27.365  25.580  1.00  0.00     0.191 C 
BRANCH  23  24
ATOM     24  O   UNL     1       1.213  27.237  26.855  1.00  0.00    -0.394 OA
ATOM     25  H   UNL     1       1.792  27.732  27.478  1.00  0.00     0.210 HD
ENDBRANCH  23  24
ENDBRANCH  18  23
BRANCH  20  26
ATOM     26  O   UNL     1       5.724  29.303  24.988  1.00  0.00    -0.350 OA
BRANCH  26  27
ATOM     27  C   UNL     1       6.196  29.826  23.811  1.00  0.00     0.169 C 
BRANCH  27  28
ATOM     28  C   UNL     1       5.224  29.708  22.662  1.00  0.00     0.119 C 
BRANCH  28  29
ATOM     29  N   UNL     1       5.909  29.037  21.588  1.00  0.00    -0.092 NA
ATOM     30  N   UNL     1       5.557  29.236  20.428  1.00  0.00     0.001 N 
ATOM     31  N   UNL     1       5.044  29.045  19.323  1.00  0.00    -0.003 NA
ENDBRANCH  28  29
ENDBRANCH  27  28
ENDBRANCH  26  27
ENDBRANCH  20  26
BRANCH  21  32
ATOM     32  O   UNL     1       5.018  27.621  27.732  1.00  0.00    -0.387 OA
ATOM     33  H   UNL     1       4.900  28.473  27.252  1.00  0.00     0.211 HD
ENDBRANCH  21  32
BRANCH  22  34
ATOM     34  O   UNL     1       6.268  25.951  24.836  1.00  0.00    -0.385 OA
ATOM     35  H   UNL     1       6.539  25.222  25.437  1.00  0.00     0.211 HD
ENDBRANCH  22  34
ENDBRANCH  16  17
ENDBRANCH  11  16
BRANCH  13  36
ATOM     36  O   UNL     1       0.388  24.450  26.231  1.00  0.00    -0.385 OA
ATOM     37  H   UNL     1       0.415  24.893  27.091  1.00  0.00     0.211 HD
ENDBRANCH  13  36
BRANCH  14  38
ATOM     38  O   UNL     1       1.902  21.305  25.722  1.00  0.00    -0.387 OA
ATOM     39  H   UNL     1       2.043  20.506  26.294  1.00  0.00     0.211 HD
ENDBRANCH  14  38
BRANCH  15  40
ATOM     40  O   UNL     1       0.740  20.722  28.083  1.00  0.00    -0.387 OA
ATOM     41  H   UNL     1       1.460  20.122  27.829  1.00  0.00     0.211 HD
ENDBRANCH  15  40
ENDBRANCH   9  10
ENDBRANCH   8   9
ENDBRANCH   3   8
BRANCH   3  42
ATOM     42  C   UNL     1       2.674  19.662  32.080  1.00  0.00     0.364 C 
ATOM     43  O   UNL     1       2.783  19.284  33.291  1.00  0.00    -0.246 OA
BRANCH  42  44
ATOM     44  O   UNL     1       2.794  18.656  31.138  1.00  0.00    -0.477 OA
ATOM     45  H   UNL     1       2.660  18.874  30.141  1.00  0.00     0.296 HD
ENDBRANCH  42  44
ENDBRANCH   3  42
BRANCH   6  46
ATOM     46  O   UNL     1       0.581  23.618  31.822  1.00  0.00    -0.391 OA
ATOM     47  H   UNL     1      -0.152  22.994  31.605  1.00  0.00     0.211 HD
ENDBRANCH   6  46
BRANCH   7  48
ATOM     48  N   UNL     1       2.877  24.722  33.760  1.00  0.00    -0.348 N 
ATOM     49  C   UNL     1       2.481  26.045  33.414  1.00  0.00     0.217 C 
ATOM     50  H   UNL     1       3.231  24.562  34.722  1.00  0.00     0.163 HD
ATOM     51  C   UNL     1       2.548  27.184  34.344  1.00  0.00     0.114 C 
ATOM     52  O   UNL     1       2.039  26.270  32.236  1.00  0.00    -0.275 OA
ENDBRANCH   7  48
ENDBRANCH   1   2
BRANCH   1  53
ATOM     53  O   UNL     1       5.329  24.045  32.043  1.00  0.00    -0.388 OA
ATOM     54  H   UNL     1       5.877  24.747  32.441  1.00  0.00     0.211 HD
ENDBRANCH   1  53
BRANCH   1  55
ATOM     55  C   UNL     1       6.184  21.881  32.551  1.00  0.00     0.165 C 
BRANCH  55  56
ATOM     56  O   UNL     1       5.701  20.704  33.219  1.00  0.00    -0.388 OA
ATOM     57  H   UNL     1       6.082  20.680  34.134  1.00  0.00     0.211 HD
ENDBRANCH  55  56
BRANCH  55  58
ATOM     58  C   UNL     1       7.540  22.111  33.205  1.00  0.00     0.154 C 
BRANCH  58  59
ATOM     59  N   UNL     1       7.348  23.104  34.229  1.00  0.00    -0.319 N 
ATOM     60  C   UNL     1       8.389  23.934  34.723  1.00  0.00     0.407 C 
ATOM     61  H   UNL     1       6.380  23.257  34.665  1.00  0.00     0.167 HD
ATOM     62  O   UNL     1       9.536  23.849  34.268  1.00  0.00    -0.225 OA
BRANCH  60  63
ATOM     63  O   UNL     1       8.157  24.862  35.730  1.00  0.00    -0.443 OA
BRANCH  63  64
ATOM     64  C   UNL     1       8.755  26.124  35.844  1.00  0.00     0.294 C 
BRANCH  64  65
ATOM     65  C   UNL     1       8.459  27.058  34.744  1.00  0.00     0.121 A 
ATOM     66  C   UNL     1       7.225  27.220  34.107  1.00  0.00     0.144 A 
ATOM     67  N   UNL     1       9.263  27.927  34.135  1.00  0.00    -0.131 NA
ATOM     68  N   UNL     1       7.323  28.174  33.145  1.00  0.00    -0.220 N 
ATOM     69  N   UNL     1       8.577  28.584  33.186  1.00  0.00    -0.062 NA
BRANCH  68  70
ATOM     70  C   UNL     1       6.247  28.605  32.294  1.00  0.00     0.066 A 
ATOM     71  C   UNL     1       5.352  27.733  31.744  1.00  0.00     0.030 A 
ATOM     72  C   UNL     1       6.132  29.957  32.021  1.00  0.00     0.030 A 
ATOM     73  C   UNL     1       4.334  28.201  30.915  1.00  0.00     0.024 A 
ATOM     74  C   UNL     1       5.146  30.467  31.211  1.00  0.00     0.024 A 
ATOM     75  C   UNL     1       4.254  29.552  30.668  1.00  0.00     0.088 A 
BRANCH  75  76
ATOM     76  S   UNL     1       2.995  30.169  29.628  1.00  0.00     0.263 S 
ATOM     77  O   UNL     1       2.725  29.124  28.562  1.00  0.00    -0.201 OA
ATOM     78  O   UNL     1       3.552  31.383  28.939  1.00  0.00    -0.201 OA
BRANCH  76  79
ATOM     79  N   UNL     1       1.606  30.531  30.543  1.00  0.00    -0.255 N 
ATOM     80  H   UNL     1       1.479  31.502  30.880  1.00  0.00     0.182 HD
BRANCH  79  81
ATOM     81  C   UNL     1       0.682  29.537  30.820  1.00  0.00     0.196 A 
ATOM     82  N   UNL     1       0.068  28.584  30.235  1.00  0.00    -0.228 NA
ATOM     83  S   UNL     1      -0.032  29.348  32.524  1.00  0.00    -0.105 S 
ATOM     84  C   UNL     1      -0.779  27.786  30.771  1.00  0.00     0.125 A 
ATOM     85  C   UNL     1      -1.093  27.925  32.096  1.00  0.00     0.089 A 
ENDBRANCH  79  81
ENDBRANCH  76  79
ENDBRANCH  75  76
ENDBRANCH  68  70
ENDBRANCH  64  65
ENDBRANCH  63  64
ENDBRANCH  60  63
ENDBRANCH  58  59
ENDBRANCH  55  58
ENDBRANCH   1  55
TORSDOF 33
