REMARK VINA RESULT:    -4.827      2.937     10.685
REMARK INTER + INTRA:         -22.253
REMARK INTER:                 -15.015
REMARK INTRA:                  -7.238
REMARK UNBOUND:                -8.679
REMARK SMILES CCOC(CCn1cc(COC(=O)NC[C@@H](O)C(O)[C@@H]2O[C@@](OC[C@H]3O[C@@H](O[C@H]4[C@H](O)[C@@H](O)[C@H](OCCN=[N+]=[N-])O[C@@H]4CO)[C@H](O)[C@@H](O)[C@H]3O)(C(=O)O)C[C@H](O)[C@H]2NC(C)=O)nn1)OCC
REMARK SMILES IDX 18 1 20 2 22 3 54 4 21 5 55 6 57 7 23 8 24 9 25 10 27 11
REMARK SMILES IDX 26 12 45 13 47 14 49 15 28 16 29 17 42 18 41 19 34 20 30 21
REMARK SMILES IDX 32 22 43 23 44 24 35 26 36 27 37 28 38 29 39 30 40 31 31 32
REMARK SMILES IDX 33 34 46 36 48 38 50 40 51 42 52 43 53 44 56 46 58 48 59 49
REMARK SMILES IDX 60 51 61 52 19 53 16 55 17 56 15 58 14 59 12 60 13 62 11 63
REMARK SMILES IDX 10 64 9 65 8 66 62 67 7 68 63 69 6 70 5 71 4 72 3 73 2 74
REMARK SMILES IDX 1 75 64 76 65 77 66 78
REMARK H PARENT 44 25 31 33 33 35 46 37 48 39 50 41 53 45 56 47 58 50 19 54
REMARK H PARENT 17 57 14 61
REMARK Flexibility Score: inf
ROOT
ATOM      1  C   UNL     1      22.359  27.319  19.848  1.00  0.00     0.176 C 
ENDROOT
BRANCH   1   2
ATOM      2  C   UNL     1      22.610  26.187  20.799  1.00  0.00     0.178 C 
ATOM      3  C   UNL     1      22.681  25.595  23.034  1.00  0.00     0.272 C 
ATOM      4  C   UNL     1      22.899  24.268  22.397  1.00  0.00     0.113 C 
ATOM      5  O   UNL     1      22.537  26.649  22.104  1.00  0.00    -0.332 OA
ATOM      6  C   UNL     1      23.889  24.227  21.285  1.00  0.00     0.145 C 
ATOM      7  C   UNL     1      24.028  25.622  20.663  1.00  0.00     0.142 C 
BRANCH   3   8
ATOM      8  O   UNL     1      23.532  25.998  23.982  1.00  0.00    -0.338 OA
BRANCH   8   9
ATOM      9  C   UNL     1      24.183  25.129  24.776  1.00  0.00     0.199 C 
BRANCH   9  10
ATOM     10  C   UNL     1      24.275  25.644  26.194  1.00  0.00     0.179 C 
ATOM     11  C   UNL     1      24.320  27.438  27.545  1.00  0.00     0.282 C 
ATOM     12  O   UNL     1      23.732  26.904  26.367  1.00  0.00    -0.341 OA
ATOM     13  C   UNL     1      23.760  26.708  28.708  1.00  0.00     0.202 C 
ATOM     14  C   UNL     1      24.022  25.228  28.555  1.00  0.00     0.179 C 
ATOM     15  C   UNL     1      23.659  24.678  27.201  1.00  0.00     0.177 C 
BRANCH  11  16
ATOM     16  O   UNL     1      24.120  28.823  27.558  1.00  0.00    -0.341 OA
BRANCH  16  17
ATOM     17  C   UNL     1      22.957  29.109  26.916  1.00  0.00     0.184 C 
ATOM     18  C   UNL     1      22.990  30.010  25.742  1.00  0.00     0.178 C 
ATOM     19  O   UNL     1      21.791  29.841  25.035  1.00  0.00    -0.341 OA
ATOM     20  C   UNL     1      20.710  30.332  25.783  1.00  0.00     0.281 C 
ATOM     21  C   UNL     1      21.949  29.793  27.894  1.00  0.00     0.180 C 
ATOM     22  C   UNL     1      20.612  29.681  27.147  1.00  0.00     0.202 C 
BRANCH  18  23
ATOM     23  C   UNL     1      24.126  29.675  24.823  1.00  0.00     0.191 C 
BRANCH  23  24
ATOM     24  O   UNL     1      23.777  28.711  23.878  1.00  0.00    -0.394 OA
ATOM     25  H   UNL     1      24.052  27.812  24.132  1.00  0.00     0.210 HD
ENDBRANCH  23  24
ENDBRANCH  18  23
BRANCH  20  26
ATOM     26  O   UNL     1      19.565  30.013  25.076  1.00  0.00    -0.350 OA
BRANCH  26  27
ATOM     27  C   UNL     1      19.038  30.994  24.292  1.00  0.00     0.169 C 
BRANCH  27  28
ATOM     28  C   UNL     1      18.914  30.518  22.868  1.00  0.00     0.119 C 
BRANCH  28  29
ATOM     29  N   UNL     1      17.618  30.933  22.335  1.00  0.00    -0.092 NA
ATOM     30  N   UNL     1      17.556  30.969  21.089  1.00  0.00     0.001 N 
ATOM     31  N   UNL     1      17.396  31.433  19.957  1.00  0.00    -0.003 NA
ENDBRANCH  28  29
ENDBRANCH  27  28
ENDBRANCH  26  27
ENDBRANCH  20  26
BRANCH  21  32
ATOM     32  O   UNL     1      21.891  29.131  29.091  1.00  0.00    -0.387 OA
ATOM     33  H   UNL     1      21.293  29.567  29.747  1.00  0.00     0.211 HD
ENDBRANCH  21  32
BRANCH  22  34
ATOM     34  O   UNL     1      19.598  30.268  27.854  1.00  0.00    -0.385 OA
ATOM     35  H   UNL     1      18.778  30.240  27.268  1.00  0.00     0.211 HD
ENDBRANCH  22  34
ENDBRANCH  16  17
ENDBRANCH  11  16
BRANCH  13  36
ATOM     36  O   UNL     1      24.394  27.084  29.903  1.00  0.00    -0.385 OA
ATOM     37  H   UNL     1      24.168  26.476  30.642  1.00  0.00     0.211 HD
ENDBRANCH  13  36
BRANCH  14  38
ATOM     38  O   UNL     1      23.464  24.492  29.594  1.00  0.00    -0.387 OA
ATOM     39  H   UNL     1      23.408  25.030  30.429  1.00  0.00     0.211 HD
ENDBRANCH  14  38
BRANCH  15  40
ATOM     40  O   UNL     1      22.289  24.616  27.000  1.00  0.00    -0.387 OA
ATOM     41  H   UNL     1      21.881  23.917  27.558  1.00  0.00     0.211 HD
ENDBRANCH  15  40
ENDBRANCH   9  10
ENDBRANCH   8   9
ENDBRANCH   3   8
BRANCH   3  42
ATOM     42  C   UNL     1      21.330  25.533  23.679  1.00  0.00     0.364 C 
ATOM     43  O   UNL     1      20.990  26.340  24.564  1.00  0.00    -0.246 OA
BRANCH  42  44
ATOM     44  O   UNL     1      20.398  24.568  23.314  1.00  0.00    -0.477 OA
ATOM     45  H   UNL     1      19.907  24.071  24.049  1.00  0.00     0.296 HD
ENDBRANCH  42  44
ENDBRANCH   3  42
BRANCH   6  46
ATOM     46  O   UNL     1      25.117  23.714  21.621  1.00  0.00    -0.391 OA
ATOM     47  H   UNL     1      25.247  22.767  21.365  1.00  0.00     0.211 HD
ENDBRANCH   6  46
BRANCH   7  48
ATOM     48  N   UNL     1      24.493  25.573  19.316  1.00  0.00    -0.348 N 
ATOM     49  C   UNL     1      25.597  26.397  18.954  1.00  0.00     0.217 C 
ATOM     50  H   UNL     1      24.071  24.967  18.586  1.00  0.00     0.163 HD
ATOM     51  C   UNL     1      26.105  26.369  17.558  1.00  0.00     0.114 C 
ATOM     52  O   UNL     1      26.162  27.161  19.807  1.00  0.00    -0.275 OA
ENDBRANCH   7  48
ENDBRANCH   1   2
BRANCH   1  53
ATOM     53  O   UNL     1      21.705  26.765  18.732  1.00  0.00    -0.388 OA
ATOM     54  H   UNL     1      21.334  27.491  18.151  1.00  0.00     0.211 HD
ENDBRANCH   1  53
BRANCH   1  55
ATOM     55  C   UNL     1      21.376  28.268  20.504  1.00  0.00     0.165 C 
BRANCH  55  56
ATOM     56  O   UNL     1      20.233  27.620  20.873  1.00  0.00    -0.388 OA
ATOM     57  H   UNL     1      19.761  28.020  21.646  1.00  0.00     0.211 HD
ENDBRANCH  55  56
BRANCH  55  58
ATOM     58  C   UNL     1      21.063  29.415  19.584  1.00  0.00     0.154 C 
BRANCH  58  59
ATOM     59  N   UNL     1      19.733  29.439  19.049  1.00  0.00    -0.319 N 
ATOM     60  C   UNL     1      19.358  28.947  17.789  1.00  0.00     0.407 C 
ATOM     61  H   UNL     1      18.993  29.872  19.682  1.00  0.00     0.167 HD
ATOM     62  O   UNL     1      20.160  28.422  16.998  1.00  0.00    -0.225 OA
BRANCH  60  63
ATOM     63  O   UNL     1      18.015  29.032  17.359  1.00  0.00    -0.443 OA
BRANCH  63  64
ATOM     64  C   UNL     1      17.154  27.900  17.550  1.00  0.00     0.294 C 
BRANCH  64  65
ATOM     65  C   UNL     1      16.340  28.128  18.772  1.00  0.00     0.120 A 
ATOM     66  C   UNL     1      15.178  28.852  18.879  1.00  0.00     0.138 A 
ATOM     67  N   UNL     1      16.614  27.664  19.994  1.00  0.00    -0.132 NA
ATOM     68  N   UNL     1      14.798  28.795  20.173  1.00  0.00    -0.252 N 
ATOM     69  N   UNL     1      15.690  28.067  20.820  1.00  0.00    -0.067 NA
BRANCH  68  70
ATOM     70  C   UNL     1      13.623  29.429  20.696  1.00  0.00     0.151 C 
BRANCH  70  71
ATOM     71  C   UNL     1      13.280  29.050  22.108  1.00  0.00     0.086 C 
BRANCH  71  72
ATOM     72  C   UNL     1      13.323  30.302  22.984  1.00  0.00     0.251 C 
BRANCH  72  73
ATOM     73  O   UNL     1      13.623  29.875  24.264  1.00  0.00    -0.353 OA
BRANCH  73  74
ATOM     74  C   UNL     1      14.921  30.196  24.639  1.00  0.00     0.160 C 
ATOM     75  C   UNL     1      14.950  30.953  25.952  1.00  0.00     0.035 C 
ENDBRANCH  73  74
ENDBRANCH  72  73
BRANCH  72  76
ATOM     76  O   UNL     1      12.201  31.063  22.854  1.00  0.00    -0.353 OA
BRANCH  76  77
ATOM     77  C   UNL     1      11.178  30.831  23.733  1.00  0.00     0.160 C 
ATOM     78  C   UNL     1      10.813  32.125  24.423  1.00  0.00     0.035 C 
ENDBRANCH  76  77
ENDBRANCH  72  76
ENDBRANCH  71  72
ENDBRANCH  70  71
ENDBRANCH  68  70
ENDBRANCH  64  65
ENDBRANCH  63  64
ENDBRANCH  60  63
ENDBRANCH  58  59
ENDBRANCH  55  58
ENDBRANCH   1  55
TORSDOF 36
