REMARK VINA RESULT:    -6.193      4.374      6.942
REMARK INTER + INTRA:         -23.000
REMARK INTER:                 -15.967
REMARK INTRA:                  -7.033
REMARK UNBOUND:                -7.033
REMARK SMILES CC(=O)N[C@@H]1[C@@H](O)C[C@](OC[C@H]2O[C@@H](O[C@H]3[C@H](O)[C@@H](O)[C@H](OCCN=[N+]=[N-])O[C@@H]3CO)[C@H](O)[C@@H](O)[C@H]2O)(C(=O)O)O[C@H]1C(O)[C@H](O)CNC(=O)OCc1cn(C(C)(C)C(=O)c2c[nH]c3ccccc23)nn1
REMARK SMILES IDX 9 1 8 2 6 3 5 4 42 5 41 6 10 7 11 8 12 9 14 10 13 11 32 12
REMARK SMILES IDX 34 13 36 14 15 15 16 16 29 17 28 18 21 19 17 20 19 21 30 22
REMARK SMILES IDX 31 23 22 25 23 26 24 27 25 28 26 29 27 30 18 31 20 33 33 35
REMARK SMILES IDX 35 37 37 39 38 41 39 42 40 43 7 45 43 47 44 48 45 50 46 51
REMARK SMILES IDX 47 53 48 54 49 55 50 57 51 58 52 59 53 60 54 61 71 62 55 63
REMARK SMILES IDX 70 64 56 65 57 66 58 67 59 68 60 69 61 70 62 71 69 72 63 73
REMARK SMILES IDX 64 74 68 75 65 77 67 78 66 79 4 80 2 81 1 83 3 84
REMARK H PARENT 31 24 18 32 20 34 33 36 35 38 37 40 40 44 7 46 44 49 46 52
REMARK H PARENT 48 56 63 76 4 82
REMARK Flexibility Score: inf
ROOT
ATOM      1  C   UNL     1      20.427  30.758  17.603  1.00  0.00     0.272 C 
ATOM      2  C   UNL     1      21.734  31.001  16.868  1.00  0.00     0.113 C 
ATOM      3  C   UNL     1      22.407  29.708  16.482  1.00  0.00     0.145 C 
ATOM      4  C   UNL     1      22.887  28.993  17.793  1.00  0.00     0.142 C 
ATOM      5  C   UNL     1      21.826  29.288  18.803  1.00  0.00     0.178 C 
ATOM      6  O   UNL     1      20.608  29.504  18.192  1.00  0.00    -0.332 OA
ENDROOT
BRANCH   1   7
ATOM      7  O   UNL     1      19.299  30.828  16.891  1.00  0.00    -0.338 OA
BRANCH   7   8
ATOM      8  C   UNL     1      18.990  30.739  15.641  1.00  0.00     0.199 C 
BRANCH   8   9
ATOM      9  C   UNL     1      18.770  29.314  15.128  1.00  0.00     0.179 C 
ATOM     10  C   UNL     1      16.653  28.832  16.083  1.00  0.00     0.282 C 
ATOM     11  O   UNL     1      17.979  28.606  15.967  1.00  0.00    -0.341 OA
ATOM     12  C   UNL     1      15.944  29.026  14.771  1.00  0.00     0.202 C 
ATOM     13  C   UNL     1      16.887  28.694  13.620  1.00  0.00     0.179 C 
ATOM     14  C   UNL     1      18.191  29.387  13.742  1.00  0.00     0.177 C 
BRANCH  10  15
ATOM     15  O   UNL     1      16.414  29.932  16.887  1.00  0.00    -0.341 OA
BRANCH  15  16
ATOM     16  C   UNL     1      15.829  29.625  18.081  1.00  0.00     0.184 C 
ATOM     17  C   UNL     1      14.650  30.426  18.499  1.00  0.00     0.178 C 
ATOM     18  O   UNL     1      13.977  29.666  19.478  1.00  0.00    -0.341 OA
ATOM     19  C   UNL     1      14.715  29.438  20.603  1.00  0.00     0.281 C 
ATOM     20  C   UNL     1      16.806  29.623  19.240  1.00  0.00     0.180 C 
ATOM     21  C   UNL     1      16.103  28.886  20.359  1.00  0.00     0.202 C 
BRANCH  17  22
ATOM     22  C   UNL     1      13.630  30.664  17.405  1.00  0.00     0.191 C 
BRANCH  22  23
ATOM     23  O   UNL     1      13.296  29.414  16.871  1.00  0.00    -0.394 OA
ATOM     24  H   UNL     1      12.654  28.920  17.432  1.00  0.00     0.210 HD
ENDBRANCH  22  23
ENDBRANCH  17  22
BRANCH  19  25
ATOM     25  O   UNL     1      14.048  28.469  21.359  1.00  0.00    -0.350 OA
BRANCH  25  26
ATOM     26  C   UNL     1      12.944  29.057  21.948  1.00  0.00     0.169 C 
BRANCH  26  27
ATOM     27  C   UNL     1      13.320  30.075  22.991  1.00  0.00     0.119 C 
BRANCH  27  28
ATOM     28  N   UNL     1      12.807  29.767  24.308  1.00  0.00    -0.092 NA
ATOM     29  N   UNL     1      11.615  29.435  24.471  1.00  0.00     0.001 N 
ATOM     30  N   UNL     1      10.641  28.678  24.504  1.00  0.00    -0.003 NA
ENDBRANCH  27  28
ENDBRANCH  26  27
ENDBRANCH  25  26
ENDBRANCH  19  25
BRANCH  20  31
ATOM     31  O   UNL     1      17.994  28.998  18.944  1.00  0.00    -0.387 OA
ATOM     32  H   UNL     1      17.792  28.140  18.513  1.00  0.00     0.211 HD
ENDBRANCH  20  31
BRANCH  21  33
ATOM     33  O   UNL     1      16.836  29.088  21.528  1.00  0.00    -0.385 OA
ATOM     34  H   UNL     1      16.727  28.336  22.171  1.00  0.00     0.211 HD
ENDBRANCH  21  33
ENDBRANCH  15  16
ENDBRANCH  10  15
BRANCH  12  35
ATOM     35  O   UNL     1      14.761  28.297  14.656  1.00  0.00    -0.385 OA
ATOM     36  H   UNL     1      14.930  27.484  14.137  1.00  0.00     0.211 HD
ENDBRANCH  12  35
BRANCH  13  37
ATOM     37  O   UNL     1      16.195  29.104  12.456  1.00  0.00    -0.387 OA
ATOM     38  H   UNL     1      16.202  28.390  11.773  1.00  0.00     0.211 HD
ENDBRANCH  13  37
BRANCH  14  39
ATOM     39  O   UNL     1      18.055  30.761  13.424  1.00  0.00    -0.387 OA
ATOM     40  H   UNL     1      18.791  31.029  12.814  1.00  0.00     0.211 HD
ENDBRANCH  14  39
ENDBRANCH   8   9
ENDBRANCH   7   8
ENDBRANCH   1   7
BRANCH   1  41
ATOM     41  C   UNL     1      20.319  31.781  18.667  1.00  0.00     0.364 C 
ATOM     42  O   UNL     1      21.026  32.818  18.584  1.00  0.00    -0.246 OA
BRANCH  41  43
ATOM     43  O   UNL     1      19.500  31.670  19.746  1.00  0.00    -0.477 OA
ATOM     44  H   UNL     1      19.258  32.402  20.410  1.00  0.00     0.296 HD
ENDBRANCH  41  43
ENDBRANCH   1  41
BRANCH   3  45
ATOM     45  O   UNL     1      21.598  28.769  15.887  1.00  0.00    -0.391 OA
ATOM     46  H   UNL     1      20.682  28.723  16.286  1.00  0.00     0.211 HD
ENDBRANCH   3  45
BRANCH   5  47
ATOM     47  C   UNL     1      21.594  28.281  19.868  1.00  0.00     0.176 C 
BRANCH  47  48
ATOM     48  O   UNL     1      22.040  27.020  19.544  1.00  0.00    -0.388 OA
ATOM     49  H   UNL     1      21.898  26.330  20.251  1.00  0.00     0.211 HD
ENDBRANCH  47  48
BRANCH  47  50
ATOM     50  C   UNL     1      21.909  28.703  21.286  1.00  0.00     0.165 C 
BRANCH  50  51
ATOM     51  O   UNL     1      22.764  27.867  21.925  1.00  0.00    -0.388 OA
ATOM     52  H   UNL     1      22.860  27.010  21.486  1.00  0.00     0.211 HD
ENDBRANCH  50  51
BRANCH  50  53
ATOM     53  C   UNL     1      20.624  29.027  21.976  1.00  0.00     0.154 C 
BRANCH  53  54
ATOM     54  N   UNL     1      20.699  29.659  23.239  1.00  0.00    -0.319 N 
ATOM     55  C   UNL     1      19.567  29.857  24.105  1.00  0.00     0.407 C 
ATOM     56  H   UNL     1      21.630  30.023  23.604  1.00  0.00     0.167 HD
ATOM     57  O   UNL     1      18.421  29.491  23.775  1.00  0.00    -0.225 OA
BRANCH  55  58
ATOM     58  O   UNL     1      19.717  30.463  25.338  1.00  0.00    -0.443 OA
BRANCH  58  59
ATOM     59  C   UNL     1      20.967  30.615  25.947  1.00  0.00     0.294 C 
BRANCH  59  60
ATOM     60  C   UNL     1      21.305  29.333  26.640  1.00  0.00     0.120 A 
ATOM     61  C   UNL     1      22.347  28.463  26.268  1.00  0.00     0.139 A 
ATOM     62  N   UNL     1      20.731  28.725  27.685  1.00  0.00    -0.132 NA
ATOM     63  N   UNL     1      22.355  27.398  27.081  1.00  0.00    -0.239 N 
ATOM     64  N   UNL     1      21.374  27.569  27.933  1.00  0.00    -0.066 NA
BRANCH  63  65
ATOM     65  C   UNL     1      23.290  26.296  26.997  1.00  0.00     0.122 C 
ATOM     66  C   UNL     1      23.578  25.857  28.475  1.00  0.00     0.046 C 
ATOM     67  C   UNL     1      24.652  26.695  26.482  1.00  0.00     0.046 C 
BRANCH  65  68
ATOM     68  C   UNL     1      22.724  25.140  26.329  1.00  0.00     0.192 C 
ATOM     69  O   UNL     1      22.623  24.080  27.087  1.00  0.00    -0.291 OA
BRANCH  68  70
ATOM     70  C   UNL     1      22.262  24.964  24.987  1.00  0.00     0.045 A 
ATOM     71  C   UNL     1      20.923  25.110  24.603  1.00  0.00     0.095 A 
ATOM     72  C   UNL     1      22.957  24.611  23.847  1.00  0.00     0.010 A 
ATOM     73  N   UNL     1      20.842  24.857  23.311  1.00  0.00    -0.360 N 
ATOM     74  C   UNL     1      22.034  24.549  22.800  1.00  0.00     0.046 A 
ATOM     75  C   UNL     1      24.265  24.331  23.561  1.00  0.00     0.011 A 
ATOM     76  H   UNL     1      19.929  24.899  22.774  1.00  0.00     0.166 HD
ATOM     77  C   UNL     1      22.426  24.216  21.515  1.00  0.00     0.027 A 
ATOM     78  C   UNL     1      24.656  23.996  22.266  1.00  0.00     0.001 A 
ATOM     79  C   UNL     1      23.738  23.941  21.259  1.00  0.00     0.002 A 
ENDBRANCH  68  70
ENDBRANCH  65  68
ENDBRANCH  63  65
ENDBRANCH  59  60
ENDBRANCH  58  59
ENDBRANCH  55  58
ENDBRANCH  53  54
ENDBRANCH  50  53
ENDBRANCH  47  50
ENDBRANCH   5  47
BRANCH   4  80
ATOM     80  N   UNL     1      24.118  29.712  18.110  1.00  0.00    -0.348 N 
ATOM     81  C   UNL     1      25.124  29.217  18.977  1.00  0.00     0.217 C 
ATOM     82  H   UNL     1      24.278  30.661  17.674  1.00  0.00     0.163 HD
ATOM     83  C   UNL     1      26.375  29.954  19.300  1.00  0.00     0.114 C 
ATOM     84  O   UNL     1      24.909  28.067  19.493  1.00  0.00    -0.275 OA
ENDBRANCH   4  80
TORSDOF 32
