REMARK VINA RESULT:    -6.032     11.534     17.116
REMARK INTER + INTRA:         -21.349
REMARK INTER:                 -16.696
REMARK INTRA:                  -4.652
REMARK UNBOUND:                -5.091
REMARK SMILES C=CCCCCn1cc(COC(=O)NC[C@@H](O)C(O)[C@@H]2O[C@@](OC[C@H]3O[C@@H](O[C@H]4[C@H](O)[C@@H](O)[C@H](OCCN=[N+]=[N-])O[C@@H]4CO)[C@H](O)[C@@H](O)[C@H]3O)(C(=O)O)C[C@H](O)[C@H]2NC(C)=O)nn1
REMARK SMILES IDX 18 1 20 2 22 3 54 4 21 5 55 6 57 7 23 8 24 9 25 10 27 11
REMARK SMILES IDX 26 12 45 13 47 14 49 15 28 16 29 17 42 18 41 19 34 20 30 21
REMARK SMILES IDX 32 22 43 23 44 24 35 26 36 27 37 28 38 29 39 30 40 31 31 32
REMARK SMILES IDX 33 34 46 36 48 38 50 40 51 42 52 43 53 44 56 46 58 48 59 49
REMARK SMILES IDX 60 51 61 52 19 53 16 55 17 56 15 58 14 59 12 60 13 62 11 63
REMARK SMILES IDX 10 64 9 65 8 66 62 67 7 68 63 69 6 70 5 71 4 72 3 73 2 74
REMARK SMILES IDX 1 75
REMARK H PARENT 44 25 31 33 33 35 46 37 48 39 50 41 53 45 56 47 58 50 19 54
REMARK H PARENT 17 57 14 61
REMARK Flexibility Score: inf
ROOT
ATOM      1  C   UNL     1      33.205  21.138  29.428  1.00  0.00     0.176 C 
ENDROOT
BRANCH   1   2
ATOM      2  C   UNL     1      33.117  19.667  29.010  1.00  0.00     0.178 C 
ATOM      3  C   UNL     1      32.480  18.334  27.248  1.00  0.00     0.272 C 
ATOM      4  C   UNL     1      31.908  17.350  28.181  1.00  0.00     0.113 C 
ATOM      5  O   UNL     1      32.362  19.624  27.892  1.00  0.00    -0.332 OA
ATOM      6  C   UNL     1      32.502  17.318  29.521  1.00  0.00     0.145 C 
ATOM      7  C   UNL     1      32.963  18.666  30.051  1.00  0.00     0.142 C 
BRANCH   3   8
ATOM      8  O   UNL     1      31.697  18.572  26.128  1.00  0.00    -0.338 OA
BRANCH   8   9
ATOM      9  C   UNL     1      31.338  19.778  25.735  1.00  0.00     0.199 C 
BRANCH   9  10
ATOM     10  C   UNL     1      31.824  20.367  24.468  1.00  0.00     0.179 C 
ATOM     11  C   UNL     1      31.431  20.222  22.162  1.00  0.00     0.282 C 
ATOM     12  O   UNL     1      31.419  19.575  23.367  1.00  0.00    -0.341 OA
ATOM     13  C   UNL     1      32.229  21.467  22.144  1.00  0.00     0.202 C 
ATOM     14  C   UNL     1      31.889  22.448  23.233  1.00  0.00     0.179 C 
ATOM     15  C   UNL     1      31.139  21.718  24.306  1.00  0.00     0.177 C 
BRANCH  11  16
ATOM     16  O   UNL     1      30.144  20.271  21.698  1.00  0.00    -0.341 OA
BRANCH  16  17
ATOM     17  C   UNL     1      29.904  21.054  20.608  1.00  0.00     0.184 C 
ATOM     18  C   UNL     1      28.414  21.130  20.375  1.00  0.00     0.178 C 
ATOM     19  O   UNL     1      28.115  21.088  19.004  1.00  0.00    -0.341 OA
ATOM     20  C   UNL     1      28.244  19.763  18.599  1.00  0.00     0.281 C 
ATOM     21  C   UNL     1      30.490  20.423  19.324  1.00  0.00     0.180 C 
ATOM     22  C   UNL     1      29.628  19.262  18.886  1.00  0.00     0.202 C 
BRANCH  18  23
ATOM     23  C   UNL     1      27.774  22.347  21.022  1.00  0.00     0.191 C 
BRANCH  23  24
ATOM     24  O   UNL     1      28.621  22.912  21.959  1.00  0.00    -0.394 OA
ATOM     25  H   UNL     1      29.280  22.234  22.242  1.00  0.00     0.210 HD
ENDBRANCH  23  24
ENDBRANCH  18  23
BRANCH  20  26
ATOM     26  O   UNL     1      27.988  19.738  17.227  1.00  0.00    -0.350 OA
BRANCH  26  27
ATOM     27  C   UNL     1      28.809  18.876  16.524  1.00  0.00     0.169 C 
BRANCH  27  28
ATOM     28  C   UNL     1      29.308  19.623  15.300  1.00  0.00     0.119 C 
BRANCH  28  29
ATOM     29  N   UNL     1      30.628  20.158  15.500  1.00  0.00    -0.092 NA
ATOM     30  N   UNL     1      31.567  19.443  15.828  1.00  0.00     0.001 N 
ATOM     31  N   UNL     1      32.450  18.598  15.977  1.00  0.00    -0.003 NA
ENDBRANCH  28  29
ENDBRANCH  27  28
ENDBRANCH  26  27
ENDBRANCH  20  26
BRANCH  21  32
ATOM     32  O   UNL     1      30.393  21.407  18.342  1.00  0.00    -0.387 OA
ATOM     33  H   UNL     1      31.080  22.101  18.399  1.00  0.00     0.211 HD
ENDBRANCH  21  32
BRANCH  22  34
ATOM     34  O   UNL     1      29.664  18.241  19.832  1.00  0.00    -0.385 OA
ATOM     35  H   UNL     1      29.264  18.604  20.669  1.00  0.00     0.211 HD
ENDBRANCH  22  34
ENDBRANCH  16  17
ENDBRANCH  11  16
BRANCH  13  36
ATOM     36  O   UNL     1      33.576  21.110  22.296  1.00  0.00    -0.385 OA
ATOM     37  H   UNL     1      34.081  21.767  22.809  1.00  0.00     0.211 HD
ENDBRANCH  13  36
BRANCH  14  38
ATOM     38  O   UNL     1      31.164  23.540  22.754  1.00  0.00    -0.387 OA
ATOM     39  H   UNL     1      30.910  23.334  21.832  1.00  0.00     0.211 HD
ENDBRANCH  14  38
BRANCH  15  40
ATOM     40  O   UNL     1      29.786  21.550  23.986  1.00  0.00    -0.387 OA
ATOM     41  H   UNL     1      29.645  21.034  23.171  1.00  0.00     0.211 HD
ENDBRANCH  15  40
ENDBRANCH   9  10
ENDBRANCH   8   9
ENDBRANCH   3   8
BRANCH   3  42
ATOM     42  C   UNL     1      33.911  18.156  27.042  1.00  0.00     0.364 C 
ATOM     43  O   UNL     1      34.638  19.111  26.693  1.00  0.00    -0.246 OA
BRANCH  42  44
ATOM     44  O   UNL     1      34.529  16.952  27.207  1.00  0.00    -0.477 OA
ATOM     45  H   UNL     1      34.237  16.126  26.717  1.00  0.00     0.296 HD
ENDBRANCH  42  44
ENDBRANCH   3  42
BRANCH   6  46
ATOM     46  O   UNL     1      31.567  16.746  30.418  1.00  0.00    -0.391 OA
ATOM     47  H   UNL     1      30.871  17.397  30.686  1.00  0.00     0.211 HD
ENDBRANCH   6  46
BRANCH   7  48
ATOM     48  N   UNL     1      34.243  18.480  30.760  1.00  0.00    -0.348 N 
ATOM     49  C   UNL     1      34.327  18.117  32.124  1.00  0.00     0.217 C 
ATOM     50  H   UNL     1      35.171  18.617  30.272  1.00  0.00     0.163 HD
ATOM     51  C   UNL     1      35.670  17.953  32.796  1.00  0.00     0.114 C 
ATOM     52  O   UNL     1      33.264  17.934  32.769  1.00  0.00    -0.275 OA
ENDBRANCH   7  48
ENDBRANCH   1   2
BRANCH   1  53
ATOM     53  O   UNL     1      34.646  21.295  29.789  1.00  0.00    -0.388 OA
ATOM     54  H   UNL     1      34.764  22.272  29.559  1.00  0.00     0.211 HD
ENDBRANCH   1  53
BRANCH   1  55
ATOM     55  C   UNL     1      33.088  22.112  28.344  1.00  0.00     0.165 C 
BRANCH  55  56
ATOM     56  O   UNL     1      34.089  22.038  27.348  1.00  0.00    -0.388 OA
ATOM     57  H   UNL     1      33.653  22.369  26.524  1.00  0.00     0.211 HD
ENDBRANCH  55  56
BRANCH  55  58
ATOM     58  C   UNL     1      32.811  23.523  28.653  1.00  0.00     0.154 C 
BRANCH  58  59
ATOM     59  N   UNL     1      31.450  23.897  28.691  1.00  0.00    -0.319 N 
ATOM     60  C   UNL     1      30.734  24.720  29.568  1.00  0.00     0.407 C 
ATOM     61  H   UNL     1      30.839  23.472  27.896  1.00  0.00     0.167 HD
ATOM     62  O   UNL     1      31.291  25.274  30.530  1.00  0.00    -0.225 OA
BRANCH  60  63
ATOM     63  O   UNL     1      29.363  24.953  29.395  1.00  0.00    -0.443 OA
BRANCH  63  64
ATOM     64  C   UNL     1      28.706  25.811  30.330  1.00  0.00     0.294 C 
BRANCH  64  65
ATOM     65  C   UNL     1      27.231  25.686  30.209  1.00  0.00     0.120 A 
ATOM     66  C   UNL     1      26.502  25.984  29.059  1.00  0.00     0.138 A 
ATOM     67  N   UNL     1      26.330  25.288  31.120  1.00  0.00    -0.132 NA
ATOM     68  N   UNL     1      25.214  25.754  29.331  1.00  0.00    -0.252 N 
ATOM     69  N   UNL     1      25.115  25.337  30.567  1.00  0.00    -0.067 NA
BRANCH  68  70
ATOM     70  C   UNL     1      24.132  25.954  28.357  1.00  0.00     0.146 C 
BRANCH  70  71
ATOM     71  C   UNL     1      23.033  24.965  28.642  1.00  0.00     0.024 C 
BRANCH  71  72
ATOM     72  C   UNL     1      22.666  24.275  27.346  1.00  0.00     0.006 C 
BRANCH  72  73
ATOM     73  C   UNL     1      22.508  25.299  26.246  1.00  0.00     0.027 C 
BRANCH  73  74
ATOM     74  C   UNL     1      22.549  24.666  24.909  1.00  0.00    -0.035 C 
ATOM     75  C   UNL     1      21.484  24.676  24.132  1.00  0.00     0.004 C 
ENDBRANCH  73  74
ENDBRANCH  72  73
ENDBRANCH  71  72
ENDBRANCH  70  71
ENDBRANCH  68  70
ENDBRANCH  64  65
ENDBRANCH  63  64
ENDBRANCH  60  63
ENDBRANCH  58  59
ENDBRANCH  55  58
ENDBRANCH   1  55
TORSDOF 34
