REMARK VINA RESULT:    -6.097      9.010     13.824
REMARK INTER + INTRA:         -21.732
REMARK INTER:                 -15.942
REMARK INTRA:                  -5.790
REMARK UNBOUND:                -6.367
REMARK SMILES CC(=O)N[C@@H]1[C@@H](O)C[C@](OC[C@H]2O[C@@H](O[C@H]3[C@H](O)[C@@H](O)[C@H](OCCN=[N+]=[N-])O[C@@H]3CO)[C@H](O)[C@@H](O)[C@H]2O)(C(=O)O)O[C@H]1C(O)[C@H](O)CNC(=O)OCc1cn(-c2ncn3c2c(=O)n(C(C)C)c2ccccc23)nn1
REMARK SMILES IDX 9 1 8 2 6 3 5 4 42 5 41 6 10 7 11 8 12 9 14 10 13 11 32 12
REMARK SMILES IDX 34 13 36 14 15 15 16 16 29 17 28 18 21 19 17 20 19 21 30 22
REMARK SMILES IDX 31 23 22 25 23 26 24 27 25 28 26 29 27 30 18 31 20 33 33 35
REMARK SMILES IDX 35 37 37 39 38 41 39 42 40 43 7 45 43 47 44 48 45 50 46 51
REMARK SMILES IDX 47 53 48 54 49 55 50 57 51 58 52 59 53 60 54 61 74 62 55 63
REMARK SMILES IDX 73 64 56 65 57 66 60 67 58 68 59 69 61 70 72 71 63 72 62 73
REMARK SMILES IDX 71 74 67 75 70 76 68 77 69 78 64 79 65 80 66 81 4 82 2 83
REMARK SMILES IDX 1 85 3 86
REMARK H PARENT 31 24 18 32 20 34 33 36 35 38 37 40 40 44 7 46 44 49 46 52
REMARK H PARENT 48 56 4 84
REMARK Flexibility Score: inf
ROOT
ATOM      1  C   UNL     1      15.089  31.989  18.179  1.00  0.00     0.272 C 
ATOM      2  C   UNL     1      15.915  32.646  19.251  1.00  0.00     0.113 C 
ATOM      3  C   UNL     1      15.379  32.431  20.603  1.00  0.00     0.145 C 
ATOM      4  C   UNL     1      14.940  31.023  20.891  1.00  0.00     0.142 C 
ATOM      5  C   UNL     1      14.495  30.276  19.687  1.00  0.00     0.178 C 
ATOM      6  O   UNL     1      15.022  30.598  18.508  1.00  0.00    -0.332 OA
ENDROOT
BRANCH   1   7
ATOM      7  O   UNL     1      15.871  31.963  17.058  1.00  0.00    -0.338 OA
BRANCH   7   8
ATOM      8  C   UNL     1      16.940  31.247  16.854  1.00  0.00     0.199 C 
BRANCH   8   9
ATOM      9  C   UNL     1      17.072  30.103  15.909  1.00  0.00     0.179 C 
ATOM     10  C   UNL     1      16.131  29.464  13.877  1.00  0.00     0.282 C 
ATOM     11  O   UNL     1      16.148  30.418  14.860  1.00  0.00    -0.341 OA
ATOM     12  C   UNL     1      17.461  29.358  13.152  1.00  0.00     0.202 C 
ATOM     13  C   UNL     1      18.599  29.180  14.140  1.00  0.00     0.179 C 
ATOM     14  C   UNL     1      18.442  30.200  15.235  1.00  0.00     0.177 C 
BRANCH  10  15
ATOM     15  O   UNL     1      15.172  29.852  12.949  1.00  0.00    -0.341 OA
BRANCH  15  16
ATOM     16  C   UNL     1      13.951  30.033  13.544  1.00  0.00     0.184 C 
ATOM     17  C   UNL     1      13.337  28.725  13.887  1.00  0.00     0.178 C 
ATOM     18  O   UNL     1      12.407  28.240  13.004  1.00  0.00    -0.341 OA
ATOM     19  C   UNL     1      12.524  28.666  11.707  1.00  0.00     0.281 C 
ATOM     20  C   UNL     1      13.025  30.916  12.732  1.00  0.00     0.180 C 
ATOM     21  C   UNL     1      12.487  30.168  11.569  1.00  0.00     0.202 C 
BRANCH  17  22
ATOM     22  C   UNL     1      12.743  28.764  15.279  1.00  0.00     0.191 C 
BRANCH  22  23
ATOM     23  O   UNL     1      13.678  29.479  16.066  1.00  0.00    -0.394 OA
ATOM     24  H   UNL     1      13.176  30.218  16.480  1.00  0.00     0.210 HD
ENDBRANCH  22  23
ENDBRANCH  17  22
BRANCH  19  25
ATOM     25  O   UNL     1      11.397  28.193  11.011  1.00  0.00    -0.350 OA
BRANCH  25  26
ATOM     26  C   UNL     1      10.255  28.910  11.243  1.00  0.00     0.169 C 
BRANCH  26  27
ATOM     27  C   UNL     1       9.028  28.107  11.539  1.00  0.00     0.119 C 
BRANCH  27  28
ATOM     28  N   UNL     1       8.416  28.728  12.724  1.00  0.00    -0.092 NA
ATOM     29  N   UNL     1       9.015  29.450  13.491  1.00  0.00     0.001 N 
ATOM     30  N   UNL     1       9.586  29.952  14.465  1.00  0.00    -0.003 NA
ENDBRANCH  27  28
ENDBRANCH  26  27
ENDBRANCH  25  26
ENDBRANCH  19  25
BRANCH  20  31
ATOM     31  O   UNL     1      12.034  31.426  13.580  1.00  0.00    -0.387 OA
ATOM     32  H   UNL     1      12.296  32.381  13.734  1.00  0.00     0.211 HD
ENDBRANCH  20  31
BRANCH  21  33
ATOM     33  O   UNL     1      13.265  30.516  10.450  1.00  0.00    -0.385 OA
ATOM     34  H   UNL     1      13.243  31.493  10.278  1.00  0.00     0.211 HD
ENDBRANCH  21  33
ENDBRANCH  15  16
ENDBRANCH  10  15
BRANCH  12  35
ATOM     35  O   UNL     1      17.426  28.194  12.387  1.00  0.00    -0.385 OA
ATOM     36  H   UNL     1      17.150  27.407  12.914  1.00  0.00     0.211 HD
ENDBRANCH  12  35
BRANCH  13  37
ATOM     37  O   UNL     1      19.779  29.516  13.451  1.00  0.00    -0.387 OA
ATOM     38  H   UNL     1      19.808  29.044  12.573  1.00  0.00     0.211 HD
ENDBRANCH  13  37
BRANCH  14  39
ATOM     39  O   UNL     1      18.511  31.465  14.596  1.00  0.00    -0.387 OA
ATOM     40  H   UNL     1      19.228  31.465  13.917  1.00  0.00     0.211 HD
ENDBRANCH  14  39
ENDBRANCH   8   9
ENDBRANCH   7   8
ENDBRANCH   1   7
BRANCH   1  41
ATOM     41  C   UNL     1      13.719  32.474  18.076  1.00  0.00     0.364 C 
ATOM     42  O   UNL     1      12.813  31.894  17.480  1.00  0.00    -0.246 OA
BRANCH  41  43
ATOM     43  O   UNL     1      13.350  33.689  18.682  1.00  0.00    -0.477 OA
ATOM     44  H   UNL     1      13.533  34.561  18.202  1.00  0.00     0.296 HD
ENDBRANCH  41  43
ENDBRANCH   1  41
BRANCH   3  45
ATOM     45  O   UNL     1      16.409  32.789  21.512  1.00  0.00    -0.391 OA
ATOM     46  H   UNL     1      16.193  32.482  22.422  1.00  0.00     0.211 HD
ENDBRANCH   3  45
BRANCH   5  47
ATOM     47  C   UNL     1      14.589  28.772  19.876  1.00  0.00     0.176 C 
BRANCH  47  48
ATOM     48  O   UNL     1      13.705  28.368  20.851  1.00  0.00    -0.388 OA
ATOM     49  H   UNL     1      12.941  27.843  20.501  1.00  0.00     0.211 HD
ENDBRANCH  47  48
BRANCH  47  50
ATOM     50  C   UNL     1      15.960  28.268  20.162  1.00  0.00     0.165 C 
BRANCH  50  51
ATOM     51  O   UNL     1      16.535  28.688  21.331  1.00  0.00    -0.388 OA
ATOM     52  H   UNL     1      16.412  29.646  21.525  1.00  0.00     0.211 HD
ENDBRANCH  50  51
BRANCH  50  53
ATOM     53  C   UNL     1      16.917  28.438  19.021  1.00  0.00     0.154 C 
BRANCH  53  54
ATOM     54  N   UNL     1      17.970  29.399  19.368  1.00  0.00    -0.319 N 
ATOM     55  C   UNL     1      19.338  29.093  19.274  1.00  0.00     0.407 C 
ATOM     56  H   UNL     1      17.698  30.371  19.705  1.00  0.00     0.167 HD
ATOM     57  O   UNL     1      19.726  27.959  18.894  1.00  0.00    -0.225 OA
BRANCH  55  58
ATOM     58  O   UNL     1      20.263  30.090  19.614  1.00  0.00    -0.443 OA
BRANCH  58  59
ATOM     59  C   UNL     1      19.917  31.108  20.511  1.00  0.00     0.294 C 
BRANCH  59  60
ATOM     60  C   UNL     1      19.578  30.575  21.884  1.00  0.00     0.121 A 
ATOM     61  C   UNL     1      20.475  30.143  22.834  1.00  0.00     0.146 A 
ATOM     62  N   UNL     1      18.365  30.429  22.441  1.00  0.00    -0.131 NA
ATOM     63  N   UNL     1      19.795  29.742  23.948  1.00  0.00    -0.200 N 
ATOM     64  N   UNL     1      18.521  29.932  23.665  1.00  0.00    -0.060 NA
BRANCH  63  65
ATOM     65  C   UNL     1      20.385  29.235  25.145  1.00  0.00     0.186 A 
ATOM     66  N   UNL     1      20.469  29.908  26.305  1.00  0.00    -0.216 NA
ATOM     67  C   UNL     1      20.984  28.026  25.396  1.00  0.00     0.158 A 
ATOM     68  C   UNL     1      21.092  29.151  27.228  1.00  0.00     0.207 A 
ATOM     69  N   UNL     1      21.425  27.964  26.678  1.00  0.00    -0.291 N 
ATOM     70  C   UNL     1      21.177  26.954  24.562  1.00  0.00     0.279 A 
ATOM     71  C   UNL     1      22.050  26.873  27.154  1.00  0.00     0.071 A 
ATOM     72  N   UNL     1      21.805  25.839  25.015  1.00  0.00    -0.302 N 
ATOM     73  O   UNL     1      20.775  26.984  23.358  1.00  0.00    -0.267 OA
ATOM     74  C   UNL     1      22.500  26.811  28.445  1.00  0.00     0.029 A 
ATOM     75  C   UNL     1      22.232  25.810  26.297  1.00  0.00     0.068 A 
ATOM     76  C   UNL     1      23.158  25.675  28.941  1.00  0.00     0.002 A 
ATOM     77  C   UNL     1      22.880  24.693  26.790  1.00  0.00     0.028 A 
ATOM     78  C   UNL     1      23.347  24.606  28.096  1.00  0.00     0.002 A 
BRANCH  72  79
ATOM     79  C   UNL     1      22.004  24.691  24.129  1.00  0.00     0.085 C 
ATOM     80  C   UNL     1      20.767  24.278  23.400  1.00  0.00     0.031 C 
ATOM     81  C   UNL     1      23.222  24.849  23.255  1.00  0.00     0.031 C 
ENDBRANCH  72  79
ENDBRANCH  63  65
ENDBRANCH  59  60
ENDBRANCH  58  59
ENDBRANCH  55  58
ENDBRANCH  53  54
ENDBRANCH  50  53
ENDBRANCH  47  50
ENDBRANCH   5  47
BRANCH   4  82
ATOM     82  N   UNL     1      13.935  31.063  21.932  1.00  0.00    -0.348 N 
ATOM     83  C   UNL     1      14.083  30.418  23.181  1.00  0.00     0.217 C 
ATOM     84  H   UNL     1      13.043  31.591  21.773  1.00  0.00     0.163 HD
ATOM     85  C   UNL     1      13.037  30.466  24.246  1.00  0.00     0.114 C 
ATOM     86  O   UNL     1      15.154  29.776  23.389  1.00  0.00    -0.275 OA
ENDBRANCH   4  82
TORSDOF 31
