REMARK VINA RESULT:    -5.267     13.186     16.392
REMARK INTER + INTRA:         -22.362
REMARK INTER:                 -14.342
REMARK INTRA:                  -8.020
REMARK UNBOUND:                -8.936
REMARK SMILES CC(=O)N[C@@H]1[C@@H](O)C[C@](OC[C@H]2O[C@@H](O[C@H]3[C@H](O)[C@@H](O)[C@H](OCCN=[N+]=[N-])O[C@@H]3CO)[C@H](O)[C@@H](O)[C@H]2O)(C(=O)O)O[C@H]1C(O)[C@H](O)CNC(=O)OCc1cn(-c2ccc(S(N)(=O)=O)cc2)nn1
REMARK SMILES IDX 9 1 8 2 6 3 5 4 42 5 41 6 10 7 11 8 12 9 14 10 13 11 32 12
REMARK SMILES IDX 34 13 36 14 15 15 16 16 29 17 28 18 21 19 17 20 19 21 30 22
REMARK SMILES IDX 31 23 22 25 23 26 24 27 25 28 26 29 27 30 18 31 20 33 33 35
REMARK SMILES IDX 35 37 37 39 38 41 39 42 40 43 7 45 43 47 44 48 45 50 46 51
REMARK SMILES IDX 47 53 48 54 49 55 50 57 51 58 52 59 53 60 54 61 67 62 55 63
REMARK SMILES IDX 66 64 56 65 57 66 65 67 58 68 64 69 59 70 60 71 62 72 63 73
REMARK SMILES IDX 61 74 4 77 2 78 1 80 3 81
REMARK H PARENT 31 24 18 32 20 34 33 36 35 38 37 40 40 44 7 46 44 49 46 52
REMARK H PARENT 48 56 61 75 61 76 4 79
REMARK Flexibility Score: inf
ROOT
ATOM      1  C   UNL     1       5.848  26.921  34.988  1.00  0.00     0.272 C 
ATOM      2  C   UNL     1       5.349  25.667  35.725  1.00  0.00     0.113 C 
ATOM      3  C   UNL     1       5.996  24.426  35.222  1.00  0.00     0.145 C 
ATOM      4  C   UNL     1       6.130  24.510  33.723  1.00  0.00     0.142 C 
ATOM      5  C   UNL     1       5.087  25.544  33.284  1.00  0.00     0.178 C 
ATOM      6  O   UNL     1       5.618  26.782  33.639  1.00  0.00    -0.332 OA
ENDROOT
BRANCH   1   7
ATOM      7  O   UNL     1       7.187  27.046  35.334  1.00  0.00    -0.338 OA
BRANCH   7   8
ATOM      8  C   UNL     1       7.976  27.597  34.364  1.00  0.00     0.199 C 
BRANCH   8   9
ATOM      9  C   UNL     1       9.251  28.121  35.048  1.00  0.00     0.179 C 
ATOM     10  C   UNL     1      11.376  27.277  35.542  1.00  0.00     0.282 C 
ATOM     11  O   UNL     1       9.974  27.030  35.414  1.00  0.00    -0.341 OA
ATOM     12  C   UNL     1      11.807  27.574  34.135  1.00  0.00     0.202 C 
ATOM     13  C   UNL     1      11.244  28.921  33.698  1.00  0.00     0.179 C 
ATOM     14  C   UNL     1       9.913  29.201  34.294  1.00  0.00     0.177 C 
BRANCH  10  15
ATOM     15  O   UNL     1      11.938  26.142  36.012  1.00  0.00    -0.341 OA
BRANCH  15  16
ATOM     16  C   UNL     1      11.029  25.215  36.586  1.00  0.00     0.184 C 
ATOM     17  C   UNL     1      11.478  24.918  37.943  1.00  0.00     0.178 C 
ATOM     18  O   UNL     1      11.384  23.608  38.365  1.00  0.00    -0.341 OA
ATOM     19  C   UNL     1      10.450  22.827  37.744  1.00  0.00     0.281 C 
ATOM     20  C   UNL     1      10.882  24.027  35.664  1.00  0.00     0.180 C 
ATOM     21  C   UNL     1      10.857  22.693  36.301  1.00  0.00     0.202 C 
BRANCH  17  22
ATOM     22  C   UNL     1      10.814  25.757  39.016  1.00  0.00     0.191 C 
BRANCH  22  23
ATOM     23  O   UNL     1       9.883  26.620  38.455  1.00  0.00    -0.394 OA
ATOM     24  H   UNL     1       9.358  26.185  37.738  1.00  0.00     0.210 HD
ENDBRANCH  22  23
ENDBRANCH  17  22
BRANCH  19  25
ATOM     25  O   UNL     1       9.140  23.212  37.895  1.00  0.00    -0.350 OA
BRANCH  25  26
ATOM     26  C   UNL     1       8.657  22.798  39.130  1.00  0.00     0.169 C 
BRANCH  26  27
ATOM     27  C   UNL     1       7.319  23.492  39.365  1.00  0.00     0.119 C 
BRANCH  27  28
ATOM     28  N   UNL     1       7.324  24.735  38.644  1.00  0.00    -0.092 NA
ATOM     29  N   UNL     1       6.792  25.770  39.102  1.00  0.00     0.001 N 
ATOM     30  N   UNL     1       5.860  26.590  39.182  1.00  0.00    -0.003 NA
ENDBRANCH  27  28
ENDBRANCH  26  27
ENDBRANCH  25  26
ENDBRANCH  19  25
BRANCH  20  31
ATOM     31  O   UNL     1       9.736  24.145  34.872  1.00  0.00    -0.387 OA
ATOM     32  H   UNL     1       8.994  23.665  35.307  1.00  0.00     0.211 HD
ENDBRANCH  20  31
BRANCH  21  33
ATOM     33  O   UNL     1      12.056  21.995  36.214  1.00  0.00    -0.385 OA
ATOM     34  H   UNL     1      11.804  21.115  35.783  1.00  0.00     0.211 HD
ENDBRANCH  21  33
ENDBRANCH  15  16
ENDBRANCH  10  15
BRANCH  12  35
ATOM     35  O   UNL     1      13.142  27.445  33.888  1.00  0.00    -0.385 OA
ATOM     36  H   UNL     1      13.731  27.969  34.465  1.00  0.00     0.211 HD
ENDBRANCH  12  35
BRANCH  13  37
ATOM     37  O   UNL     1      11.321  29.081  32.324  1.00  0.00    -0.387 OA
ATOM     38  H   UNL     1      11.307  28.253  31.803  1.00  0.00     0.211 HD
ENDBRANCH  13  37
BRANCH  14  39
ATOM     39  O   UNL     1       9.050  29.566  33.232  1.00  0.00    -0.387 OA
ATOM     40  H   UNL     1       9.441  30.410  32.863  1.00  0.00     0.211 HD
ENDBRANCH  14  39
ENDBRANCH   8   9
ENDBRANCH   7   8
ENDBRANCH   1   7
BRANCH   1  41
ATOM     41  C   UNL     1       5.038  28.042  35.595  1.00  0.00     0.364 C 
ATOM     42  O   UNL     1       4.344  28.801  34.877  1.00  0.00    -0.246 OA
BRANCH  41  43
ATOM     43  O   UNL     1       5.032  28.265  36.958  1.00  0.00    -0.477 OA
ATOM     44  H   UNL     1       5.881  28.086  37.473  1.00  0.00     0.296 HD
ENDBRANCH  41  43
ENDBRANCH   1  41
BRANCH   3  45
ATOM     45  O   UNL     1       7.215  24.261  35.877  1.00  0.00    -0.391 OA
ATOM     46  H   UNL     1       7.834  24.973  35.592  1.00  0.00     0.211 HD
ENDBRANCH   3  45
BRANCH   5  47
ATOM     47  C   UNL     1       4.886  25.506  31.793  1.00  0.00     0.176 C 
BRANCH  47  48
ATOM     48  O   UNL     1       4.028  24.514  31.363  1.00  0.00    -0.388 OA
ATOM     49  H   UNL     1       3.087  24.678  31.621  1.00  0.00     0.211 HD
ENDBRANCH  47  48
BRANCH  47  50
ATOM     50  C   UNL     1       4.405  26.848  31.293  1.00  0.00     0.165 C 
BRANCH  50  51
ATOM     51  O   UNL     1       2.996  26.868  31.227  1.00  0.00    -0.388 OA
ATOM     52  H   UNL     1       2.670  27.809  31.135  1.00  0.00     0.211 HD
ENDBRANCH  50  51
BRANCH  50  53
ATOM     53  C   UNL     1       4.983  27.188  29.942  1.00  0.00     0.154 C 
BRANCH  53  54
ATOM     54  N   UNL     1       4.868  26.088  29.014  1.00  0.00    -0.319 N 
ATOM     55  C   UNL     1       4.046  26.220  27.865  1.00  0.00     0.407 C 
ATOM     56  H   UNL     1       5.368  25.188  29.152  1.00  0.00     0.167 HD
ATOM     57  O   UNL     1       3.428  27.310  27.683  1.00  0.00    -0.225 OA
BRANCH  55  58
ATOM     58  O   UNL     1       3.872  25.229  26.914  1.00  0.00    -0.443 OA
BRANCH  58  59
ATOM     59  C   UNL     1       2.602  24.753  26.539  1.00  0.00     0.294 C 
BRANCH  59  60
ATOM     60  C   UNL     1       2.404  23.395  27.114  1.00  0.00     0.121 A 
ATOM     61  C   UNL     1       2.538  23.048  28.463  1.00  0.00     0.144 A 
ATOM     62  N   UNL     1       2.072  22.243  26.508  1.00  0.00    -0.131 NA
ATOM     63  N   UNL     1       2.285  21.723  28.607  1.00  0.00    -0.220 N 
ATOM     64  N   UNL     1       2.009  21.265  27.424  1.00  0.00    -0.062 NA
BRANCH  63  65
ATOM     65  C   UNL     1       2.319  20.975  29.828  1.00  0.00     0.066 A 
ATOM     66  C   UNL     1       3.234  21.263  30.815  1.00  0.00     0.030 A 
ATOM     67  C   UNL     1       1.435  19.943  30.053  1.00  0.00     0.030 A 
ATOM     68  C   UNL     1       3.263  20.533  32.003  1.00  0.00     0.024 A 
ATOM     69  C   UNL     1       1.455  19.208  31.236  1.00  0.00     0.024 A 
ATOM     70  C   UNL     1       2.375  19.500  32.224  1.00  0.00     0.082 A 
BRANCH  70  71
ATOM     71  S   UNL     1       2.437  18.598  33.738  1.00  0.00     0.238 S 
ATOM     72  O   UNL     1       1.210  18.864  34.576  1.00  0.00    -0.207 OA
ATOM     73  O   UNL     1       2.476  17.125  33.467  1.00  0.00    -0.207 OA
BRANCH  71  74
ATOM     74  N   UNL     1       3.848  19.023  34.654  1.00  0.00    -0.225 NA
ATOM     75  H   UNL     1       4.285  19.867  34.185  1.00  0.00     0.137 HD
ATOM     76  H   UNL     1       4.538  18.237  34.707  1.00  0.00     0.137 HD
ENDBRANCH  71  74
ENDBRANCH  70  71
ENDBRANCH  63  65
ENDBRANCH  59  60
ENDBRANCH  58  59
ENDBRANCH  55  58
ENDBRANCH  53  54
ENDBRANCH  50  53
ENDBRANCH  47  50
ENDBRANCH   5  47
BRANCH   4  77
ATOM     77  N   UNL     1       5.934  23.261  33.037  1.00  0.00    -0.348 N 
ATOM     78  C   UNL     1       6.969  22.303  32.994  1.00  0.00     0.217 C 
ATOM     79  H   UNL     1       5.035  23.045  32.568  1.00  0.00     0.163 HD
ATOM     80  C   UNL     1       6.729  21.028  32.275  1.00  0.00     0.114 C 
ATOM     81  O   UNL     1       8.084  22.482  33.536  1.00  0.00    -0.275 OA
ENDBRANCH   4  77
TORSDOF 32
