REMARK VINA RESULT:    -6.409      4.961     10.409
REMARK INTER + INTRA:         -20.991
REMARK INTER:                 -14.338
REMARK INTRA:                  -6.653
REMARK UNBOUND:                -5.215
REMARK SMILES CC(=O)N[C@@H]1[C@@H](O)C[C@](OC[C@H]2O[C@@H](O[C@H]3[C@H](O)[C@@H](O)[C@H](OCCN=[N+]=[N-])O[C@@H]3CO)[C@H](O)[C@@H](O)[C@H]2O)(C(=O)O)O[C@H]1C(O)[C@H](O)CNC(=O)OCc1cn(C2CCCC2)nn1
REMARK SMILES IDX 9 1 8 2 6 3 5 4 42 5 41 6 10 7 11 8 12 9 14 10 13 11 32 12
REMARK SMILES IDX 34 13 36 14 15 15 16 16 29 17 28 18 21 19 17 20 19 21 30 22
REMARK SMILES IDX 31 23 22 25 23 26 24 27 25 28 26 29 27 30 18 31 20 33 33 35
REMARK SMILES IDX 35 37 37 39 38 41 39 42 40 43 7 45 43 47 44 48 45 50 46 51
REMARK SMILES IDX 47 53 48 54 49 55 50 57 51 58 52 59 53 60 54 61 62 62 55 63
REMARK SMILES IDX 61 64 56 65 57 66 60 67 58 68 59 69 4 70 2 71 1 73 3 74
REMARK H PARENT 31 24 18 32 20 34 33 36 35 38 37 40 40 44 7 46 44 49 46 52
REMARK H PARENT 48 56 4 72
REMARK Flexibility Score: inf
ROOT
ATOM      1  C   UNL     1      12.871  30.824  22.732  1.00  0.00     0.272 C 
ATOM      2  C   UNL     1      11.782  31.820  22.875  1.00  0.00     0.113 C 
ATOM      3  C   UNL     1      12.115  33.181  22.373  1.00  0.00     0.145 C 
ATOM      4  C   UNL     1      13.480  33.640  22.939  1.00  0.00     0.142 C 
ATOM      5  C   UNL     1      13.987  32.553  23.820  1.00  0.00     0.178 C 
ATOM      6  O   UNL     1      14.132  31.433  22.931  1.00  0.00    -0.332 OA
ENDROOT
BRANCH   1   7
ATOM      7  O   UNL     1      12.901  30.208  21.533  1.00  0.00    -0.338 OA
BRANCH   7   8
ATOM      8  C   UNL     1      13.990  30.363  20.715  1.00  0.00     0.199 C 
BRANCH   8   9
ATOM      9  C   UNL     1      14.317  28.991  20.130  1.00  0.00     0.179 C 
ATOM     10  C   UNL     1      15.362  29.517  18.117  1.00  0.00     0.282 C 
ATOM     11  O   UNL     1      14.279  28.947  18.774  1.00  0.00    -0.341 OA
ATOM     12  C   UNL     1      16.647  29.397  18.860  1.00  0.00     0.202 C 
ATOM     13  C   UNL     1      16.690  28.272  19.846  1.00  0.00     0.179 C 
ATOM     14  C   UNL     1      15.524  28.439  20.789  1.00  0.00     0.177 C 
BRANCH  10  15
ATOM     15  O   UNL     1      15.082  30.812  17.688  1.00  0.00    -0.341 OA
BRANCH  15  16
ATOM     16  C   UNL     1      14.494  30.831  16.423  1.00  0.00     0.184 C 
ATOM     17  C   UNL     1      13.004  30.765  16.434  1.00  0.00     0.178 C 
ATOM     18  O   UNL     1      12.550  30.706  15.118  1.00  0.00    -0.341 OA
ATOM     19  C   UNL     1      12.747  29.434  14.610  1.00  0.00     0.281 C 
ATOM     20  C   UNL     1      14.987  29.572  15.720  1.00  0.00     0.180 C 
ATOM     21  C   UNL     1      14.248  29.268  14.456  1.00  0.00     0.202 C 
BRANCH  17  22
ATOM     22  C   UNL     1      12.343  32.006  17.024  1.00  0.00     0.191 C 
BRANCH  22  23
ATOM     23  O   UNL     1      12.345  31.805  18.414  1.00  0.00    -0.394 OA
ATOM     24  H   UNL     1      12.226  32.643  18.892  1.00  0.00     0.210 HD
ENDBRANCH  22  23
ENDBRANCH  17  22
BRANCH  19  25
ATOM     25  O   UNL     1      12.194  29.366  13.335  1.00  0.00    -0.350 OA
BRANCH  25  26
ATOM     26  C   UNL     1      11.045  30.174  13.273  1.00  0.00     0.169 C 
BRANCH  26  27
ATOM     27  C   UNL     1       9.948  29.478  12.486  1.00  0.00     0.119 C 
BRANCH  27  28
ATOM     28  N   UNL     1      10.310  28.124  12.183  1.00  0.00    -0.092 NA
ATOM     29  N   UNL     1      10.265  27.673  11.020  1.00  0.00     0.001 N 
ATOM     30  N   UNL     1       9.757  27.186  10.013  1.00  0.00    -0.003 NA
ENDBRANCH  27  28
ENDBRANCH  26  27
ENDBRANCH  25  26
ENDBRANCH  19  25
BRANCH  20  31
ATOM     31  O   UNL     1      16.324  29.801  15.406  1.00  0.00    -0.387 OA
ATOM     32  H   UNL     1      16.943  29.510  16.120  1.00  0.00     0.211 HD
ENDBRANCH  20  31
BRANCH  21  33
ATOM     33  O   UNL     1      14.474  27.920  14.135  1.00  0.00    -0.385 OA
ATOM     34  H   UNL     1      14.281  27.414  14.966  1.00  0.00     0.211 HD
ENDBRANCH  21  33
ENDBRANCH  15  16
ENDBRANCH  10  15
BRANCH  12  35
ATOM     35  O   UNL     1      17.730  29.176  17.976  1.00  0.00    -0.385 OA
ATOM     36  H   UNL     1      18.540  29.473  18.432  1.00  0.00     0.211 HD
ENDBRANCH  12  35
BRANCH  13  37
ATOM     37  O   UNL     1      17.859  28.345  20.579  1.00  0.00    -0.387 OA
ATOM     38  H   UNL     1      17.974  27.492  21.053  1.00  0.00     0.211 HD
ENDBRANCH  13  37
BRANCH  14  39
ATOM     39  O   UNL     1      15.955  29.167  21.890  1.00  0.00    -0.387 OA
ATOM     40  H   UNL     1      15.685  30.096  21.861  1.00  0.00     0.211 HD
ENDBRANCH  14  39
ENDBRANCH   8   9
ENDBRANCH   7   8
ENDBRANCH   1   7
BRANCH   1  41
ATOM     41  C   UNL     1      12.777  29.844  23.880  1.00  0.00     0.364 C 
ATOM     42  O   UNL     1      11.795  29.792  24.636  1.00  0.00    -0.246 OA
BRANCH  41  43
ATOM     43  O   UNL     1      13.874  28.992  24.041  1.00  0.00    -0.477 OA
ATOM     44  H   UNL     1      13.985  28.492  24.933  1.00  0.00     0.296 HD
ENDBRANCH  41  43
ENDBRANCH   1  41
BRANCH   3  45
ATOM     45  O   UNL     1      12.044  33.352  21.013  1.00  0.00    -0.391 OA
ATOM     46  H   UNL     1      11.348  32.770  20.632  1.00  0.00     0.211 HD
ENDBRANCH   3  45
BRANCH   5  47
ATOM     47  C   UNL     1      15.379  32.759  24.363  1.00  0.00     0.176 C 
BRANCH  47  48
ATOM     48  O   UNL     1      16.069  33.561  23.361  1.00  0.00    -0.388 OA
ATOM     49  H   UNL     1      15.598  34.424  23.419  1.00  0.00     0.211 HD
ENDBRANCH  47  48
BRANCH  47  50
ATOM     50  C   UNL     1      16.247  31.533  24.426  1.00  0.00     0.165 C 
BRANCH  50  51
ATOM     51  O   UNL     1      15.920  30.566  25.308  1.00  0.00    -0.388 OA
ATOM     52  H   UNL     1      15.758  30.866  26.230  1.00  0.00     0.211 HD
ENDBRANCH  50  51
BRANCH  50  53
ATOM     53  C   UNL     1      17.669  31.989  24.733  1.00  0.00     0.154 C 
BRANCH  53  54
ATOM     54  N   UNL     1      18.489  31.764  23.535  1.00  0.00    -0.319 N 
ATOM     55  C   UNL     1      18.833  30.452  23.122  1.00  0.00     0.407 C 
ATOM     56  H   UNL     1      18.842  32.567  22.954  1.00  0.00     0.167 HD
ATOM     57  O   UNL     1      18.426  29.471  23.798  1.00  0.00    -0.225 OA
BRANCH  55  58
ATOM     58  O   UNL     1      19.601  30.225  22.003  1.00  0.00    -0.443 OA
BRANCH  58  59
ATOM     59  C   UNL     1      20.967  29.865  22.081  1.00  0.00     0.294 C 
BRANCH  59  60
ATOM     60  C   UNL     1      21.185  28.401  22.075  1.00  0.00     0.120 A 
ATOM     61  C   UNL     1      22.154  27.635  22.684  1.00  0.00     0.138 A 
ATOM     62  N   UNL     1      20.406  27.514  21.418  1.00  0.00    -0.132 NA
ATOM     63  N   UNL     1      21.941  26.351  22.388  1.00  0.00    -0.249 N 
ATOM     64  N   UNL     1      20.868  26.314  21.616  1.00  0.00    -0.067 NA
BRANCH  63  65
ATOM     65  C   UNL     1      22.708  25.184  22.808  1.00  0.00     0.109 C 
ATOM     66  C   UNL     1      23.836  25.529  23.724  1.00  0.00     0.027 C 
ATOM     67  C   UNL     1      21.807  24.292  23.635  1.00  0.00     0.027 C 
ATOM     68  C   UNL     1      23.338  25.382  25.139  1.00  0.00     0.002 C 
ATOM     69  C   UNL     1      21.999  24.695  25.066  1.00  0.00     0.002 C 
ENDBRANCH  63  65
ENDBRANCH  59  60
ENDBRANCH  58  59
ENDBRANCH  55  58
ENDBRANCH  53  54
ENDBRANCH  50  53
ENDBRANCH  47  50
ENDBRANCH   5  47
BRANCH   4  70
ATOM     70  N   UNL     1      13.308  34.939  23.547  1.00  0.00    -0.348 N 
ATOM     71  C   UNL     1      13.980  36.094  22.987  1.00  0.00     0.217 C 
ATOM     72  H   UNL     1      12.702  35.114  24.374  1.00  0.00     0.163 HD
ATOM     73  C   UNL     1      13.817  37.437  23.595  1.00  0.00     0.114 C 
ATOM     74  O   UNL     1      14.717  35.980  21.971  1.00  0.00    -0.275 OA
ENDBRANCH   4  70
TORSDOF 30
