REMARK VINA RESULT:    -5.027      6.789     12.465
REMARK INTER + INTRA:         -20.934
REMARK INTER:                 -12.374
REMARK INTRA:                  -8.561
REMARK UNBOUND:                -8.561
REMARK SMILES CC(=O)N[C@@H]1[C@@H](O)C[C@](OC[C@H]2O[C@@H](O[C@H]3[C@H](O)[C@@H](O)[C@H](OCCN=[N+]=[N-])O[C@@H]3CO)[C@H](O)[C@@H](O)[C@H]2O)(C(=O)O)O[C@H]1C(O)[C@H](O)CNC(=O)OCc1cn(-c2cnc3ccccc3c2)nn1
REMARK SMILES IDX 9 1 8 2 6 3 5 4 42 5 41 6 10 7 11 8 12 9 14 10 13 11 32 12
REMARK SMILES IDX 34 13 36 14 15 15 16 16 29 17 28 18 21 19 17 20 19 21 30 22
REMARK SMILES IDX 31 23 22 25 23 26 24 27 25 28 26 29 27 30 18 31 20 33 33 35
REMARK SMILES IDX 35 37 37 39 38 41 39 42 40 43 7 45 43 47 44 48 45 50 46 51
REMARK SMILES IDX 47 53 48 54 49 55 50 57 51 58 52 59 53 60 54 61 67 62 55 63
REMARK SMILES IDX 66 64 56 65 57 66 65 67 58 68 64 69 59 70 63 71 60 72 62 73
REMARK SMILES IDX 61 74 4 75 2 76 1 78 3 79
REMARK H PARENT 31 24 18 32 20 34 33 36 35 38 37 40 40 44 7 46 44 49 46 52
REMARK H PARENT 48 56 4 77
REMARK Flexibility Score: inf
ROOT
ATOM      1  C   UNL     1      22.278  25.892  24.756  1.00  0.00     0.272 C 
ATOM      2  C   UNL     1      21.691  24.846  23.878  1.00  0.00     0.113 C 
ATOM      3  C   UNL     1      21.924  25.130  22.407  1.00  0.00     0.145 C 
ATOM      4  C   UNL     1      23.417  25.444  22.291  1.00  0.00     0.142 C 
ATOM      5  C   UNL     1      23.622  26.775  23.030  1.00  0.00     0.178 C 
ATOM      6  O   UNL     1      23.489  26.399  24.383  1.00  0.00    -0.332 OA
ENDROOT
BRANCH   1   7
ATOM      7  O   UNL     1      22.477  25.406  26.065  1.00  0.00    -0.338 OA
BRANCH   7   8
ATOM      8  C   UNL     1      23.771  25.071  26.354  1.00  0.00     0.199 C 
BRANCH   8   9
ATOM      9  C   UNL     1      24.141  25.688  27.686  1.00  0.00     0.179 C 
ATOM     10  C   UNL     1      24.635  27.643  28.783  1.00  0.00     0.282 C 
ATOM     11  O   UNL     1      23.941  27.052  27.740  1.00  0.00    -0.341 OA
ATOM     12  C   UNL     1      24.880  26.696  29.922  1.00  0.00     0.202 C 
ATOM     13  C   UNL     1      23.823  25.663  30.093  1.00  0.00     0.179 C 
ATOM     14  C   UNL     1      23.655  24.886  28.819  1.00  0.00     0.177 C 
BRANCH  10  15
ATOM     15  O   UNL     1      23.985  28.795  29.169  1.00  0.00    -0.341 OA
BRANCH  15  16
ATOM     16  C   UNL     1      23.088  29.260  28.208  1.00  0.00     0.184 C 
ATOM     17  C   UNL     1      23.516  30.567  27.586  1.00  0.00     0.178 C 
ATOM     18  O   UNL     1      22.559  31.531  27.519  1.00  0.00    -0.341 OA
ATOM     19  C   UNL     1      21.309  31.165  27.103  1.00  0.00     0.281 C 
ATOM     20  C   UNL     1      21.669  29.260  28.703  1.00  0.00     0.180 C 
ATOM     21  C   UNL     1      20.777  29.889  27.680  1.00  0.00     0.202 C 
BRANCH  17  22
ATOM     22  C   UNL     1      24.247  30.322  26.264  1.00  0.00     0.191 C 
BRANCH  22  23
ATOM     23  O   UNL     1      24.145  28.998  25.848  1.00  0.00    -0.394 OA
ATOM     24  H   UNL     1      24.924  28.698  25.337  1.00  0.00     0.210 HD
ENDBRANCH  22  23
ENDBRANCH  17  22
BRANCH  19  25
ATOM     25  O   UNL     1      21.157  31.208  25.715  1.00  0.00    -0.350 OA
BRANCH  25  26
ATOM     26  C   UNL     1      21.275  32.485  25.207  1.00  0.00     0.169 C 
BRANCH  26  27
ATOM     27  C   UNL     1      20.258  32.760  24.124  1.00  0.00     0.119 C 
BRANCH  27  28
ATOM     28  N   UNL     1      20.779  32.396  22.823  1.00  0.00    -0.092 NA
ATOM     29  N   UNL     1      21.170  31.258  22.565  1.00  0.00     0.001 N 
ATOM     30  N   UNL     1      21.174  30.083  22.197  1.00  0.00    -0.003 NA
ENDBRANCH  27  28
ENDBRANCH  26  27
ENDBRANCH  25  26
ENDBRANCH  19  25
BRANCH  20  31
ATOM     31  O   UNL     1      21.262  27.916  28.851  1.00  0.00    -0.387 OA
ATOM     32  H   UNL     1      21.875  27.443  29.477  1.00  0.00     0.211 HD
ENDBRANCH  20  31
BRANCH  21  33
ATOM     33  O   UNL     1      19.515  30.069  28.293  1.00  0.00    -0.385 OA
ATOM     34  H   UNL     1      19.570  30.822  28.952  1.00  0.00     0.211 HD
ENDBRANCH  21  33
ENDBRANCH  15  16
ENDBRANCH  10  15
BRANCH  12  35
ATOM     35  O   UNL     1      26.120  26.065  29.865  1.00  0.00    -0.385 OA
ATOM     36  H   UNL     1      26.449  25.981  28.939  1.00  0.00     0.211 HD
ENDBRANCH  12  35
BRANCH  13  37
ATOM     37  O   UNL     1      22.622  26.242  30.509  1.00  0.00    -0.387 OA
ATOM     38  H   UNL     1      22.792  26.871  31.230  1.00  0.00     0.211 HD
ENDBRANCH  13  37
BRANCH  14  39
ATOM     39  O   UNL     1      22.316  24.522  28.738  1.00  0.00    -0.387 OA
ATOM     40  H   UNL     1      21.908  24.349  29.607  1.00  0.00     0.211 HD
ENDBRANCH  14  39
ENDBRANCH   8   9
ENDBRANCH   7   8
ENDBRANCH   1   7
BRANCH   1  41
ATOM     41  C   UNL     1      21.321  27.052  24.810  1.00  0.00     0.364 C 
ATOM     42  O   UNL     1      20.070  26.856  24.945  1.00  0.00    -0.246 OA
BRANCH  41  43
ATOM     43  O   UNL     1      21.697  28.371  24.720  1.00  0.00    -0.477 OA
ATOM     44  H   UNL     1      21.276  29.032  24.049  1.00  0.00     0.296 HD
ENDBRANCH  41  43
ENDBRANCH   1  41
BRANCH   3  45
ATOM     45  O   UNL     1      21.558  24.078  21.602  1.00  0.00    -0.391 OA
ATOM     46  H   UNL     1      21.315  23.322  22.176  1.00  0.00     0.211 HD
ENDBRANCH   3  45
BRANCH   5  47
ATOM     47  C   UNL     1      25.035  27.270  22.891  1.00  0.00     0.176 C 
BRANCH  47  48
ATOM     48  O   UNL     1      25.644  27.149  24.168  1.00  0.00    -0.388 OA
ATOM     49  H   UNL     1      26.354  26.459  24.157  1.00  0.00     0.211 HD
ENDBRANCH  47  48
BRANCH  47  50
ATOM     50  C   UNL     1      25.158  28.741  22.520  1.00  0.00     0.165 C 
BRANCH  50  51
ATOM     51  O   UNL     1      23.926  29.287  23.029  1.00  0.00    -0.388 OA
ATOM     52  H   UNL     1      23.310  29.360  22.264  1.00  0.00     0.211 HD
ENDBRANCH  50  51
BRANCH  50  53
ATOM     53  C   UNL     1      25.002  28.922  21.026  1.00  0.00     0.154 C 
BRANCH  53  54
ATOM     54  N   UNL     1      23.690  29.142  20.548  1.00  0.00    -0.319 N 
ATOM     55  C   UNL     1      23.112  28.477  19.446  1.00  0.00     0.407 C 
ATOM     56  H   UNL     1      23.102  29.870  21.066  1.00  0.00     0.167 HD
ATOM     57  O   UNL     1      23.789  27.637  18.822  1.00  0.00    -0.225 OA
BRANCH  55  58
ATOM     58  O   UNL     1      21.816  28.790  19.105  1.00  0.00    -0.443 OA
BRANCH  58  59
ATOM     59  C   UNL     1      21.399  28.953  17.777  1.00  0.00     0.294 C 
BRANCH  59  60
ATOM     60  C   UNL     1      19.920  28.737  17.677  1.00  0.00     0.121 A 
ATOM     61  C   UNL     1      19.057  29.226  16.755  1.00  0.00     0.144 A 
ATOM     62  N   UNL     1      19.208  27.986  18.549  1.00  0.00    -0.131 NA
ATOM     63  N   UNL     1      17.839  28.759  17.091  1.00  0.00    -0.219 N 
ATOM     64  N   UNL     1      17.942  28.003  18.187  1.00  0.00    -0.062 NA
BRANCH  63  65
ATOM     65  C   UNL     1      16.642  29.044  16.372  1.00  0.00     0.085 A 
ATOM     66  C   UNL     1      16.563  28.753  15.048  1.00  0.00     0.140 A 
ATOM     67  C   UNL     1      15.577  29.610  17.053  1.00  0.00     0.040 A 
ATOM     68  N   UNL     1      15.421  29.023  14.385  1.00  0.00    -0.254 NA
ATOM     69  C   UNL     1      14.429  29.876  16.364  1.00  0.00     0.002 A 
ATOM     70  C   UNL     1      14.387  29.570  15.034  1.00  0.00     0.070 A 
ATOM     71  C   UNL     1      13.354  30.439  17.020  1.00  0.00     0.010 A 
ATOM     72  C   UNL     1      13.210  29.844  14.337  1.00  0.00     0.029 A 
ATOM     73  C   UNL     1      12.196  30.703  16.308  1.00  0.00     0.001 A 
ATOM     74  C   UNL     1      12.122  30.401  14.947  1.00  0.00     0.002 A 
ENDBRANCH  63  65
ENDBRANCH  59  60
ENDBRANCH  58  59
ENDBRANCH  55  58
ENDBRANCH  53  54
ENDBRANCH  50  53
ENDBRANCH  47  50
ENDBRANCH   5  47
BRANCH   4  75
ATOM     75  N   UNL     1      23.864  25.415  20.952  1.00  0.00    -0.348 N 
ATOM     76  C   UNL     1      24.925  24.520  20.549  1.00  0.00     0.217 C 
ATOM     77  H   UNL     1      23.472  25.996  20.183  1.00  0.00     0.163 HD
ATOM     78  C   UNL     1      25.401  24.478  19.166  1.00  0.00     0.114 C 
ATOM     79  O   UNL     1      25.417  23.780  21.454  1.00  0.00    -0.275 OA
ENDBRANCH   4  75
TORSDOF 30
