REMARK VINA RESULT:    -5.973      8.425     14.508
REMARK INTER + INTRA:         -24.173
REMARK INTER:                 -15.311
REMARK INTRA:                  -8.861
REMARK UNBOUND:                -8.074
REMARK SMILES CC(=O)N[C@@H]1[C@@H](O)C[C@](OC[C@H]2O[C@@H](O[C@H]3[C@H](O)[C@@H](O)[C@H](OCCN=[N+]=[N-])O[C@@H]3CO)[C@H](O)[C@@H](O)[C@H]2O)(C(=O)O)O[C@H]1C(O)[C@H](O)CNC(=O)OCc1cn(C[C@@H](C)CN2CCN(c3ccc(Cl)cc3)CC2)nn1
REMARK SMILES IDX 43 1 42 2 9 3 8 4 41 5 6 6 5 7 10 8 11 9 12 10 14 11 13 12
REMARK SMILES IDX 32 13 34 14 36 15 15 16 16 17 29 18 28 19 21 20 17 21 19 22
REMARK SMILES IDX 30 23 31 24 22 26 23 27 24 28 25 29 26 30 27 31 18 32 20 34
REMARK SMILES IDX 33 36 35 38 37 40 38 42 39 43 40 44 7 46 4 48 2 49 1 51 3 52
REMARK SMILES IDX 44 53 45 55 46 56 47 58 48 59 49 60 50 62 51 63 52 64 53 65
REMARK SMILES IDX 54 66 74 67 55 68 73 69 56 70 57 71 58 72 59 73 60 74 61 75
REMARK SMILES IDX 72 76 62 77 71 78 63 79 64 80 65 81 70 82 66 83 69 84 67 85
REMARK SMILES IDX 68 86
REMARK H PARENT 31 25 18 33 20 35 33 37 35 39 37 41 40 45 7 47 4 50 44 54
REMARK H PARENT 46 57 48 61
REMARK Flexibility Score: inf
ROOT
ATOM      1  C   UNL     1      22.241  28.326  24.493  1.00  0.00     0.176 C 
ENDROOT
BRANCH   1   2
ATOM      2  C   UNL     1      21.582  29.637  24.089  1.00  0.00     0.178 C 
ATOM      3  C   UNL     1      19.502  30.727  23.833  1.00  0.00     0.272 C 
ATOM      4  C   UNL     1      20.208  31.595  22.913  1.00  0.00     0.113 C 
ATOM      5  O   UNL     1      20.234  29.513  24.017  1.00  0.00    -0.332 OA
ATOM      6  C   UNL     1      21.178  30.853  22.013  1.00  0.00     0.145 C 
ATOM      7  C   UNL     1      22.267  30.271  22.926  1.00  0.00     0.142 C 
BRANCH   3   8
ATOM      8  O   UNL     1      18.261  30.314  23.593  1.00  0.00    -0.338 OA
BRANCH   8   9
ATOM      9  C   UNL     1      17.135  30.974  23.672  1.00  0.00     0.199 C 
BRANCH   9  10
ATOM     10  C   UNL     1      16.210  31.170  22.506  1.00  0.00     0.179 C 
ATOM     11  C   UNL     1      15.206  29.708  20.990  1.00  0.00     0.282 C 
ATOM     12  O   UNL     1      16.352  30.241  21.516  1.00  0.00    -0.341 OA
ATOM     13  C   UNL     1      14.485  28.922  22.069  1.00  0.00     0.202 C 
ATOM     14  C   UNL     1      14.176  29.850  23.198  1.00  0.00     0.179 C 
ATOM     15  C   UNL     1      14.770  31.208  23.039  1.00  0.00     0.177 C 
BRANCH  11  16
ATOM     16  O   UNL     1      15.624  28.782  20.004  1.00  0.00    -0.341 OA
BRANCH  16  17
ATOM     17  C   UNL     1      16.716  29.280  19.340  1.00  0.00     0.184 C 
ATOM     18  C   UNL     1      16.380  29.768  17.946  1.00  0.00     0.178 C 
ATOM     19  O   UNL     1      16.899  29.016  16.936  1.00  0.00    -0.341 OA
ATOM     20  C   UNL     1      18.268  28.819  16.955  1.00  0.00     0.281 C 
ATOM     21  C   UNL     1      17.863  28.275  19.300  1.00  0.00     0.180 C 
ATOM     22  C   UNL     1      18.883  28.821  18.328  1.00  0.00     0.202 C 
BRANCH  18  23
ATOM     23  C   UNL     1      16.640  31.258  17.785  1.00  0.00     0.191 C 
BRANCH  23  24
ATOM     24  O   UNL     1      17.091  31.836  18.946  1.00  0.00    -0.394 OA
ATOM     25  H   UNL     1      17.285  32.800  18.735  1.00  0.00     0.210 HD
ENDBRANCH  23  24
ENDBRANCH  18  23
BRANCH  20  26
ATOM     26  O   UNL     1      18.945  29.716  16.137  1.00  0.00    -0.350 OA
BRANCH  26  27
ATOM     27  C   UNL     1      19.334  29.233  14.920  1.00  0.00     0.169 C 
BRANCH  27  28
ATOM     28  C   UNL     1      20.780  29.524  14.636  1.00  0.00     0.119 C 
BRANCH  28  29
ATOM     29  N   UNL     1      21.598  28.967  15.701  1.00  0.00    -0.092 NA
ATOM     30  N   UNL     1      21.659  27.732  15.842  1.00  0.00     0.001 N 
ATOM     31  N   UNL     1      21.630  26.508  15.873  1.00  0.00    -0.003 NA
ENDBRANCH  28  29
ENDBRANCH  27  28
ENDBRANCH  26  27
ENDBRANCH  20  26
BRANCH  21  32
ATOM     32  O   UNL     1      18.479  28.180  20.545  1.00  0.00    -0.387 OA
ATOM     33  H   UNL     1      18.516  29.118  20.897  1.00  0.00     0.211 HD
ENDBRANCH  21  32
BRANCH  22  34
ATOM     34  O   UNL     1      19.986  27.933  18.307  1.00  0.00    -0.385 OA
ATOM     35  H   UNL     1      20.495  27.974  17.482  1.00  0.00     0.211 HD
ENDBRANCH  22  34
ENDBRANCH  16  17
ENDBRANCH  11  16
BRANCH  13  36
ATOM     36  O   UNL     1      13.361  28.346  21.503  1.00  0.00    -0.385 OA
ATOM     37  H   UNL     1      13.029  28.987  20.809  1.00  0.00     0.211 HD
ENDBRANCH  13  36
BRANCH  14  38
ATOM     38  O   UNL     1      14.494  29.312  24.452  1.00  0.00    -0.387 OA
ATOM     39  H   UNL     1      13.767  29.463  25.099  1.00  0.00     0.211 HD
ENDBRANCH  14  38
BRANCH  15  40
ATOM     40  O   UNL     1      14.757  31.899  24.226  1.00  0.00    -0.387 OA
ATOM     41  H   UNL     1      13.874  32.283  24.430  1.00  0.00     0.211 HD
ENDBRANCH  15  40
ENDBRANCH   9  10
ENDBRANCH   8   9
ENDBRANCH   3   8
BRANCH   3  42
ATOM     42  C   UNL     1      19.569  31.294  25.237  1.00  0.00     0.364 C 
ATOM     43  O   UNL     1      19.264  30.564  26.244  1.00  0.00    -0.246 OA
BRANCH  42  44
ATOM     44  O   UNL     1      19.938  32.581  25.534  1.00  0.00    -0.477 OA
ATOM     45  H   UNL     1      20.876  32.920  25.354  1.00  0.00     0.296 HD
ENDBRANCH  42  44
ENDBRANCH   3  42
BRANCH   6  46
ATOM     46  O   UNL     1      20.462  29.824  21.402  1.00  0.00    -0.391 OA
ATOM     47  H   UNL     1      20.876  28.943  21.569  1.00  0.00     0.211 HD
ENDBRANCH   6  46
BRANCH   7  48
ATOM     48  N   UNL     1      23.128  31.370  23.315  1.00  0.00    -0.348 N 
ATOM     49  C   UNL     1      24.536  31.201  23.322  1.00  0.00     0.217 C 
ATOM     50  H   UNL     1      22.751  32.314  23.603  1.00  0.00     0.163 HD
ATOM     51  C   UNL     1      25.395  32.368  23.733  1.00  0.00     0.114 C 
ATOM     52  O   UNL     1      25.105  30.120  23.001  1.00  0.00    -0.275 OA
ENDBRANCH   7  48
ENDBRANCH   1   2
BRANCH   1  53
ATOM     53  O   UNL     1      23.163  28.004  23.498  1.00  0.00    -0.388 OA
ATOM     54  H   UNL     1      23.273  28.744  22.858  1.00  0.00     0.211 HD
ENDBRANCH   1  53
BRANCH   1  55
ATOM     55  C   UNL     1      23.010  28.400  25.782  1.00  0.00     0.165 C 
BRANCH  55  56
ATOM     56  O   UNL     1      24.270  28.929  25.686  1.00  0.00    -0.388 OA
ATOM     57  H   UNL     1      24.495  29.516  26.428  1.00  0.00     0.211 HD
ENDBRANCH  55  56
BRANCH  55  58
ATOM     58  C   UNL     1      23.014  27.140  26.577  1.00  0.00     0.154 C 
BRANCH  58  59
ATOM     59  N   UNL     1      22.194  26.148  25.877  1.00  0.00    -0.319 N 
ATOM     60  C   UNL     1      22.773  25.188  25.015  1.00  0.00     0.407 C 
ATOM     61  H   UNL     1      21.164  26.157  26.021  1.00  0.00     0.167 HD
ATOM     62  O   UNL     1      24.018  25.210  24.860  1.00  0.00    -0.225 OA
BRANCH  60  63
ATOM     63  O   UNL     1      21.977  24.253  24.367  1.00  0.00    -0.443 OA
BRANCH  63  64
ATOM     64  C   UNL     1      20.819  24.726  23.678  1.00  0.00     0.294 C 
BRANCH  64  65
ATOM     65  C   UNL     1      21.162  25.435  22.424  1.00  0.00     0.120 A 
ATOM     66  C   UNL     1      21.954  24.974  21.397  1.00  0.00     0.138 A 
ATOM     67  N   UNL     1      20.768  26.673  22.043  1.00  0.00    -0.132 NA
ATOM     68  N   UNL     1      22.001  25.926  20.471  1.00  0.00    -0.252 N 
ATOM     69  N   UNL     1      21.282  26.953  20.866  1.00  0.00    -0.067 NA
BRANCH  68  70
ATOM     70  C   UNL     1      22.755  25.827  19.220  1.00  0.00     0.150 C 
BRANCH  70  71
ATOM     71  C   UNL     1      24.054  26.633  19.308  1.00  0.00     0.022 C 
ATOM     72  C   UNL     1      23.643  28.087  19.223  1.00  0.00     0.011 C 
BRANCH  71  73
ATOM     73  C   UNL     1      24.733  26.326  20.606  1.00  0.00     0.089 C 
BRANCH  73  74
ATOM     74  N   UNL     1      25.785  25.396  20.610  1.00  0.00    -0.299 NA
ATOM     75  C   UNL     1      26.738  25.368  19.583  1.00  0.00     0.106 C 
ATOM     76  C   UNL     1      25.497  24.157  21.259  1.00  0.00     0.106 C 
ATOM     77  C   UNL     1      26.909  23.975  18.976  1.00  0.00     0.132 C 
ATOM     78  C   UNL     1      26.774  23.346  21.386  1.00  0.00     0.132 C 
ATOM     79  N   UNL     1      27.193  23.022  20.048  1.00  0.00    -0.369 N 
BRANCH  79  80
ATOM     80  C   UNL     1      27.856  21.827  19.742  1.00  0.00     0.037 A 
ATOM     81  C   UNL     1      28.570  21.109  20.698  1.00  0.00     0.027 A 
ATOM     82  C   UNL     1      27.841  21.265  18.471  1.00  0.00     0.027 A 
ATOM     83  C   UNL     1      29.223  19.931  20.425  1.00  0.00     0.022 A 
ATOM     84  C   UNL     1      28.495  20.082  18.194  1.00  0.00     0.022 A 
ATOM     85  C   UNL     1      29.195  19.397  19.163  1.00  0.00     0.041 A 
ATOM     86  Cl  UNL     1      30.016  17.911  18.819  1.00  0.00    -0.084 Cl
ENDBRANCH  79  80
ENDBRANCH  73  74
ENDBRANCH  71  73
ENDBRANCH  70  71
ENDBRANCH  68  70
ENDBRANCH  64  65
ENDBRANCH  63  64
ENDBRANCH  60  63
ENDBRANCH  58  59
ENDBRANCH  55  58
ENDBRANCH   1  55
TORSDOF 34
