REMARK VINA RESULT:    -6.192      7.595     13.055
REMARK INTER + INTRA:         -21.970
REMARK INTER:                 -14.363
REMARK INTRA:                  -7.607
REMARK UNBOUND:                -6.367
REMARK SMILES CC(=O)N[C@@H]1[C@@H](O)C[C@](OC[C@H]2O[C@@H](O[C@H]3[C@H](O)[C@@H](O)[C@H](OCCN=[N+]=[N-])O[C@@H]3CO)[C@H](O)[C@@H](O)[C@H]2O)(C(=O)O)O[C@H]1C(O)[C@H](O)CNC(=O)OCc1cn(-c2ncn3c2c(=O)n(C(C)C)c2ccccc23)nn1
REMARK SMILES IDX 9 1 8 2 6 3 5 4 42 5 41 6 10 7 11 8 12 9 14 10 13 11 32 12
REMARK SMILES IDX 34 13 36 14 15 15 16 16 29 17 28 18 21 19 17 20 19 21 30 22
REMARK SMILES IDX 31 23 22 25 23 26 24 27 25 28 26 29 27 30 18 31 20 33 33 35
REMARK SMILES IDX 35 37 37 39 38 41 39 42 40 43 7 45 43 47 44 48 45 50 46 51
REMARK SMILES IDX 47 53 48 54 49 55 50 57 51 58 52 59 53 60 54 61 74 62 55 63
REMARK SMILES IDX 73 64 56 65 57 66 60 67 58 68 59 69 61 70 72 71 63 72 62 73
REMARK SMILES IDX 71 74 67 75 70 76 68 77 69 78 64 79 65 80 66 81 4 82 2 83
REMARK SMILES IDX 1 85 3 86
REMARK H PARENT 31 24 18 32 20 34 33 36 35 38 37 40 40 44 7 46 44 49 46 52
REMARK H PARENT 48 56 4 84
REMARK Flexibility Score: inf
ROOT
ATOM      1  C   UNL     1      15.294  29.316  19.688  1.00  0.00     0.272 C 
ATOM      2  C   UNL     1      13.999  28.999  20.385  1.00  0.00     0.113 C 
ATOM      3  C   UNL     1      14.048  29.252  21.833  1.00  0.00     0.145 C 
ATOM      4  C   UNL     1      14.696  30.548  22.225  1.00  0.00     0.142 C 
ATOM      5  C   UNL     1      15.720  31.023  21.258  1.00  0.00     0.178 C 
ATOM      6  O   UNL     1      15.589  30.686  19.977  1.00  0.00    -0.332 OA
ENDROOT
BRANCH   1   7
ATOM      7  O   UNL     1      15.002  29.380  18.354  1.00  0.00    -0.338 OA
BRANCH   7   8
ATOM      8  C   UNL     1      15.114  30.412  17.567  1.00  0.00     0.199 C 
BRANCH   8   9
ATOM      9  C   UNL     1      16.082  30.568  16.444  1.00  0.00     0.179 C 
ATOM     10  C   UNL     1      18.298  29.989  16.022  1.00  0.00     0.282 C 
ATOM     11  O   UNL     1      17.277  29.946  16.935  1.00  0.00    -0.341 OA
ATOM     12  C   UNL     1      17.982  29.198  14.765  1.00  0.00     0.202 C 
ATOM     13  C   UNL     1      16.644  29.622  14.186  1.00  0.00     0.179 C 
ATOM     14  C   UNL     1      15.634  29.656  15.301  1.00  0.00     0.177 C 
BRANCH  10  15
ATOM     15  O   UNL     1      19.406  29.404  16.624  1.00  0.00    -0.341 OA
BRANCH  15  16
ATOM     16  C   UNL     1      20.153  30.334  17.298  1.00  0.00     0.184 C 
ATOM     17  C   UNL     1      21.536  30.386  16.757  1.00  0.00     0.178 C 
ATOM     18  O   UNL     1      22.486  29.681  17.451  1.00  0.00    -0.341 OA
ATOM     19  C   UNL     1      22.035  28.613  18.180  1.00  0.00     0.281 C 
ATOM     20  C   UNL     1      20.122  30.137  18.800  1.00  0.00     0.180 C 
ATOM     21  C   UNL     1      20.975  28.986  19.188  1.00  0.00     0.202 C 
BRANCH  17  22
ATOM     22  C   UNL     1      21.988  31.821  16.592  1.00  0.00     0.191 C 
BRANCH  22  23
ATOM     23  O   UNL     1      23.117  31.763  15.739  1.00  0.00    -0.394 OA
ATOM     24  H   UNL     1      23.243  30.811  15.520  1.00  0.00     0.210 HD
ENDBRANCH  22  23
ENDBRANCH  17  22
BRANCH  19  25
ATOM     25  O   UNL     1      23.123  28.135  18.933  1.00  0.00    -0.350 OA
BRANCH  25  26
ATOM     26  C   UNL     1      23.806  27.109  18.340  1.00  0.00     0.169 C 
BRANCH  26  27
ATOM     27  C   UNL     1      23.101  25.790  18.302  1.00  0.00     0.119 C 
BRANCH  27  28
ATOM     28  N   UNL     1      22.439  25.648  19.609  1.00  0.00    -0.092 NA
ATOM     29  N   UNL     1      22.529  24.661  20.306  1.00  0.00     0.001 N 
ATOM     30  N   UNL     1      22.326  23.624  20.945  1.00  0.00    -0.003 NA
ENDBRANCH  27  28
ENDBRANCH  26  27
ENDBRANCH  25  26
ENDBRANCH  19  25
BRANCH  20  31
ATOM     31  O   UNL     1      20.485  31.340  19.418  1.00  0.00    -0.387 OA
ATOM     32  H   UNL     1      21.463  31.241  19.616  1.00  0.00     0.211 HD
ENDBRANCH  20  31
BRANCH  21  33
ATOM     33  O   UNL     1      20.130  27.875  19.354  1.00  0.00    -0.385 OA
ATOM     34  H   UNL     1      19.205  28.069  19.052  1.00  0.00     0.211 HD
ENDBRANCH  21  33
ENDBRANCH  15  16
ENDBRANCH  10  15
BRANCH  12  35
ATOM     35  O   UNL     1      18.940  29.535  13.811  1.00  0.00    -0.385 OA
ATOM     36  H   UNL     1      18.895  30.486  13.554  1.00  0.00     0.211 HD
ENDBRANCH  12  35
BRANCH  13  37
ATOM     37  O   UNL     1      16.243  28.588  13.319  1.00  0.00    -0.387 OA
ATOM     38  H   UNL     1      15.578  28.934  12.662  1.00  0.00     0.211 HD
ENDBRANCH  13  37
BRANCH  14  39
ATOM     39  O   UNL     1      15.577  28.333  15.811  1.00  0.00    -0.387 OA
ATOM     40  H   UNL     1      15.693  28.342  16.791  1.00  0.00     0.211 HD
ENDBRANCH  14  39
ENDBRANCH   8   9
ENDBRANCH   7   8
ENDBRANCH   1   7
BRANCH   1  41
ATOM     41  C   UNL     1      16.436  28.526  20.126  1.00  0.00     0.364 C 
ATOM     42  O   UNL     1      17.477  28.994  20.586  1.00  0.00    -0.246 OA
BRANCH  41  43
ATOM     43  O   UNL     1      16.403  27.122  20.040  1.00  0.00    -0.477 OA
ATOM     44  H   UNL     1      15.630  26.616  20.455  1.00  0.00     0.296 HD
ENDBRANCH  41  43
ENDBRANCH   1  41
BRANCH   3  45
ATOM     45  O   UNL     1      12.705  29.249  22.294  1.00  0.00    -0.391 OA
ATOM     46  H   UNL     1      12.437  28.346  22.580  1.00  0.00     0.211 HD
ENDBRANCH   3  45
BRANCH   5  47
ATOM     47  C   UNL     1      15.950  32.521  21.354  1.00  0.00     0.176 C 
BRANCH  47  48
ATOM     48  O   UNL     1      14.765  33.157  21.647  1.00  0.00    -0.388 OA
ATOM     49  H   UNL     1      14.327  33.563  20.857  1.00  0.00     0.211 HD
ENDBRANCH  47  48
BRANCH  47  50
ATOM     50  C   UNL     1      16.596  33.127  20.157  1.00  0.00     0.165 C 
BRANCH  50  51
ATOM     51  O   UNL     1      17.508  32.351  19.495  1.00  0.00    -0.388 OA
ATOM     52  H   UNL     1      18.266  32.051  20.047  1.00  0.00     0.211 HD
ENDBRANCH  50  51
BRANCH  50  53
ATOM     53  C   UNL     1      17.155  34.496  20.399  1.00  0.00     0.154 C 
BRANCH  53  54
ATOM     54  N   UNL     1      17.804  34.564  21.714  1.00  0.00    -0.319 N 
ATOM     55  C   UNL     1      19.137  34.172  21.922  1.00  0.00     0.407 C 
ATOM     56  H   UNL     1      17.253  34.924  22.549  1.00  0.00     0.167 HD
ATOM     57  O   UNL     1      19.839  33.726  20.979  1.00  0.00    -0.225 OA
BRANCH  55  58
ATOM     58  O   UNL     1      19.666  34.292  23.215  1.00  0.00    -0.443 OA
BRANCH  58  59
ATOM     59  C   UNL     1      19.049  33.658  24.300  1.00  0.00     0.294 C 
BRANCH  59  60
ATOM     60  C   UNL     1      19.019  32.154  24.148  1.00  0.00     0.121 A 
ATOM     61  C   UNL     1      20.109  31.330  23.982  1.00  0.00     0.146 A 
ATOM     62  N   UNL     1      17.950  31.342  24.150  1.00  0.00    -0.131 NA
ATOM     63  N   UNL     1      19.686  30.035  23.887  1.00  0.00    -0.200 N 
ATOM     64  N   UNL     1      18.373  30.090  23.994  1.00  0.00    -0.060 NA
BRANCH  63  65
ATOM     65  C   UNL     1      20.528  28.896  23.715  1.00  0.00     0.186 A 
ATOM     66  N   UNL     1      20.806  28.318  22.534  1.00  0.00    -0.216 NA
ATOM     67  C   UNL     1      21.206  28.145  24.642  1.00  0.00     0.158 A 
ATOM     68  C   UNL     1      21.618  27.260  22.723  1.00  0.00     0.207 A 
ATOM     69  N   UNL     1      21.882  27.133  24.042  1.00  0.00    -0.291 N 
ATOM     70  C   UNL     1      21.274  28.288  26.005  1.00  0.00     0.279 A 
ATOM     71  C   UNL     1      22.619  26.261  24.751  1.00  0.00     0.071 A 
ATOM     72  N   UNL     1      22.011  27.423  26.748  1.00  0.00    -0.302 N 
ATOM     73  O   UNL     1      20.653  29.226  26.594  1.00  0.00    -0.267 OA
ATOM     74  C   UNL     1      23.296  25.237  24.147  1.00  0.00     0.029 A 
ATOM     75  C   UNL     1      22.671  26.426  26.118  1.00  0.00     0.068 A 
ATOM     76  C   UNL     1      24.062  24.323  24.889  1.00  0.00     0.002 A 
ATOM     77  C   UNL     1      23.426  25.524  26.844  1.00  0.00     0.028 A 
ATOM     78  C   UNL     1      24.121  24.476  26.255  1.00  0.00     0.002 A 
BRANCH  72  79
ATOM     79  C   UNL     1      22.091  27.580  28.201  1.00  0.00     0.085 C 
ATOM     80  C   UNL     1      21.338  26.535  28.957  1.00  0.00     0.031 C 
ATOM     81  C   UNL     1      23.506  27.798  28.675  1.00  0.00     0.031 C 
ENDBRANCH  72  79
ENDBRANCH  63  65
ENDBRANCH  59  60
ENDBRANCH  58  59
ENDBRANCH  55  58
ENDBRANCH  53  54
ENDBRANCH  50  53
ENDBRANCH  47  50
ENDBRANCH   5  47
BRANCH   4  82
ATOM     82  N   UNL     1      15.214  30.412  23.570  1.00  0.00    -0.348 N 
ATOM     83  C   UNL     1      14.527  30.867  24.718  1.00  0.00     0.217 C 
ATOM     84  H   UNL     1      16.145  29.954  23.724  1.00  0.00     0.163 HD
ATOM     85  C   UNL     1      15.072  30.721  26.100  1.00  0.00     0.114 C 
ATOM     86  O   UNL     1      13.401  31.423  24.549  1.00  0.00    -0.275 OA
ENDBRANCH   4  82
TORSDOF 31
