REMARK VINA RESULT:    -5.813     15.655     20.905
REMARK INTER + INTRA:         -22.144
REMARK INTER:                 -15.023
REMARK INTRA:                  -7.121
REMARK UNBOUND:                -7.496
REMARK SMILES CC(=O)N[C@@H]1[C@@H](O)C[C@](OC[C@H]2O[C@@H](O[C@H]3[C@H](O)[C@@H](O)[C@H](OCCN=[N+]=[N-])O[C@@H]3CO)[C@H](O)[C@@H](O)[C@H]2O)(C(=O)O)O[C@H]1C(O)[C@H](O)CNC(=O)OCc1cn(-c2ccccc2C(N)=O)nn1
REMARK SMILES IDX 9 1 8 2 6 3 5 4 42 5 41 6 10 7 11 8 12 9 14 10 13 11 32 12
REMARK SMILES IDX 34 13 36 14 15 15 16 16 29 17 28 18 21 19 17 20 19 21 30 22
REMARK SMILES IDX 31 23 22 25 23 26 24 27 25 28 26 29 27 30 18 31 20 33 33 35
REMARK SMILES IDX 35 37 37 39 38 41 39 42 40 43 7 45 43 47 44 48 45 50 46 51
REMARK SMILES IDX 47 53 48 54 49 55 50 57 51 58 52 59 53 60 54 61 66 62 55 63
REMARK SMILES IDX 65 64 56 65 61 66 57 67 60 68 58 69 59 70 62 71 64 72 63 73
REMARK SMILES IDX 4 76 2 77 1 79 3 80
REMARK H PARENT 31 24 18 32 20 34 33 36 35 38 37 40 40 44 7 46 44 49 46 52
REMARK H PARENT 48 56 63 74 63 75 4 78
REMARK Flexibility Score: inf
ROOT
ATOM      1  C   UNL     1       2.728  23.368  32.353  1.00  0.00     0.272 C 
ATOM      2  C   UNL     1       2.293  22.742  33.708  1.00  0.00     0.113 C 
ATOM      3  C   UNL     1       3.435  21.856  34.119  1.00  0.00     0.145 C 
ATOM      4  C   UNL     1       3.480  20.666  33.246  1.00  0.00     0.142 C 
ATOM      5  C   UNL     1       3.002  21.126  31.857  1.00  0.00     0.178 C 
ATOM      6  O   UNL     1       3.414  22.422  31.610  1.00  0.00    -0.332 OA
ENDROOT
BRANCH   1   7
ATOM      7  O   UNL     1       3.576  24.394  32.726  1.00  0.00    -0.338 OA
BRANCH   7   8
ATOM      8  C   UNL     1       2.957  25.492  33.244  1.00  0.00     0.199 C 
BRANCH   8   9
ATOM      9  C   UNL     1       3.934  26.579  33.655  1.00  0.00     0.179 C 
ATOM     10  C   UNL     1       5.806  26.817  35.023  1.00  0.00     0.282 C 
ATOM     11  O   UNL     1       4.880  25.951  34.462  1.00  0.00    -0.341 OA
ATOM     12  C   UNL     1       5.737  28.223  34.555  1.00  0.00     0.202 C 
ATOM     13  C   UNL     1       5.410  28.413  33.104  1.00  0.00     0.179 C 
ATOM     14  C   UNL     1       4.657  27.212  32.512  1.00  0.00     0.177 C 
BRANCH  10  15
ATOM     15  O   UNL     1       7.059  26.289  34.769  1.00  0.00    -0.341 OA
BRANCH  15  16
ATOM     16  C   UNL     1       7.230  25.011  35.275  1.00  0.00     0.184 C 
ATOM     17  C   UNL     1       7.211  25.098  36.786  1.00  0.00     0.178 C 
ATOM     18  O   UNL     1       8.449  25.152  37.327  1.00  0.00    -0.341 OA
ATOM     19  C   UNL     1       9.189  24.041  37.145  1.00  0.00     0.281 C 
ATOM     20  C   UNL     1       8.607  24.547  34.813  1.00  0.00     0.180 C 
ATOM     21  C   UNL     1       9.197  23.556  35.750  1.00  0.00     0.202 C 
BRANCH  17  22
ATOM     22  C   UNL     1       6.426  23.948  37.356  1.00  0.00     0.191 C 
BRANCH  22  23
ATOM     23  O   UNL     1       5.361  23.587  36.523  1.00  0.00    -0.394 OA
ATOM     24  H   UNL     1       5.228  22.602  36.666  1.00  0.00     0.210 HD
ENDBRANCH  22  23
ENDBRANCH  17  22
BRANCH  19  25
ATOM     25  O   UNL     1       8.933  23.025  38.078  1.00  0.00    -0.350 OA
BRANCH  25  26
ATOM     26  C   UNL     1      10.050  22.583  38.741  1.00  0.00     0.169 C 
BRANCH  26  27
ATOM     27  C   UNL     1       9.956  22.915  40.193  1.00  0.00     0.119 C 
BRANCH  27  28
ATOM     28  N   UNL     1      11.029  22.270  40.906  1.00  0.00    -0.092 NA
ATOM     29  N   UNL     1      10.887  21.189  41.491  1.00  0.00     0.001 N 
ATOM     30  N   UNL     1      10.571  20.043  41.818  1.00  0.00    -0.003 NA
ENDBRANCH  27  28
ENDBRANCH  26  27
ENDBRANCH  25  26
ENDBRANCH  19  25
BRANCH  20  31
ATOM     31  O   UNL     1       8.516  23.979  33.545  1.00  0.00    -0.387 OA
ATOM     32  H   UNL     1       8.215  23.019  33.613  1.00  0.00     0.211 HD
ENDBRANCH  20  31
BRANCH  21  33
ATOM     33  O   UNL     1      10.539  23.342  35.351  1.00  0.00    -0.385 OA
ATOM     34  H   UNL     1      11.082  23.178  36.175  1.00  0.00     0.211 HD
ENDBRANCH  21  33
ENDBRANCH  15  16
ENDBRANCH  10  15
BRANCH  12  35
ATOM     35  O   UNL     1       4.911  29.021  35.375  1.00  0.00    -0.385 OA
ATOM     36  H   UNL     1       5.473  29.334  36.117  1.00  0.00     0.211 HD
ENDBRANCH  12  35
BRANCH  13  37
ATOM     37  O   UNL     1       6.575  28.566  32.350  1.00  0.00    -0.387 OA
ATOM     38  H   UNL     1       6.488  29.315  31.686  1.00  0.00     0.211 HD
ENDBRANCH  13  37
BRANCH  14  39
ATOM     39  O   UNL     1       5.601  26.289  32.027  1.00  0.00    -0.387 OA
ATOM     40  H   UNL     1       5.473  26.046  31.096  1.00  0.00     0.211 HD
ENDBRANCH  14  39
ENDBRANCH   8   9
ENDBRANCH   7   8
ENDBRANCH   1   7
BRANCH   1  41
ATOM     41  C   UNL     1       1.539  23.815  31.623  1.00  0.00     0.364 C 
ATOM     42  O   UNL     1       1.599  24.053  30.368  1.00  0.00    -0.246 OA
BRANCH  41  43
ATOM     43  O   UNL     1       0.324  23.985  32.293  1.00  0.00    -0.477 OA
ATOM     44  H   UNL     1       0.302  24.710  33.006  1.00  0.00     0.296 HD
ENDBRANCH  41  43
ENDBRANCH   1  41
BRANCH   3  45
ATOM     45  O   UNL     1       4.616  22.595  33.852  1.00  0.00    -0.391 OA
ATOM     46  H   UNL     1       4.995  22.909  34.713  1.00  0.00     0.211 HD
ENDBRANCH   3  45
BRANCH   5  47
ATOM     47  C   UNL     1       3.395  20.124  30.810  1.00  0.00     0.176 C 
BRANCH  47  48
ATOM     48  O   UNL     1       2.820  18.897  31.196  1.00  0.00    -0.388 OA
ATOM     49  H   UNL     1       2.551  18.938  32.154  1.00  0.00     0.211 HD
ENDBRANCH  47  48
BRANCH  47  50
ATOM     50  C   UNL     1       2.747  20.449  29.461  1.00  0.00     0.165 C 
BRANCH  50  51
ATOM     51  O   UNL     1       3.207  21.706  29.037  1.00  0.00    -0.388 OA
ATOM     52  H   UNL     1       3.555  21.568  28.118  1.00  0.00     0.211 HD
ENDBRANCH  50  51
BRANCH  50  53
ATOM     53  C   UNL     1       1.258  20.479  29.541  1.00  0.00     0.154 C 
BRANCH  53  54
ATOM     54  N   UNL     1       0.716  21.626  28.865  1.00  0.00    -0.319 N 
ATOM     55  C   UNL     1       0.079  21.574  27.601  1.00  0.00     0.407 C 
ATOM     56  H   UNL     1       0.807  22.564  29.352  1.00  0.00     0.167 HD
ATOM     57  O   UNL     1      -0.112  20.560  26.928  1.00  0.00    -0.225 OA
BRANCH  55  58
ATOM     58  O   UNL     1      -0.398  22.776  27.025  1.00  0.00    -0.443 OA
BRANCH  58  59
ATOM     59  C   UNL     1       0.240  23.297  25.856  1.00  0.00     0.294 C 
BRANCH  59  60
ATOM     60  C   UNL     1       1.591  23.796  26.173  1.00  0.00     0.121 A 
ATOM     61  C   UNL     1       2.084  25.073  26.049  1.00  0.00     0.144 A 
ATOM     62  N   UNL     1       2.614  23.068  26.652  1.00  0.00    -0.131 NA
ATOM     63  N   UNL     1       3.375  25.099  26.446  1.00  0.00    -0.220 N 
ATOM     64  N   UNL     1       3.666  23.846  26.810  1.00  0.00    -0.062 NA
BRANCH  63  65
ATOM     65  C   UNL     1       4.277  26.190  26.483  1.00  0.00     0.079 A 
ATOM     66  C   UNL     1       4.443  26.867  27.664  1.00  0.00     0.065 A 
ATOM     67  C   UNL     1       4.980  26.579  25.360  1.00  0.00     0.029 A 
ATOM     68  C   UNL     1       5.314  27.948  27.758  1.00  0.00     0.016 A 
ATOM     69  C   UNL     1       5.859  27.662  25.435  1.00  0.00     0.002 A 
ATOM     70  C   UNL     1       6.011  28.329  26.630  1.00  0.00     0.001 A 
BRANCH  66  71
ATOM     71  C   UNL     1       3.701  26.454  28.837  1.00  0.00     0.250 C 
ATOM     72  O   UNL     1       2.673  27.100  29.162  1.00  0.00    -0.269 OA
ATOM     73  N   UNL     1       4.061  25.360  29.651  1.00  0.00    -0.366 N 
ATOM     74  H   UNL     1       3.401  24.579  29.783  1.00  0.00     0.159 HD
ATOM     75  H   UNL     1       4.982  25.347  30.113  1.00  0.00     0.159 HD
ENDBRANCH  66  71
ENDBRANCH  63  65
ENDBRANCH  59  60
ENDBRANCH  58  59
ENDBRANCH  55  58
ENDBRANCH  53  54
ENDBRANCH  50  53
ENDBRANCH  47  50
ENDBRANCH   5  47
BRANCH   4  76
ATOM     76  N   UNL     1       2.698  19.553  33.618  1.00  0.00    -0.348 N 
ATOM     77  C   UNL     1       3.019  18.708  34.710  1.00  0.00     0.217 C 
ATOM     78  H   UNL     1       1.835  19.334  33.066  1.00  0.00     0.163 HD
ATOM     79  C   UNL     1       2.225  17.533  35.129  1.00  0.00     0.114 C 
ATOM     80  O   UNL     1       4.079  19.035  35.335  1.00  0.00    -0.275 OA
ENDBRANCH   4  76
TORSDOF 31
