REMARK VINA RESULT:    -5.611     15.016     18.972
REMARK INTER + INTRA:         -20.571
REMARK INTER:                 -14.386
REMARK INTRA:                  -6.185
REMARK UNBOUND:                -6.268
REMARK SMILES CC(=O)N[C@@H]1[C@@H](O)C[C@](OC[C@H]2O[C@@H](O[C@H]3[C@H](O)[C@@H](O)[C@H](OCCN=[N+]=[N-])O[C@@H]3CO)[C@H](O)[C@@H](O)[C@H]2O)(C(=O)O)O[C@H]1C(O)[C@H](O)CNC(=O)OCc1cn(C(C)(C)CO)nn1
REMARK SMILES IDX 9 1 8 2 6 3 5 4 42 5 41 6 10 7 11 8 12 9 14 10 13 11 32 12
REMARK SMILES IDX 34 13 36 14 15 15 16 16 29 17 28 18 21 19 17 20 19 21 30 22
REMARK SMILES IDX 31 23 22 25 23 26 24 27 25 28 26 29 27 30 18 31 20 33 33 35
REMARK SMILES IDX 35 37 37 39 38 41 39 42 40 43 7 45 43 47 44 48 45 50 46 51
REMARK SMILES IDX 47 53 48 54 49 55 50 57 51 58 52 59 53 60 54 61 62 62 55 63
REMARK SMILES IDX 61 64 56 65 57 66 58 67 59 68 60 69 4 71 2 72 1 74 3 75
REMARK H PARENT 31 24 18 32 20 34 33 36 35 38 37 40 40 44 7 46 44 49 46 52
REMARK H PARENT 48 56 60 70 4 73
REMARK Flexibility Score: inf
ROOT
ATOM      1  C   UNL     1       0.890  22.535  27.453  1.00  0.00     0.272 C 
ATOM      2  C   UNL     1      -0.581  22.307  27.683  1.00  0.00     0.113 C 
ATOM      3  C   UNL     1      -0.780  22.042  29.156  1.00  0.00     0.145 C 
ATOM      4  C   UNL     1      -0.175  20.639  29.396  1.00  0.00     0.142 C 
ATOM      5  C   UNL     1       1.231  20.685  28.877  1.00  0.00     0.178 C 
ATOM      6  O   UNL     1       1.641  21.962  28.548  1.00  0.00    -0.332 OA
ENDROOT
BRANCH   1   7
ATOM      7  O   UNL     1       1.264  23.838  27.499  1.00  0.00    -0.338 OA
BRANCH   7   8
ATOM      8  C   UNL     1       1.388  24.615  26.436  1.00  0.00     0.199 C 
BRANCH   8   9
ATOM      9  C   UNL     1       2.380  25.692  26.272  1.00  0.00     0.179 C 
ATOM     10  C   UNL     1       3.201  27.532  27.395  1.00  0.00     0.282 C 
ATOM     11  O   UNL     1       2.545  26.338  27.544  1.00  0.00    -0.341 OA
ATOM     12  C   UNL     1       3.999  27.701  26.153  1.00  0.00     0.202 C 
ATOM     13  C   UNL     1       4.602  26.418  25.623  1.00  0.00     0.179 C 
ATOM     14  C   UNL     1       3.797  25.211  25.984  1.00  0.00     0.177 C 
BRANCH  10  15
ATOM     15  O   UNL     1       3.932  27.763  28.564  1.00  0.00    -0.341 OA
BRANCH  15  16
ATOM     16  C   UNL     1       3.703  26.838  29.556  1.00  0.00     0.184 C 
ATOM     17  C   UNL     1       2.853  27.363  30.691  1.00  0.00     0.178 C 
ATOM     18  O   UNL     1       3.349  27.053  31.940  1.00  0.00    -0.341 OA
ATOM     19  C   UNL     1       4.585  27.561  32.237  1.00  0.00     0.281 C 
ATOM     20  C   UNL     1       5.088  26.488  30.131  1.00  0.00     0.180 C 
ATOM     21  C   UNL     1       5.440  27.685  30.997  1.00  0.00     0.202 C 
BRANCH  17  22
ATOM     22  C   UNL     1       1.511  26.651  30.568  1.00  0.00     0.191 C 
BRANCH  22  23
ATOM     23  O   UNL     1       1.713  25.355  30.092  1.00  0.00    -0.394 OA
ATOM     24  H   UNL     1       2.579  24.978  30.335  1.00  0.00     0.210 HD
ENDBRANCH  22  23
ENDBRANCH  17  22
BRANCH  19  25
ATOM     25  O   UNL     1       5.154  26.739  33.194  1.00  0.00    -0.350 OA
BRANCH  25  26
ATOM     26  C   UNL     1       4.621  26.824  34.442  1.00  0.00     0.169 C 
BRANCH  26  27
ATOM     27  C   UNL     1       5.615  26.557  35.562  1.00  0.00     0.119 C 
BRANCH  27  28
ATOM     28  N   UNL     1       4.981  25.867  36.669  1.00  0.00    -0.092 NA
ATOM     29  N   UNL     1       4.788  24.649  36.544  1.00  0.00     0.001 N 
ATOM     30  N   UNL     1       4.879  23.408  36.676  1.00  0.00    -0.003 NA
ENDBRANCH  27  28
ENDBRANCH  26  27
ENDBRANCH  25  26
ENDBRANCH  19  25
BRANCH  20  31
ATOM     31  O   UNL     1       4.889  25.331  30.890  1.00  0.00    -0.387 OA
ATOM     32  H   UNL     1       4.825  25.640  31.833  1.00  0.00     0.211 HD
ENDBRANCH  20  31
BRANCH  21  33
ATOM     33  O   UNL     1       5.005  28.831  30.310  1.00  0.00    -0.385 OA
ATOM     34  H   UNL     1       5.038  28.670  29.320  1.00  0.00     0.211 HD
ENDBRANCH  21  33
ENDBRANCH  15  16
ENDBRANCH  10  15
BRANCH  12  35
ATOM     35  O   UNL     1       3.351  28.412  25.141  1.00  0.00    -0.385 OA
ATOM     36  H   UNL     1       2.392  28.347  25.321  1.00  0.00     0.211 HD
ENDBRANCH  12  35
BRANCH  13  37
ATOM     37  O   UNL     1       5.937  26.280  26.040  1.00  0.00    -0.387 OA
ATOM     38  H   UNL     1       6.252  25.346  25.916  1.00  0.00     0.211 HD
ENDBRANCH  13  37
BRANCH  14  39
ATOM     39  O   UNL     1       4.315  24.733  27.210  1.00  0.00    -0.387 OA
ATOM     40  H   UNL     1       3.869  23.896  27.455  1.00  0.00     0.211 HD
ENDBRANCH  14  39
ENDBRANCH   8   9
ENDBRANCH   7   8
ENDBRANCH   1   7
BRANCH   1  41
ATOM     41  C   UNL     1       1.405  21.802  26.298  1.00  0.00     0.364 C 
ATOM     42  O   UNL     1       0.666  21.272  25.464  1.00  0.00    -0.246 OA
BRANCH  41  43
ATOM     43  O   UNL     1       2.783  21.650  26.058  1.00  0.00    -0.477 OA
ATOM     44  H   UNL     1       3.340  21.266  26.812  1.00  0.00     0.296 HD
ENDBRANCH  41  43
ENDBRANCH   1  41
BRANCH   3  45
ATOM     45  O   UNL     1       0.060  22.912  29.855  1.00  0.00    -0.391 OA
ATOM     46  H   UNL     1      -0.344  23.198  30.699  1.00  0.00     0.211 HD
ENDBRANCH   3  45
BRANCH   5  47
ATOM     47  C   UNL     1       2.130  20.310  30.070  1.00  0.00     0.176 C 
BRANCH  47  48
ATOM     48  O   UNL     1       1.438  20.638  31.262  1.00  0.00    -0.388 OA
ATOM     49  H   UNL     1       0.643  20.093  31.385  1.00  0.00     0.211 HD
ENDBRANCH  47  48
BRANCH  47  50
ATOM     50  C   UNL     1       3.384  21.165  30.125  1.00  0.00     0.165 C 
BRANCH  50  51
ATOM     51  O   UNL     1       4.531  20.441  30.145  1.00  0.00    -0.388 OA
ATOM     52  H   UNL     1       5.313  20.849  29.706  1.00  0.00     0.211 HD
ENDBRANCH  50  51
BRANCH  50  53
ATOM     53  C   UNL     1       3.314  22.109  31.309  1.00  0.00     0.154 C 
BRANCH  53  54
ATOM     54  N   UNL     1       4.553  22.454  31.904  1.00  0.00    -0.319 N 
ATOM     55  C   UNL     1       5.146  21.758  32.962  1.00  0.00     0.407 C 
ATOM     56  H   UNL     1       5.094  23.308  31.531  1.00  0.00     0.167 HD
ATOM     57  O   UNL     1       4.626  20.751  33.470  1.00  0.00    -0.225 OA
BRANCH  55  58
ATOM     58  O   UNL     1       6.383  22.171  33.514  1.00  0.00    -0.443 OA
BRANCH  58  59
ATOM     59  C   UNL     1       6.696  23.536  33.668  1.00  0.00     0.294 C 
BRANCH  59  60
ATOM     60  C   UNL     1       8.047  23.776  34.216  1.00  0.00     0.120 A 
ATOM     61  C   UNL     1       8.460  23.624  35.524  1.00  0.00     0.139 A 
ATOM     62  N   UNL     1       9.133  24.185  33.542  1.00  0.00    -0.132 NA
ATOM     63  N   UNL     1       9.776  23.942  35.611  1.00  0.00    -0.244 N 
ATOM     64  N   UNL     1      10.160  24.280  34.391  1.00  0.00    -0.066 NA
BRANCH  63  65
ATOM     65  C   UNL     1      10.570  23.905  36.813  1.00  0.00     0.082 C 
ATOM     66  C   UNL     1      10.022  24.880  37.813  1.00  0.00     0.039 C 
ATOM     67  C   UNL     1      12.009  24.343  36.507  1.00  0.00     0.039 C 
BRANCH  65  68
ATOM     68  C   UNL     1      10.652  22.545  37.444  1.00  0.00     0.186 C 
BRANCH  68  69
ATOM     69  O   UNL     1      11.118  21.570  36.593  1.00  0.00    -0.394 OA
ATOM     70  H   UNL     1      11.374  21.876  35.709  1.00  0.00     0.210 HD
ENDBRANCH  68  69
ENDBRANCH  65  68
ENDBRANCH  63  65
ENDBRANCH  59  60
ENDBRANCH  58  59
ENDBRANCH  55  58
ENDBRANCH  53  54
ENDBRANCH  50  53
ENDBRANCH  47  50
ENDBRANCH   5  47
BRANCH   4  71
ATOM     71  N   UNL     1      -1.048  19.726  28.732  1.00  0.00    -0.348 N 
ATOM     72  C   UNL     1      -1.270  18.373  29.082  1.00  0.00     0.217 C 
ATOM     73  H   UNL     1      -1.601  20.052  27.884  1.00  0.00     0.163 HD
ATOM     74  C   UNL     1      -2.202  17.497  28.323  1.00  0.00     0.114 C 
ATOM     75  O   UNL     1      -0.670  17.892  30.057  1.00  0.00    -0.275 OA
ENDBRANCH   4  71
TORSDOF 32
