REMARK VINA RESULT:    -6.219      2.834      7.872
REMARK INTER + INTRA:         -21.122
REMARK INTER:                 -13.689
REMARK INTRA:                  -7.433
REMARK UNBOUND:                -5.087
REMARK SMILES CC(=O)N[C@@H]1[C@@H](O)C[C@](OC[C@H]2O[C@@H](O[C@H]3[C@H](O)[C@@H](O)[C@H](OCCN=[N+]=[N-])O[C@@H]3CO)[C@H](O)[C@@H](O)[C@H]2O)(C(=O)O)O[C@H]1C(O)[C@H](O)CNC(=O)OCc1cn(CS(=O)(=O)c2ccccc2)nn1
REMARK SMILES IDX 9 1 8 2 6 3 5 4 42 5 41 6 10 7 11 8 12 9 14 10 13 11 32 12
REMARK SMILES IDX 34 13 36 14 15 15 16 16 29 17 28 18 21 19 17 20 19 21 30 22
REMARK SMILES IDX 31 23 22 25 23 26 24 27 25 28 26 29 27 30 18 31 20 33 33 35
REMARK SMILES IDX 35 37 37 39 38 41 39 42 40 43 7 45 43 47 44 48 45 50 46 51
REMARK SMILES IDX 47 53 48 54 49 55 50 57 51 58 52 59 53 60 54 61 67 62 55 63
REMARK SMILES IDX 66 64 56 65 57 66 58 67 59 68 60 69 61 70 65 71 62 72 64 73
REMARK SMILES IDX 63 74 4 75 2 76 1 78 3 79
REMARK H PARENT 31 24 18 32 20 34 33 36 35 38 37 40 40 44 7 46 44 49 46 52
REMARK H PARENT 48 56 4 77
REMARK Flexibility Score: inf
ROOT
ATOM      1  C   UNL     1      22.644  26.359  19.688  1.00  0.00     0.272 C 
ATOM      2  C   UNL     1      23.859  27.182  19.834  1.00  0.00     0.113 C 
ATOM      3  C   UNL     1      23.614  28.672  19.965  1.00  0.00     0.145 C 
ATOM      4  C   UNL     1      22.704  29.055  18.850  1.00  0.00     0.142 C 
ATOM      5  C   UNL     1      21.490  28.175  18.740  1.00  0.00     0.178 C 
ATOM      6  O   UNL     1      21.677  26.843  18.821  1.00  0.00    -0.332 OA
ENDROOT
BRANCH   1   7
ATOM      7  O   UNL     1      22.116  25.933  20.888  1.00  0.00    -0.338 OA
BRANCH   7   8
ATOM      8  C   UNL     1      22.948  25.899  21.959  1.00  0.00     0.199 C 
BRANCH   8   9
ATOM      9  C   UNL     1      22.757  24.594  22.760  1.00  0.00     0.179 C 
ATOM     10  C   UNL     1      23.662  24.585  24.947  1.00  0.00     0.282 C 
ATOM     11  O   UNL     1      23.799  24.476  23.592  1.00  0.00    -0.341 OA
ATOM     12  C   UNL     1      22.563  25.504  25.323  1.00  0.00     0.202 C 
ATOM     13  C   UNL     1      21.276  25.155  24.639  1.00  0.00     0.179 C 
ATOM     14  C   UNL     1      21.420  24.438  23.359  1.00  0.00     0.177 C 
BRANCH  10  15
ATOM     15  O   UNL     1      24.916  25.025  25.402  1.00  0.00    -0.341 OA
BRANCH  15  16
ATOM     16  C   UNL     1      24.934  26.186  26.098  1.00  0.00     0.184 C 
ATOM     17  C   UNL     1      25.763  27.247  25.437  1.00  0.00     0.178 C 
ATOM     18  O   UNL     1      25.366  28.470  25.970  1.00  0.00    -0.341 OA
ATOM     19  C   UNL     1      25.269  28.508  27.333  1.00  0.00     0.281 C 
ATOM     20  C   UNL     1      25.622  26.006  27.474  1.00  0.00     0.180 C 
ATOM     21  C   UNL     1      25.828  27.347  28.060  1.00  0.00     0.202 C 
BRANCH  17  22
ATOM     22  C   UNL     1      25.673  27.319  23.954  1.00  0.00     0.191 C 
BRANCH  22  23
ATOM     23  O   UNL     1      24.706  28.250  23.595  1.00  0.00    -0.394 OA
ATOM     24  H   UNL     1      24.265  28.605  24.402  1.00  0.00     0.210 HD
ENDBRANCH  22  23
ENDBRANCH  17  22
BRANCH  19  25
ATOM     25  O   UNL     1      23.914  28.622  27.635  1.00  0.00    -0.350 OA
BRANCH  25  26
ATOM     26  C   UNL     1      23.437  29.929  27.381  1.00  0.00     0.169 C 
BRANCH  26  27
ATOM     27  C   UNL     1      22.113  29.839  26.654  1.00  0.00     0.119 C 
BRANCH  27  28
ATOM     28  N   UNL     1      22.329  30.300  25.285  1.00  0.00    -0.092 NA
ATOM     29  N   UNL     1      21.794  29.647  24.366  1.00  0.00     0.001 N 
ATOM     30  N   UNL     1      21.462  28.819  23.498  1.00  0.00    -0.003 NA
ENDBRANCH  27  28
ENDBRANCH  26  27
ENDBRANCH  25  26
ENDBRANCH  19  25
BRANCH  20  31
ATOM     31  O   UNL     1      24.837  25.224  28.304  1.00  0.00    -0.387 OA
ATOM     32  H   UNL     1      23.889  25.470  28.150  1.00  0.00     0.211 HD
ENDBRANCH  20  31
BRANCH  21  33
ATOM     33  O   UNL     1      27.226  27.561  28.162  1.00  0.00    -0.385 OA
ATOM     34  H   UNL     1      27.544  27.516  29.088  1.00  0.00     0.211 HD
ENDBRANCH  21  33
ENDBRANCH  15  16
ENDBRANCH  10  15
BRANCH  12  35
ATOM     35  O   UNL     1      22.256  25.392  26.717  1.00  0.00    -0.385 OA
ATOM     36  H   UNL     1      21.723  24.566  26.791  1.00  0.00     0.211 HD
ENDBRANCH  12  35
BRANCH  13  37
ATOM     37  O   UNL     1      20.463  26.306  24.489  1.00  0.00    -0.387 OA
ATOM     38  H   UNL     1      19.759  26.123  23.802  1.00  0.00     0.211 HD
ENDBRANCH  13  37
BRANCH  14  39
ATOM     39  O   UNL     1      20.387  24.833  22.488  1.00  0.00    -0.387 OA
ATOM     40  H   UNL     1      20.805  25.082  21.623  1.00  0.00     0.211 HD
ENDBRANCH  14  39
ENDBRANCH   8   9
ENDBRANCH   7   8
ENDBRANCH   1   7
BRANCH   1  41
ATOM     41  C   UNL     1      23.101  25.105  18.959  1.00  0.00     0.364 C 
ATOM     42  O   UNL     1      22.330  24.132  18.937  1.00  0.00    -0.246 OA
BRANCH  41  43
ATOM     43  O   UNL     1      24.340  25.067  18.341  1.00  0.00    -0.477 OA
ATOM     44  H   UNL     1      24.529  25.665  17.522  1.00  0.00     0.296 HD
ENDBRANCH  41  43
ENDBRANCH   1  41
BRANCH   3  45
ATOM     45  O   UNL     1      23.141  28.938  21.220  1.00  0.00    -0.391 OA
ATOM     46  H   UNL     1      22.159  29.092  21.148  1.00  0.00     0.211 HD
ENDBRANCH   3  45
BRANCH   5  47
ATOM     47  C   UNL     1      20.325  28.683  19.557  1.00  0.00     0.176 C 
BRANCH  47  48
ATOM     48  O   UNL     1      20.128  27.982  20.744  1.00  0.00    -0.388 OA
ATOM     49  H   UNL     1      20.914  27.904  21.305  1.00  0.00     0.211 HD
ENDBRANCH  47  48
BRANCH  47  50
ATOM     50  C   UNL     1      20.422  30.170  19.861  1.00  0.00     0.165 C 
BRANCH  50  51
ATOM     51  O   UNL     1      20.306  30.452  21.203  1.00  0.00    -0.388 OA
ATOM     52  H   UNL     1      21.068  30.212  21.751  1.00  0.00     0.211 HD
ENDBRANCH  50  51
BRANCH  50  53
ATOM     53  C   UNL     1      19.543  31.026  19.031  1.00  0.00     0.154 C 
BRANCH  53  54
ATOM     54  N   UNL     1      18.719  30.377  18.057  1.00  0.00    -0.319 N 
ATOM     55  C   UNL     1      17.565  30.913  17.443  1.00  0.00     0.407 C 
ATOM     56  H   UNL     1      18.998  29.391  17.763  1.00  0.00     0.167 HD
ATOM     57  O   UNL     1      17.165  32.061  17.712  1.00  0.00    -0.225 OA
BRANCH  55  58
ATOM     58  O   UNL     1      16.878  30.133  16.526  1.00  0.00    -0.443 OA
BRANCH  58  59
ATOM     59  C   UNL     1      15.785  29.320  16.836  1.00  0.00     0.294 C 
BRANCH  59  60
ATOM     60  C   UNL     1      15.936  28.786  18.203  1.00  0.00     0.120 A 
ATOM     61  C   UNL     1      15.292  29.307  19.312  1.00  0.00     0.139 A 
ATOM     62  N   UNL     1      16.661  27.756  18.666  1.00  0.00    -0.132 NA
ATOM     63  N   UNL     1      15.637  28.592  20.399  1.00  0.00    -0.237 N 
ATOM     64  N   UNL     1      16.474  27.655  19.965  1.00  0.00    -0.066 NA
BRANCH  63  65
ATOM     65  C   UNL     1      15.186  28.797  21.747  1.00  0.00     0.287 C 
BRANCH  65  66
ATOM     66  S   UNL     1      16.427  29.807  22.556  1.00  0.00     0.198 S 
ATOM     67  O   UNL     1      17.772  29.530  22.002  1.00  0.00    -0.222 OA
ATOM     68  O   UNL     1      16.354  29.483  24.039  1.00  0.00    -0.222 OA
BRANCH  66  69
ATOM     69  C   UNL     1      15.981  31.475  22.307  1.00  0.00     0.069 A 
ATOM     70  C   UNL     1      14.985  32.083  23.040  1.00  0.00     0.020 A 
ATOM     71  C   UNL     1      16.617  32.245  21.358  1.00  0.00     0.020 A 
ATOM     72  C   UNL     1      14.633  33.393  22.845  1.00  0.00     0.001 A 
ATOM     73  C   UNL     1      16.277  33.557  21.151  1.00  0.00     0.001 A 
ATOM     74  C   UNL     1      15.279  34.130  21.899  1.00  0.00     0.000 A 
ENDBRANCH  66  69
ENDBRANCH  65  66
ENDBRANCH  63  65
ENDBRANCH  59  60
ENDBRANCH  58  59
ENDBRANCH  55  58
ENDBRANCH  53  54
ENDBRANCH  50  53
ENDBRANCH  47  50
ENDBRANCH   5  47
BRANCH   4  75
ATOM     75  N   UNL     1      23.434  28.933  17.594  1.00  0.00    -0.348 N 
ATOM     76  C   UNL     1      23.178  29.797  16.493  1.00  0.00     0.217 C 
ATOM     77  H   UNL     1      24.187  28.193  17.445  1.00  0.00     0.163 HD
ATOM     78  C   UNL     1      23.961  29.627  15.217  1.00  0.00     0.114 C 
ATOM     79  O   UNL     1      22.302  30.705  16.573  1.00  0.00    -0.275 OA
ENDBRANCH   4  75
TORSDOF 32
