REMARK VINA RESULT:    -4.886      5.901      8.892
REMARK INTER + INTRA:         -21.664
REMARK INTER:                 -12.624
REMARK INTRA:                  -9.040
REMARK UNBOUND:                -8.780
REMARK SMILES COc1ccc(Cn2cc(COC(=O)NC[C@@H](O)C(O)[C@@H]3O[C@@](OC[C@H]4O[C@@H](O[C@H]5[C@H](O)[C@@H](O)[C@H](OCCN=[N+]=[N-])O[C@@H]5CO)[C@H](O)[C@@H](O)[C@H]4O)(C(=O)O)C[C@H](O)[C@H]3NC(C)=O)nn2)cc1OC
REMARK SMILES IDX 23 1 55 2 56 3 58 4 21 5 22 6 24 7 25 8 26 9 28 10 27 11
REMARK SMILES IDX 46 12 48 13 50 14 29 15 30 16 43 17 42 18 35 19 31 20 33 21
REMARK SMILES IDX 44 22 45 23 36 25 37 26 38 27 39 28 40 29 41 30 32 31 34 33
REMARK SMILES IDX 47 35 49 37 51 39 52 41 53 42 54 43 57 45 19 47 20 48 17 50
REMARK SMILES IDX 18 51 16 53 15 54 13 55 14 57 12 58 11 59 10 60 9 61 63 62
REMARK SMILES IDX 8 63 64 64 7 65 6 66 65 67 5 68 66 69 4 70 3 71 67 72 68 73
REMARK SMILES IDX 2 74 1 75 59 76 60 77 61 79 62 80
REMARK H PARENT 45 24 32 32 34 34 47 36 49 38 51 40 54 44 57 46 20 49 18 52
REMARK H PARENT 15 56 59 78
REMARK Flexibility Score: inf
ROOT
ATOM      1  C   UNL     1      17.373  29.536  20.352  1.00  0.00     0.272 C 
ATOM      2  C   UNL     1      17.286  30.342  21.636  1.00  0.00     0.113 C 
ATOM      3  C   UNL     1      18.444  31.186  22.027  1.00  0.00     0.145 C 
ATOM      4  C   UNL     1      19.705  30.678  21.334  1.00  0.00     0.142 C 
ATOM      5  C   UNL     1      19.513  29.220  21.192  1.00  0.00     0.178 C 
ATOM      6  O   UNL     1      18.647  28.972  20.144  1.00  0.00    -0.332 OA
ENDROOT
BRANCH   1   7
ATOM      7  O   UNL     1      17.149  30.467  19.346  1.00  0.00    -0.338 OA
BRANCH   7   8
ATOM      8  C   UNL     1      15.856  30.782  19.058  1.00  0.00     0.199 C 
BRANCH   8   9
ATOM      9  C   UNL     1      15.554  30.553  17.602  1.00  0.00     0.179 C 
ATOM     10  C   UNL     1      16.195  29.542  15.670  1.00  0.00     0.282 C 
ATOM     11  O   UNL     1      16.237  29.425  17.114  1.00  0.00    -0.341 OA
ATOM     12  C   UNL     1      14.848  29.251  15.195  1.00  0.00     0.202 C 
ATOM     13  C   UNL     1      13.773  29.945  16.016  1.00  0.00     0.179 C 
ATOM     14  C   UNL     1      14.081  30.147  17.448  1.00  0.00     0.177 C 
BRANCH  10  15
ATOM     15  O   UNL     1      17.186  28.710  15.192  1.00  0.00    -0.341 OA
BRANCH  15  16
ATOM     16  C   UNL     1      18.399  29.395  15.117  1.00  0.00     0.184 C 
ATOM     17  C   UNL     1      19.019  29.353  13.777  1.00  0.00     0.178 C 
ATOM     18  O   UNL     1      20.053  30.285  13.752  1.00  0.00    -0.341 OA
ATOM     19  C   UNL     1      20.743  30.354  14.909  1.00  0.00     0.281 C 
ATOM     20  C   UNL     1      19.338  28.750  16.143  1.00  0.00     0.180 C 
ATOM     21  C   UNL     1      20.778  29.089  15.735  1.00  0.00     0.202 C 
BRANCH  17  22
ATOM     22  C   UNL     1      18.033  29.589  12.656  1.00  0.00     0.191 C 
BRANCH  22  23
ATOM     23  O   UNL     1      17.518  28.339  12.315  1.00  0.00    -0.394 OA
ATOM     24  H   UNL     1      17.108  28.397  11.401  1.00  0.00     0.210 HD
ENDBRANCH  22  23
ENDBRANCH  17  22
BRANCH  19  25
ATOM     25  O   UNL     1      20.107  31.340  15.747  1.00  0.00    -0.350 OA
BRANCH  25  26
ATOM     26  C   UNL     1      21.142  32.045  16.395  1.00  0.00     0.169 C 
BRANCH  26  27
ATOM     27  C   UNL     1      21.569  33.289  15.637  1.00  0.00     0.119 C 
BRANCH  27  28
ATOM     28  N   UNL     1      20.397  33.970  15.162  1.00  0.00    -0.092 NA
ATOM     29  N   UNL     1      20.208  35.174  15.359  1.00  0.00     0.001 N 
ATOM     30  N   UNL     1      20.218  36.316  15.860  1.00  0.00    -0.003 NA
ENDBRANCH  27  28
ENDBRANCH  26  27
ENDBRANCH  25  26
ENDBRANCH  19  25
BRANCH  20  31
ATOM     31  O   UNL     1      19.103  29.368  17.361  1.00  0.00    -0.387 OA
ATOM     32  H   UNL     1      18.486  30.144  17.200  1.00  0.00     0.211 HD
ENDBRANCH  20  31
BRANCH  21  33
ATOM     33  O   UNL     1      21.264  28.051  14.976  1.00  0.00    -0.385 OA
ATOM     34  H   UNL     1      20.953  27.163  15.303  1.00  0.00     0.211 HD
ENDBRANCH  21  33
ENDBRANCH  15  16
ENDBRANCH  10  15
BRANCH  12  35
ATOM     35  O   UNL     1      14.660  29.671  13.889  1.00  0.00    -0.385 OA
ATOM     36  H   UNL     1      14.277  28.948  13.313  1.00  0.00     0.211 HD
ENDBRANCH  12  35
BRANCH  13  37
ATOM     37  O   UNL     1      12.572  29.205  15.851  1.00  0.00    -0.387 OA
ATOM     38  H   UNL     1      11.856  29.729  16.294  1.00  0.00     0.211 HD
ENDBRANCH  13  37
BRANCH  14  39
ATOM     39  O   UNL     1      13.950  28.947  18.181  1.00  0.00    -0.387 OA
ATOM     40  H   UNL     1      13.477  29.117  19.066  1.00  0.00     0.211 HD
ENDBRANCH  14  39
ENDBRANCH   8   9
ENDBRANCH   7   8
ENDBRANCH   1   7
BRANCH   1  41
ATOM     41  C   UNL     1      16.382  28.433  20.432  1.00  0.00     0.364 C 
ATOM     42  O   UNL     1      15.581  28.348  21.365  1.00  0.00    -0.246 OA
BRANCH  41  43
ATOM     43  O   UNL     1      16.281  27.401  19.460  1.00  0.00    -0.477 OA
ATOM     44  H   UNL     1      16.494  27.694  18.478  1.00  0.00     0.296 HD
ENDBRANCH  41  43
ENDBRANCH   1  41
BRANCH   3  45
ATOM     45  O   UNL     1      18.258  32.502  21.677  1.00  0.00    -0.391 OA
ATOM     46  H   UNL     1      18.359  33.091  22.480  1.00  0.00     0.211 HD
ENDBRANCH   3  45
BRANCH   5  47
ATOM     47  C   UNL     1      20.743  28.437  21.244  1.00  0.00     0.176 C 
BRANCH  47  48
ATOM     48  O   UNL     1      20.597  27.058  21.327  1.00  0.00    -0.388 OA
ATOM     49  H   UNL     1      20.935  26.556  20.577  1.00  0.00     0.211 HD
ENDBRANCH  47  48
BRANCH  47  50
ATOM     50  C   UNL     1      21.411  28.489  19.766  1.00  0.00     0.165 C 
BRANCH  50  51
ATOM     51  O   UNL     1      20.819  27.537  19.031  1.00  0.00    -0.388 OA
ATOM     52  H   UNL     1      19.828  27.488  19.168  1.00  0.00     0.211 HD
ENDBRANCH  50  51
BRANCH  50  53
ATOM     53  C   UNL     1      22.843  28.641  19.871  1.00  0.00     0.154 C 
BRANCH  53  54
ATOM     54  N   UNL     1      23.709  27.747  20.562  1.00  0.00    -0.319 N 
ATOM     55  C   UNL     1      24.124  26.595  19.848  1.00  0.00     0.407 C 
ATOM     56  H   UNL     1      24.048  27.840  21.517  1.00  0.00     0.167 HD
ATOM     57  O   UNL     1      23.719  26.391  18.656  1.00  0.00    -0.225 OA
BRANCH  55  58
ATOM     58  O   UNL     1      24.974  25.608  20.336  1.00  0.00    -0.443 OA
BRANCH  58  59
ATOM     59  C   UNL     1      24.442  24.239  20.333  1.00  0.00     0.294 C 
BRANCH  59  60
ATOM     60  C   UNL     1      23.388  24.300  21.387  1.00  0.00     0.120 A 
ATOM     61  C   UNL     1      23.642  24.402  22.776  1.00  0.00     0.138 A 
ATOM     62  N   UNL     1      22.072  24.348  21.223  1.00  0.00    -0.132 NA
ATOM     63  N   UNL     1      22.423  24.512  23.357  1.00  0.00    -0.248 N 
ATOM     64  N   UNL     1      21.514  24.478  22.446  1.00  0.00    -0.067 NA
BRANCH  63  65
ATOM     65  C   UNL     1      22.213  24.709  24.816  1.00  0.00     0.181 C 
BRANCH  65  66
ATOM     66  C   UNL     1      22.147  26.231  24.944  1.00  0.00    -0.023 A 
ATOM     67  C   UNL     1      23.273  27.023  24.880  1.00  0.00     0.056 A 
ATOM     68  C   UNL     1      20.913  26.795  25.001  1.00  0.00     0.010 A 
ATOM     69  C   UNL     1      23.032  28.426  24.872  1.00  0.00     0.161 A 
ATOM     70  C   UNL     1      20.693  28.207  24.992  1.00  0.00     0.051 A 
ATOM     71  C   UNL     1      21.819  28.984  24.921  1.00  0.00     0.160 A 
BRANCH  69  72
ATOM     72  O   UNL     1      24.132  29.284  24.815  1.00  0.00    -0.493 OA
ATOM     73  C   UNL     1      24.866  29.492  23.602  1.00  0.00     0.278 C 
ENDBRANCH  69  72
BRANCH  71  74
ATOM     74  O   UNL     1      21.702  30.401  24.877  1.00  0.00    -0.493 OA
ATOM     75  C   UNL     1      20.720  31.027  25.730  1.00  0.00     0.278 C 
ENDBRANCH  71  74
ENDBRANCH  65  66
ENDBRANCH  63  65
ENDBRANCH  59  60
ENDBRANCH  58  59
ENDBRANCH  55  58
ENDBRANCH  53  54
ENDBRANCH  50  53
ENDBRANCH  47  50
ENDBRANCH   5  47
BRANCH   4  76
ATOM     76  N   UNL     1      20.845  31.071  22.118  1.00  0.00    -0.348 N 
ATOM     77  C   UNL     1      21.584  32.199  21.742  1.00  0.00     0.217 C 
ATOM     78  H   UNL     1      21.157  30.564  22.992  1.00  0.00     0.163 HD
ATOM     79  C   UNL     1      22.803  32.723  22.430  1.00  0.00     0.114 C 
ATOM     80  O   UNL     1      21.269  32.926  20.714  1.00  0.00    -0.275 OA
ENDBRANCH   4  76
TORSDOF 33
