REMARK VINA RESULT:    -6.892      2.836      8.213
REMARK INTER + INTRA:         -22.858
REMARK INTER:                 -14.958
REMARK INTRA:                  -7.900
REMARK UNBOUND:                -5.087
REMARK SMILES CC(=O)N[C@@H]1[C@@H](O)C[C@](OC[C@H]2O[C@@H](O[C@H]3[C@H](O)[C@@H](O)[C@H](OCCN=[N+]=[N-])O[C@@H]3CO)[C@H](O)[C@@H](O)[C@H]2O)(C(=O)O)O[C@H]1C(O)[C@H](O)CNC(=O)OCc1cn(CS(=O)(=O)c2ccccc2)nn1
REMARK SMILES IDX 9 1 8 2 6 3 5 4 42 5 41 6 10 7 11 8 12 9 14 10 13 11 32 12
REMARK SMILES IDX 34 13 36 14 15 15 16 16 29 17 28 18 21 19 17 20 19 21 30 22
REMARK SMILES IDX 31 23 22 25 23 26 24 27 25 28 26 29 27 30 18 31 20 33 33 35
REMARK SMILES IDX 35 37 37 39 38 41 39 42 40 43 7 45 43 47 44 48 45 50 46 51
REMARK SMILES IDX 47 53 48 54 49 55 50 57 51 58 52 59 53 60 54 61 67 62 55 63
REMARK SMILES IDX 66 64 56 65 57 66 58 67 59 68 60 69 61 70 65 71 62 72 64 73
REMARK SMILES IDX 63 74 4 75 2 76 1 78 3 79
REMARK H PARENT 31 24 18 32 20 34 33 36 35 38 37 40 40 44 7 46 44 49 46 52
REMARK H PARENT 48 56 4 77
REMARK Flexibility Score: inf
ROOT
ATOM      1  C   UNL     1      15.984  29.561  19.220  1.00  0.00     0.272 C 
ATOM      2  C   UNL     1      14.547  29.320  18.992  1.00  0.00     0.113 C 
ATOM      3  C   UNL     1      13.664  30.547  19.108  1.00  0.00     0.145 C 
ATOM      4  C   UNL     1      14.012  31.203  20.398  1.00  0.00     0.142 C 
ATOM      5  C   UNL     1      15.489  31.411  20.584  1.00  0.00     0.178 C 
ATOM      6  O   UNL     1      16.305  30.379  20.291  1.00  0.00    -0.332 OA
ENDROOT
BRANCH   1   7
ATOM      7  O   UNL     1      16.680  29.886  18.075  1.00  0.00    -0.338 OA
BRANCH   7   8
ATOM      8  C   UNL     1      16.572  29.042  17.019  1.00  0.00     0.199 C 
BRANCH   8   9
ATOM      9  C   UNL     1      17.899  28.974  16.234  1.00  0.00     0.179 C 
ATOM     10  C   UNL     1      18.733  31.042  15.439  1.00  0.00     0.282 C 
ATOM     11  O   UNL     1      17.889  29.972  15.340  1.00  0.00    -0.341 OA
ATOM     12  C   UNL     1      19.064  31.362  16.847  1.00  0.00     0.202 C 
ATOM     13  C   UNL     1      19.562  30.163  17.596  1.00  0.00     0.179 C 
ATOM     14  C   UNL     1      19.101  28.863  17.078  1.00  0.00     0.177 C 
BRANCH  10  15
ATOM     15  O   UNL     1      18.063  32.091  14.788  1.00  0.00    -0.341 OA
BRANCH  15  16
ATOM     16  C   UNL     1      16.757  31.886  14.496  1.00  0.00     0.184 C 
ATOM     17  C   UNL     1      16.430  32.177  13.061  1.00  0.00     0.178 C 
ATOM     18  O   UNL     1      15.228  31.535  12.775  1.00  0.00    -0.341 OA
ATOM     19  C   UNL     1      14.235  31.721  13.695  1.00  0.00     0.281 C 
ATOM     20  C   UNL     1      15.847  32.870  15.272  1.00  0.00     0.180 C 
ATOM     21  C   UNL     1      14.480  32.759  14.720  1.00  0.00     0.202 C 
BRANCH  17  22
ATOM     22  C   UNL     1      17.447  31.759  12.060  1.00  0.00     0.191 C 
BRANCH  22  23
ATOM     23  O   UNL     1      17.751  30.416  12.246  1.00  0.00    -0.394 OA
ATOM     24  H   UNL     1      17.881  30.230  13.205  1.00  0.00     0.210 HD
ENDBRANCH  22  23
ENDBRANCH  17  22
BRANCH  19  25
ATOM     25  O   UNL     1      14.042  30.496  14.328  1.00  0.00    -0.350 OA
BRANCH  25  26
ATOM     26  C   UNL     1      12.706  30.348  14.770  1.00  0.00     0.169 C 
BRANCH  26  27
ATOM     27  C   UNL     1      12.475  28.907  15.168  1.00  0.00     0.119 C 
BRANCH  27  28
ATOM     28  N   UNL     1      12.939  28.065  14.069  1.00  0.00    -0.092 NA
ATOM     29  N   UNL     1      12.188  27.942  13.079  1.00  0.00     0.001 N 
ATOM     30  N   UNL     1      11.299  27.654  12.257  1.00  0.00    -0.003 NA
ENDBRANCH  27  28
ENDBRANCH  26  27
ENDBRANCH  25  26
ENDBRANCH  19  25
BRANCH  20  31
ATOM     31  O   UNL     1      15.856  32.566  16.623  1.00  0.00    -0.387 OA
ATOM     32  H   UNL     1      14.923  32.618  16.954  1.00  0.00     0.211 HD
ENDBRANCH  20  31
BRANCH  21  33
ATOM     33  O   UNL     1      14.154  34.006  14.129  1.00  0.00    -0.385 OA
ATOM     34  H   UNL     1      14.450  34.066  13.197  1.00  0.00     0.211 HD
ENDBRANCH  21  33
ENDBRANCH  15  16
ENDBRANCH  10  15
BRANCH  12  35
ATOM     35  O   UNL     1      20.150  32.292  16.919  1.00  0.00    -0.385 OA
ATOM     36  H   UNL     1      20.698  32.100  16.122  1.00  0.00     0.211 HD
ENDBRANCH  12  35
BRANCH  13  37
ATOM     37  O   UNL     1      19.281  30.288  18.980  1.00  0.00    -0.387 OA
ATOM     38  H   UNL     1      19.946  30.910  19.395  1.00  0.00     0.211 HD
ENDBRANCH  13  37
BRANCH  14  39
ATOM     39  O   UNL     1      18.926  27.971  18.153  1.00  0.00    -0.387 OA
ATOM     40  H   UNL     1      18.447  28.459  18.871  1.00  0.00     0.211 HD
ENDBRANCH  14  39
ENDBRANCH   8   9
ENDBRANCH   7   8
ENDBRANCH   1   7
BRANCH   1  41
ATOM     41  C   UNL     1      16.538  28.224  19.686  1.00  0.00     0.364 C 
ATOM     42  O   UNL     1      15.985  27.190  19.277  1.00  0.00    -0.246 OA
BRANCH  41  43
ATOM     43  O   UNL     1      17.629  28.176  20.539  1.00  0.00    -0.477 OA
ATOM     44  H   UNL     1      18.333  27.430  20.437  1.00  0.00     0.296 HD
ENDBRANCH  41  43
ENDBRANCH   1  41
BRANCH   3  45
ATOM     45  O   UNL     1      13.831  31.324  17.995  1.00  0.00    -0.391 OA
ATOM     46  H   UNL     1      12.941  31.423  17.557  1.00  0.00     0.211 HD
ENDBRANCH   3  45
BRANCH   5  47
ATOM     47  C   UNL     1      15.964  32.741  20.045  1.00  0.00     0.176 C 
BRANCH  47  48
ATOM     48  O   UNL     1      15.035  33.767  20.191  1.00  0.00    -0.388 OA
ATOM     49  H   UNL     1      14.184  33.494  20.565  1.00  0.00     0.211 HD
ENDBRANCH  47  48
BRANCH  47  50
ATOM     50  C   UNL     1      17.294  33.177  20.642  1.00  0.00     0.165 C 
BRANCH  50  51
ATOM     51  O   UNL     1      18.378  32.717  19.930  1.00  0.00    -0.388 OA
ATOM     52  H   UNL     1      18.194  32.008  19.294  1.00  0.00     0.211 HD
ENDBRANCH  50  51
BRANCH  50  53
ATOM     53  C   UNL     1      17.428  32.922  22.095  1.00  0.00     0.154 C 
BRANCH  53  54
ATOM     54  N   UNL     1      18.238  31.812  22.498  1.00  0.00    -0.319 N 
ATOM     55  C   UNL     1      17.862  30.778  23.384  1.00  0.00     0.407 C 
ATOM     56  H   UNL     1      19.223  31.757  22.094  1.00  0.00     0.167 HD
ATOM     57  O   UNL     1      16.728  30.749  23.898  1.00  0.00    -0.225 OA
BRANCH  55  58
ATOM     58  O   UNL     1      18.784  29.785  23.675  1.00  0.00    -0.443 OA
BRANCH  58  59
ATOM     59  C   UNL     1      20.159  29.888  23.451  1.00  0.00     0.294 C 
BRANCH  59  60
ATOM     60  C   UNL     1      20.560  28.951  22.385  1.00  0.00     0.120 A 
ATOM     61  C   UNL     1      21.601  28.045  22.503  1.00  0.00     0.139 A 
ATOM     62  N   UNL     1      20.060  28.757  21.155  1.00  0.00    -0.132 NA
ATOM     63  N   UNL     1      21.701  27.338  21.363  1.00  0.00    -0.237 N 
ATOM     64  N   UNL     1      20.745  27.801  20.564  1.00  0.00    -0.066 NA
BRANCH  63  65
ATOM     65  C   UNL     1      22.644  26.294  21.074  1.00  0.00     0.287 C 
BRANCH  65  66
ATOM     66  S   UNL     1      22.025  24.809  21.863  1.00  0.00     0.198 S 
ATOM     67  O   UNL     1      22.345  23.610  21.055  1.00  0.00    -0.222 OA
ATOM     68  O   UNL     1      20.525  24.993  22.022  1.00  0.00    -0.222 OA
BRANCH  66  69
ATOM     69  C   UNL     1      22.764  24.713  23.440  1.00  0.00     0.069 A 
ATOM     70  C   UNL     1      24.132  24.679  23.607  1.00  0.00     0.020 A 
ATOM     71  C   UNL     1      21.995  24.669  24.583  1.00  0.00     0.020 A 
ATOM     72  C   UNL     1      24.714  24.603  24.845  1.00  0.00     0.001 A 
ATOM     73  C   UNL     1      22.562  24.592  25.828  1.00  0.00     0.001 A 
ATOM     74  C   UNL     1      23.928  24.559  25.957  1.00  0.00     0.000 A 
ENDBRANCH  66  69
ENDBRANCH  65  66
ENDBRANCH  63  65
ENDBRANCH  59  60
ENDBRANCH  58  59
ENDBRANCH  55  58
ENDBRANCH  53  54
ENDBRANCH  50  53
ENDBRANCH  47  50
ENDBRANCH   5  47
BRANCH   4  75
ATOM     75  N   UNL     1      13.562  30.348  21.489  1.00  0.00    -0.348 N 
ATOM     76  C   UNL     1      12.411  30.666  22.263  1.00  0.00     0.217 C 
ATOM     77  H   UNL     1      14.073  29.452  21.755  1.00  0.00     0.163 HD
ATOM     78  C   UNL     1      11.990  29.748  23.380  1.00  0.00     0.114 C 
ATOM     79  O   UNL     1      11.739  31.710  22.025  1.00  0.00    -0.275 OA
ENDBRANCH   4  75
TORSDOF 32
