REMARK VINA RESULT:    -6.321      4.447     11.649
REMARK INTER + INTRA:         -23.886
REMARK INTER:                 -15.099
REMARK INTRA:                  -8.787
REMARK UNBOUND:                -7.402
REMARK SMILES CC(=O)N[C@@H]1[C@@H](O)C[C@](OC[C@H]2O[C@@H](O[C@H]3[C@H](O)[C@@H](O)[C@H](OCCN=[N+]=[N-])O[C@@H]3CO)[C@H](O)[C@@H](O)[C@H]2O)(C(=O)O)O[C@H]1C(O)[C@H](O)CNC(=O)OCc1cn(-c2ccc(S(=O)(=O)c3ccc(N)cc3)cc2)nn1
REMARK SMILES IDX 43 1 42 2 9 3 8 4 41 5 6 6 5 7 10 8 11 9 12 10 14 11 13 12
REMARK SMILES IDX 32 13 34 14 36 15 15 16 16 17 29 18 28 19 21 20 17 21 19 22
REMARK SMILES IDX 30 23 31 24 22 26 23 27 24 28 25 29 26 30 27 31 18 32 20 34
REMARK SMILES IDX 33 36 35 38 37 40 38 42 39 43 40 44 7 46 4 48 2 49 1 51 3 52
REMARK SMILES IDX 44 53 45 55 46 56 47 58 48 59 49 60 50 62 51 63 52 64 53 65
REMARK SMILES IDX 54 66 73 67 55 68 72 69 56 70 57 71 71 72 58 73 70 74 59 75
REMARK SMILES IDX 60 76 61 77 62 78 63 79 64 80 69 81 65 82 68 83 66 84 67 85
REMARK H PARENT 31 25 18 33 20 35 33 37 35 39 37 41 40 45 7 47 4 50 44 54
REMARK H PARENT 46 57 48 61 67 86 67 87
REMARK Flexibility Score: inf
ROOT
ATOM      1  C   UNL     1      22.693  27.720  16.134  1.00  0.00     0.176 C 
ENDROOT
BRANCH   1   2
ATOM      2  C   UNL     1      23.083  26.464  16.913  1.00  0.00     0.178 C 
ATOM      3  C   UNL     1      23.924  25.703  18.929  1.00  0.00     0.272 C 
ATOM      4  C   UNL     1      24.833  24.759  18.212  1.00  0.00     0.113 C 
ATOM      5  O   UNL     1      23.616  26.810  18.118  1.00  0.00    -0.332 OA
ATOM      6  C   UNL     1      25.274  25.407  16.910  1.00  0.00     0.145 C 
ATOM      7  C   UNL     1      24.067  25.640  16.065  1.00  0.00     0.142 C 
BRANCH   3   8
ATOM      8  O   UNL     1      24.458  26.271  20.088  1.00  0.00    -0.338 OA
BRANCH   8   9
ATOM      9  C   UNL     1      24.904  25.402  21.039  1.00  0.00     0.199 C 
BRANCH   9  10
ATOM     10  C   UNL     1      24.413  25.849  22.398  1.00  0.00     0.179 C 
ATOM     11  C   UNL     1      23.321  27.520  23.506  1.00  0.00     0.282 C 
ATOM     12  O   UNL     1      23.652  27.011  22.223  1.00  0.00    -0.341 OA
ATOM     13  C   UNL     1      22.287  26.577  24.052  1.00  0.00     0.202 C 
ATOM     14  C   UNL     1      22.936  25.237  24.311  1.00  0.00     0.179 C 
ATOM     15  C   UNL     1      23.625  24.762  23.043  1.00  0.00     0.177 C 
BRANCH  11  16
ATOM     16  O   UNL     1      22.912  28.818  23.346  1.00  0.00    -0.341 OA
BRANCH  16  17
ATOM     17  C   UNL     1      22.594  29.082  21.993  1.00  0.00     0.184 C 
ATOM     18  C   UNL     1      23.142  30.430  21.648  1.00  0.00     0.178 C 
ATOM     19  O   UNL     1      22.245  31.309  21.104  1.00  0.00    -0.341 OA
ATOM     20  C   UNL     1      21.058  31.485  21.752  1.00  0.00     0.281 C 
ATOM     21  C   UNL     1      21.072  29.065  21.951  1.00  0.00     0.180 C 
ATOM     22  C   UNL     1      20.640  30.340  22.647  1.00  0.00     0.202 C 
BRANCH  18  23
ATOM     23  C   UNL     1      24.198  30.183  20.554  1.00  0.00     0.191 C 
BRANCH  23  24
ATOM     24  O   UNL     1      24.060  28.959  19.949  1.00  0.00    -0.394 OA
ATOM     25  H   UNL     1      23.420  28.347  20.391  1.00  0.00     0.210 HD
ENDBRANCH  23  24
ENDBRANCH  18  23
BRANCH  20  26
ATOM     26  O   UNL     1      20.066  31.618  20.788  1.00  0.00    -0.350 OA
BRANCH  26  27
ATOM     27  C   UNL     1      18.858  32.068  21.246  1.00  0.00     0.169 C 
BRANCH  27  28
ATOM     28  C   UNL     1      17.728  31.403  20.534  1.00  0.00     0.119 C 
BRANCH  28  29
ATOM     29  N   UNL     1      16.641  32.374  20.323  1.00  0.00    -0.092 NA
ATOM     30  N   UNL     1      15.732  32.496  21.142  1.00  0.00     0.001 N 
ATOM     31  N   UNL     1      15.090  32.939  22.111  1.00  0.00    -0.003 NA
ENDBRANCH  28  29
ENDBRANCH  27  28
ENDBRANCH  26  27
ENDBRANCH  20  26
BRANCH  21  32
ATOM     32  O   UNL     1      20.629  29.091  20.650  1.00  0.00    -0.387 OA
ATOM     33  H   UNL     1      20.435  30.024  20.364  1.00  0.00     0.211 HD
ENDBRANCH  21  32
BRANCH  22  34
ATOM     34  O   UNL     1      21.127  30.438  23.930  1.00  0.00    -0.385 OA
ATOM     35  H   UNL     1      20.995  29.607  24.459  1.00  0.00     0.211 HD
ENDBRANCH  22  34
ENDBRANCH  16  17
ENDBRANCH  11  16
BRANCH  13  36
ATOM     36  O   UNL     1      21.659  27.073  25.193  1.00  0.00    -0.385 OA
ATOM     37  H   UNL     1      21.208  26.283  25.632  1.00  0.00     0.211 HD
ENDBRANCH  13  36
BRANCH  14  38
ATOM     38  O   UNL     1      21.925  24.299  24.563  1.00  0.00    -0.387 OA
ATOM     39  H   UNL     1      21.364  24.186  23.774  1.00  0.00     0.211 HD
ENDBRANCH  14  38
BRANCH  15  40
ATOM     40  O   UNL     1      22.712  24.190  22.168  1.00  0.00    -0.387 OA
ATOM     41  H   UNL     1      22.127  24.883  21.784  1.00  0.00     0.211 HD
ENDBRANCH  15  40
ENDBRANCH   9  10
ENDBRANCH   8   9
ENDBRANCH   3   8
BRANCH   3  42
ATOM     42  C   UNL     1      22.629  25.090  19.330  1.00  0.00     0.364 C 
ATOM     43  O   UNL     1      22.283  23.907  19.099  1.00  0.00    -0.246 OA
BRANCH  42  44
ATOM     44  O   UNL     1      21.707  25.863  20.014  1.00  0.00    -0.477 OA
ATOM     45  H   UNL     1      21.674  25.880  21.046  1.00  0.00     0.296 HD
ENDBRANCH  42  44
ENDBRANCH   3  42
BRANCH   6  46
ATOM     46  O   UNL     1      25.793  26.657  17.261  1.00  0.00    -0.391 OA
ATOM     47  H   UNL     1      25.806  27.283  16.487  1.00  0.00     0.211 HD
ENDBRANCH   6  46
BRANCH   7  48
ATOM     48  N   UNL     1      23.422  24.466  15.572  1.00  0.00    -0.348 N 
ATOM     49  C   UNL     1      22.847  24.349  14.275  1.00  0.00     0.217 C 
ATOM     50  H   UNL     1      23.362  23.621  16.192  1.00  0.00     0.163 HD
ATOM     51  C   UNL     1      22.204  23.072  13.877  1.00  0.00     0.114 C 
ATOM     52  O   UNL     1      22.909  25.330  13.522  1.00  0.00    -0.275 OA
ENDBRANCH   7  48
ENDBRANCH   1   2
BRANCH   1  53
ATOM     53  O   UNL     1      21.704  27.443  15.204  1.00  0.00    -0.388 OA
ATOM     54  H   UNL     1      22.066  27.545  14.274  1.00  0.00     0.211 HD
ENDBRANCH   1  53
BRANCH   1  55
ATOM     55  C   UNL     1      22.397  28.871  17.017  1.00  0.00     0.165 C 
BRANCH  55  56
ATOM     56  O   UNL     1      21.661  28.471  18.136  1.00  0.00    -0.388 OA
ATOM     57  H   UNL     1      22.139  27.873  18.732  1.00  0.00     0.211 HD
ENDBRANCH  55  56
BRANCH  55  58
ATOM     58  C   UNL     1      21.542  29.900  16.310  1.00  0.00     0.154 C 
BRANCH  58  59
ATOM     59  N   UNL     1      20.212  30.008  16.842  1.00  0.00    -0.319 N 
ATOM     60  C   UNL     1      19.120  29.612  16.030  1.00  0.00     0.407 C 
ATOM     61  H   UNL     1      20.036  30.365  17.793  1.00  0.00     0.167 HD
ATOM     62  O   UNL     1      19.358  29.167  14.870  1.00  0.00    -0.225 OA
BRANCH  60  63
ATOM     63  O   UNL     1      17.799  29.677  16.412  1.00  0.00    -0.443 OA
BRANCH  63  64
ATOM     64  C   UNL     1      16.945  28.559  16.523  1.00  0.00     0.294 C 
BRANCH  64  65
ATOM     65  C   UNL     1      16.508  28.437  17.935  1.00  0.00     0.121 A 
ATOM     66  C   UNL     1      15.616  29.197  18.663  1.00  0.00     0.144 A 
ATOM     67  N   UNL     1      16.929  27.470  18.812  1.00  0.00    -0.131 NA
ATOM     68  N   UNL     1      15.521  28.683  19.928  1.00  0.00    -0.220 N 
ATOM     69  N   UNL     1      16.327  27.651  19.966  1.00  0.00    -0.062 NA
BRANCH  68  70
ATOM     70  C   UNL     1      14.716  29.139  20.994  1.00  0.00     0.066 A 
ATOM     71  C   UNL     1      15.208  29.145  22.303  1.00  0.00     0.030 A 
ATOM     72  C   UNL     1      13.432  29.591  20.826  1.00  0.00     0.030 A 
ATOM     73  C   UNL     1      14.465  29.577  23.373  1.00  0.00     0.023 A 
ATOM     74  C   UNL     1      12.671  30.032  21.910  1.00  0.00     0.023 A 
ATOM     75  C   UNL     1      13.177  30.029  23.191  1.00  0.00     0.072 A 
BRANCH  75  76
ATOM     76  S   UNL     1      12.222  30.587  24.549  1.00  0.00     0.206 S 
ATOM     77  O   UNL     1      11.852  32.042  24.306  1.00  0.00    -0.219 OA
ATOM     78  O   UNL     1      12.908  30.407  25.860  1.00  0.00    -0.219 OA
BRANCH  76  79
ATOM     79  C   UNL     1      10.690  29.712  24.558  1.00  0.00     0.072 A 
ATOM     80  C   UNL     1       9.518  30.366  24.298  1.00  0.00     0.023 A 
ATOM     81  C   UNL     1      10.654  28.363  24.828  1.00  0.00     0.023 A 
ATOM     82  C   UNL     1       8.338  29.680  24.310  1.00  0.00     0.027 A 
ATOM     83  C   UNL     1       9.462  27.686  24.838  1.00  0.00     0.027 A 
ATOM     84  C   UNL     1       8.275  28.314  24.582  1.00  0.00     0.031 A 
BRANCH  84  85
ATOM     85  N   UNL     1       7.033  27.643  24.586  1.00  0.00    -0.399 N 
ATOM     86  H   UNL     1       6.827  26.904  25.273  1.00  0.00     0.156 HD
ATOM     87  H   UNL     1       6.313  27.896  23.887  1.00  0.00     0.156 HD
ENDBRANCH  84  85
ENDBRANCH  76  79
ENDBRANCH  75  76
ENDBRANCH  68  70
ENDBRANCH  64  65
ENDBRANCH  63  64
ENDBRANCH  60  63
ENDBRANCH  58  59
ENDBRANCH  55  58
ENDBRANCH   1  55
TORSDOF 33
