REMARK VINA RESULT:    -5.614      2.922      6.098
REMARK INTER + INTRA:         -21.564
REMARK INTER:                 -12.882
REMARK INTRA:                  -8.682
REMARK UNBOUND:                -6.761
REMARK SMILES CC(=O)N[C@@H]1[C@@H](O)C[C@](OC[C@H]2O[C@@H](O[C@H]3[C@H](O)[C@@H](O)[C@H](OCCN=[N+]=[N-])O[C@@H]3CO)[C@H](O)[C@@H](O)[C@H]2O)(C(=O)O)O[C@H]1C(O)[C@H](O)CNC(=O)OCc1cn(CCNS(C)(=O)=O)nn1
REMARK SMILES IDX 43 1 42 2 9 3 8 4 41 5 6 6 5 7 10 8 11 9 12 10 14 11 13 12
REMARK SMILES IDX 32 13 34 14 36 15 15 16 16 17 29 18 28 19 21 20 17 21 19 22
REMARK SMILES IDX 30 23 31 24 22 26 23 27 24 28 25 29 26 30 27 31 18 32 20 34
REMARK SMILES IDX 33 36 35 38 37 40 38 42 39 43 40 44 7 46 4 48 2 49 1 51 3 52
REMARK SMILES IDX 44 53 45 55 46 56 47 58 48 59 49 60 50 62 51 63 52 64 53 65
REMARK SMILES IDX 54 66 64 67 55 68 63 69 56 70 57 71 58 72 59 74 61 75 62 76
REMARK SMILES IDX 60 77
REMARK H PARENT 31 25 18 33 20 35 33 37 35 39 37 41 40 45 7 47 4 50 44 54
REMARK H PARENT 46 57 48 61 58 73
REMARK Flexibility Score: inf
ROOT
ATOM      1  C   UNL     1      15.154  28.754  21.547  1.00  0.00     0.176 C 
ENDROOT
BRANCH   1   2
ATOM      2  C   UNL     1      15.310  30.286  21.557  1.00  0.00     0.178 C 
ATOM      3  C   UNL     1      17.066  31.829  21.686  1.00  0.00     0.272 C 
ATOM      4  C   UNL     1      16.627  32.418  22.967  1.00  0.00     0.113 C 
ATOM      5  O   UNL     1      16.644  30.513  21.541  1.00  0.00    -0.332 OA
ATOM      6  C   UNL     1      15.418  31.780  23.594  1.00  0.00     0.145 C 
ATOM      7  C   UNL     1      14.623  30.859  22.734  1.00  0.00     0.142 C 
BRANCH   3   8
ATOM      8  O   UNL     1      18.448  31.766  21.481  1.00  0.00    -0.338 OA
BRANCH   8   9
ATOM      9  C   UNL     1      19.048  30.744  22.196  1.00  0.00     0.199 C 
BRANCH   9  10
ATOM     10  C   UNL     1      19.939  29.945  21.308  1.00  0.00     0.179 C 
ATOM     11  C   UNL     1      20.861  27.873  20.893  1.00  0.00     0.282 C 
ATOM     12  O   UNL     1      19.860  28.589  21.570  1.00  0.00    -0.341 OA
ATOM     13  C   UNL     1      20.709  27.979  19.415  1.00  0.00     0.202 C 
ATOM     14  C   UNL     1      20.868  29.440  19.052  1.00  0.00     0.179 C 
ATOM     15  C   UNL     1      19.925  30.274  19.853  1.00  0.00     0.177 C 
BRANCH  11  16
ATOM     16  O   UNL     1      20.789  26.583  21.328  1.00  0.00    -0.341 OA
BRANCH  16  17
ATOM     17  C   UNL     1      21.930  26.043  21.813  1.00  0.00     0.184 C 
ATOM     18  C   UNL     1      22.015  24.597  22.102  1.00  0.00     0.178 C 
ATOM     19  O   UNL     1      22.993  24.400  23.078  1.00  0.00    -0.341 OA
ATOM     20  C   UNL     1      22.569  24.766  24.322  1.00  0.00     0.281 C 
ATOM     21  C   UNL     1      22.429  26.817  23.064  1.00  0.00     0.180 C 
ATOM     22  C   UNL     1      21.803  26.070  24.223  1.00  0.00     0.202 C 
BRANCH  18  23
ATOM     23  C   UNL     1      22.535  23.838  20.886  1.00  0.00     0.191 C 
BRANCH  23  24
ATOM     24  O   UNL     1      22.257  24.575  19.712  1.00  0.00    -0.394 OA
ATOM     25  H   UNL     1      22.302  25.543  19.872  1.00  0.00     0.210 HD
ENDBRANCH  23  24
ENDBRANCH  18  23
BRANCH  20  26
ATOM     26  O   UNL     1      23.639  24.876  25.222  1.00  0.00    -0.350 OA
BRANCH  26  27
ATOM     27  C   UNL     1      23.327  25.497  26.404  1.00  0.00     0.169 C 
BRANCH  27  28
ATOM     28  C   UNL     1      22.760  24.479  27.341  1.00  0.00     0.119 C 
BRANCH  28  29
ATOM     29  N   UNL     1      22.525  25.026  28.671  1.00  0.00    -0.092 NA
ATOM     30  N   UNL     1      23.549  25.189  29.357  1.00  0.00     0.001 N 
ATOM     31  N   UNL     1      24.340  25.397  30.270  1.00  0.00    -0.003 NA
ENDBRANCH  28  29
ENDBRANCH  27  28
ENDBRANCH  26  27
ENDBRANCH  20  26
BRANCH  21  32
ATOM     32  O   UNL     1      23.816  26.688  23.175  1.00  0.00    -0.387 OA
ATOM     33  H   UNL     1      24.242  27.101  22.378  1.00  0.00     0.211 HD
ENDBRANCH  21  32
BRANCH  22  34
ATOM     34  O   UNL     1      20.445  25.883  24.103  1.00  0.00    -0.385 OA
ATOM     35  H   UNL     1      20.049  25.317  24.814  1.00  0.00     0.211 HD
ENDBRANCH  22  34
ENDBRANCH  16  17
ENDBRANCH  11  16
BRANCH  13  36
ATOM     36  O   UNL     1      21.757  27.322  18.752  1.00  0.00    -0.385 OA
ATOM     37  H   UNL     1      22.565  27.244  19.320  1.00  0.00     0.211 HD
ENDBRANCH  13  36
BRANCH  14  38
ATOM     38  O   UNL     1      20.815  29.651  17.696  1.00  0.00    -0.387 OA
ATOM     39  H   UNL     1      21.575  30.228  17.370  1.00  0.00     0.211 HD
ENDBRANCH  14  38
BRANCH  15  40
ATOM     40  O   UNL     1      18.636  30.077  19.369  1.00  0.00    -0.387 OA
ATOM     41  H   UNL     1      17.938  30.473  19.951  1.00  0.00     0.211 HD
ENDBRANCH  15  40
ENDBRANCH   9  10
ENDBRANCH   8   9
ENDBRANCH   3   8
BRANCH   3  42
ATOM     42  C   UNL     1      16.563  32.616  20.535  1.00  0.00     0.364 C 
ATOM     43  O   UNL     1      15.677  33.523  20.674  1.00  0.00    -0.246 OA
BRANCH  42  44
ATOM     44  O   UNL     1      16.993  32.449  19.233  1.00  0.00    -0.477 OA
ATOM     45  H   UNL     1      16.966  33.188  18.536  1.00  0.00     0.296 HD
ENDBRANCH  42  44
ENDBRANCH   3  42
BRANCH   6  46
ATOM     46  O   UNL     1      15.747  31.142  24.781  1.00  0.00    -0.391 OA
ATOM     47  H   UNL     1      15.235  31.419  25.567  1.00  0.00     0.211 HD
ENDBRANCH   6  46
BRANCH   7  48
ATOM     48  N   UNL     1      13.417  31.582  22.298  1.00  0.00    -0.348 N 
ATOM     49  C   UNL     1      12.117  31.380  22.771  1.00  0.00     0.217 C 
ATOM     50  H   UNL     1      13.530  32.371  21.568  1.00  0.00     0.163 HD
ATOM     51  C   UNL     1      10.957  32.177  22.235  1.00  0.00     0.114 C 
ATOM     52  O   UNL     1      11.856  30.524  23.660  1.00  0.00    -0.275 OA
ENDBRANCH   7  48
ENDBRANCH   1   2
BRANCH   1  53
ATOM     53  O   UNL     1      13.782  28.446  21.559  1.00  0.00    -0.388 OA
ATOM     54  H   UNL     1      13.381  28.958  22.284  1.00  0.00     0.211 HD
ENDBRANCH   1  53
BRANCH   1  55
ATOM     55  C   UNL     1      15.751  28.186  20.312  1.00  0.00     0.165 C 
BRANCH  55  56
ATOM     56  O   UNL     1      17.111  28.000  20.328  1.00  0.00    -0.388 OA
ATOM     57  H   UNL     1      17.398  27.207  20.853  1.00  0.00     0.211 HD
ENDBRANCH  55  56
BRANCH  55  58
ATOM     58  C   UNL     1      15.298  28.808  19.027  1.00  0.00     0.154 C 
BRANCH  58  59
ATOM     59  N   UNL     1      16.216  28.558  17.948  1.00  0.00    -0.319 N 
ATOM     60  C   UNL     1      15.898  29.124  16.655  1.00  0.00     0.407 C 
ATOM     61  H   UNL     1      17.082  28.003  18.035  1.00  0.00     0.167 HD
ATOM     62  O   UNL     1      14.849  29.814  16.584  1.00  0.00    -0.225 OA
BRANCH  60  63
ATOM     63  O   UNL     1      16.711  28.907  15.572  1.00  0.00    -0.443 OA
BRANCH  63  64
ATOM     64  C   UNL     1      18.037  29.382  15.571  1.00  0.00     0.294 C 
BRANCH  64  65
ATOM     65  C   UNL     1      18.074  30.846  15.743  1.00  0.00     0.120 A 
ATOM     66  C   UNL     1      17.568  31.807  14.883  1.00  0.00     0.138 A 
ATOM     67  N   UNL     1      18.568  31.520  16.772  1.00  0.00    -0.132 NA
ATOM     68  N   UNL     1      17.763  33.019  15.404  1.00  0.00    -0.251 N 
ATOM     69  N   UNL     1      18.383  32.831  16.570  1.00  0.00    -0.067 NA
BRANCH  68  70
ATOM     70  C   UNL     1      17.385  34.290  14.810  1.00  0.00     0.162 C 
BRANCH  70  71
ATOM     71  C   UNL     1      16.209  34.889  15.581  1.00  0.00     0.122 C 
BRANCH  71  72
ATOM     72  N   UNL     1      14.965  34.355  15.108  1.00  0.00    -0.214 NA
ATOM     73  H   UNL     1      15.164  33.574  14.427  1.00  0.00     0.141 HD
BRANCH  72  74
ATOM     74  S   UNL     1      14.001  33.684  16.365  1.00  0.00     0.208 S 
ATOM     75  O   UNL     1      13.101  32.595  15.805  1.00  0.00    -0.213 OA
ATOM     76  O   UNL     1      14.967  33.049  17.347  1.00  0.00    -0.213 OA
ATOM     77  C   UNL     1      13.048  34.934  17.172  1.00  0.00     0.176 C 
ENDBRANCH  72  74
ENDBRANCH  71  72
ENDBRANCH  70  71
ENDBRANCH  68  70
ENDBRANCH  64  65
ENDBRANCH  63  64
ENDBRANCH  60  63
ENDBRANCH  58  59
ENDBRANCH  55  58
ENDBRANCH   1  55
TORSDOF 33
