REMARK VINA RESULT:    -5.807     21.825     26.319
REMARK INTER + INTRA:         -20.257
REMARK INTER:                 -13.120
REMARK INTRA:                  -7.137
REMARK UNBOUND:                -5.964
REMARK SMILES CC(=O)N[C@@H]1[C@@H](O)C[C@](OC[C@H]2O[C@@H](O[C@H]3[C@H](O)[C@@H](O)[C@H](OCCN=[N+]=[N-])O[C@@H]3CO)[C@H](O)[C@@H](O)[C@H]2O)(C(=O)O)O[C@H]1C(O)[C@H](O)CNC(=O)OCc1cn(C2CCN(C)CC2)nn1
REMARK SMILES IDX 9 1 8 2 6 3 5 4 42 5 41 6 10 7 11 8 12 9 14 10 13 11 32 12
REMARK SMILES IDX 34 13 36 14 15 15 16 16 29 17 28 18 21 19 17 20 19 21 30 22
REMARK SMILES IDX 31 23 22 25 23 26 24 27 25 28 26 29 27 30 18 31 20 33 33 35
REMARK SMILES IDX 35 37 37 39 38 41 39 42 40 43 7 45 43 47 44 48 45 50 46 51
REMARK SMILES IDX 47 53 48 54 49 55 50 57 51 58 52 59 53 60 54 61 64 62 55 63
REMARK SMILES IDX 63 64 56 65 57 66 62 67 58 68 61 69 59 70 60 71 4 72 2 73
REMARK SMILES IDX 1 75 3 76
REMARK H PARENT 31 24 18 32 20 34 33 36 35 38 37 40 40 44 7 46 44 49 46 52
REMARK H PARENT 48 56 4 74
REMARK Flexibility Score: inf
ROOT
ATOM      1  C   UNL     1       2.274  24.498  28.894  1.00  0.00     0.272 C 
ATOM      2  C   UNL     1       2.998  24.014  27.650  1.00  0.00     0.113 C 
ATOM      3  C   UNL     1       3.720  25.036  26.875  1.00  0.00     0.145 C 
ATOM      4  C   UNL     1       4.429  26.082  27.706  1.00  0.00     0.142 C 
ATOM      5  C   UNL     1       3.887  26.213  29.078  1.00  0.00     0.178 C 
ATOM      6  O   UNL     1       3.258  25.201  29.662  1.00  0.00    -0.332 OA
ENDROOT
BRANCH   1   7
ATOM      7  O   UNL     1       2.010  23.436  29.670  1.00  0.00    -0.338 OA
BRANCH   7   8
ATOM      8  C   UNL     1       2.326  23.119  30.880  1.00  0.00     0.199 C 
BRANCH   8   9
ATOM      9  C   UNL     1       2.949  21.817  31.277  1.00  0.00     0.179 C 
ATOM     10  C   UNL     1       4.469  22.244  33.068  1.00  0.00     0.282 C 
ATOM     11  O   UNL     1       4.199  22.109  31.749  1.00  0.00    -0.341 OA
ATOM     12  C   UNL     1       3.304  22.120  33.950  1.00  0.00     0.202 C 
ATOM     13  C   UNL     1       2.629  20.792  33.564  1.00  0.00     0.179 C 
ATOM     14  C   UNL     1       2.107  20.988  32.187  1.00  0.00     0.177 C 
BRANCH  10  15
ATOM     15  O   UNL     1       5.227  23.405  33.145  1.00  0.00    -0.341 OA
BRANCH  15  16
ATOM     16  C   UNL     1       6.108  23.509  34.140  1.00  0.00     0.184 C 
ATOM     17  C   UNL     1       6.060  24.856  34.774  1.00  0.00     0.178 C 
ATOM     18  O   UNL     1       6.665  24.776  36.034  1.00  0.00    -0.341 OA
ATOM     19  C   UNL     1       8.013  24.543  35.891  1.00  0.00     0.281 C 
ATOM     20  C   UNL     1       7.572  23.365  33.695  1.00  0.00     0.180 C 
ATOM     21  C   UNL     1       8.368  23.386  34.997  1.00  0.00     0.202 C 
BRANCH  17  22
ATOM     22  C   UNL     1       4.713  25.489  34.827  1.00  0.00     0.191 C 
BRANCH  22  23
ATOM     23  O   UNL     1       4.409  26.001  33.574  1.00  0.00    -0.394 OA
ATOM     24  H   UNL     1       4.552  26.980  33.527  1.00  0.00     0.210 HD
ENDBRANCH  22  23
ENDBRANCH  17  22
BRANCH  19  25
ATOM     25  O   UNL     1       8.493  24.205  37.164  1.00  0.00    -0.350 OA
BRANCH  25  26
ATOM     26  C   UNL     1       9.303  25.157  37.730  1.00  0.00     0.169 C 
BRANCH  26  27
ATOM     27  C   UNL     1      10.672  24.637  38.117  1.00  0.00     0.119 C 
BRANCH  27  28
ATOM     28  N   UNL     1      10.793  23.221  37.826  1.00  0.00    -0.092 NA
ATOM     29  N   UNL     1      11.717  22.793  37.137  1.00  0.00     0.001 N 
ATOM     30  N   UNL     1      12.264  22.307  36.145  1.00  0.00    -0.003 NA
ENDBRANCH  27  28
ENDBRANCH  26  27
ENDBRANCH  25  26
ENDBRANCH  19  25
BRANCH  20  31
ATOM     31  O   UNL     1       7.838  22.165  33.092  1.00  0.00    -0.387 OA
ATOM     32  H   UNL     1       8.809  22.023  33.072  1.00  0.00     0.211 HD
ENDBRANCH  20  31
BRANCH  21  33
ATOM     33  O   UNL     1       9.710  23.399  34.708  1.00  0.00    -0.385 OA
ATOM     34  H   UNL     1      10.269  23.235  35.485  1.00  0.00     0.211 HD
ENDBRANCH  21  33
ENDBRANCH  15  16
ENDBRANCH  10  15
BRANCH  12  35
ATOM     35  O   UNL     1       3.600  21.944  35.300  1.00  0.00    -0.385 OA
ATOM     36  H   UNL     1       3.438  21.005  35.567  1.00  0.00     0.211 HD
ENDBRANCH  12  35
BRANCH  13  37
ATOM     37  O   UNL     1       1.658  20.415  34.457  1.00  0.00    -0.387 OA
ATOM     38  H   UNL     1       1.511  21.170  35.081  1.00  0.00     0.211 HD
ENDBRANCH  13  37
BRANCH  14  39
ATOM     39  O   UNL     1       0.840  21.560  32.274  1.00  0.00    -0.387 OA
ATOM     40  H   UNL     1       0.214  21.221  31.594  1.00  0.00     0.211 HD
ENDBRANCH  14  39
ENDBRANCH   8   9
ENDBRANCH   7   8
ENDBRANCH   1   7
BRANCH   1  41
ATOM     41  C   UNL     1       1.237  25.441  28.503  1.00  0.00     0.364 C 
ATOM     42  O   UNL     1       0.589  26.030  29.461  1.00  0.00    -0.246 OA
BRANCH  41  43
ATOM     43  O   UNL     1       0.802  25.832  27.265  1.00  0.00    -0.477 OA
ATOM     44  H   UNL     1       0.249  26.671  27.087  1.00  0.00     0.296 HD
ENDBRANCH  41  43
ENDBRANCH   1  41
BRANCH   3  45
ATOM     45  O   UNL     1       4.686  24.386  26.051  1.00  0.00    -0.391 OA
ATOM     46  H   UNL     1       5.104  25.021  25.433  1.00  0.00     0.211 HD
ENDBRANCH   3  45
BRANCH   5  47
ATOM     47  C   UNL     1       4.992  26.688  30.062  1.00  0.00     0.176 C 
BRANCH  47  48
ATOM     48  O   UNL     1       5.234  25.685  30.990  1.00  0.00    -0.388 OA
ATOM     49  H   UNL     1       5.717  26.001  31.782  1.00  0.00     0.211 HD
ENDBRANCH  47  48
BRANCH  47  50
ATOM     50  C   UNL     1       4.612  27.944  30.700  1.00  0.00     0.165 C 
BRANCH  50  51
ATOM     51  O   UNL     1       4.357  28.878  29.622  1.00  0.00    -0.388 OA
ATOM     52  H   UNL     1       5.161  28.935  29.052  1.00  0.00     0.211 HD
ENDBRANCH  50  51
BRANCH  50  53
ATOM     53  C   UNL     1       5.511  28.616  31.645  1.00  0.00     0.154 C 
BRANCH  53  54
ATOM     54  N   UNL     1       6.584  27.973  32.278  1.00  0.00    -0.319 N 
ATOM     55  C   UNL     1       7.110  28.242  33.566  1.00  0.00     0.407 C 
ATOM     56  H   UNL     1       7.074  27.184  31.732  1.00  0.00     0.167 HD
ATOM     57  O   UNL     1       6.604  29.106  34.308  1.00  0.00    -0.225 OA
BRANCH  55  58
ATOM     58  O   UNL     1       8.234  27.504  33.999  1.00  0.00    -0.443 OA
BRANCH  58  59
ATOM     59  C   UNL     1       9.282  28.182  34.644  1.00  0.00     0.294 C 
BRANCH  59  60
ATOM     60  C   UNL     1      10.429  27.254  34.788  1.00  0.00     0.120 A 
ATOM     61  C   UNL     1      11.515  27.420  35.665  1.00  0.00     0.138 A 
ATOM     62  N   UNL     1      10.696  26.096  34.168  1.00  0.00    -0.132 NA
ATOM     63  N   UNL     1      12.363  26.385  35.538  1.00  0.00    -0.249 N 
ATOM     64  N   UNL     1      11.845  25.602  34.629  1.00  0.00    -0.067 NA
BRANCH  63  65
ATOM     65  C   UNL     1      13.595  26.190  36.268  1.00  0.00     0.111 C 
ATOM     66  C   UNL     1      14.705  26.794  35.456  1.00  0.00     0.043 C 
ATOM     67  C   UNL     1      13.562  26.838  37.624  1.00  0.00     0.043 C 
ATOM     68  C   UNL     1      15.099  28.122  36.058  1.00  0.00     0.086 C 
ATOM     69  C   UNL     1      14.932  27.066  38.204  1.00  0.00     0.086 C 
ATOM     70  N   UNL     1      15.775  27.850  37.326  1.00  0.00    -0.306 NA
ATOM     71  C   UNL     1      16.980  27.096  37.027  1.00  0.00     0.105 C 
ENDBRANCH  63  65
ENDBRANCH  59  60
ENDBRANCH  58  59
ENDBRANCH  55  58
ENDBRANCH  53  54
ENDBRANCH  50  53
ENDBRANCH  47  50
ENDBRANCH   5  47
BRANCH   4  72
ATOM     72  N   UNL     1       4.471  27.363  27.029  1.00  0.00    -0.348 N 
ATOM     73  C   UNL     1       5.620  27.715  26.286  1.00  0.00     0.217 C 
ATOM     74  H   UNL     1       3.674  28.045  27.069  1.00  0.00     0.163 HD
ATOM     75  C   UNL     1       5.716  29.028  25.569  1.00  0.00     0.114 C 
ATOM     76  O   UNL     1       6.602  26.908  26.216  1.00  0.00    -0.275 OA
ENDBRANCH   4  72
TORSDOF 30
