REMARK VINA RESULT:    -5.902     20.478     27.635
REMARK INTER + INTRA:         -22.448
REMARK INTER:                 -13.878
REMARK INTRA:                  -8.570
REMARK UNBOUND:                -6.885
REMARK SMILES CCOC(=O)c1cccc(-n2cc(COC(=O)NC[C@@H](O)C(O)[C@@H]3O[C@@](OC[C@H]4O[C@@H](O[C@H]5[C@H](O)[C@@H](O)[C@H](OCCN=[N+]=[N-])O[C@@H]5CO)[C@H](O)[C@@H](O)[C@H]4O)(C(=O)O)C[C@H](O)[C@H]3NC(C)=O)nn2)c1
REMARK SMILES IDX 22 1 24 2 26 3 58 4 25 5 59 6 61 7 27 8 28 9 29 10 31 11
REMARK SMILES IDX 30 12 49 13 51 14 53 15 32 16 33 17 46 18 45 19 38 20 34 21
REMARK SMILES IDX 36 22 47 23 48 24 39 26 40 27 41 28 42 29 43 30 44 31 35 32
REMARK SMILES IDX 37 34 50 36 52 38 54 40 55 42 56 43 57 44 60 46 62 48 63 49
REMARK SMILES IDX 64 51 65 52 23 53 20 55 21 56 19 58 18 59 16 60 17 62 15 63
REMARK SMILES IDX 14 64 13 65 12 66 66 67 11 68 67 69 10 70 68 71 9 72 6 73
REMARK SMILES IDX 8 74 7 75 4 76 5 77 3 78 2 79 1 80
REMARK H PARENT 48 25 35 33 37 35 50 37 52 39 54 41 57 45 60 47 62 50 23 54
REMARK H PARENT 21 57 18 61
REMARK Flexibility Score: inf
ROOT
ATOM      1  C   UNL     1      23.445  20.087  13.730  1.00  0.00     0.176 C 
ENDROOT
BRANCH   1   2
ATOM      2  C   UNL     1      22.494  21.057  13.167  1.00  0.00     0.178 C 
ATOM      3  C   UNL     1      20.814  20.992  11.505  1.00  0.00     0.272 C 
ATOM      4  C   UNL     1      20.707  22.403  11.985  1.00  0.00     0.113 C 
ATOM      5  O   UNL     1      22.158  20.628  11.881  1.00  0.00    -0.332 OA
ATOM      6  C   UNL     1      22.033  23.145  11.987  1.00  0.00     0.145 C 
ATOM      7  C   UNL     1      22.931  22.477  13.081  1.00  0.00     0.142 C 
BRANCH   3   8
ATOM      8  O   UNL     1      20.804  20.948  10.145  1.00  0.00    -0.338 OA
BRANCH   8   9
ATOM      9  C   UNL     1      20.082  20.160   9.388  1.00  0.00     0.199 C 
BRANCH   9  10
ATOM     10  C   UNL     1      20.547  19.064   8.528  1.00  0.00     0.179 C 
ATOM     11  C   UNL     1      22.405  18.204   7.395  1.00  0.00     0.282 C 
ATOM     12  O   UNL     1      21.707  19.329   7.893  1.00  0.00    -0.341 OA
ATOM     13  C   UNL     1      21.518  16.999   7.328  1.00  0.00     0.202 C 
ATOM     14  C   UNL     1      20.873  16.660   8.633  1.00  0.00     0.179 C 
ATOM     15  C   UNL     1      20.822  17.871   9.498  1.00  0.00     0.177 C 
BRANCH  11  16
ATOM     16  O   UNL     1      23.517  18.099   8.177  1.00  0.00    -0.341 OA
BRANCH  16  17
ATOM     17  C   UNL     1      24.512  19.005   8.046  1.00  0.00     0.184 C 
ATOM     18  C   UNL     1      25.810  18.266   7.852  1.00  0.00     0.178 C 
ATOM     19  O   UNL     1      26.875  19.147   7.658  1.00  0.00    -0.341 OA
ATOM     20  C   UNL     1      27.099  19.824   8.889  1.00  0.00     0.281 C 
ATOM     21  C   UNL     1      24.689  19.876   9.302  1.00  0.00     0.180 C 
ATOM     22  C   UNL     1      25.920  20.743   9.053  1.00  0.00     0.202 C 
BRANCH  18  23
ATOM     23  C   UNL     1      25.738  17.346   6.667  1.00  0.00     0.191 C 
BRANCH  23  24
ATOM     24  O   UNL     1      25.268  16.068   7.067  1.00  0.00    -0.394 OA
ATOM     25  H   UNL     1      25.865  15.684   7.758  1.00  0.00     0.210 HD
ENDBRANCH  23  24
ENDBRANCH  18  23
BRANCH  20  26
ATOM     26  O   UNL     1      28.305  20.456   8.805  1.00  0.00    -0.350 OA
BRANCH  26  27
ATOM     27  C   UNL     1      29.308  19.780   9.486  1.00  0.00     0.169 C 
BRANCH  27  28
ATOM     28  C   UNL     1      28.881  19.266  10.828  1.00  0.00     0.119 C 
BRANCH  28  29
ATOM     29  N   UNL     1      29.350  20.193  11.866  1.00  0.00    -0.092 NA
ATOM     30  N   UNL     1      28.745  21.267  11.990  1.00  0.00     0.001 N 
ATOM     31  N   UNL     1      28.101  22.255  12.395  1.00  0.00    -0.003 NA
ENDBRANCH  28  29
ENDBRANCH  27  28
ENDBRANCH  26  27
ENDBRANCH  20  26
BRANCH  21  32
ATOM     32  O   UNL     1      23.636  20.768   9.444  1.00  0.00    -0.387 OA
ATOM     33  H   UNL     1      23.034  20.637   8.674  1.00  0.00     0.211 HD
ENDBRANCH  21  32
BRANCH  22  34
ATOM     34  O   UNL     1      26.104  21.654  10.089  1.00  0.00    -0.385 OA
ATOM     35  H   UNL     1      25.794  22.581   9.856  1.00  0.00     0.211 HD
ENDBRANCH  22  34
ENDBRANCH  16  17
ENDBRANCH  11  16
BRANCH  13  36
ATOM     36  O   UNL     1      20.578  17.179   6.294  1.00  0.00    -0.385 OA
ATOM     37  H   UNL     1      21.007  17.382   5.432  1.00  0.00     0.211 HD
ENDBRANCH  13  36
BRANCH  14  38
ATOM     38  O   UNL     1      21.381  15.525   9.224  1.00  0.00    -0.387 OA
ATOM     39  H   UNL     1      21.336  15.665  10.208  1.00  0.00     0.211 HD
ENDBRANCH  14  38
BRANCH  15  40
ATOM     40  O   UNL     1      21.953  18.059  10.228  1.00  0.00    -0.387 OA
ATOM     41  H   UNL     1      21.723  18.459  11.103  1.00  0.00     0.211 HD
ENDBRANCH  15  40
ENDBRANCH   9  10
ENDBRANCH   8   9
ENDBRANCH   3   8
BRANCH   3  42
ATOM     42  C   UNL     1      19.924  20.029  12.135  1.00  0.00     0.364 C 
ATOM     43  O   UNL     1      18.688  20.116  12.067  1.00  0.00    -0.246 OA
BRANCH  42  44
ATOM     44  O   UNL     1      20.443  18.950  12.853  1.00  0.00    -0.477 OA
ATOM     45  H   UNL     1      21.247  18.430  12.571  1.00  0.00     0.296 HD
ENDBRANCH  42  44
ENDBRANCH   3  42
BRANCH   6  46
ATOM     46  O   UNL     1      22.663  22.916  10.789  1.00  0.00    -0.391 OA
ATOM     47  H   UNL     1      23.115  23.741  10.491  1.00  0.00     0.211 HD
ENDBRANCH   6  46
BRANCH   7  48
ATOM     48  N   UNL     1      22.696  23.225  14.294  1.00  0.00    -0.348 N 
ATOM     49  C   UNL     1      23.669  23.386  15.333  1.00  0.00     0.217 C 
ATOM     50  H   UNL     1      21.767  23.709  14.485  1.00  0.00     0.163 HD
ATOM     51  C   UNL     1      23.392  24.163  16.570  1.00  0.00     0.114 C 
ATOM     52  O   UNL     1      24.795  22.862  15.211  1.00  0.00    -0.275 OA
ENDBRANCH   7  48
ENDBRANCH   1   2
BRANCH   1  53
ATOM     53  O   UNL     1      23.006  19.341  14.790  1.00  0.00    -0.388 OA
ATOM     54  H   UNL     1      23.367  19.652  15.653  1.00  0.00     0.211 HD
ENDBRANCH   1  53
BRANCH   1  55
ATOM     55  C   UNL     1      24.222  19.245  12.751  1.00  0.00     0.165 C 
BRANCH  55  56
ATOM     56  O   UNL     1      23.742  17.932  12.742  1.00  0.00    -0.388 OA
ATOM     57  H   UNL     1      23.257  17.750  11.896  1.00  0.00     0.211 HD
ENDBRANCH  55  56
BRANCH  55  58
ATOM     58  C   UNL     1      25.712  19.373  12.853  1.00  0.00     0.154 C 
BRANCH  58  59
ATOM     59  N   UNL     1      26.114  20.214  13.957  1.00  0.00    -0.319 N 
ATOM     60  C   UNL     1      27.030  19.761  14.933  1.00  0.00     0.407 C 
ATOM     61  H   UNL     1      25.724  21.202  14.054  1.00  0.00     0.167 HD
ATOM     62  O   UNL     1      27.575  18.634  14.944  1.00  0.00    -0.225 OA
BRANCH  60  63
ATOM     63  O   UNL     1      27.389  20.597  16.008  1.00  0.00    -0.443 OA
BRANCH  63  64
ATOM     64  C   UNL     1      28.059  21.814  15.883  1.00  0.00     0.294 C 
BRANCH  64  65
ATOM     65  C   UNL     1      27.821  22.793  16.951  1.00  0.00     0.121 A 
ATOM     66  C   UNL     1      26.978  22.626  18.045  1.00  0.00     0.144 A 
ATOM     67  N   UNL     1      28.353  24.003  17.077  1.00  0.00    -0.131 NA
ATOM     68  N   UNL     1      27.039  23.739  18.775  1.00  0.00    -0.220 N 
ATOM     69  N   UNL     1      27.873  24.565  18.185  1.00  0.00    -0.062 NA
BRANCH  68  70
ATOM     70  C   UNL     1      26.334  23.977  19.974  1.00  0.00     0.067 A 
ATOM     71  C   UNL     1      24.978  24.294  19.972  1.00  0.00     0.044 A 
ATOM     72  C   UNL     1      26.941  23.897  21.199  1.00  0.00     0.028 A 
ATOM     73  C   UNL     1      24.249  24.522  21.108  1.00  0.00     0.062 A 
ATOM     74  C   UNL     1      26.237  24.120  22.372  1.00  0.00     0.003 A 
ATOM     75  C   UNL     1      24.898  24.432  22.334  1.00  0.00     0.016 A 
BRANCH  73  76
ATOM     76  C   UNL     1      22.841  24.852  21.034  1.00  0.00     0.338 C 
ATOM     77  O   UNL     1      22.462  25.760  20.270  1.00  0.00    -0.246 OA
BRANCH  76  78
ATOM     78  O   UNL     1      21.932  24.165  21.797  1.00  0.00    -0.462 OA
BRANCH  78  79
ATOM     79  C   UNL     1      21.051  24.771  22.715  1.00  0.00     0.230 C 
ATOM     80  C   UNL     1      21.619  24.676  24.114  1.00  0.00     0.049 C 
ENDBRANCH  78  79
ENDBRANCH  76  78
ENDBRANCH  73  76
ENDBRANCH  68  70
ENDBRANCH  64  65
ENDBRANCH  63  64
ENDBRANCH  60  63
ENDBRANCH  58  59
ENDBRANCH  55  58
ENDBRANCH   1  55
TORSDOF 33
