REMARK VINA RESULT:    -4.667     18.727     24.912
REMARK INTER + INTRA:         -22.600
REMARK INTER:                 -16.742
REMARK INTRA:                  -5.857
REMARK UNBOUND:               -10.839
REMARK SMILES CC(=O)N[C@@H]1[C@@H](O)C[C@](OC[C@H]2O[C@@H](O[C@H]3[C@H](O)[C@@H](O)[C@H](OCCN=[N+]=[N-])O[C@@H]3CO)[C@H](O)[C@@H](O)[C@H]2O)(C(=O)O)O[C@H]1C(O)[C@H](O)CNC(=O)OCc1cn(-c2ccccc2C(C)C)nn1
REMARK SMILES IDX 9 1 8 2 6 3 5 4 42 5 41 6 10 7 11 8 12 9 14 10 13 11 32 12
REMARK SMILES IDX 34 13 36 14 15 15 16 16 29 17 28 18 21 19 17 20 19 21 30 22
REMARK SMILES IDX 31 23 22 25 23 26 24 27 25 28 26 29 27 30 18 31 20 33 33 35
REMARK SMILES IDX 35 37 37 39 38 41 39 42 40 43 7 45 43 47 44 48 45 50 46 51
REMARK SMILES IDX 47 53 48 54 49 55 50 57 51 58 52 59 53 60 54 61 66 62 55 63
REMARK SMILES IDX 65 64 56 65 61 66 57 67 60 68 58 69 59 70 62 71 63 72 64 73
REMARK SMILES IDX 4 74 2 75 1 77 3 78
REMARK H PARENT 31 24 18 32 20 34 33 36 35 38 37 40 40 44 7 46 44 49 46 52
REMARK H PARENT 48 56 4 76
REMARK Flexibility Score: inf
ROOT
ATOM      1  C   UNL     1      23.867  19.962  12.577  1.00  0.00     0.272 C 
ATOM      2  C   UNL     1      23.133  18.855  11.856  1.00  0.00     0.113 C 
ATOM      3  C   UNL     1      22.500  19.460  10.612  1.00  0.00     0.145 C 
ATOM      4  C   UNL     1      21.382  20.399  11.096  1.00  0.00     0.142 C 
ATOM      5  C   UNL     1      21.965  21.287  12.130  1.00  0.00     0.178 C 
ATOM      6  O   UNL     1      23.349  21.200  12.094  1.00  0.00    -0.332 OA
ENDROOT
BRANCH   1   7
ATOM      7  O   UNL     1      25.170  20.017  12.245  1.00  0.00    -0.338 OA
BRANCH   7   8
ATOM      8  C   UNL     1      26.065  20.927  12.415  1.00  0.00     0.199 C 
BRANCH   8   9
ATOM      9  C   UNL     1      27.379  20.715  13.094  1.00  0.00     0.179 C 
ATOM     10  C   UNL     1      28.567  21.088  14.995  1.00  0.00     0.282 C 
ATOM     11  O   UNL     1      27.548  21.481  14.221  1.00  0.00    -0.341 OA
ATOM     12  C   UNL     1      29.589  20.158  14.356  1.00  0.00     0.202 C 
ATOM     13  C   UNL     1      28.934  18.943  13.754  1.00  0.00     0.179 C 
ATOM     14  C   UNL     1      27.479  19.237  13.536  1.00  0.00     0.177 C 
BRANCH  10  15
ATOM     15  O   UNL     1      28.284  20.602  16.235  1.00  0.00    -0.341 OA
BRANCH  15  16
ATOM     16  C   UNL     1      28.468  21.403  17.334  1.00  0.00     0.184 C 
ATOM     17  C   UNL     1      29.030  20.682  18.514  1.00  0.00     0.178 C 
ATOM     18  O   UNL     1      28.252  20.746  19.617  1.00  0.00    -0.341 OA
ATOM     19  C   UNL     1      27.851  21.950  20.105  1.00  0.00     0.281 C 
ATOM     20  C   UNL     1      27.318  22.245  17.708  1.00  0.00     0.180 C 
ATOM     21  C   UNL     1      27.670  22.981  18.989  1.00  0.00     0.202 C 
BRANCH  17  22
ATOM     22  C   UNL     1      30.442  21.153  18.901  1.00  0.00     0.191 C 
BRANCH  22  23
ATOM     23  O   UNL     1      31.120  21.461  17.699  1.00  0.00    -0.394 OA
ATOM     24  H   UNL     1      30.945  20.682  17.083  1.00  0.00     0.210 HD
ENDBRANCH  22  23
ENDBRANCH  17  22
BRANCH  19  25
ATOM     25  O   UNL     1      28.774  22.449  20.986  1.00  0.00    -0.350 OA
BRANCH  25  26
ATOM     26  C   UNL     1      28.703  22.057  22.285  1.00  0.00     0.169 C 
BRANCH  26  27
ATOM     27  C   UNL     1      29.968  21.762  23.001  1.00  0.00     0.119 C 
BRANCH  27  28
ATOM     28  N   UNL     1      30.618  20.602  22.491  1.00  0.00    -0.092 NA
ATOM     29  N   UNL     1      30.119  19.516  22.272  1.00  0.00     0.001 N 
ATOM     30  N   UNL     1      29.440  18.543  21.966  1.00  0.00    -0.003 NA
ENDBRANCH  27  28
ENDBRANCH  26  27
ENDBRANCH  25  26
ENDBRANCH  19  25
BRANCH  20  31
ATOM     31  O   UNL     1      26.993  23.229  16.775  1.00  0.00    -0.387 OA
ATOM     32  H   UNL     1      26.119  23.005  16.386  1.00  0.00     0.211 HD
ENDBRANCH  20  31
BRANCH  21  33
ATOM     33  O   UNL     1      26.635  23.840  19.366  1.00  0.00    -0.385 OA
ATOM     34  H   UNL     1      27.020  24.751  19.409  1.00  0.00     0.211 HD
ENDBRANCH  21  33
ENDBRANCH  15  16
ENDBRANCH  10  15
BRANCH  12  35
ATOM     35  O   UNL     1      30.278  20.878  13.396  1.00  0.00    -0.385 OA
ATOM     36  H   UNL     1      30.003  21.848  13.435  1.00  0.00     0.211 HD
ENDBRANCH  12  35
BRANCH  13  37
ATOM     37  O   UNL     1      29.113  17.851  14.615  1.00  0.00    -0.387 OA
ATOM     38  H   UNL     1      29.748  17.241  14.163  1.00  0.00     0.211 HD
ENDBRANCH  13  37
BRANCH  14  39
ATOM     39  O   UNL     1      26.794  19.123  14.728  1.00  0.00    -0.387 OA
ATOM     40  H   UNL     1      27.212  19.741  15.379  1.00  0.00     0.211 HD
ENDBRANCH  14  39
ENDBRANCH   8   9
ENDBRANCH   7   8
ENDBRANCH   1   7
BRANCH   1  41
ATOM     41  C   UNL     1      23.637  19.915  14.026  1.00  0.00     0.364 C 
ATOM     42  O   UNL     1      24.163  20.861  14.715  1.00  0.00    -0.246 OA
BRANCH  41  43
ATOM     43  O   UNL     1      22.937  18.992  14.755  1.00  0.00    -0.477 OA
ATOM     44  H   UNL     1      22.022  18.633  14.553  1.00  0.00     0.296 HD
ENDBRANCH  41  43
ENDBRANCH   1  41
BRANCH   3  45
ATOM     45  O   UNL     1      23.421  20.299   9.976  1.00  0.00    -0.391 OA
ATOM     46  H   UNL     1      24.227  19.757   9.787  1.00  0.00     0.211 HD
ENDBRANCH   3  45
BRANCH   5  47
ATOM     47  C   UNL     1      21.659  22.751  12.034  1.00  0.00     0.176 C 
BRANCH  47  48
ATOM     48  O   UNL     1      20.618  22.805  11.041  1.00  0.00    -0.388 OA
ATOM     49  H   UNL     1      19.844  22.396  11.543  1.00  0.00     0.211 HD
ENDBRANCH  47  48
BRANCH  47  50
ATOM     50  C   UNL     1      22.746  23.635  11.512  1.00  0.00     0.165 C 
BRANCH  50  51
ATOM     51  O   UNL     1      23.284  23.221  10.323  1.00  0.00    -0.388 OA
ATOM     52  H   UNL     1      23.386  22.237  10.382  1.00  0.00     0.211 HD
ENDBRANCH  50  51
BRANCH  50  53
ATOM     53  C   UNL     1      23.669  24.136  12.558  1.00  0.00     0.154 C 
BRANCH  53  54
ATOM     54  N   UNL     1      23.298  23.814  13.922  1.00  0.00    -0.319 N 
ATOM     55  C   UNL     1      22.813  24.803  14.812  1.00  0.00     0.407 C 
ATOM     56  H   UNL     1      23.371  22.848  14.306  1.00  0.00     0.167 HD
ATOM     57  O   UNL     1      22.672  26.008  14.503  1.00  0.00    -0.225 OA
BRANCH  55  58
ATOM     58  O   UNL     1      22.438  24.512  16.146  1.00  0.00    -0.443 OA
BRANCH  58  59
ATOM     59  C   UNL     1      23.416  24.218  17.096  1.00  0.00     0.294 C 
BRANCH  59  60
ATOM     60  C   UNL     1      22.991  24.788  18.406  1.00  0.00     0.121 A 
ATOM     61  C   UNL     1      22.911  24.206  19.651  1.00  0.00     0.144 A 
ATOM     62  N   UNL     1      22.579  26.078  18.619  1.00  0.00    -0.131 NA
ATOM     63  N   UNL     1      22.478  25.085  20.570  1.00  0.00    -0.220 N 
ATOM     64  N   UNL     1      22.284  26.226  19.894  1.00  0.00    -0.062 NA
BRANCH  63  65
ATOM     65  C   UNL     1      22.261  24.908  21.965  1.00  0.00     0.070 A 
ATOM     66  C   UNL     1      23.343  24.859  22.816  1.00  0.00    -0.020 A 
ATOM     67  C   UNL     1      21.011  24.767  22.525  1.00  0.00     0.029 A 
ATOM     68  C   UNL     1      23.175  24.675  24.174  1.00  0.00     0.006 A 
ATOM     69  C   UNL     1      20.825  24.583  23.883  1.00  0.00     0.002 A 
ATOM     70  C   UNL     1      21.921  24.536  24.720  1.00  0.00     0.000 A 
BRANCH  66  71
ATOM     71  C   UNL     1      24.701  25.016  22.258  1.00  0.00     0.015 C 
ATOM     72  C   UNL     1      25.429  23.689  22.409  1.00  0.00     0.012 C 
ATOM     73  C   UNL     1      25.470  26.065  23.077  1.00  0.00     0.012 C 
ENDBRANCH  66  71
ENDBRANCH  63  65
ENDBRANCH  59  60
ENDBRANCH  58  59
ENDBRANCH  55  58
ENDBRANCH  53  54
ENDBRANCH  50  53
ENDBRANCH  47  50
ENDBRANCH   5  47
BRANCH   4  74
ATOM     74  N   UNL     1      20.319  19.560  11.603  1.00  0.00    -0.348 N 
ATOM     75  C   UNL     1      19.220  19.109  10.857  1.00  0.00     0.217 C 
ATOM     76  H   UNL     1      20.370  19.265  12.624  1.00  0.00     0.163 HD
ATOM     77  C   UNL     1      18.195  18.244  11.533  1.00  0.00     0.114 C 
ATOM     78  O   UNL     1      19.091  19.414   9.664  1.00  0.00    -0.275 OA
ENDBRANCH   4  74
TORSDOF 31
