REMARK VINA RESULT:    -5.616      3.469      8.531
REMARK INTER + INTRA:         -21.355
REMARK INTER:                 -13.270
REMARK INTRA:                  -8.085
REMARK UNBOUND:                -7.203
REMARK SMILES CC(=O)N[C@@H]1[C@@H](O)C[C@](OC[C@H]2O[C@@H](O[C@H]3[C@H](O)[C@@H](O)[C@H](OCCN=[N+]=[N-])O[C@@H]3CO)[C@H](O)[C@@H](O)[C@H]2O)(C(=O)O)O[C@H]1C(O)[C@H](O)CNC(=O)OCc1cn(CC2=CC[C@H]3C[C@@H]2C3(C)C)nn1
REMARK SMILES IDX 9 1 8 2 6 3 5 4 42 5 41 6 10 7 11 8 12 9 14 10 13 11 32 12
REMARK SMILES IDX 34 13 36 14 15 15 16 16 29 17 28 18 21 19 17 20 19 21 30 22
REMARK SMILES IDX 31 23 22 25 23 26 24 27 25 28 26 29 27 30 18 31 20 33 33 35
REMARK SMILES IDX 35 37 37 39 38 41 39 42 40 43 7 45 43 47 44 48 45 50 46 51
REMARK SMILES IDX 47 53 48 54 49 55 50 57 51 58 52 59 53 60 54 61 67 62 55 63
REMARK SMILES IDX 66 64 56 65 57 66 58 67 62 68 59 69 61 70 63 71 60 72 64 73
REMARK SMILES IDX 65 74 4 75 2 76 1 78 3 79
REMARK H PARENT 31 24 18 32 20 34 33 36 35 38 37 40 40 44 7 46 44 49 46 52
REMARK H PARENT 48 56 4 77
REMARK Flexibility Score: inf
ROOT
ATOM      1  C   UNL     1      21.293  30.191  19.371  1.00  0.00     0.272 C 
ATOM      2  C   UNL     1      20.180  30.695  20.229  1.00  0.00     0.113 C 
ATOM      3  C   UNL     1      19.279  29.528  20.668  1.00  0.00     0.145 C 
ATOM      4  C   UNL     1      18.644  28.886  19.488  1.00  0.00     0.142 C 
ATOM      5  C   UNL     1      19.394  29.371  18.265  1.00  0.00     0.178 C 
ATOM      6  O   UNL     1      20.730  29.279  18.414  1.00  0.00    -0.332 OA
ENDROOT
BRANCH   1   7
ATOM      7  O   UNL     1      22.245  29.488  19.965  1.00  0.00    -0.338 OA
BRANCH   7   8
ATOM      8  C   UNL     1      23.304  28.911  19.458  1.00  0.00     0.199 C 
BRANCH   8   9
ATOM      9  C   UNL     1      23.651  27.484  19.531  1.00  0.00     0.179 C 
ATOM     10  C   UNL     1      24.079  25.880  21.141  1.00  0.00     0.282 C 
ATOM     11  O   UNL     1      23.460  27.099  20.893  1.00  0.00    -0.341 OA
ATOM     12  C   UNL     1      23.922  24.861  20.104  1.00  0.00     0.202 C 
ATOM     13  C   UNL     1      23.265  25.213  18.829  1.00  0.00     0.179 C 
ATOM     14  C   UNL     1      22.614  26.574  18.843  1.00  0.00     0.177 C 
BRANCH  10  15
ATOM     15  O   UNL     1      23.491  25.431  22.339  1.00  0.00    -0.341 OA
BRANCH  15  16
ATOM     16  C   UNL     1      22.995  26.467  23.109  1.00  0.00     0.184 C 
ATOM     17  C   UNL     1      23.733  26.542  24.415  1.00  0.00     0.178 C 
ATOM     18  O   UNL     1      23.090  27.289  25.387  1.00  0.00    -0.341 OA
ATOM     19  C   UNL     1      22.016  28.023  24.978  1.00  0.00     0.281 C 
ATOM     20  C   UNL     1      21.545  26.107  23.449  1.00  0.00     0.180 C 
ATOM     21  C   UNL     1      20.956  27.209  24.276  1.00  0.00     0.202 C 
BRANCH  17  22
ATOM     22  C   UNL     1      25.107  27.165  24.144  1.00  0.00     0.191 C 
BRANCH  22  23
ATOM     23  O   UNL     1      24.944  28.155  23.186  1.00  0.00    -0.394 OA
ATOM     24  H   UNL     1      25.858  28.477  22.917  1.00  0.00     0.210 HD
ENDBRANCH  22  23
ENDBRANCH  17  22
BRANCH  19  25
ATOM     25  O   UNL     1      22.393  29.084  24.144  1.00  0.00    -0.350 OA
BRANCH  25  26
ATOM     26  C   UNL     1      22.610  30.259  24.864  1.00  0.00     0.169 C 
BRANCH  26  27
ATOM     27  C   UNL     1      21.285  30.556  25.570  1.00  0.00     0.119 C 
BRANCH  27  28
ATOM     28  N   UNL     1      21.016  31.977  25.506  1.00  0.00    -0.092 NA
ATOM     29  N   UNL     1      21.566  32.709  24.703  1.00  0.00     0.001 N 
ATOM     30  N   UNL     1      22.247  33.436  23.970  1.00  0.00    -0.003 NA
ENDBRANCH  27  28
ENDBRANCH  26  27
ENDBRANCH  25  26
ENDBRANCH  19  25
BRANCH  20  31
ATOM     31  O   UNL     1      20.795  25.997  22.265  1.00  0.00    -0.387 OA
ATOM     32  H   UNL     1      19.834  25.998  22.467  1.00  0.00     0.211 HD
ENDBRANCH  20  31
BRANCH  21  33
ATOM     33  O   UNL     1      20.012  26.747  25.192  1.00  0.00    -0.385 OA
ATOM     34  H   UNL     1      19.579  27.543  25.615  1.00  0.00     0.211 HD
ENDBRANCH  21  33
ENDBRANCH  15  16
ENDBRANCH  10  15
BRANCH  12  35
ATOM     35  O   UNL     1      25.220  24.372  19.793  1.00  0.00    -0.385 OA
ATOM     36  H   UNL     1      25.850  24.524  20.542  1.00  0.00     0.211 HD
ENDBRANCH  12  35
BRANCH  13  37
ATOM     37  O   UNL     1      22.394  24.211  18.388  1.00  0.00    -0.387 OA
ATOM     38  H   UNL     1      21.490  24.594  18.223  1.00  0.00     0.211 HD
ENDBRANCH  13  37
BRANCH  14  39
ATOM     39  O   UNL     1      21.501  26.499  19.705  1.00  0.00    -0.387 OA
ATOM     40  H   UNL     1      21.795  26.259  20.618  1.00  0.00     0.211 HD
ENDBRANCH  14  39
ENDBRANCH   8   9
ENDBRANCH   7   8
ENDBRANCH   1   7
BRANCH   1  41
ATOM     41  C   UNL     1      21.782  31.272  18.476  1.00  0.00     0.364 C 
ATOM     42  O   UNL     1      22.077  32.419  18.964  1.00  0.00    -0.246 OA
BRANCH  41  43
ATOM     43  O   UNL     1      21.938  31.129  17.138  1.00  0.00    -0.477 OA
ATOM     44  H   UNL     1      22.662  31.510  16.552  1.00  0.00     0.296 HD
ENDBRANCH  41  43
ENDBRANCH   1  41
BRANCH   3  45
ATOM     45  O   UNL     1      20.181  28.598  21.206  1.00  0.00    -0.391 OA
ATOM     46  H   UNL     1      20.709  29.060  21.903  1.00  0.00     0.211 HD
ENDBRANCH   3  45
BRANCH   5  47
ATOM     47  C   UNL     1      19.006  28.541  17.038  1.00  0.00     0.176 C 
BRANCH  47  48
ATOM     48  O   UNL     1      19.994  27.641  16.733  1.00  0.00    -0.388 OA
ATOM     49  H   UNL     1      19.699  26.688  16.710  1.00  0.00     0.211 HD
ENDBRANCH  47  48
BRANCH  47  50
ATOM     50  C   UNL     1      18.700  29.432  15.871  1.00  0.00     0.165 C 
BRANCH  50  51
ATOM     51  O   UNL     1      19.015  30.750  16.308  1.00  0.00    -0.388 OA
ATOM     52  H   UNL     1      18.248  31.296  15.947  1.00  0.00     0.211 HD
ENDBRANCH  50  51
BRANCH  50  53
ATOM     53  C   UNL     1      17.241  29.450  15.544  1.00  0.00     0.154 C 
BRANCH  53  54
ATOM     54  N   UNL     1      16.505  30.532  16.114  1.00  0.00    -0.319 N 
ATOM     55  C   UNL     1      15.090  30.513  16.114  1.00  0.00     0.407 C 
ATOM     56  H   UNL     1      17.027  31.338  16.540  1.00  0.00     0.167 HD
ATOM     57  O   UNL     1      14.479  29.557  15.619  1.00  0.00    -0.225 OA
BRANCH  55  58
ATOM     58  O   UNL     1      14.368  31.554  16.666  1.00  0.00    -0.443 OA
BRANCH  58  59
ATOM     59  C   UNL     1      13.147  31.466  17.319  1.00  0.00     0.294 C 
BRANCH  59  60
ATOM     60  C   UNL     1      13.150  31.992  18.715  1.00  0.00     0.120 A 
ATOM     61  C   UNL     1      14.219  32.125  19.568  1.00  0.00     0.138 A 
ATOM     62  N   UNL     1      12.070  32.452  19.405  1.00  0.00    -0.132 NA
ATOM     63  N   UNL     1      13.787  32.646  20.719  1.00  0.00    -0.248 N 
ATOM     64  N   UNL     1      12.488  32.833  20.594  1.00  0.00    -0.067 NA
BRANCH  63  65
ATOM     65  C   UNL     1      14.596  32.961  21.912  1.00  0.00     0.177 C 
BRANCH  65  66
ATOM     66  C   UNL     1      14.605  31.698  22.722  1.00  0.00    -0.049 C 
ATOM     67  C   UNL     1      15.593  30.792  22.572  1.00  0.00    -0.025 C 
ATOM     68  C   UNL     1      13.562  31.385  23.710  1.00  0.00     0.023 C 
ATOM     69  C   UNL     1      15.485  29.493  23.270  1.00  0.00     0.031 C 
ATOM     70  C   UNL     1      14.282  30.824  24.944  1.00  0.00     0.013 C 
ATOM     71  C   UNL     1      13.041  30.001  23.468  1.00  0.00    -0.026 C 
ATOM     72  C   UNL     1      14.297  29.489  24.189  1.00  0.00    -0.000 C 
ATOM     73  C   UNL     1      11.821  29.636  24.279  1.00  0.00     0.012 C 
ATOM     74  C   UNL     1      12.897  29.557  22.052  1.00  0.00     0.012 C 
ENDBRANCH  65  66
ENDBRANCH  63  65
ENDBRANCH  59  60
ENDBRANCH  58  59
ENDBRANCH  55  58
ENDBRANCH  53  54
ENDBRANCH  50  53
ENDBRANCH  47  50
ENDBRANCH   5  47
BRANCH   4  75
ATOM     75  N   UNL     1      17.260  29.138  19.280  1.00  0.00    -0.348 N 
ATOM     76  C   UNL     1      16.192  28.295  19.619  1.00  0.00     0.217 C 
ATOM     77  H   UNL     1      17.028  30.065  18.820  1.00  0.00     0.163 HD
ATOM     78  C   UNL     1      14.785  28.685  19.344  1.00  0.00     0.114 C 
ATOM     79  O   UNL     1      16.479  27.211  20.158  1.00  0.00    -0.275 OA
ENDBRANCH   4  75
TORSDOF 31
