REMARK VINA RESULT:    -6.326      0.000      0.000
REMARK INTER + INTRA:         -22.717
REMARK INTER:                 -16.974
REMARK INTRA:                  -5.743
REMARK UNBOUND:                -7.145
REMARK SMILES CC(=O)N[C@@H]1[C@@H](O)C[C@](OC[C@H]2O[C@@H](O[C@H]3[C@H](O)[C@@H](O)[C@H](OCCN=[N+]=[N-])O[C@@H]3CO)[C@H](O)[C@@H](O)[C@H]2O)(C(=O)O)O[C@H]1C(O)[C@H](O)CNC(=O)OCc1cn(-c2ccccc2Br)nn1
REMARK SMILES IDX 9 1 8 2 6 3 5 4 42 5 41 6 10 7 11 8 12 9 14 10 13 11 32 12
REMARK SMILES IDX 34 13 36 14 15 15 16 16 29 17 28 18 21 19 17 20 19 21 30 22
REMARK SMILES IDX 31 23 22 25 23 26 24 27 25 28 26 29 27 30 18 31 20 33 33 35
REMARK SMILES IDX 35 37 37 39 38 41 39 42 40 43 7 45 43 47 44 48 45 50 46 51
REMARK SMILES IDX 47 53 48 54 49 55 50 57 51 58 52 59 53 60 54 61 64 62 55 63
REMARK SMILES IDX 63 64 56 65 57 66 61 67 58 68 60 69 62 70 59 71 4 72 2 73
REMARK SMILES IDX 1 75 3 76
REMARK H PARENT 31 24 18 32 20 34 33 36 35 38 37 40 40 44 7 46 44 49 46 52
REMARK H PARENT 48 56 4 74
REMARK Flexibility Score: inf
ROOT
ATOM      1  C   UNL     1      30.242  18.943  18.905  1.00  0.00     0.272 C 
ATOM      2  C   UNL     1      29.121  18.534  19.784  1.00  0.00     0.113 C 
ATOM      3  C   UNL     1      29.431  18.757  21.229  1.00  0.00     0.145 C 
ATOM      4  C   UNL     1      30.070  20.059  21.560  1.00  0.00     0.142 C 
ATOM      5  C   UNL     1      30.565  20.770  20.349  1.00  0.00     0.178 C 
ATOM      6  O   UNL     1      31.005  20.015  19.315  1.00  0.00    -0.332 OA
ENDROOT
BRANCH   1   7
ATOM      7  O   UNL     1      29.896  19.252  17.602  1.00  0.00    -0.338 OA
BRANCH   7   8
ATOM      8  C   UNL     1      28.629  18.983  17.209  1.00  0.00     0.199 C 
BRANCH   8   9
ATOM      9  C   UNL     1      28.455  19.598  15.798  1.00  0.00     0.179 C 
ATOM     10  C   UNL     1      26.787  19.777  14.209  1.00  0.00     0.282 C 
ATOM     11  O   UNL     1      27.475  19.000  15.102  1.00  0.00    -0.341 OA
ATOM     12  C   UNL     1      27.674  20.757  13.475  1.00  0.00     0.202 C 
ATOM     13  C   UNL     1      28.436  21.630  14.449  1.00  0.00     0.179 C 
ATOM     14  C   UNL     1      28.361  21.070  15.857  1.00  0.00     0.177 C 
BRANCH  10  15
ATOM     15  O   UNL     1      25.672  20.386  14.766  1.00  0.00    -0.341 OA
BRANCH  15  16
ATOM     16  C   UNL     1      24.604  20.516  13.910  1.00  0.00     0.184 C 
ATOM     17  C   UNL     1      23.526  21.453  14.400  1.00  0.00     0.178 C 
ATOM     18  O   UNL     1      22.766  21.790  13.290  1.00  0.00    -0.341 OA
ATOM     19  C   UNL     1      22.196  20.745  12.636  1.00  0.00     0.281 C 
ATOM     20  C   UNL     1      23.888  19.184  13.717  1.00  0.00     0.180 C 
ATOM     21  C   UNL     1      22.635  19.381  12.971  1.00  0.00     0.202 C 
BRANCH  17  22
ATOM     22  C   UNL     1      24.030  22.696  15.053  1.00  0.00     0.191 C 
BRANCH  22  23
ATOM     23  O   UNL     1      25.217  23.085  14.436  1.00  0.00    -0.394 OA
ATOM     24  H   UNL     1      25.886  23.297  15.110  1.00  0.00     0.210 HD
ENDBRANCH  22  23
ENDBRANCH  17  22
BRANCH  19  25
ATOM     25  O   UNL     1      22.435  20.963  11.259  1.00  0.00    -0.350 OA
BRANCH  25  26
ATOM     26  C   UNL     1      21.659  20.190  10.441  1.00  0.00     0.169 C 
BRANCH  26  27
ATOM     27  C   UNL     1      20.326  20.768  10.081  1.00  0.00     0.119 C 
BRANCH  27  28
ATOM     28  N   UNL     1      19.337  19.718  10.270  1.00  0.00    -0.092 NA
ATOM     29  N   UNL     1      19.127  19.269  11.388  1.00  0.00     0.001 N 
ATOM     30  N   UNL     1      18.849  18.855  12.506  1.00  0.00    -0.003 NA
ENDBRANCH  27  28
ENDBRANCH  26  27
ENDBRANCH  25  26
ENDBRANCH  19  25
BRANCH  20  31
ATOM     31  O   UNL     1      24.692  18.264  13.064  1.00  0.00    -0.387 OA
ATOM     32  H   UNL     1      24.189  17.647  12.484  1.00  0.00     0.211 HD
ENDBRANCH  20  31
BRANCH  21  33
ATOM     33  O   UNL     1      21.629  18.692  13.712  1.00  0.00    -0.385 OA
ATOM     34  H   UNL     1      22.032  18.132  14.415  1.00  0.00     0.211 HD
ENDBRANCH  21  33
ENDBRANCH  15  16
ENDBRANCH  10  15
BRANCH  12  35
ATOM     35  O   UNL     1      28.520  20.108  12.574  1.00  0.00    -0.385 OA
ATOM     36  H   UNL     1      28.968  20.750  11.970  1.00  0.00     0.211 HD
ENDBRANCH  12  35
BRANCH  13  37
ATOM     37  O   UNL     1      28.027  22.946  14.363  1.00  0.00    -0.387 OA
ATOM     38  H   UNL     1      28.212  23.425  15.196  1.00  0.00     0.211 HD
ENDBRANCH  13  37
BRANCH  14  39
ATOM     39  O   UNL     1      27.199  21.545  16.440  1.00  0.00    -0.387 OA
ATOM     40  H   UNL     1      27.343  22.361  16.979  1.00  0.00     0.211 HD
ENDBRANCH  14  39
ENDBRANCH   8   9
ENDBRANCH   7   8
ENDBRANCH   1   7
BRANCH   1  41
ATOM     41  C   UNL     1      31.220  17.782  18.920  1.00  0.00     0.364 C 
ATOM     42  O   UNL     1      32.404  18.053  19.214  1.00  0.00    -0.246 OA
BRANCH  41  43
ATOM     43  O   UNL     1      30.873  16.496  18.633  1.00  0.00    -0.477 OA
ATOM     44  H   UNL     1      31.170  16.062  17.746  1.00  0.00     0.296 HD
ENDBRANCH  41  43
ENDBRANCH   1  41
BRANCH   3  45
ATOM     45  O   UNL     1      28.238  18.578  21.965  1.00  0.00    -0.391 OA
ATOM     46  H   UNL     1      27.483  18.608  21.315  1.00  0.00     0.211 HD
ENDBRANCH   3  45
BRANCH   5  47
ATOM     47  C   UNL     1      29.639  21.921  19.957  1.00  0.00     0.176 C 
BRANCH  47  48
ATOM     48  O   UNL     1      29.502  22.074  18.600  1.00  0.00    -0.388 OA
ATOM     49  H   UNL     1      29.801  21.256  18.105  1.00  0.00     0.211 HD
ENDBRANCH  47  48
BRANCH  47  50
ATOM     50  C   UNL     1      30.141  23.256  20.532  1.00  0.00     0.165 C 
BRANCH  50  51
ATOM     51  O   UNL     1      29.261  23.645  21.509  1.00  0.00    -0.388 OA
ATOM     52  H   UNL     1      29.627  24.140  22.263  1.00  0.00     0.211 HD
ENDBRANCH  50  51
BRANCH  50  53
ATOM     53  C   UNL     1      30.248  24.279  19.449  1.00  0.00     0.154 C 
BRANCH  53  54
ATOM     54  N   UNL     1      29.044  25.018  19.280  1.00  0.00    -0.319 N 
ATOM     55  C   UNL     1      28.179  25.017  18.166  1.00  0.00     0.407 C 
ATOM     56  H   UNL     1      28.739  25.657  20.081  1.00  0.00     0.167 HD
ATOM     57  O   UNL     1      28.414  24.309  17.183  1.00  0.00    -0.225 OA
BRANCH  55  58
ATOM     58  O   UNL     1      27.037  25.818  18.153  1.00  0.00    -0.443 OA
BRANCH  58  59
ATOM     59  C   UNL     1      26.550  26.535  19.262  1.00  0.00     0.294 C 
BRANCH  59  60
ATOM     60  C   UNL     1      25.837  25.627  20.218  1.00  0.00     0.121 A 
ATOM     61  C   UNL     1      24.649  25.949  20.875  1.00  0.00     0.144 A 
ATOM     62  N   UNL     1      26.164  24.413  20.628  1.00  0.00    -0.131 NA
ATOM     63  N   UNL     1      24.327  24.902  21.649  1.00  0.00    -0.219 N 
ATOM     64  N   UNL     1      25.244  23.977  21.496  1.00  0.00    -0.062 NA
BRANCH  63  65
ATOM     65  C   UNL     1      23.196  24.796  22.495  1.00  0.00     0.081 A 
ATOM     66  C   UNL     1      21.932  24.583  21.990  1.00  0.00     0.029 A 
ATOM     67  C   UNL     1      23.341  24.902  23.852  1.00  0.00     0.043 A 
ATOM     68  C   UNL     1      20.845  24.484  22.854  1.00  0.00     0.002 A 
ATOM     69  C   UNL     1      22.271  24.805  24.710  1.00  0.00     0.018 A 
ATOM     70  Br  UNL     1      25.071  25.200  24.591  1.00  0.00    -0.048 Br
ATOM     71  C   UNL     1      21.005  24.593  24.218  1.00  0.00     0.001 A 
ENDBRANCH  63  65
ENDBRANCH  59  60
ENDBRANCH  58  59
ENDBRANCH  55  58
ENDBRANCH  53  54
ENDBRANCH  50  53
ENDBRANCH  47  50
ENDBRANCH   5  47
BRANCH   4  72
ATOM     72  N   UNL     1      31.126  19.942  22.540  1.00  0.00    -0.348 N 
ATOM     73  C   UNL     1      31.029  20.570  23.805  1.00  0.00     0.217 C 
ATOM     74  H   UNL     1      31.979  19.390  22.325  1.00  0.00     0.163 HD
ATOM     75  C   UNL     1      32.167  20.397  24.757  1.00  0.00     0.114 C 
ATOM     76  O   UNL     1      30.038  21.248  24.136  1.00  0.00    -0.275 OA
ENDBRANCH   4  72
TORSDOF 30
