REMARK VINA RESULT:    -5.100      5.237     15.039
REMARK INTER + INTRA:         -21.713
REMARK INTER:                 -14.714
REMARK INTRA:                  -6.999
REMARK UNBOUND:                -8.562
REMARK SMILES CC(=O)N[C@@H]1[C@@H](O)C[C@](OC[C@H]2O[C@@H](O[C@H]3[C@H](O)[C@@H](O)[C@H](OCCN=[N+]=[N-])O[C@@H]3CO)[C@H](O)[C@@H](O)[C@H]2O)(C(=O)O)O[C@H]1C(O)[C@H](O)CNC(=O)OCc1cn(Cc2ccc(C#N)cc2)nn1
REMARK SMILES IDX 9 1 8 2 6 3 5 4 42 5 41 6 10 7 11 8 12 9 14 10 13 11 32 12
REMARK SMILES IDX 34 13 36 14 15 15 16 16 29 17 28 18 21 19 17 20 19 21 30 22
REMARK SMILES IDX 31 23 22 25 23 26 24 27 25 28 26 29 27 30 18 31 20 33 33 35
REMARK SMILES IDX 35 37 37 39 38 41 39 42 40 43 7 45 43 47 44 48 45 50 46 51
REMARK SMILES IDX 47 53 48 54 49 55 50 57 51 58 52 59 53 60 54 61 66 62 55 63
REMARK SMILES IDX 65 64 56 65 57 66 58 67 64 68 59 69 63 70 60 71 61 72 62 73
REMARK SMILES IDX 4 74 2 75 1 77 3 78
REMARK H PARENT 31 24 18 32 20 34 33 36 35 38 37 40 40 44 7 46 44 49 46 52
REMARK H PARENT 48 56 4 76
REMARK Flexibility Score: inf
ROOT
ATOM      1  C   UNL     1      22.472  27.008  27.304  1.00  0.00     0.272 C 
ATOM      2  C   UNL     1      22.267  25.541  27.458  1.00  0.00     0.113 C 
ATOM      3  C   UNL     1      23.031  24.688  26.510  1.00  0.00     0.145 C 
ATOM      4  C   UNL     1      23.208  25.479  25.203  1.00  0.00     0.142 C 
ATOM      5  C   UNL     1      22.046  26.422  25.126  1.00  0.00     0.178 C 
ATOM      6  O   UNL     1      22.223  27.459  25.998  1.00  0.00    -0.332 OA
ENDROOT
BRANCH   1   7
ATOM      7  O   UNL     1      23.676  27.503  27.756  1.00  0.00    -0.338 OA
BRANCH   7   8
ATOM      8  C   UNL     1      24.005  28.730  27.289  1.00  0.00     0.199 C 
BRANCH   8   9
ATOM      9  C   UNL     1      25.508  29.024  27.442  1.00  0.00     0.179 C 
ATOM     10  C   UNL     1      27.217  28.682  28.955  1.00  0.00     0.282 C 
ATOM     11  O   UNL     1      25.839  28.656  28.747  1.00  0.00    -0.341 OA
ATOM     12  C   UNL     1      27.962  27.724  28.084  1.00  0.00     0.202 C 
ATOM     13  C   UNL     1      26.992  27.033  27.155  1.00  0.00     0.179 C 
ATOM     14  C   UNL     1      26.229  28.147  26.452  1.00  0.00     0.177 C 
BRANCH  10  15
ATOM     15  O   UNL     1      27.431  28.319  30.282  1.00  0.00    -0.341 OA
BRANCH  15  16
ATOM     16  C   UNL     1      26.573  27.313  30.723  1.00  0.00     0.184 C 
ATOM     17  C   UNL     1      25.613  27.873  31.710  1.00  0.00     0.178 C 
ATOM     18  O   UNL     1      25.931  27.710  33.028  1.00  0.00    -0.341 OA
ATOM     19  C   UNL     1      27.191  27.244  33.303  1.00  0.00     0.281 C 
ATOM     20  C   UNL     1      27.301  26.084  31.160  1.00  0.00     0.180 C 
ATOM     21  C   UNL     1      27.363  25.890  32.652  1.00  0.00     0.202 C 
BRANCH  17  22
ATOM     22  C   UNL     1      24.209  27.365  31.389  1.00  0.00     0.191 C 
BRANCH  22  23
ATOM     23  O   UNL     1      24.295  26.591  30.232  1.00  0.00    -0.394 OA
ATOM     24  H   UNL     1      23.466  26.036  30.106  1.00  0.00     0.210 HD
ENDBRANCH  22  23
ENDBRANCH  17  22
BRANCH  19  25
ATOM     25  O   UNL     1      27.245  27.055  34.699  1.00  0.00    -0.350 OA
BRANCH  25  26
ATOM     26  C   UNL     1      26.135  26.350  35.144  1.00  0.00     0.169 C 
BRANCH  26  27
ATOM     27  C   UNL     1      26.360  25.814  36.544  1.00  0.00     0.119 C 
BRANCH  27  28
ATOM     28  N   UNL     1      27.764  25.570  36.818  1.00  0.00    -0.092 NA
ATOM     29  N   UNL     1      28.315  24.581  36.363  1.00  0.00     0.001 N 
ATOM     30  N   UNL     1      29.118  23.917  35.689  1.00  0.00    -0.003 NA
ENDBRANCH  27  28
ENDBRANCH  26  27
ENDBRANCH  25  26
ENDBRANCH  19  25
BRANCH  20  31
ATOM     31  O   UNL     1      26.843  24.922  30.526  1.00  0.00    -0.387 OA
ATOM     32  H   UNL     1      27.582  24.249  30.469  1.00  0.00     0.211 HD
ENDBRANCH  20  31
BRANCH  21  33
ATOM     33  O   UNL     1      28.562  25.296  33.051  1.00  0.00    -0.385 OA
ATOM     34  H   UNL     1      29.274  25.676  32.472  1.00  0.00     0.211 HD
ENDBRANCH  21  33
ENDBRANCH  15  16
ENDBRANCH  10  15
BRANCH  12  35
ATOM     35  O   UNL     1      28.962  28.292  27.326  1.00  0.00    -0.385 OA
ATOM     36  H   UNL     1      29.320  29.099  27.793  1.00  0.00     0.211 HD
ENDBRANCH  12  35
BRANCH  13  37
ATOM     37  O   UNL     1      26.165  26.223  27.916  1.00  0.00    -0.387 OA
ATOM     38  H   UNL     1      26.149  25.279  27.647  1.00  0.00     0.211 HD
ENDBRANCH  13  37
BRANCH  14  39
ATOM     39  O   UNL     1      25.419  27.697  25.438  1.00  0.00    -0.387 OA
ATOM     40  H   UNL     1      24.958  28.454  25.016  1.00  0.00     0.211 HD
ENDBRANCH  14  39
ENDBRANCH   8   9
ENDBRANCH   7   8
ENDBRANCH   1   7
BRANCH   1  41
ATOM     41  C   UNL     1      21.383  27.670  28.099  1.00  0.00     0.364 C 
ATOM     42  O   UNL     1      20.582  28.428  27.544  1.00  0.00    -0.246 OA
BRANCH  41  43
ATOM     43  O   UNL     1      21.301  27.412  29.447  1.00  0.00    -0.477 OA
ATOM     44  H   UNL     1      20.765  26.652  29.846  1.00  0.00     0.296 HD
ENDBRANCH  41  43
ENDBRANCH   1  41
BRANCH   3  45
ATOM     45  O   UNL     1      24.201  24.157  26.972  1.00  0.00    -0.391 OA
ATOM     46  H   UNL     1      24.896  24.167  26.283  1.00  0.00     0.211 HD
ENDBRANCH   3  45
BRANCH   5  47
ATOM     47  C   UNL     1      21.776  26.929  23.703  1.00  0.00     0.176 C 
BRANCH  47  48
ATOM     48  O   UNL     1      20.825  26.022  23.179  1.00  0.00    -0.388 OA
ATOM     49  H   UNL     1      20.560  25.406  23.907  1.00  0.00     0.211 HD
ENDBRANCH  47  48
BRANCH  47  50
ATOM     50  C   UNL     1      21.206  28.277  23.700  1.00  0.00     0.165 C 
BRANCH  50  51
ATOM     51  O   UNL     1      20.038  28.341  24.519  1.00  0.00    -0.388 OA
ATOM     52  H   UNL     1      20.098  27.507  25.082  1.00  0.00     0.211 HD
ENDBRANCH  50  51
BRANCH  50  53
ATOM     53  C   UNL     1      20.920  28.899  22.391  1.00  0.00     0.154 C 
BRANCH  53  54
ATOM     54  N   UNL     1      19.936  29.875  22.217  1.00  0.00    -0.319 N 
ATOM     55  C   UNL     1      19.982  31.262  22.451  1.00  0.00     0.407 C 
ATOM     56  H   UNL     1      18.981  29.538  21.845  1.00  0.00     0.167 HD
ATOM     57  O   UNL     1      20.993  31.853  22.854  1.00  0.00    -0.225 OA
BRANCH  55  58
ATOM     58  O   UNL     1      18.855  32.068  22.229  1.00  0.00    -0.443 OA
BRANCH  58  59
ATOM     59  C   UNL     1      17.875  32.212  23.243  1.00  0.00     0.294 C 
BRANCH  59  60
ATOM     60  C   UNL     1      17.006  30.983  23.231  1.00  0.00     0.120 A 
ATOM     61  C   UNL     1      15.946  30.794  22.369  1.00  0.00     0.138 A 
ATOM     62  N   UNL     1      17.062  29.885  24.008  1.00  0.00    -0.132 NA
ATOM     63  N   UNL     1      15.390  29.587  22.650  1.00  0.00    -0.248 N 
ATOM     64  N   UNL     1      16.086  29.095  23.622  1.00  0.00    -0.067 NA
BRANCH  63  65
ATOM     65  C   UNL     1      14.230  29.077  21.936  1.00  0.00     0.181 C 
BRANCH  65  66
ATOM     66  C   UNL     1      13.069  29.877  22.470  1.00  0.00    -0.026 A 
ATOM     67  C   UNL     1      12.509  29.494  23.663  1.00  0.00     0.007 A 
ATOM     68  C   UNL     1      12.590  30.977  21.753  1.00  0.00     0.007 A 
ATOM     69  C   UNL     1      11.444  30.161  24.225  1.00  0.00     0.020 A 
ATOM     70  C   UNL     1      11.529  31.642  22.314  1.00  0.00     0.020 A 
ATOM     71  C   UNL     1      10.978  31.258  23.493  1.00  0.00     0.052 A 
BRANCH  71  72
ATOM     72  C   UNL     1       9.838  31.970  24.057  1.00  0.00     0.099 C 
ATOM     73  N   UNL     1       8.924  32.548  24.489  1.00  0.00    -0.192 NA
ENDBRANCH  71  72
ENDBRANCH  65  66
ENDBRANCH  63  65
ENDBRANCH  59  60
ENDBRANCH  58  59
ENDBRANCH  55  58
ENDBRANCH  53  54
ENDBRANCH  50  53
ENDBRANCH  47  50
ENDBRANCH   5  47
BRANCH   4  74
ATOM     74  N   UNL     1      23.325  24.572  24.089  1.00  0.00    -0.348 N 
ATOM     75  C   UNL     1      24.540  24.551  23.354  1.00  0.00     0.217 C 
ATOM     76  H   UNL     1      22.564  23.936  23.805  1.00  0.00     0.163 HD
ATOM     77  C   UNL     1      24.734  23.651  22.203  1.00  0.00     0.114 C 
ATOM     78  O   UNL     1      25.510  25.318  23.669  1.00  0.00    -0.275 OA
ENDBRANCH   4  74
TORSDOF 32
