REMARK VINA RESULT:    -6.257      8.970     13.968
REMARK INTER + INTRA:         -20.960
REMARK INTER:                 -13.008
REMARK INTRA:                  -7.952
REMARK UNBOUND:                -4.828
REMARK SMILES CC(=O)N[C@@H]1[C@@H](O)C[C@](OC[C@H]2O[C@@H](O[C@H]3[C@H](O)[C@@H](O)[C@H](OCCN=[N+]=[N-])O[C@@H]3CO)[C@H](O)[C@@H](O)[C@H]2O)(C(=O)O)O[C@H]1C(O)[C@H](O)CNC(=O)OCc1cn(CCN2CCCC2)nn1
REMARK SMILES IDX 9 1 8 2 6 3 5 4 42 5 41 6 10 7 11 8 12 9 14 10 13 11 32 12
REMARK SMILES IDX 34 13 36 14 15 15 16 16 29 17 28 18 21 19 17 20 19 21 30 22
REMARK SMILES IDX 31 23 22 25 23 26 24 27 25 28 26 29 27 30 18 31 20 33 33 35
REMARK SMILES IDX 35 37 37 39 38 41 39 42 40 43 7 45 43 47 44 48 45 50 46 51
REMARK SMILES IDX 47 53 48 54 49 55 50 57 51 58 52 59 53 60 54 61 64 62 55 63
REMARK SMILES IDX 63 64 56 65 57 66 58 67 59 68 62 69 60 70 61 71 4 72 2 73
REMARK SMILES IDX 1 75 3 76
REMARK H PARENT 31 24 18 32 20 34 33 36 35 38 37 40 40 44 7 46 44 49 46 52
REMARK H PARENT 48 56 4 74
REMARK Flexibility Score: inf
ROOT
ATOM      1  C   UNL     1      23.168  23.239  11.727  1.00  0.00     0.272 C 
ATOM      2  C   UNL     1      23.640  23.305  10.309  1.00  0.00     0.113 C 
ATOM      3  C   UNL     1      24.691  22.221  10.035  1.00  0.00     0.145 C 
ATOM      4  C   UNL     1      25.906  22.592  10.932  1.00  0.00     0.142 C 
ATOM      5  C   UNL     1      25.392  22.700  12.321  1.00  0.00     0.178 C 
ATOM      6  O   UNL     1      24.036  22.365  12.394  1.00  0.00    -0.332 OA
ENDROOT
BRANCH   1   7
ATOM      7  O   UNL     1      21.934  22.592  11.836  1.00  0.00    -0.338 OA
BRANCH   7   8
ATOM      8  C   UNL     1      21.222  22.396  10.710  1.00  0.00     0.199 C 
BRANCH   8   9
ATOM      9  C   UNL     1      20.599  21.005  10.630  1.00  0.00     0.179 C 
ATOM     10  C   UNL     1      21.086  18.781  10.353  1.00  0.00     0.282 C 
ATOM     11  O   UNL     1      21.506  19.984  10.855  1.00  0.00    -0.341 OA
ATOM     12  C   UNL     1      19.622  18.603  10.569  1.00  0.00     0.202 C 
ATOM     13  C   UNL     1      19.197  19.414  11.780  1.00  0.00     0.179 C 
ATOM     14  C   UNL     1      19.398  20.899  11.549  1.00  0.00     0.177 C 
BRANCH  10  15
ATOM     15  O   UNL     1      21.856  17.705  10.683  1.00  0.00    -0.341 OA
BRANCH  15  16
ATOM     16  C   UNL     1      23.141  17.811  11.002  1.00  0.00     0.184 C 
ATOM     17  C   UNL     1      24.119  16.894  10.296  1.00  0.00     0.178 C 
ATOM     18  O   UNL     1      25.370  17.518  10.351  1.00  0.00    -0.341 OA
ATOM     19  C   UNL     1      25.835  17.313  11.682  1.00  0.00     0.281 C 
ATOM     20  C   UNL     1      23.480  17.686  12.477  1.00  0.00     0.180 C 
ATOM     21  C   UNL     1      24.926  18.131  12.577  1.00  0.00     0.202 C 
BRANCH  17  22
ATOM     22  C   UNL     1      23.746  16.551   8.894  1.00  0.00     0.191 C 
BRANCH  22  23
ATOM     23  O   UNL     1      22.715  15.617   8.939  1.00  0.00    -0.394 OA
ATOM     24  H   UNL     1      22.309  15.513   8.035  1.00  0.00     0.210 HD
ENDBRANCH  22  23
ENDBRANCH  17  22
BRANCH  19  25
ATOM     25  O   UNL     1      27.073  17.870  11.725  1.00  0.00    -0.350 OA
BRANCH  25  26
ATOM     26  C   UNL     1      27.683  18.258  10.582  1.00  0.00     0.169 C 
BRANCH  26  27
ATOM     27  C   UNL     1      28.114  19.678  10.464  1.00  0.00     0.119 C 
BRANCH  27  28
ATOM     28  N   UNL     1      27.990  20.235   9.139  1.00  0.00    -0.092 NA
ATOM     29  N   UNL     1      26.999  19.981   8.469  1.00  0.00     0.001 N 
ATOM     30  N   UNL     1      25.917  19.718   7.934  1.00  0.00    -0.003 NA
ENDBRANCH  27  28
ENDBRANCH  26  27
ENDBRANCH  25  26
ENDBRANCH  19  25
BRANCH  20  31
ATOM     31  O   UNL     1      22.742  18.576  13.243  1.00  0.00    -0.387 OA
ATOM     32  H   UNL     1      22.970  18.578  14.193  1.00  0.00     0.211 HD
ENDBRANCH  20  31
BRANCH  21  33
ATOM     33  O   UNL     1      25.381  18.212  13.872  1.00  0.00    -0.385 OA
ATOM     34  H   UNL     1      26.276  18.570  13.999  1.00  0.00     0.211 HD
ENDBRANCH  21  33
ENDBRANCH  15  16
ENDBRANCH  10  15
BRANCH  12  35
ATOM     35  O   UNL     1      18.844  19.046   9.493  1.00  0.00    -0.385 OA
ATOM     36  H   UNL     1      18.020  18.484   9.406  1.00  0.00     0.211 HD
ENDBRANCH  12  35
BRANCH  13  37
ATOM     37  O   UNL     1      19.983  19.066  12.883  1.00  0.00    -0.387 OA
ATOM     38  H   UNL     1      19.437  18.518  13.531  1.00  0.00     0.211 HD
ENDBRANCH  13  37
BRANCH  14  39
ATOM     39  O   UNL     1      19.650  21.465  12.797  1.00  0.00    -0.387 OA
ATOM     40  H   UNL     1      20.409  22.101  12.646  1.00  0.00     0.211 HD
ENDBRANCH  14  39
ENDBRANCH   8   9
ENDBRANCH   7   8
ENDBRANCH   1   7
BRANCH   1  41
ATOM     41  C   UNL     1      23.142  24.552  12.421  1.00  0.00     0.364 C 
ATOM     42  O   UNL     1      22.685  24.584  13.606  1.00  0.00    -0.246 OA
BRANCH  41  43
ATOM     43  O   UNL     1      23.565  25.747  11.902  1.00  0.00    -0.477 OA
ATOM     44  H   UNL     1      23.013  26.519  11.607  1.00  0.00     0.296 HD
ENDBRANCH  41  43
ENDBRANCH   1  41
BRANCH   3  45
ATOM     45  O   UNL     1      24.262  20.987  10.455  1.00  0.00    -0.391 OA
ATOM     46  H   UNL     1      24.196  20.324   9.717  1.00  0.00     0.211 HD
ENDBRANCH   3  45
BRANCH   5  47
ATOM     47  C   UNL     1      26.058  21.683  13.218  1.00  0.00     0.176 C 
BRANCH  47  48
ATOM     48  O   UNL     1      27.439  21.710  13.193  1.00  0.00    -0.388 OA
ATOM     49  H   UNL     1      27.842  22.582  12.990  1.00  0.00     0.211 HD
ENDBRANCH  47  48
BRANCH  47  50
ATOM     50  C   UNL     1      25.543  21.499  14.592  1.00  0.00     0.165 C 
BRANCH  50  51
ATOM     51  O   UNL     1      24.323  20.878  14.720  1.00  0.00    -0.388 OA
ATOM     52  H   UNL     1      24.033  20.338  13.952  1.00  0.00     0.211 HD
ENDBRANCH  50  51
BRANCH  50  53
ATOM     53  C   UNL     1      25.885  22.557  15.590  1.00  0.00     0.154 C 
BRANCH  53  54
ATOM     54  N   UNL     1      24.961  23.628  15.634  1.00  0.00    -0.319 N 
ATOM     55  C   UNL     1      25.355  24.982  15.915  1.00  0.00     0.407 C 
ATOM     56  H   UNL     1      23.942  23.457  15.453  1.00  0.00     0.167 HD
ATOM     57  O   UNL     1      26.534  25.314  16.140  1.00  0.00    -0.225 OA
BRANCH  55  58
ATOM     58  O   UNL     1      24.401  26.000  15.941  1.00  0.00    -0.443 OA
BRANCH  58  59
ATOM     59  C   UNL     1      24.081  26.650  17.175  1.00  0.00     0.294 C 
BRANCH  59  60
ATOM     60  C   UNL     1      23.542  25.683  18.152  1.00  0.00     0.120 A 
ATOM     61  C   UNL     1      23.766  25.491  19.486  1.00  0.00     0.138 A 
ATOM     62  N   UNL     1      22.627  24.727  17.820  1.00  0.00    -0.132 NA
ATOM     63  N   UNL     1      23.022  24.475  19.922  1.00  0.00    -0.251 N 
ATOM     64  N   UNL     1      22.323  24.016  18.863  1.00  0.00    -0.067 NA
BRANCH  63  65
ATOM     65  C   UNL     1      22.913  23.902  21.226  1.00  0.00     0.161 C 
BRANCH  65  66
ATOM     66  C   UNL     1      23.959  24.339  22.184  1.00  0.00     0.108 C 
BRANCH  66  67
ATOM     67  N   UNL     1      23.586  24.968  23.381  1.00  0.00    -0.301 NA
ATOM     68  C   UNL     1      22.231  25.203  23.681  1.00  0.00     0.084 C 
ATOM     69  C   UNL     1      24.311  24.575  24.551  1.00  0.00     0.084 C 
ATOM     70  C   UNL     1      21.984  24.740  25.110  1.00  0.00     0.017 C 
ATOM     71  C   UNL     1      23.354  24.589  25.703  1.00  0.00     0.017 C 
ENDBRANCH  66  67
ENDBRANCH  65  66
ENDBRANCH  63  65
ENDBRANCH  59  60
ENDBRANCH  58  59
ENDBRANCH  55  58
ENDBRANCH  53  54
ENDBRANCH  50  53
ENDBRANCH  47  50
ENDBRANCH   5  47
BRANCH   4  72
ATOM     72  N   UNL     1      26.442  23.823  10.382  1.00  0.00    -0.348 N 
ATOM     73  C   UNL     1      27.821  24.177  10.430  1.00  0.00     0.217 C 
ATOM     74  H   UNL     1      25.819  24.508   9.919  1.00  0.00     0.163 HD
ATOM     75  C   UNL     1      28.266  25.485   9.835  1.00  0.00     0.114 C 
ATOM     76  O   UNL     1      28.626  23.408  10.958  1.00  0.00    -0.275 OA
ENDBRANCH   4  72
TORSDOF 32
