REMARK VINA RESULT:    -6.048      4.969      9.981
REMARK INTER + INTRA:         -20.931
REMARK INTER:                 -15.048
REMARK INTRA:                  -5.883
REMARK UNBOUND:                -6.043
REMARK SMILES CC(=O)N[C@@H]1[C@@H](O)C[C@](OC[C@H]2O[C@@H](O[C@H]3[C@H](O)[C@@H](O)[C@H](OCCN=[N+]=[N-])O[C@@H]3CO)[C@H](O)[C@@H](O)[C@H]2O)(C(=O)O)O[C@H]1C(O)[C@H](O)CNC(=O)OCc1cn(-c2ccccc2I)nn1
REMARK SMILES IDX 9 1 8 2 6 3 5 4 42 5 41 6 10 7 11 8 12 9 14 10 13 11 32 12
REMARK SMILES IDX 34 13 36 14 15 15 16 16 29 17 28 18 21 19 17 20 19 21 30 22
REMARK SMILES IDX 31 23 22 25 23 26 24 27 25 28 26 29 27 30 18 31 20 33 33 35
REMARK SMILES IDX 35 37 37 39 38 41 39 42 40 43 7 45 43 47 44 48 45 50 46 51
REMARK SMILES IDX 47 53 48 54 49 55 50 57 51 58 52 59 53 60 54 61 64 62 55 63
REMARK SMILES IDX 63 64 56 65 57 66 61 67 58 68 60 69 62 70 59 71 4 72 2 73
REMARK SMILES IDX 1 75 3 76
REMARK H PARENT 31 24 18 32 20 34 33 36 35 38 37 40 40 44 7 46 44 49 46 52
REMARK H PARENT 48 56 4 74
REMARK Flexibility Score: inf
ROOT
ATOM      1  C   UNL     1      23.011  24.735  22.093  1.00  0.00     0.272 C 
ATOM      2  C   UNL     1      23.856  23.500  21.966  1.00  0.00     0.113 C 
ATOM      3  C   UNL     1      25.308  23.772  22.398  1.00  0.00     0.145 C 
ATOM      4  C   UNL     1      25.841  24.805  21.364  1.00  0.00     0.142 C 
ATOM      5  C   UNL     1      24.865  25.946  21.287  1.00  0.00     0.178 C 
ATOM      6  O   UNL     1      23.946  25.798  22.333  1.00  0.00    -0.332 OA
ENDROOT
BRANCH   1   7
ATOM      7  O   UNL     1      22.168  24.828  23.156  1.00  0.00    -0.338 OA
BRANCH   7   8
ATOM      8  C   UNL     1      22.243  25.613  24.189  1.00  0.00     0.199 C 
BRANCH   8   9
ATOM      9  C   UNL     1      21.162  26.560  24.529  1.00  0.00     0.179 C 
ATOM     10  C   UNL     1      21.636  27.685  26.459  1.00  0.00     0.282 C 
ATOM     11  O   UNL     1      20.857  26.749  25.835  1.00  0.00    -0.341 OA
ATOM     12  C   UNL     1      21.215  29.093  26.057  1.00  0.00     0.202 C 
ATOM     13  C   UNL     1      20.672  29.027  24.611  1.00  0.00     0.179 C 
ATOM     14  C   UNL     1      21.449  27.948  23.881  1.00  0.00     0.177 C 
BRANCH  10  15
ATOM     15  O   UNL     1      22.973  27.464  26.541  1.00  0.00    -0.341 OA
BRANCH  15  16
ATOM     16  C   UNL     1      23.428  26.931  27.725  1.00  0.00     0.184 C 
ATOM     17  C   UNL     1      22.583  25.835  28.319  1.00  0.00     0.178 C 
ATOM     18  O   UNL     1      22.795  25.749  29.692  1.00  0.00    -0.341 OA
ATOM     19  C   UNL     1      24.073  26.159  30.091  1.00  0.00     0.281 C 
ATOM     20  C   UNL     1      23.322  28.062  28.772  1.00  0.00     0.180 C 
ATOM     21  C   UNL     1      24.273  27.638  29.884  1.00  0.00     0.202 C 
BRANCH  17  22
ATOM     22  C   UNL     1      22.691  24.510  27.636  1.00  0.00     0.191 C 
BRANCH  22  23
ATOM     23  O   UNL     1      22.973  23.563  28.627  1.00  0.00    -0.394 OA
ATOM     24  H   UNL     1      22.113  23.134  28.890  1.00  0.00     0.210 HD
ENDBRANCH  22  23
ENDBRANCH  17  22
BRANCH  19  25
ATOM     25  O   UNL     1      25.065  25.383  29.576  1.00  0.00    -0.350 OA
BRANCH  25  26
ATOM     26  C   UNL     1      26.308  25.797  29.939  1.00  0.00     0.169 C 
BRANCH  26  27
ATOM     27  C   UNL     1      26.807  25.369  31.283  1.00  0.00     0.119 C 
BRANCH  27  28
ATOM     28  N   UNL     1      28.212  25.092  31.384  1.00  0.00    -0.092 NA
ATOM     29  N   UNL     1      28.896  25.309  30.367  1.00  0.00     0.001 N 
ATOM     30  N   UNL     1      29.738  25.378  29.471  1.00  0.00    -0.003 NA
ENDBRANCH  27  28
ENDBRANCH  26  27
ENDBRANCH  25  26
ENDBRANCH  19  25
BRANCH  20  31
ATOM     31  O   UNL     1      23.693  29.274  28.223  1.00  0.00    -0.387 OA
ATOM     32  H   UNL     1      23.768  29.919  28.975  1.00  0.00     0.211 HD
ENDBRANCH  20  31
BRANCH  21  33
ATOM     33  O   UNL     1      24.060  28.390  31.038  1.00  0.00    -0.385 OA
ATOM     34  H   UNL     1      23.282  27.978  31.537  1.00  0.00     0.211 HD
ENDBRANCH  21  33
ENDBRANCH  15  16
ENDBRANCH  10  15
BRANCH  12  35
ATOM     35  O   UNL     1      20.165  29.582  26.823  1.00  0.00    -0.385 OA
ATOM     36  H   UNL     1      19.506  28.844  26.908  1.00  0.00     0.211 HD
ENDBRANCH  12  35
BRANCH  13  37
ATOM     37  O   UNL     1      20.708  30.218  23.958  1.00  0.00    -0.387 OA
ATOM     38  H   UNL     1      20.732  31.035  24.542  1.00  0.00     0.211 HD
ENDBRANCH  13  37
BRANCH  14  39
ATOM     39  O   UNL     1      22.804  28.173  24.056  1.00  0.00    -0.387 OA
ATOM     40  H   UNL     1      23.226  27.365  24.487  1.00  0.00     0.211 HD
ENDBRANCH  14  39
ENDBRANCH   8   9
ENDBRANCH   7   8
ENDBRANCH   1   7
BRANCH   1  41
ATOM     41  C   UNL     1      22.334  25.019  20.814  1.00  0.00     0.364 C 
ATOM     42  O   UNL     1      22.363  24.283  19.813  1.00  0.00    -0.246 OA
BRANCH  41  43
ATOM     43  O   UNL     1      21.582  26.202  20.649  1.00  0.00    -0.477 OA
ATOM     44  H   UNL     1      21.259  26.459  19.705  1.00  0.00     0.296 HD
ENDBRANCH  41  43
ENDBRANCH   1  41
BRANCH   3  45
ATOM     45  O   UNL     1      25.389  24.275  23.678  1.00  0.00    -0.391 OA
ATOM     46  H   UNL     1      26.061  23.778  24.202  1.00  0.00     0.211 HD
ENDBRANCH   3  45
BRANCH   5  47
ATOM     47  C   UNL     1      25.592  27.266  21.659  1.00  0.00     0.176 C 
BRANCH  47  48
ATOM     48  O   UNL     1      25.385  27.417  23.084  1.00  0.00    -0.388 OA
ATOM     49  H   UNL     1      25.678  26.538  23.475  1.00  0.00     0.211 HD
ENDBRANCH  47  48
BRANCH  47  50
ATOM     50  C   UNL     1      24.881  28.468  21.112  1.00  0.00     0.165 C 
BRANCH  50  51
ATOM     51  O   UNL     1      23.501  28.372  21.434  1.00  0.00    -0.388 OA
ATOM     52  H   UNL     1      23.200  29.171  21.934  1.00  0.00     0.211 HD
ENDBRANCH  50  51
BRANCH  50  53
ATOM     53  C   UNL     1      25.003  28.774  19.681  1.00  0.00     0.154 C 
BRANCH  53  54
ATOM     54  N   UNL     1      23.893  29.502  19.095  1.00  0.00    -0.319 N 
ATOM     55  C   UNL     1      22.854  28.770  18.445  1.00  0.00     0.407 C 
ATOM     56  H   UNL     1      23.799  30.537  19.115  1.00  0.00     0.167 HD
ATOM     57  O   UNL     1      22.935  27.500  18.388  1.00  0.00    -0.225 OA
BRANCH  55  58
ATOM     58  O   UNL     1      21.740  29.333  17.856  1.00  0.00    -0.443 OA
BRANCH  58  59
ATOM     59  C   UNL     1      20.649  28.528  17.433  1.00  0.00     0.294 C 
BRANCH  59  60
ATOM     60  C   UNL     1      19.594  28.579  18.508  1.00  0.00     0.121 A 
ATOM     61  C   UNL     1      18.313  29.071  18.421  1.00  0.00     0.144 A 
ATOM     62  N   UNL     1      19.744  28.140  19.770  1.00  0.00    -0.131 NA
ATOM     63  N   UNL     1      17.769  28.898  19.641  1.00  0.00    -0.219 N 
ATOM     64  N   UNL     1      18.641  28.333  20.453  1.00  0.00    -0.062 NA
BRANCH  63  65
ATOM     65  C   UNL     1      16.454  29.265  20.043  1.00  0.00     0.080 A 
ATOM     66  C   UNL     1      15.372  28.433  19.779  1.00  0.00     0.029 A 
ATOM     67  C   UNL     1      16.216  30.453  20.694  1.00  0.00     0.039 A 
ATOM     68  C   UNL     1      14.096  28.838  20.187  1.00  0.00     0.002 A 
ATOM     69  C   UNL     1      14.932  30.841  21.095  1.00  0.00     0.017 A 
ATOM     70  I   UNL     1      17.842  31.740  21.106  1.00  0.00    -0.042 I 
ATOM     71  C   UNL     1      13.860  30.025  20.839  1.00  0.00     0.001 A 
ENDBRANCH  63  65
ENDBRANCH  59  60
ENDBRANCH  58  59
ENDBRANCH  55  58
ENDBRANCH  53  54
ENDBRANCH  50  53
ENDBRANCH  47  50
ENDBRANCH   5  47
BRANCH   4  72
ATOM     72  N   UNL     1      26.050  24.074  20.168  1.00  0.00    -0.348 N 
ATOM     73  C   UNL     1      27.310  23.458  19.840  1.00  0.00     0.217 C 
ATOM     74  H   UNL     1      25.312  23.933  19.456  1.00  0.00     0.163 HD
ATOM     75  C   UNL     1      27.538  22.695  18.598  1.00  0.00     0.114 C 
ATOM     76  O   UNL     1      28.234  23.605  20.683  1.00  0.00    -0.275 OA
ENDBRANCH   4  72
TORSDOF 30
