REMARK VINA RESULT:    -5.963      0.000      0.000
REMARK INTER + INTRA:         -24.778
REMARK INTER:                 -16.461
REMARK INTRA:                  -8.316
REMARK UNBOUND:                -8.356
REMARK SMILES CC(=O)N[C@@H]1[C@@H](O)C[C@](OC[C@H]2O[C@@H](O[C@H]3[C@H](O)[C@@H](O)[C@H](OCCN=[N+]=[N-])O[C@@H]3CO)[C@H](O)[C@@H](O)[C@H]2O)(C(=O)O)O[C@H]1C(O)[C@H](O)CNC(=O)OCc1cn([C@@H](CCC(=O)O)C(=O)O)nn1
REMARK SMILES IDX 43 1 42 2 9 3 8 4 41 5 6 6 5 7 10 8 11 9 12 10 14 11 13 12
REMARK SMILES IDX 32 13 34 14 36 15 15 16 16 17 29 18 28 19 21 20 17 21 19 22
REMARK SMILES IDX 30 23 31 24 22 26 23 27 24 28 25 29 26 30 27 31 18 32 20 34
REMARK SMILES IDX 33 36 35 38 37 40 38 42 39 43 40 44 7 46 4 48 2 49 1 51 3 52
REMARK SMILES IDX 44 53 45 55 46 56 47 58 48 59 49 60 50 62 51 63 52 64 53 65
REMARK SMILES IDX 54 66 66 67 55 68 65 69 56 70 57 71 58 72 59 73 60 74 61 75
REMARK SMILES IDX 62 77 63 78 64 79
REMARK H PARENT 31 25 18 33 20 35 33 37 35 39 37 41 40 45 7 47 4 50 44 54
REMARK H PARENT 46 57 48 61 61 76 64 80
REMARK Flexibility Score: inf
ROOT
ATOM      1  C   UNL     1      15.031  33.034  22.005  1.00  0.00     0.176 C 
ENDROOT
BRANCH   1   2
ATOM      2  C   UNL     1      14.433  31.672  22.360  1.00  0.00     0.178 C 
ATOM      3  C   UNL     1      15.048  29.439  21.935  1.00  0.00     0.272 C 
ATOM      4  C   UNL     1      13.807  29.105  21.209  1.00  0.00     0.113 C 
ATOM      5  O   UNL     1      15.272  30.805  21.661  1.00  0.00    -0.332 OA
ATOM      6  C   UNL     1      13.011  30.328  20.843  1.00  0.00     0.145 C 
ATOM      7  C   UNL     1      13.058  31.472  21.791  1.00  0.00     0.142 C 
BRANCH   3   8
ATOM      8  O   UNL     1      16.138  28.768  21.420  1.00  0.00    -0.338 OA
BRANCH   8   9
ATOM      9  C   UNL     1      16.122  27.965  20.389  1.00  0.00     0.199 C 
BRANCH   9  10
ATOM     10  C   UNL     1      16.672  28.322  19.036  1.00  0.00     0.179 C 
ATOM     11  C   UNL     1      16.235  30.102  17.593  1.00  0.00     0.282 C 
ATOM     12  O   UNL     1      15.774  28.997  18.261  1.00  0.00    -0.341 OA
ATOM     13  C   UNL     1      16.762  31.091  18.609  1.00  0.00     0.202 C 
ATOM     14  C   UNL     1      17.951  30.492  19.289  1.00  0.00     0.179 C 
ATOM     15  C   UNL     1      18.024  29.012  19.169  1.00  0.00     0.177 C 
BRANCH  11  16
ATOM     16  O   UNL     1      15.163  30.690  16.918  1.00  0.00    -0.341 OA
BRANCH  16  17
ATOM     17  C   UNL     1      14.469  29.853  16.082  1.00  0.00     0.184 C 
ATOM     18  C   UNL     1      14.618  30.265  14.621  1.00  0.00     0.178 C 
ATOM     19  O   UNL     1      13.362  30.579  14.107  1.00  0.00    -0.341 OA
ATOM     20  C   UNL     1      12.888  31.784  14.697  1.00  0.00     0.281 C 
ATOM     21  C   UNL     1      13.000  29.985  16.433  1.00  0.00     0.180 C 
ATOM     22  C   UNL     1      12.607  31.446  16.130  1.00  0.00     0.202 C 
BRANCH  18  23
ATOM     23  C   UNL     1      15.154  29.092  13.819  1.00  0.00     0.191 C 
BRANCH  23  24
ATOM     24  O   UNL     1      14.514  27.910  14.140  1.00  0.00    -0.394 OA
ATOM     25  H   UNL     1      14.256  27.394  13.331  1.00  0.00     0.210 HD
ENDBRANCH  23  24
ENDBRANCH  18  23
BRANCH  20  26
ATOM     26  O   UNL     1      11.823  32.201  13.954  1.00  0.00    -0.350 OA
BRANCH  26  27
ATOM     27  C   UNL     1      11.195  31.234  13.219  1.00  0.00     0.169 C 
BRANCH  27  28
ATOM     28  C   UNL     1       9.740  31.023  13.585  1.00  0.00     0.119 C 
BRANCH  28  29
ATOM     29  N   UNL     1       9.586  30.287  14.824  1.00  0.00    -0.092 NA
ATOM     30  N   UNL     1       8.899  30.668  15.766  1.00  0.00     0.001 N 
ATOM     31  N   UNL     1       8.058  31.035  16.558  1.00  0.00    -0.003 NA
ENDBRANCH  28  29
ENDBRANCH  27  28
ENDBRANCH  26  27
ENDBRANCH  20  26
BRANCH  21  32
ATOM     32  O   UNL     1      12.195  29.108  15.717  1.00  0.00    -0.387 OA
ATOM     33  H   UNL     1      11.460  28.711  16.280  1.00  0.00     0.211 HD
ENDBRANCH  21  32
BRANCH  22  34
ATOM     34  O   UNL     1      13.511  32.206  16.914  1.00  0.00    -0.385 OA
ATOM     35  H   UNL     1      13.820  32.963  16.354  1.00  0.00     0.211 HD
ENDBRANCH  22  34
ENDBRANCH  16  17
ENDBRANCH  11  16
BRANCH  13  36
ATOM     36  O   UNL     1      17.103  32.296  17.991  1.00  0.00    -0.385 OA
ATOM     37  H   UNL     1      16.256  32.624  17.548  1.00  0.00     0.211 HD
ENDBRANCH  13  36
BRANCH  14  38
ATOM     38  O   UNL     1      18.044  30.877  20.630  1.00  0.00    -0.387 OA
ATOM     39  H   UNL     1      17.195  30.626  21.099  1.00  0.00     0.211 HD
ENDBRANCH  14  38
BRANCH  15  40
ATOM     40  O   UNL     1      18.642  28.544  20.332  1.00  0.00    -0.387 OA
ATOM     41  H   UNL     1      18.281  28.995  21.128  1.00  0.00     0.211 HD
ENDBRANCH  15  40
ENDBRANCH   9  10
ENDBRANCH   8   9
ENDBRANCH   3   8
BRANCH   3  42
ATOM     42  C   UNL     1      15.073  29.261  23.381  1.00  0.00     0.364 C 
ATOM     43  O   UNL     1      16.216  29.279  23.968  1.00  0.00    -0.246 OA
BRANCH  42  44
ATOM     44  O   UNL     1      14.013  29.066  24.246  1.00  0.00    -0.477 OA
ATOM     45  H   UNL     1      14.112  29.133  25.232  1.00  0.00     0.296 HD
ENDBRANCH  42  44
ENDBRANCH   3  42
BRANCH   6  46
ATOM     46  O   UNL     1      13.556  30.813  19.621  1.00  0.00    -0.391 OA
ATOM     47  H   UNL     1      13.204  31.715  19.411  1.00  0.00     0.211 HD
ENDBRANCH   6  46
BRANCH   7  48
ATOM     48  N   UNL     1      11.976  31.322  22.700  1.00  0.00    -0.348 N 
ATOM     49  C   UNL     1      11.171  32.393  23.163  1.00  0.00     0.217 C 
ATOM     50  H   UNL     1      11.699  30.389  23.064  1.00  0.00     0.163 HD
ATOM     51  C   UNL     1      10.041  32.162  24.131  1.00  0.00     0.114 C 
ATOM     52  O   UNL     1      11.380  33.541  22.781  1.00  0.00    -0.275 OA
ENDBRANCH   7  48
ENDBRANCH   1   2
BRANCH   1  53
ATOM     53  O   UNL     1      15.753  32.924  20.823  1.00  0.00    -0.388 OA
ATOM     54  H   UNL     1      16.727  32.900  21.022  1.00  0.00     0.211 HD
ENDBRANCH   1  53
BRANCH   1  55
ATOM     55  C   UNL     1      15.802  33.711  23.039  1.00  0.00     0.165 C 
BRANCH  55  56
ATOM     56  O   UNL     1      16.768  34.544  22.398  1.00  0.00    -0.388 OA
ATOM     57  H   UNL     1      17.102  35.183  23.070  1.00  0.00     0.211 HD
ENDBRANCH  55  56
BRANCH  55  58
ATOM     58  C   UNL     1      16.595  32.874  23.997  1.00  0.00     0.154 C 
BRANCH  58  59
ATOM     59  N   UNL     1      17.561  32.021  23.347  1.00  0.00    -0.319 N 
ATOM     60  C   UNL     1      18.782  31.603  23.954  1.00  0.00     0.407 C 
ATOM     61  H   UNL     1      17.377  31.695  22.385  1.00  0.00     0.167 HD
ATOM     62  O   UNL     1      19.076  31.962  25.093  1.00  0.00    -0.225 OA
BRANCH  60  63
ATOM     63  O   UNL     1      19.620  30.792  23.229  1.00  0.00    -0.443 OA
BRANCH  63  64
ATOM     64  C   UNL     1      20.903  30.426  23.646  1.00  0.00     0.294 C 
BRANCH  64  65
ATOM     65  C   UNL     1      20.924  28.983  23.988  1.00  0.00     0.120 A 
ATOM     66  C   UNL     1      21.821  28.008  23.606  1.00  0.00     0.139 A 
ATOM     67  N   UNL     1      20.003  28.342  24.757  1.00  0.00    -0.132 NA
ATOM     68  N   UNL     1      21.432  26.816  24.143  1.00  0.00    -0.238 N 
ATOM     69  N   UNL     1      20.319  27.066  24.836  1.00  0.00    -0.066 NA
BRANCH  68  70
ATOM     70  C   UNL     1      22.096  25.572  24.009  1.00  0.00     0.219 C 
BRANCH  70  71
ATOM     71  C   UNL     1      21.955  24.548  25.073  1.00  0.00     0.051 C 
BRANCH  71  72
ATOM     72  C   UNL     1      22.695  24.693  26.337  1.00  0.00     0.125 C 
BRANCH  72  73
ATOM     73  C   UNL     1      24.141  24.754  26.322  1.00  0.00     0.303 C 
ATOM     74  O   UNL     1      24.916  24.606  25.361  1.00  0.00    -0.252 OA
BRANCH  73  75
ATOM     75  O   UNL     1      24.827  25.016  27.551  1.00  0.00    -0.481 OA
ATOM     76  H   UNL     1      25.757  24.650  27.677  1.00  0.00     0.296 HD
ENDBRANCH  73  75
ENDBRANCH  72  73
ENDBRANCH  71  72
ENDBRANCH  70  71
BRANCH  70  77
ATOM     77  C   UNL     1      21.686  24.952  22.709  1.00  0.00     0.328 C 
ATOM     78  O   UNL     1      22.500  24.286  22.042  1.00  0.00    -0.250 OA
BRANCH  77  79
ATOM     79  O   UNL     1      20.406  25.093  22.205  1.00  0.00    -0.480 OA
ATOM     80  H   UNL     1      19.584  25.072  22.811  1.00  0.00     0.296 HD
ENDBRANCH  77  79
ENDBRANCH  70  77
ENDBRANCH  68  70
ENDBRANCH  64  65
ENDBRANCH  63  64
ENDBRANCH  60  63
ENDBRANCH  58  59
ENDBRANCH  55  58
ENDBRANCH   1  55
TORSDOF 36
