REMARK VINA RESULT:    -5.571      6.301     14.526
REMARK INTER + INTRA:         -22.659
REMARK INTER:                 -14.782
REMARK INTRA:                  -7.877
REMARK UNBOUND:                -8.458
REMARK SMILES CC(=O)N[C@@H]1[C@@H](O)C[C@](OC[C@H]2O[C@@H](O[C@H]3[C@H](O)[C@@H](O)[C@H](OCCN=[N+]=[N-])O[C@@H]3CO)[C@H](O)[C@@H](O)[C@H]2O)(C(=O)O)O[C@H]1C(O)[C@H](O)CNC(=O)OCc1cn(-c2ccc(O)c([N+](=O)[O-])c2)nn1
REMARK SMILES IDX 9 1 8 2 6 3 5 4 42 5 41 6 10 7 11 8 12 9 14 10 13 11 32 12
REMARK SMILES IDX 34 13 36 14 15 15 16 16 29 17 28 18 21 19 17 20 19 21 30 22
REMARK SMILES IDX 31 23 22 25 23 26 24 27 25 28 26 29 27 30 18 31 20 33 33 35
REMARK SMILES IDX 35 37 37 39 38 41 39 42 40 43 7 45 43 47 44 48 45 50 46 51
REMARK SMILES IDX 47 53 48 54 49 55 50 57 51 58 52 59 53 60 54 61 67 62 55 63
REMARK SMILES IDX 66 64 56 65 57 66 65 67 58 68 61 69 59 70 62 71 63 72 64 73
REMARK SMILES IDX 60 74 4 76 2 77 1 79 3 80
REMARK H PARENT 31 24 18 32 20 34 33 36 35 38 37 40 40 44 7 46 44 49 46 52
REMARK H PARENT 48 56 60 75 4 78
REMARK Flexibility Score: inf
ROOT
ATOM      1  C   UNL     1      24.953  27.703  26.029  1.00  0.00     0.272 C 
ATOM      2  C   UNL     1      26.021  26.707  26.520  1.00  0.00     0.113 C 
ATOM      3  C   UNL     1      25.326  25.433  26.991  1.00  0.00     0.145 C 
ATOM      4  C   UNL     1      24.563  25.871  28.268  1.00  0.00     0.142 C 
ATOM      5  C   UNL     1      23.935  27.217  28.041  1.00  0.00     0.178 C 
ATOM      6  O   UNL     1      23.757  27.460  26.666  1.00  0.00    -0.332 OA
ENDROOT
BRANCH   1   7
ATOM      7  O   UNL     1      24.817  27.431  24.681  1.00  0.00    -0.338 OA
BRANCH   7   8
ATOM      8  C   UNL     1      24.438  28.464  23.878  1.00  0.00     0.199 C 
BRANCH   8   9
ATOM      9  C   UNL     1      23.249  27.927  23.045  1.00  0.00     0.179 C 
ATOM     10  C   UNL     1      22.327  25.900  22.610  1.00  0.00     0.282 C 
ATOM     11  O   UNL     1      23.506  26.599  22.880  1.00  0.00    -0.341 OA
ATOM     12  C   UNL     1      21.558  25.839  23.883  1.00  0.00     0.202 C 
ATOM     13  C   UNL     1      21.158  27.235  24.286  1.00  0.00     0.179 C 
ATOM     14  C   UNL     1      21.990  28.319  23.710  1.00  0.00     0.177 C 
BRANCH  10  15
ATOM     15  O   UNL     1      22.638  24.645  22.070  1.00  0.00    -0.341 OA
BRANCH  15  16
ATOM     16  C   UNL     1      23.915  24.698  21.546  1.00  0.00     0.184 C 
ATOM     17  C   UNL     1      24.026  24.387  20.094  1.00  0.00     0.178 C 
ATOM     18  O   UNL     1      25.295  24.776  19.681  1.00  0.00    -0.341 OA
ATOM     19  C   UNL     1      26.278  23.890  20.215  1.00  0.00     0.281 C 
ATOM     20  C   UNL     1      24.800  23.635  22.250  1.00  0.00     0.180 C 
ATOM     21  C   UNL     1      26.207  23.846  21.696  1.00  0.00     0.202 C 
BRANCH  17  22
ATOM     22  C   UNL     1      22.998  25.012  19.211  1.00  0.00     0.191 C 
BRANCH  22  23
ATOM     23  O   UNL     1      22.304  24.053  18.494  1.00  0.00    -0.394 OA
ATOM     24  H   UNL     1      21.355  24.383  18.391  1.00  0.00     0.210 HD
ENDBRANCH  22  23
ENDBRANCH  17  22
BRANCH  19  25
ATOM     25  O   UNL     1      27.476  24.459  19.801  1.00  0.00    -0.350 OA
BRANCH  25  26
ATOM     26  C   UNL     1      28.168  23.695  18.881  1.00  0.00     0.169 C 
BRANCH  26  27
ATOM     27  C   UNL     1      27.310  22.621  18.289  1.00  0.00     0.119 C 
BRANCH  27  28
ATOM     28  N   UNL     1      27.944  21.332  18.554  1.00  0.00    -0.092 NA
ATOM     29  N   UNL     1      28.433  21.113  19.685  1.00  0.00     0.001 N 
ATOM     30  N   UNL     1      28.565  20.575  20.799  1.00  0.00    -0.003 NA
ENDBRANCH  27  28
ENDBRANCH  26  27
ENDBRANCH  25  26
ENDBRANCH  19  25
BRANCH  20  31
ATOM     31  O   UNL     1      24.854  23.864  23.615  1.00  0.00    -0.387 OA
ATOM     32  H   UNL     1      24.204  24.561  23.906  1.00  0.00     0.211 HD
ENDBRANCH  20  31
BRANCH  21  33
ATOM     33  O   UNL     1      26.949  22.772  22.182  1.00  0.00    -0.385 OA
ATOM     34  H   UNL     1      26.720  22.564  23.108  1.00  0.00     0.211 HD
ENDBRANCH  21  33
ENDBRANCH  15  16
ENDBRANCH  10  15
BRANCH  12  35
ATOM     35  O   UNL     1      20.431  25.026  23.810  1.00  0.00    -0.385 OA
ATOM     36  H   UNL     1      20.040  25.036  22.889  1.00  0.00     0.211 HD
ENDBRANCH  12  35
BRANCH  13  37
ATOM     37  O   UNL     1      21.081  27.247  25.684  1.00  0.00    -0.387 OA
ATOM     38  H   UNL     1      21.036  26.297  25.976  1.00  0.00     0.211 HD
ENDBRANCH  13  37
BRANCH  14  39
ATOM     39  O   UNL     1      22.194  29.294  24.711  1.00  0.00    -0.387 OA
ATOM     40  H   UNL     1      21.354  29.608  25.106  1.00  0.00     0.211 HD
ENDBRANCH  14  39
ENDBRANCH   8   9
ENDBRANCH   7   8
ENDBRANCH   1   7
BRANCH   1  41
ATOM     41  C   UNL     1      25.536  29.028  26.211  1.00  0.00     0.364 C 
ATOM     42  O   UNL     1      24.900  30.099  26.398  1.00  0.00    -0.246 OA
BRANCH  41  43
ATOM     43  O   UNL     1      26.925  29.169  26.185  1.00  0.00    -0.477 OA
ATOM     44  H   UNL     1      27.492  28.877  25.397  1.00  0.00     0.296 HD
ENDBRANCH  41  43
ENDBRANCH   1  41
BRANCH   3  45
ATOM     45  O   UNL     1      24.452  24.956  26.050  1.00  0.00    -0.391 OA
ATOM     46  H   UNL     1      24.911  24.896  25.178  1.00  0.00     0.211 HD
ENDBRANCH   3  45
BRANCH   5  47
ATOM     47  C   UNL     1      22.556  27.236  28.654  1.00  0.00     0.176 C 
BRANCH  47  48
ATOM     48  O   UNL     1      22.219  25.936  28.996  1.00  0.00    -0.388 OA
ATOM     49  H   UNL     1      22.960  25.453  29.439  1.00  0.00     0.211 HD
ENDBRANCH  47  48
BRANCH  47  50
ATOM     50  C   UNL     1      22.433  28.114  29.874  1.00  0.00     0.165 C 
BRANCH  50  51
ATOM     51  O   UNL     1      22.157  27.208  30.933  1.00  0.00    -0.388 OA
ATOM     52  H   UNL     1      21.195  26.944  30.934  1.00  0.00     0.211 HD
ENDBRANCH  50  51
BRANCH  50  53
ATOM     53  C   UNL     1      21.242  29.026  29.790  1.00  0.00     0.154 C 
BRANCH  53  54
ATOM     54  N   UNL     1      20.702  29.019  28.457  1.00  0.00    -0.319 N 
ATOM     55  C   UNL     1      20.460  30.158  27.660  1.00  0.00     0.407 C 
ATOM     56  H   UNL     1      20.455  28.085  28.007  1.00  0.00     0.167 HD
ATOM     57  O   UNL     1      20.727  31.266  28.144  1.00  0.00    -0.225 OA
BRANCH  55  58
ATOM     58  O   UNL     1      19.951  30.125  26.382  1.00  0.00    -0.443 OA
BRANCH  58  59
ATOM     59  C   UNL     1      19.454  31.288  25.770  1.00  0.00     0.294 C 
BRANCH  59  60
ATOM     60  C   UNL     1      19.202  30.982  24.331  1.00  0.00     0.121 A 
ATOM     61  C   UNL     1      18.006  30.497  23.794  1.00  0.00     0.144 A 
ATOM     62  N   UNL     1      20.007  31.079  23.265  1.00  0.00    -0.131 NA
ATOM     63  N   UNL     1      18.157  30.337  22.484  1.00  0.00    -0.220 N 
ATOM     64  N   UNL     1      19.397  30.706  22.197  1.00  0.00    -0.062 NA
BRANCH  63  65
ATOM     65  C   UNL     1      17.169  29.853  21.557  1.00  0.00     0.073 A 
ATOM     66  C   UNL     1      15.847  29.844  21.882  1.00  0.00     0.033 A 
ATOM     67  C   UNL     1      17.517  29.385  20.319  1.00  0.00     0.118 A 
ATOM     68  C   UNL     1      14.866  29.394  21.030  1.00  0.00     0.056 A 
ATOM     69  C   UNL     1      16.534  28.917  19.424  1.00  0.00     0.312 A 
ATOM     70  C   UNL     1      15.203  28.908  19.746  1.00  0.00     0.194 A 
BRANCH  69  71
ATOM     71  N   UNL     1      16.979  28.459  18.172  1.00  0.00     0.066 N 
ATOM     72  O   UNL     1      16.312  28.817  17.151  1.00  0.00    -0.258 OA
ATOM     73  O   UNL     1      18.071  27.664  18.042  1.00  0.00    -0.258 OA
ENDBRANCH  69  71
BRANCH  70  74
ATOM     74  O   UNL     1      14.177  28.470  18.928  1.00  0.00    -0.502 OA
ATOM     75  H   UNL     1      13.885  27.547  18.882  1.00  0.00     0.293 HD
ENDBRANCH  70  74
ENDBRANCH  63  65
ENDBRANCH  59  60
ENDBRANCH  58  59
ENDBRANCH  55  58
ENDBRANCH  53  54
ENDBRANCH  50  53
ENDBRANCH  47  50
ENDBRANCH   5  47
BRANCH   4  76
ATOM     76  N   UNL     1      25.584  25.898  29.296  1.00  0.00    -0.348 N 
ATOM     77  C   UNL     1      25.317  25.426  30.623  1.00  0.00     0.217 C 
ATOM     78  H   UNL     1      26.535  26.259  29.099  1.00  0.00     0.163 HD
ATOM     79  C   UNL     1      26.377  25.464  31.658  1.00  0.00     0.114 C 
ATOM     80  O   UNL     1      24.160  24.979  30.883  1.00  0.00    -0.275 OA
ENDBRANCH   4  76
TORSDOF 32
