REMARK VINA RESULT:    -5.558      2.737     12.500
REMARK INTER + INTRA:         -22.626
REMARK INTER:                 -16.497
REMARK INTRA:                  -6.129
REMARK UNBOUND:                -8.458
REMARK SMILES CC(=O)N[C@@H]1[C@@H](O)C[C@](OC[C@H]2O[C@@H](O[C@H]3[C@H](O)[C@@H](O)[C@H](OCCN=[N+]=[N-])O[C@@H]3CO)[C@H](O)[C@@H](O)[C@H]2O)(C(=O)O)O[C@H]1C(O)[C@H](O)CNC(=O)OCc1cn(-c2ccc(O)c([N+](=O)[O-])c2)nn1
REMARK SMILES IDX 9 1 8 2 6 3 5 4 42 5 41 6 10 7 11 8 12 9 14 10 13 11 32 12
REMARK SMILES IDX 34 13 36 14 15 15 16 16 29 17 28 18 21 19 17 20 19 21 30 22
REMARK SMILES IDX 31 23 22 25 23 26 24 27 25 28 26 29 27 30 18 31 20 33 33 35
REMARK SMILES IDX 35 37 37 39 38 41 39 42 40 43 7 45 43 47 44 48 45 50 46 51
REMARK SMILES IDX 47 53 48 54 49 55 50 57 51 58 52 59 53 60 54 61 67 62 55 63
REMARK SMILES IDX 66 64 56 65 57 66 65 67 58 68 61 69 59 70 62 71 63 72 64 73
REMARK SMILES IDX 60 74 4 76 2 77 1 79 3 80
REMARK H PARENT 31 24 18 32 20 34 33 36 35 38 37 40 40 44 7 46 44 49 46 52
REMARK H PARENT 48 56 60 75 4 78
REMARK Flexibility Score: inf
ROOT
ATOM      1  C   UNL     1      17.192  29.837  21.246  1.00  0.00     0.272 C 
ATOM      2  C   UNL     1      17.895  30.995  21.979  1.00  0.00     0.113 C 
ATOM      3  C   UNL     1      17.785  30.765  23.483  1.00  0.00     0.145 C 
ATOM      4  C   UNL     1      16.275  30.953  23.784  1.00  0.00     0.142 C 
ATOM      5  C   UNL     1      15.463  30.296  22.702  1.00  0.00     0.178 C 
ATOM      6  O   UNL     1      16.212  29.299  22.051  1.00  0.00    -0.332 OA
ENDROOT
BRANCH   1   7
ATOM      7  O   UNL     1      18.187  28.897  21.047  1.00  0.00    -0.338 OA
BRANCH   7   8
ATOM      8  C   UNL     1      19.113  29.175  20.088  1.00  0.00     0.199 C 
BRANCH   8   9
ATOM      9  C   UNL     1      20.483  28.835  20.724  1.00  0.00     0.179 C 
ATOM     10  C   UNL     1      21.484  26.993  21.588  1.00  0.00     0.282 C 
ATOM     11  O   UNL     1      20.278  27.671  21.401  1.00  0.00    -0.341 OA
ATOM     12  C   UNL     1      21.878  26.434  20.265  1.00  0.00     0.202 C 
ATOM     13  C   UNL     1      22.155  27.569  19.313  1.00  0.00     0.179 C 
ATOM     14  C   UNL     1      21.514  28.859  19.667  1.00  0.00     0.177 C 
BRANCH  10  15
ATOM     15  O   UNL     1      21.330  26.027  22.592  1.00  0.00    -0.341 OA
BRANCH  15  16
ATOM     16  C   UNL     1      22.034  26.437  23.706  1.00  0.00     0.184 C 
ATOM     17  C   UNL     1      22.959  25.425  24.290  1.00  0.00     0.178 C 
ATOM     18  O   UNL     1      23.786  26.088  25.188  1.00  0.00    -0.341 OA
ATOM     19  C   UNL     1      23.047  26.467  26.348  1.00  0.00     0.281 C 
ATOM     20  C   UNL     1      21.036  26.769  24.848  1.00  0.00     0.180 C 
ATOM     21  C   UNL     1      21.889  27.321  25.987  1.00  0.00     0.202 C 
BRANCH  17  22
ATOM     22  C   UNL     1      23.788  24.659  23.314  1.00  0.00     0.191 C 
BRANCH  22  23
ATOM     23  O   UNL     1      22.996  23.909  22.463  1.00  0.00    -0.394 OA
ATOM     24  H   UNL     1      23.196  22.937  22.644  1.00  0.00     0.210 HD
ENDBRANCH  22  23
ENDBRANCH  17  22
BRANCH  19  25
ATOM     25  O   UNL     1      23.973  27.190  27.092  1.00  0.00    -0.350 OA
BRANCH  25  26
ATOM     26  C   UNL     1      24.337  26.578  28.276  1.00  0.00     0.169 C 
BRANCH  26  27
ATOM     27  C   UNL     1      23.454  25.413  28.597  1.00  0.00     0.119 C 
BRANCH  27  28
ATOM     28  N   UNL     1      22.810  25.670  29.884  1.00  0.00    -0.092 NA
ATOM     29  N   UNL     1      21.819  26.432  29.930  1.00  0.00     0.001 N 
ATOM     30  N   UNL     1      20.636  26.774  30.105  1.00  0.00    -0.003 NA
ENDBRANCH  27  28
ENDBRANCH  26  27
ENDBRANCH  25  26
ENDBRANCH  19  25
BRANCH  20  31
ATOM     31  O   UNL     1      20.162  27.772  24.461  1.00  0.00    -0.387 OA
ATOM     32  H   UNL     1      19.250  27.422  24.265  1.00  0.00     0.211 HD
ENDBRANCH  20  31
BRANCH  21  33
ATOM     33  O   UNL     1      21.017  27.433  27.067  1.00  0.00    -0.385 OA
ATOM     34  H   UNL     1      20.389  26.686  27.104  1.00  0.00     0.211 HD
ENDBRANCH  21  33
ENDBRANCH  15  16
ENDBRANCH  10  15
BRANCH  12  35
ATOM     35  O   UNL     1      22.981  25.589  20.327  1.00  0.00    -0.385 OA
ATOM     36  H   UNL     1      23.349  25.546  21.256  1.00  0.00     0.211 HD
ENDBRANCH  12  35
BRANCH  13  37
ATOM     37  O   UNL     1      21.849  27.105  18.029  1.00  0.00    -0.387 OA
ATOM     38  H   UNL     1      22.373  27.662  17.391  1.00  0.00     0.211 HD
ENDBRANCH  13  37
BRANCH  14  39
ATOM     39  O   UNL     1      21.047  29.457  18.476  1.00  0.00    -0.387 OA
ATOM     40  H   UNL     1      20.952  30.429  18.556  1.00  0.00     0.211 HD
ENDBRANCH  14  39
ENDBRANCH   8   9
ENDBRANCH   7   8
ENDBRANCH   1   7
BRANCH   1  41
ATOM     41  C   UNL     1      16.762  30.383  19.964  1.00  0.00     0.364 C 
ATOM     42  O   UNL     1      16.117  29.768  19.074  1.00  0.00    -0.246 OA
BRANCH  41  43
ATOM     43  O   UNL     1      17.069  31.709  19.653  1.00  0.00    -0.477 OA
ATOM     44  H   UNL     1      17.992  32.106  19.793  1.00  0.00     0.296 HD
ENDBRANCH  41  43
ENDBRANCH   1  41
BRANCH   3  45
ATOM     45  O   UNL     1      18.190  29.505  23.833  1.00  0.00    -0.391 OA
ATOM     46  H   UNL     1      18.480  29.018  23.025  1.00  0.00     0.211 HD
ENDBRANCH   3  45
BRANCH   5  47
ATOM     47  C   UNL     1      14.278  29.597  23.322  1.00  0.00     0.176 C 
BRANCH  47  48
ATOM     48  O   UNL     1      13.814  30.379  24.367  1.00  0.00    -0.388 OA
ATOM     49  H   UNL     1      12.840  30.549  24.314  1.00  0.00     0.211 HD
ENDBRANCH  47  48
BRANCH  47  50
ATOM     50  C   UNL     1      13.144  29.333  22.363  1.00  0.00     0.165 C 
BRANCH  50  51
ATOM     51  O   UNL     1      13.596  28.240  21.576  1.00  0.00    -0.388 OA
ATOM     52  H   UNL     1      13.191  28.265  20.665  1.00  0.00     0.211 HD
ENDBRANCH  50  51
BRANCH  50  53
ATOM     53  C   UNL     1      12.943  30.474  21.407  1.00  0.00     0.154 C 
BRANCH  53  54
ATOM     54  N   UNL     1      11.909  31.351  21.888  1.00  0.00    -0.319 N 
ATOM     55  C   UNL     1      12.111  32.605  22.502  1.00  0.00     0.407 C 
ATOM     56  H   UNL     1      10.891  31.052  21.784  1.00  0.00     0.167 HD
ATOM     57  O   UNL     1      13.278  32.991  22.651  1.00  0.00    -0.225 OA
BRANCH  55  58
ATOM     58  O   UNL     1      11.104  33.430  22.946  1.00  0.00    -0.443 OA
BRANCH  58  59
ATOM     59  C   UNL     1       9.885  33.522  22.255  1.00  0.00     0.294 C 
BRANCH  59  60
ATOM     60  C   UNL     1       8.823  32.905  23.106  1.00  0.00     0.121 A 
ATOM     61  C   UNL     1       8.822  31.595  23.592  1.00  0.00     0.144 A 
ATOM     62  N   UNL     1       7.679  33.415  23.579  1.00  0.00    -0.131 NA
ATOM     63  N   UNL     1       7.717  31.400  24.302  1.00  0.00    -0.220 N 
ATOM     64  N   UNL     1       7.041  32.540  24.271  1.00  0.00    -0.062 NA
BRANCH  63  65
ATOM     65  C   UNL     1       7.324  30.188  24.969  1.00  0.00     0.073 A 
ATOM     66  C   UNL     1       6.301  30.182  25.867  1.00  0.00     0.033 A 
ATOM     67  C   UNL     1       7.958  29.000  24.726  1.00  0.00     0.118 A 
ATOM     68  C   UNL     1       5.888  29.049  26.528  1.00  0.00     0.056 A 
ATOM     69  C   UNL     1       7.556  27.822  25.388  1.00  0.00     0.312 A 
ATOM     70  C   UNL     1       6.527  27.811  26.292  1.00  0.00     0.194 A 
BRANCH  69  71
ATOM     71  N   UNL     1       8.258  26.645  25.076  1.00  0.00     0.066 N 
ATOM     72  O   UNL     1       7.569  25.615  24.792  1.00  0.00    -0.258 OA
ATOM     73  O   UNL     1       9.614  26.593  25.078  1.00  0.00    -0.258 OA
ENDBRANCH  69  71
BRANCH  70  74
ATOM     74  O   UNL     1       6.068  26.701  26.980  1.00  0.00    -0.502 OA
ATOM     75  H   UNL     1       5.470  26.752  27.741  1.00  0.00     0.293 HD
ENDBRANCH  70  74
ENDBRANCH  63  65
ENDBRANCH  59  60
ENDBRANCH  58  59
ENDBRANCH  55  58
ENDBRANCH  53  54
ENDBRANCH  50  53
ENDBRANCH  47  50
ENDBRANCH   5  47
BRANCH   4  76
ATOM     76  N   UNL     1      16.100  32.391  23.817  1.00  0.00    -0.348 N 
ATOM     77  C   UNL     1      15.736  33.069  25.027  1.00  0.00     0.217 C 
ATOM     78  H   UNL     1      16.232  32.969  22.967  1.00  0.00     0.163 HD
ATOM     79  C   UNL     1      15.562  34.540  25.038  1.00  0.00     0.114 C 
ATOM     80  O   UNL     1      15.571  32.379  26.078  1.00  0.00    -0.275 OA
ENDBRANCH   4  76
TORSDOF 32
