REMARK VINA RESULT:    -6.022      0.000      0.000
REMARK INTER + INTRA:         -23.129
REMARK INTER:                 -14.346
REMARK INTRA:                  -8.783
REMARK UNBOUND:                -7.602
REMARK SMILES CC(=O)N[C@@H]1[C@@H](O)C[C@](OC[C@H]2O[C@@H](O[C@H]3[C@H](O)[C@@H](O)[C@H](OCCN=[N+]=[N-])O[C@@H]3CO)[C@H](O)[C@@H](O)[C@H]2O)(C(=O)O)O[C@H]1C(O)[C@H](O)CNC(=O)OCc1cn(CC(=O)Nc2ncccn2)nn1
REMARK SMILES IDX 9 1 8 2 6 3 5 4 42 5 41 6 10 7 11 8 12 9 14 10 13 11 32 12
REMARK SMILES IDX 34 13 36 14 15 15 16 16 29 17 28 18 21 19 17 20 19 21 30 22
REMARK SMILES IDX 31 23 22 25 23 26 24 27 25 28 26 29 27 30 18 31 20 33 33 35
REMARK SMILES IDX 35 37 37 39 38 41 39 42 40 43 7 45 43 47 44 48 45 50 46 51
REMARK SMILES IDX 47 53 48 54 49 55 50 57 51 58 52 59 53 60 54 61 67 62 55 63
REMARK SMILES IDX 66 64 56 65 57 66 58 67 59 68 60 70 61 71 65 72 62 73 64 74
REMARK SMILES IDX 63 75 4 76 2 77 1 79 3 80
REMARK H PARENT 31 24 18 32 20 34 33 36 35 38 37 40 40 44 7 46 44 49 46 52
REMARK H PARENT 48 56 59 69 4 78
REMARK Flexibility Score: inf
ROOT
ATOM      1  C   UNL     1      21.188  28.127  19.239  1.00  0.00     0.272 C 
ATOM      2  C   UNL     1      22.556  28.673  18.868  1.00  0.00     0.113 C 
ATOM      3  C   UNL     1      23.479  28.605  20.017  1.00  0.00     0.145 C 
ATOM      4  C   UNL     1      23.471  27.296  20.791  1.00  0.00     0.142 C 
ATOM      5  C   UNL     1      22.198  26.581  20.720  1.00  0.00     0.178 C 
ATOM      6  O   UNL     1      21.549  26.753  19.505  1.00  0.00    -0.332 OA
ENDROOT
BRANCH   1   7
ATOM      7  O   UNL     1      20.426  28.102  18.153  1.00  0.00    -0.338 OA
BRANCH   7   8
ATOM      8  C   UNL     1      20.121  28.832  17.157  1.00  0.00     0.199 C 
BRANCH   8   9
ATOM      9  C   UNL     1      18.857  29.586  16.910  1.00  0.00     0.179 C 
ATOM     10  C   UNL     1      16.695  29.138  16.151  1.00  0.00     0.282 C 
ATOM     11  O   UNL     1      17.940  28.617  16.315  1.00  0.00    -0.341 OA
ATOM     12  C   UNL     1      15.940  29.119  17.520  1.00  0.00     0.202 C 
ATOM     13  C   UNL     1      17.078  28.985  18.512  1.00  0.00     0.179 C 
ATOM     14  C   UNL     1      18.093  30.071  18.086  1.00  0.00     0.177 C 
BRANCH  10  15
ATOM     15  O   UNL     1      15.960  28.330  15.274  1.00  0.00    -0.341 OA
BRANCH  15  16
ATOM     16  C   UNL     1      15.754  28.929  14.037  1.00  0.00     0.184 C 
ATOM     17  C   UNL     1      16.527  30.254  14.030  1.00  0.00     0.178 C 
ATOM     18  O   UNL     1      15.709  31.308  13.653  1.00  0.00    -0.341 OA
ATOM     19  C   UNL     1      14.671  31.499  14.577  1.00  0.00     0.281 C 
ATOM     20  C   UNL     1      14.305  29.128  13.795  1.00  0.00     0.180 C 
ATOM     21  C   UNL     1      13.697  30.376  14.359  1.00  0.00     0.202 C 
BRANCH  17  22
ATOM     22  C   UNL     1      17.653  30.182  13.013  1.00  0.00     0.191 C 
BRANCH  22  23
ATOM     23  O   UNL     1      18.375  28.995  13.151  1.00  0.00    -0.394 OA
ATOM     24  H   UNL     1      18.112  28.490  13.968  1.00  0.00     0.210 HD
ENDBRANCH  22  23
ENDBRANCH  17  22
BRANCH  19  25
ATOM     25  O   UNL     1      14.099  32.715  14.255  1.00  0.00    -0.350 OA
BRANCH  25  26
ATOM     26  C   UNL     1      14.691  33.792  14.879  1.00  0.00     0.169 C 
BRANCH  26  27
ATOM     27  C   UNL     1      14.983  33.572  16.348  1.00  0.00     0.119 C 
BRANCH  27  28
ATOM     28  N   UNL     1      13.801  33.777  17.169  1.00  0.00    -0.092 NA
ATOM     29  N   UNL     1      13.202  32.834  17.697  1.00  0.00     0.001 N 
ATOM     30  N   UNL     1      12.670  31.778  18.021  1.00  0.00    -0.003 NA
ENDBRANCH  27  28
ENDBRANCH  26  27
ENDBRANCH  25  26
ENDBRANCH  19  25
BRANCH  20  31
ATOM     31  O   UNL     1      14.081  29.198  12.392  1.00  0.00    -0.387 OA
ATOM     32  H   UNL     1      14.292  30.121  12.072  1.00  0.00     0.211 HD
ENDBRANCH  20  31
BRANCH  21  33
ATOM     33  O   UNL     1      13.070  30.064  15.561  1.00  0.00    -0.385 OA
ATOM     34  H   UNL     1      13.120  30.837  16.172  1.00  0.00     0.211 HD
ENDBRANCH  21  33
ENDBRANCH  15  16
ENDBRANCH  10  15
BRANCH  12  35
ATOM     35  O   UNL     1      15.403  30.395  17.727  1.00  0.00    -0.385 OA
ATOM     36  H   UNL     1      14.998  30.668  16.860  1.00  0.00     0.211 HD
ENDBRANCH  12  35
BRANCH  13  37
ATOM     37  O   UNL     1      17.624  27.732  18.560  1.00  0.00    -0.387 OA
ATOM     38  H   UNL     1      17.997  27.493  19.431  1.00  0.00     0.211 HD
ENDBRANCH  13  37
BRANCH  14  39
ATOM     39  O   UNL     1      18.731  30.503  19.194  1.00  0.00    -0.387 OA
ATOM     40  H   UNL     1      18.275  30.225  20.027  1.00  0.00     0.211 HD
ENDBRANCH  14  39
ENDBRANCH   8   9
ENDBRANCH   7   8
ENDBRANCH   1   7
BRANCH   1  41
ATOM     41  C   UNL     1      20.584  28.680  20.433  1.00  0.00     0.364 C 
ATOM     42  O   UNL     1      19.591  28.088  20.977  1.00  0.00    -0.246 OA
BRANCH  41  43
ATOM     43  O   UNL     1      20.981  29.832  21.069  1.00  0.00    -0.477 OA
ATOM     44  H   UNL     1      20.379  30.522  21.452  1.00  0.00     0.296 HD
ENDBRANCH  41  43
ENDBRANCH   1  41
BRANCH   3  45
ATOM     45  O   UNL     1      24.782  28.840  19.511  1.00  0.00    -0.391 OA
ATOM     46  H   UNL     1      25.448  28.407  20.127  1.00  0.00     0.211 HD
ENDBRANCH   3  45
BRANCH   5  47
ATOM     47  C   UNL     1      22.308  25.040  20.859  1.00  0.00     0.176 C 
BRANCH  47  48
ATOM     48  O   UNL     1      23.373  24.479  20.266  1.00  0.00    -0.388 OA
ATOM     49  H   UNL     1      23.320  23.492  20.132  1.00  0.00     0.211 HD
ENDBRANCH  47  48
BRANCH  47  50
ATOM     50  C   UNL     1      21.735  24.467  22.061  1.00  0.00     0.165 C 
BRANCH  50  51
ATOM     51  O   UNL     1      20.566  25.360  22.345  1.00  0.00    -0.388 OA
ATOM     52  H   UNL     1      19.900  25.199  21.658  1.00  0.00     0.211 HD
ENDBRANCH  50  51
BRANCH  50  53
ATOM     53  C   UNL     1      22.399  24.269  23.333  1.00  0.00     0.154 C 
BRANCH  53  54
ATOM     54  N   UNL     1      22.073  24.801  24.573  1.00  0.00    -0.319 N 
ATOM     55  C   UNL     1      22.764  24.977  25.790  1.00  0.00     0.407 C 
ATOM     56  H   UNL     1      21.021  25.176  24.620  1.00  0.00     0.167 HD
ATOM     57  O   UNL     1      23.944  24.604  25.921  1.00  0.00    -0.225 OA
BRANCH  55  58
ATOM     58  O   UNL     1      22.166  25.570  26.873  1.00  0.00    -0.443 OA
BRANCH  58  59
ATOM     59  C   UNL     1      21.972  26.883  27.153  1.00  0.00     0.294 C 
BRANCH  59  60
ATOM     60  C   UNL     1      21.275  27.639  26.088  1.00  0.00     0.120 A 
ATOM     61  C   UNL     1      21.269  29.030  25.924  1.00  0.00     0.138 A 
ATOM     62  N   UNL     1      20.453  27.199  25.095  1.00  0.00    -0.132 NA
ATOM     63  N   UNL     1      20.486  29.375  24.896  1.00  0.00    -0.243 N 
ATOM     64  N   UNL     1      20.011  28.237  24.421  1.00  0.00    -0.067 NA
BRANCH  63  65
ATOM     65  C   UNL     1      20.181  30.689  24.364  1.00  0.00     0.246 C 
BRANCH  65  66
ATOM     66  C   UNL     1      18.728  30.682  23.938  1.00  0.00     0.248 C 
ATOM     67  O   UNL     1      17.800  30.923  24.748  1.00  0.00    -0.272 OA
ATOM     68  N   UNL     1      18.387  30.400  22.593  1.00  0.00    -0.293 N 
ATOM     69  H   UNL     1      19.202  30.206  21.960  1.00  0.00     0.173 HD
BRANCH  68  70
ATOM     70  C   UNL     1      17.085  30.371  22.050  1.00  0.00     0.229 A 
ATOM     71  N   UNL     1      16.499  31.403  21.418  1.00  0.00    -0.221 NA
ATOM     72  N   UNL     1      16.371  29.234  22.180  1.00  0.00    -0.221 NA
ATOM     73  C   UNL     1      15.231  31.338  20.916  1.00  0.00     0.117 A 
ATOM     74  C   UNL     1      15.130  29.114  21.707  1.00  0.00     0.117 A 
ATOM     75  C   UNL     1      14.528  30.161  21.064  1.00  0.00     0.040 A 
ENDBRANCH  68  70
ENDBRANCH  65  66
ENDBRANCH  63  65
ENDBRANCH  59  60
ENDBRANCH  58  59
ENDBRANCH  55  58
ENDBRANCH  53  54
ENDBRANCH  50  53
ENDBRANCH  47  50
ENDBRANCH   5  47
BRANCH   4  76
ATOM     76  N   UNL     1      23.987  27.608  22.090  1.00  0.00    -0.348 N 
ATOM     77  C   UNL     1      25.009  26.794  22.707  1.00  0.00     0.217 C 
ATOM     78  H   UNL     1      23.645  28.437  22.645  1.00  0.00     0.163 HD
ATOM     79  C   UNL     1      25.501  27.177  24.047  1.00  0.00     0.114 C 
ATOM     80  O   UNL     1      25.457  25.793  22.112  1.00  0.00    -0.275 OA
ENDBRANCH   4  76
TORSDOF 32
