REMARK VINA RESULT:    -6.531      8.022     13.887
REMARK INTER + INTRA:         -22.182
REMARK INTER:                 -15.961
REMARK INTRA:                  -6.221
REMARK UNBOUND:                -5.152
REMARK SMILES CC(=O)N[C@@H]1[C@@H](O)C[C@](OC[C@H]2O[C@@H](O[C@H]3[C@H](O)[C@@H](O)[C@H](OCCN=[N+]=[N-])O[C@@H]3CO)[C@H](O)[C@@H](O)[C@H]2O)(C(=O)O)O[C@H]1C(O)[C@H](O)CNC(=O)OCc1cn(CC(O)c2ccccc2)nn1
REMARK SMILES IDX 9 1 8 2 6 3 5 4 42 5 41 6 10 7 11 8 12 9 14 10 13 11 32 12
REMARK SMILES IDX 34 13 36 14 15 15 16 16 29 17 28 18 21 19 17 20 19 21 30 22
REMARK SMILES IDX 31 23 22 25 23 26 24 27 25 28 26 29 27 30 18 31 20 33 33 35
REMARK SMILES IDX 35 37 37 39 38 41 39 42 40 43 7 45 43 47 44 48 45 50 46 51
REMARK SMILES IDX 47 53 48 54 49 55 50 57 51 58 52 59 53 60 54 61 66 62 55 63
REMARK SMILES IDX 65 64 56 65 57 66 58 67 59 69 60 70 64 71 61 72 63 73 62 74
REMARK SMILES IDX 4 75 2 76 1 78 3 79
REMARK H PARENT 31 24 18 32 20 34 33 36 35 38 37 40 40 44 7 46 44 49 46 52
REMARK H PARENT 48 56 58 68 4 77
REMARK Flexibility Score: inf
ROOT
ATOM      1  C   UNL     1      16.276  29.784  21.855  1.00  0.00     0.272 C 
ATOM      2  C   UNL     1      15.416  28.721  21.283  1.00  0.00     0.113 C 
ATOM      3  C   UNL     1      15.540  28.468  19.822  1.00  0.00     0.145 C 
ATOM      4  C   UNL     1      16.272  29.607  19.187  1.00  0.00     0.142 C 
ATOM      5  C   UNL     1      15.794  30.886  19.853  1.00  0.00     0.178 C 
ATOM      6  O   UNL     1      16.093  30.994  21.176  1.00  0.00    -0.332 OA
ENDROOT
BRANCH   1   7
ATOM      7  O   UNL     1      17.619  29.557  21.902  1.00  0.00    -0.338 OA
BRANCH   7   8
ATOM      8  C   UNL     1      18.457  30.622  21.784  1.00  0.00     0.199 C 
BRANCH   8   9
ATOM      9  C   UNL     1      19.901  30.207  21.951  1.00  0.00     0.179 C 
ATOM     10  C   UNL     1      21.084  28.301  22.457  1.00  0.00     0.282 C 
ATOM     11  O   UNL     1      19.997  29.081  22.745  1.00  0.00    -0.341 OA
ATOM     12  C   UNL     1      21.082  27.688  21.074  1.00  0.00     0.202 C 
ATOM     13  C   UNL     1      20.415  28.666  20.133  1.00  0.00     0.179 C 
ATOM     14  C   UNL     1      20.670  30.055  20.682  1.00  0.00     0.177 C 
BRANCH  10  15
ATOM     15  O   UNL     1      21.202  27.227  23.335  1.00  0.00    -0.341 OA
BRANCH  15  16
ATOM     16  C   UNL     1      21.953  27.459  24.454  1.00  0.00     0.184 C 
ATOM     17  C   UNL     1      23.401  27.574  23.993  1.00  0.00     0.178 C 
ATOM     18  O   UNL     1      24.088  26.397  24.207  1.00  0.00    -0.341 OA
ATOM     19  C   UNL     1      23.323  25.349  23.665  1.00  0.00     0.281 C 
ATOM     20  C   UNL     1      21.756  26.259  25.372  1.00  0.00     0.180 C 
ATOM     21  C   UNL     1      22.273  24.992  24.711  1.00  0.00     0.202 C 
BRANCH  17  22
ATOM     22  C   UNL     1      24.085  28.757  24.655  1.00  0.00     0.191 C 
BRANCH  22  23
ATOM     23  O   UNL     1      23.284  29.317  25.646  1.00  0.00    -0.394 OA
ATOM     24  H   UNL     1      23.779  29.443  26.499  1.00  0.00     0.210 HD
ENDBRANCH  22  23
ENDBRANCH  17  22
BRANCH  19  25
ATOM     25  O   UNL     1      24.192  24.317  23.405  1.00  0.00    -0.350 OA
BRANCH  25  26
ATOM     26  C   UNL     1      24.230  23.890  22.099  1.00  0.00     0.169 C 
BRANCH  26  27
ATOM     27  C   UNL     1      25.166  24.671  21.219  1.00  0.00     0.119 C 
BRANCH  27  28
ATOM     28  N   UNL     1      24.710  24.604  19.826  1.00  0.00    -0.092 NA
ATOM     29  N   UNL     1      23.477  24.572  19.687  1.00  0.00     0.001 N 
ATOM     30  N   UNL     1      22.315  24.693  19.301  1.00  0.00    -0.003 NA
ENDBRANCH  27  28
ENDBRANCH  26  27
ENDBRANCH  25  26
ENDBRANCH  19  25
BRANCH  20  31
ATOM     31  O   UNL     1      22.399  26.471  26.584  1.00  0.00    -0.387 OA
ATOM     32  H   UNL     1      21.883  27.131  27.127  1.00  0.00     0.211 HD
ENDBRANCH  20  31
BRANCH  21  33
ATOM     33  O   UNL     1      21.234  24.245  24.188  1.00  0.00    -0.385 OA
ATOM     34  H   UNL     1      20.943  24.678  23.348  1.00  0.00     0.211 HD
ENDBRANCH  21  33
ENDBRANCH  15  16
ENDBRANCH  10  15
BRANCH  12  35
ATOM     35  O   UNL     1      22.407  27.492  20.672  1.00  0.00    -0.385 OA
ATOM     36  H   UNL     1      22.880  27.047  21.427  1.00  0.00     0.211 HD
ENDBRANCH  12  35
BRANCH  13  37
ATOM     37  O   UNL     1      19.057  28.361  20.153  1.00  0.00    -0.387 OA
ATOM     38  H   UNL     1      18.791  27.767  20.877  1.00  0.00     0.211 HD
ENDBRANCH  13  37
BRANCH  14  39
ATOM     39  O   UNL     1      20.461  31.065  19.773  1.00  0.00    -0.387 OA
ATOM     40  H   UNL     1      20.465  30.763  18.828  1.00  0.00     0.211 HD
ENDBRANCH  14  39
ENDBRANCH   8   9
ENDBRANCH   7   8
ENDBRANCH   1   7
BRANCH   1  41
ATOM     41  C   UNL     1      15.711  30.061  23.239  1.00  0.00     0.364 C 
ATOM     42  O   UNL     1      15.969  29.309  24.164  1.00  0.00    -0.246 OA
BRANCH  41  43
ATOM     43  O   UNL     1      14.917  31.188  23.356  1.00  0.00    -0.477 OA
ATOM     44  H   UNL     1      15.370  32.071  23.248  1.00  0.00     0.296 HD
ENDBRANCH  41  43
ENDBRANCH   1  41
BRANCH   3  45
ATOM     45  O   UNL     1      16.109  27.221  19.553  1.00  0.00    -0.391 OA
ATOM     46  H   UNL     1      17.066  27.294  19.825  1.00  0.00     0.211 HD
ENDBRANCH   3  45
BRANCH   5  47
ATOM     47  C   UNL     1      16.303  32.015  18.993  1.00  0.00     0.176 C 
BRANCH  47  48
ATOM     48  O   UNL     1      17.685  31.851  18.815  1.00  0.00    -0.388 OA
ATOM     49  H   UNL     1      17.799  31.234  18.041  1.00  0.00     0.211 HD
ENDBRANCH  47  48
BRANCH  47  50
ATOM     50  C   UNL     1      15.959  33.357  19.547  1.00  0.00     0.165 C 
BRANCH  50  51
ATOM     51  O   UNL     1      16.758  33.719  20.598  1.00  0.00    -0.388 OA
ATOM     52  H   UNL     1      16.951  34.667  20.665  1.00  0.00     0.211 HD
ENDBRANCH  50  51
BRANCH  50  53
ATOM     53  C   UNL     1      14.484  33.598  19.737  1.00  0.00     0.154 C 
BRANCH  53  54
ATOM     54  N   UNL     1      13.996  33.446  21.076  1.00  0.00    -0.319 N 
ATOM     55  C   UNL     1      12.835  32.700  21.436  1.00  0.00     0.407 C 
ATOM     56  H   UNL     1      14.527  33.910  21.880  1.00  0.00     0.167 HD
ATOM     57  O   UNL     1      12.165  32.110  20.571  1.00  0.00    -0.225 OA
BRANCH  55  58
ATOM     58  O   UNL     1      12.425  32.609  22.748  1.00  0.00    -0.443 OA
BRANCH  58  59
ATOM     59  C   UNL     1      11.077  32.340  23.131  1.00  0.00     0.294 C 
BRANCH  59  60
ATOM     60  C   UNL     1      10.993  30.968  23.726  1.00  0.00     0.120 A 
ATOM     61  C   UNL     1       9.893  30.220  24.059  1.00  0.00     0.138 A 
ATOM     62  N   UNL     1      12.074  30.215  24.025  1.00  0.00    -0.132 NA
ATOM     63  N   UNL     1      10.317  29.020  24.556  1.00  0.00    -0.249 N 
ATOM     64  N   UNL     1      11.628  29.082  24.507  1.00  0.00    -0.067 NA
BRANCH  63  65
ATOM     65  C   UNL     1       9.459  27.940  25.019  1.00  0.00     0.182 C 
BRANCH  65  66
ATOM     66  C   UNL     1       8.034  28.172  24.548  1.00  0.00     0.166 C 
BRANCH  66  67
ATOM     67  O   UNL     1       7.714  27.016  23.796  1.00  0.00    -0.386 OA
ATOM     68  H   UNL     1       8.069  27.110  22.869  1.00  0.00     0.211 HD
ENDBRANCH  66  67
BRANCH  66  69
ATOM     69  C   UNL     1       7.065  28.357  25.631  1.00  0.00    -0.018 A 
ATOM     70  C   UNL     1       6.439  27.322  26.255  1.00  0.00     0.006 A 
ATOM     71  C   UNL     1       6.802  29.689  25.983  1.00  0.00     0.006 A 
ATOM     72  C   UNL     1       5.526  27.611  27.257  1.00  0.00     0.000 A 
ATOM     73  C   UNL     1       5.895  29.948  26.975  1.00  0.00     0.000 A 
ATOM     74  C   UNL     1       5.251  28.909  27.618  1.00  0.00     0.000 A 
ENDBRANCH  66  69
ENDBRANCH  65  66
ENDBRANCH  63  65
ENDBRANCH  59  60
ENDBRANCH  58  59
ENDBRANCH  55  58
ENDBRANCH  53  54
ENDBRANCH  50  53
ENDBRANCH  47  50
ENDBRANCH   5  47
BRANCH   4  75
ATOM     75  N   UNL     1      15.870  29.745  17.778  1.00  0.00    -0.348 N 
ATOM     76  C   UNL     1      16.548  29.079  16.727  1.00  0.00     0.217 C 
ATOM     77  H   UNL     1      15.062  30.351  17.521  1.00  0.00     0.163 HD
ATOM     78  C   UNL     1      16.173  29.194  15.294  1.00  0.00     0.114 C 
ATOM     79  O   UNL     1      17.528  28.343  17.030  1.00  0.00    -0.275 OA
ENDBRANCH   4  75
TORSDOF 33
