REMARK VINA RESULT:    -6.201      2.701      3.980
REMARK INTER + INTRA:         -22.186
REMARK INTER:                 -14.807
REMARK INTRA:                  -7.379
REMARK UNBOUND:                -6.197
REMARK SMILES CC(=O)N[C@@H]1[C@@H](O)C[C@](OC[C@H]2O[C@@H](O[C@H]3[C@H](O)[C@@H](O)[C@H](OCCN=[N+]=[N-])O[C@@H]3CO)[C@H](O)[C@@H](O)[C@H]2O)(C(=O)O)O[C@H]1C(O)[C@H](O)CNC(=O)OCc1cn(Cc2cccc(C#N)c2)nn1
REMARK SMILES IDX 9 1 8 2 6 3 5 4 42 5 41 6 10 7 11 8 12 9 14 10 13 11 32 12
REMARK SMILES IDX 34 13 36 14 15 15 16 16 29 17 28 18 21 19 17 20 19 21 30 22
REMARK SMILES IDX 31 23 22 25 23 26 24 27 25 28 26 29 27 30 18 31 20 33 33 35
REMARK SMILES IDX 35 37 37 39 38 41 39 42 40 43 7 45 43 47 44 48 45 50 46 51
REMARK SMILES IDX 47 53 48 54 49 55 50 57 51 58 52 59 53 60 54 61 66 62 55 63
REMARK SMILES IDX 65 64 56 65 57 66 58 67 64 68 59 69 61 70 60 71 62 72 63 73
REMARK SMILES IDX 4 74 2 75 1 77 3 78
REMARK H PARENT 31 24 18 32 20 34 33 36 35 38 37 40 40 44 7 46 44 49 46 52
REMARK H PARENT 48 56 4 76
REMARK Flexibility Score: inf
ROOT
ATOM      1  C   UNL     1      16.410  31.820  18.902  1.00  0.00     0.272 C 
ATOM      2  C   UNL     1      15.297  31.175  19.694  1.00  0.00     0.113 C 
ATOM      3  C   UNL     1      14.539  30.098  19.042  1.00  0.00     0.145 C 
ATOM      4  C   UNL     1      14.443  30.298  17.526  1.00  0.00     0.142 C 
ATOM      5  C   UNL     1      15.721  30.656  16.912  1.00  0.00     0.178 C 
ATOM      6  O   UNL     1      16.628  31.344  17.650  1.00  0.00    -0.332 OA
ENDROOT
BRANCH   1   7
ATOM      7  O   UNL     1      17.532  31.718  19.589  1.00  0.00    -0.338 OA
BRANCH   7   8
ATOM      8  C   UNL     1      18.418  32.252  20.282  1.00  0.00     0.199 C 
BRANCH   8   9
ATOM      9  C   UNL     1      18.725  32.022  21.736  1.00  0.00     0.179 C 
ATOM     10  C   UNL     1      18.001  30.884  23.541  1.00  0.00     0.282 C 
ATOM     11  O   UNL     1      18.035  30.818  22.141  1.00  0.00    -0.341 OA
ATOM     12  C   UNL     1      19.354  30.686  24.135  1.00  0.00     0.202 C 
ATOM     13  C   UNL     1      20.436  31.435  23.379  1.00  0.00     0.179 C 
ATOM     14  C   UNL     1      20.182  31.554  21.916  1.00  0.00     0.177 C 
BRANCH  10  15
ATOM     15  O   UNL     1      17.127  29.911  24.019  1.00  0.00    -0.341 OA
BRANCH  15  16
ATOM     16  C   UNL     1      15.812  30.212  23.773  1.00  0.00     0.184 C 
ATOM     17  C   UNL     1      14.980  30.221  25.003  1.00  0.00     0.178 C 
ATOM     18  O   UNL     1      13.642  30.439  24.770  1.00  0.00    -0.341 OA
ATOM     19  C   UNL     1      13.058  29.638  23.813  1.00  0.00     0.281 C 
ATOM     20  C   UNL     1      15.269  28.997  22.952  1.00  0.00     0.180 C 
ATOM     21  C   UNL     1      13.865  29.423  22.573  1.00  0.00     0.202 C 
BRANCH  17  22
ATOM     22  C   UNL     1      15.440  31.307  25.949  1.00  0.00     0.191 C 
BRANCH  22  23
ATOM     23  O   UNL     1      16.532  30.854  26.695  1.00  0.00    -0.394 OA
ATOM     24  H   UNL     1      17.049  30.168  26.241  1.00  0.00     0.210 HD
ENDBRANCH  22  23
ENDBRANCH  17  22
BRANCH  19  25
ATOM     25  O   UNL     1      11.882  30.300  23.403  1.00  0.00    -0.350 OA
BRANCH  25  26
ATOM     26  C   UNL     1      11.818  31.540  23.983  1.00  0.00     0.169 C 
BRANCH  26  27
ATOM     27  C   UNL     1      11.997  32.655  22.992  1.00  0.00     0.119 C 
BRANCH  27  28
ATOM     28  N   UNL     1      11.055  32.602  21.899  1.00  0.00    -0.092 NA
ATOM     29  N   UNL     1      11.490  32.490  20.745  1.00  0.00     0.001 N 
ATOM     30  N   UNL     1      11.803  32.469  19.533  1.00  0.00    -0.003 NA
ENDBRANCH  27  28
ENDBRANCH  26  27
ENDBRANCH  25  26
ENDBRANCH  19  25
BRANCH  20  31
ATOM     31  O   UNL     1      16.105  28.814  21.884  1.00  0.00    -0.387 OA
ATOM     32  H   UNL     1      15.932  27.948  21.415  1.00  0.00     0.211 HD
ENDBRANCH  20  31
BRANCH  21  33
ATOM     33  O   UNL     1      13.298  28.381  21.844  1.00  0.00    -0.385 OA
ATOM     34  H   UNL     1      12.688  28.802  21.171  1.00  0.00     0.211 HD
ENDBRANCH  21  33
ENDBRANCH  15  16
ENDBRANCH  10  15
BRANCH  12  35
ATOM     35  O   UNL     1      19.350  31.266  25.423  1.00  0.00    -0.385 OA
ATOM     36  H   UNL     1      18.562  30.888  25.887  1.00  0.00     0.211 HD
ENDBRANCH  12  35
BRANCH  13  37
ATOM     37  O   UNL     1      21.607  30.679  23.539  1.00  0.00    -0.387 OA
ATOM     38  H   UNL     1      21.436  29.730  23.694  1.00  0.00     0.211 HD
ENDBRANCH  13  37
BRANCH  14  39
ATOM     39  O   UNL     1      20.272  30.260  21.378  1.00  0.00    -0.387 OA
ATOM     40  H   UNL     1      20.315  29.572  22.071  1.00  0.00     0.211 HD
ENDBRANCH  14  39
ENDBRANCH   8   9
ENDBRANCH   7   8
ENDBRANCH   1   7
BRANCH   1  41
ATOM     41  C   UNL     1      15.992  33.255  18.706  1.00  0.00     0.364 C 
ATOM     42  O   UNL     1      15.039  33.756  19.394  1.00  0.00    -0.246 OA
BRANCH  41  43
ATOM     43  O   UNL     1      16.609  34.069  17.795  1.00  0.00    -0.477 OA
ATOM     44  H   UNL     1      17.021  33.614  16.964  1.00  0.00     0.296 HD
ENDBRANCH  41  43
ENDBRANCH   1  41
BRANCH   3  45
ATOM     45  O   UNL     1      15.135  28.871  19.294  1.00  0.00    -0.391 OA
ATOM     46  H   UNL     1      14.891  28.490  20.170  1.00  0.00     0.211 HD
ENDBRANCH   3  45
BRANCH   5  47
ATOM     47  C   UNL     1      16.531  29.490  16.382  1.00  0.00     0.176 C 
BRANCH  47  48
ATOM     48  O   UNL     1      15.539  28.583  15.880  1.00  0.00    -0.388 OA
ATOM     49  H   UNL     1      16.018  27.776  15.582  1.00  0.00     0.211 HD
ENDBRANCH  47  48
BRANCH  47  50
ATOM     50  C   UNL     1      17.448  29.715  15.254  1.00  0.00     0.165 C 
BRANCH  50  51
ATOM     51  O   UNL     1      16.981  28.733  14.276  1.00  0.00    -0.388 OA
ATOM     52  H   UNL     1      17.786  28.205  13.991  1.00  0.00     0.211 HD
ENDBRANCH  50  51
BRANCH  50  53
ATOM     53  C   UNL     1      18.882  29.367  15.420  1.00  0.00     0.154 C 
BRANCH  53  54
ATOM     54  N   UNL     1      19.258  28.714  16.632  1.00  0.00    -0.319 N 
ATOM     55  C   UNL     1      19.935  29.454  17.658  1.00  0.00     0.407 C 
ATOM     56  H   UNL     1      19.066  27.724  16.826  1.00  0.00     0.167 HD
ATOM     57  O   UNL     1      20.165  30.664  17.432  1.00  0.00    -0.225 OA
BRANCH  55  58
ATOM     58  O   UNL     1      20.326  28.904  18.845  1.00  0.00    -0.443 OA
BRANCH  58  59
ATOM     59  C   UNL     1      21.530  28.119  18.958  1.00  0.00     0.294 C 
BRANCH  59  60
ATOM     60  C   UNL     1      21.402  27.203  20.127  1.00  0.00     0.120 A 
ATOM     61  C   UNL     1      22.079  26.023  20.333  1.00  0.00     0.138 A 
ATOM     62  N   UNL     1      20.603  27.356  21.188  1.00  0.00    -0.132 NA
ATOM     63  N   UNL     1      21.680  25.477  21.517  1.00  0.00    -0.248 N 
ATOM     64  N   UNL     1      20.781  26.314  22.012  1.00  0.00    -0.067 NA
BRANCH  63  65
ATOM     65  C   UNL     1      22.145  24.243  22.081  1.00  0.00     0.181 C 
BRANCH  65  66
ATOM     66  C   UNL     1      23.053  24.533  23.215  1.00  0.00    -0.025 A 
ATOM     67  C   UNL     1      24.388  24.795  23.061  1.00  0.00     0.006 A 
ATOM     68  C   UNL     1      22.540  24.541  24.508  1.00  0.00     0.025 A 
ATOM     69  C   UNL     1      25.222  25.057  24.116  1.00  0.00     0.002 A 
ATOM     70  C   UNL     1      23.375  24.804  25.565  1.00  0.00     0.052 A 
ATOM     71  C   UNL     1      24.736  25.070  25.416  1.00  0.00     0.019 A 
BRANCH  70  72
ATOM     72  C   UNL     1      22.836  24.816  26.900  1.00  0.00     0.099 C 
ATOM     73  N   UNL     1      22.411  24.831  27.989  1.00  0.00    -0.192 NA
ENDBRANCH  70  72
ENDBRANCH  65  66
ENDBRANCH  63  65
ENDBRANCH  59  60
ENDBRANCH  58  59
ENDBRANCH  55  58
ENDBRANCH  53  54
ENDBRANCH  50  53
ENDBRANCH  47  50
ENDBRANCH   5  47
BRANCH   4  74
ATOM     74  N   UNL     1      13.320  31.192  17.248  1.00  0.00    -0.348 N 
ATOM     75  C   UNL     1      12.351  30.808  16.298  1.00  0.00     0.217 C 
ATOM     76  H   UNL     1      13.173  32.111  17.709  1.00  0.00     0.163 HD
ATOM     77  C   UNL     1      11.175  31.655  15.951  1.00  0.00     0.114 C 
ATOM     78  O   UNL     1      12.481  29.716  15.721  1.00  0.00    -0.275 OA
ENDBRANCH   4  74
TORSDOF 32
