REMARK VINA RESULT:    -6.077      2.128      3.266
REMARK INTER + INTRA:         -21.190
REMARK INTER:                 -15.943
REMARK INTRA:                  -5.247
REMARK UNBOUND:                -5.342
REMARK SMILES CC(=O)N[C@@H]1[C@@H](O)C[C@](OC[C@H]2O[C@@H](O[C@H]3[C@H](O)[C@@H](O)[C@H](OCCN=[N+]=[N-])O[C@@H]3CO)[C@H](O)[C@@H](O)[C@H]2O)(C(=O)O)O[C@H]1C(O)[C@H](O)CNC(=O)OCc1cn(CCC(=O)O)nn1
REMARK SMILES IDX 43 1 42 2 9 3 8 4 41 5 6 6 5 7 10 8 11 9 12 10 14 11 13 12
REMARK SMILES IDX 32 13 34 14 36 15 15 16 16 17 29 18 28 19 21 20 17 21 19 22
REMARK SMILES IDX 30 23 31 24 22 26 23 27 24 28 25 29 26 30 27 31 18 32 20 34
REMARK SMILES IDX 33 36 35 38 37 40 38 42 39 43 40 44 7 46 4 48 2 49 1 51 3 52
REMARK SMILES IDX 44 53 45 55 46 56 47 58 48 59 49 60 50 62 51 63 52 64 53 65
REMARK SMILES IDX 54 66 62 67 55 68 61 69 56 70 57 71 58 72 59 73 60 74
REMARK H PARENT 31 25 18 33 20 35 33 37 35 39 37 41 40 45 7 47 4 50 44 54
REMARK H PARENT 46 57 48 61 60 75
REMARK Flexibility Score: inf
ROOT
ATOM      1  C   UNL     1       4.791  21.521  32.252  1.00  0.00     0.176 C 
ENDROOT
BRANCH   1   2
ATOM      2  C   UNL     1       4.115  22.564  33.111  1.00  0.00     0.178 C 
ATOM      3  C   UNL     1       4.159  24.864  33.573  1.00  0.00     0.272 C 
ATOM      4  C   UNL     1       2.939  24.353  34.319  1.00  0.00     0.113 C 
ATOM      5  O   UNL     1       4.914  23.647  33.368  1.00  0.00    -0.332 OA
ATOM      6  C   UNL     1       3.317  23.218  35.293  1.00  0.00     0.145 C 
ATOM      7  C   UNL     1       3.710  22.000  34.466  1.00  0.00     0.142 C 
BRANCH   3   8
ATOM      8  O   UNL     1       4.879  25.697  34.347  1.00  0.00    -0.338 OA
BRANCH   8   9
ATOM      9  C   UNL     1       6.062  26.206  34.139  1.00  0.00     0.199 C 
BRANCH   9  10
ATOM     10  C   UNL     1       7.288  25.956  34.907  1.00  0.00     0.179 C 
ATOM     11  C   UNL     1       8.327  25.349  36.863  1.00  0.00     0.282 C 
ATOM     12  O   UNL     1       7.160  25.696  36.244  1.00  0.00    -0.341 OA
ATOM     13  C   UNL     1       9.556  25.344  35.998  1.00  0.00     0.202 C 
ATOM     14  C   UNL     1       9.318  24.636  34.678  1.00  0.00     0.179 C 
ATOM     15  C   UNL     1       7.847  24.604  34.331  1.00  0.00     0.177 C 
BRANCH  11  16
ATOM     16  O   UNL     1       8.279  24.103  37.487  1.00  0.00    -0.341 OA
BRANCH  16  17
ATOM     17  C   UNL     1       8.034  24.177  38.856  1.00  0.00     0.184 C 
ATOM     18  C   UNL     1       8.995  25.139  39.461  1.00  0.00     0.178 C 
ATOM     19  O   UNL     1       9.920  24.544  40.336  1.00  0.00    -0.341 OA
ATOM     20  C   UNL     1      10.490  23.489  39.594  1.00  0.00     0.281 C 
ATOM     21  C   UNL     1       8.121  22.783  39.403  1.00  0.00     0.180 C 
ATOM     22  C   UNL     1       9.517  22.338  39.712  1.00  0.00     0.202 C 
BRANCH  18  23
ATOM     23  C   UNL     1       8.273  26.238  40.224  1.00  0.00     0.191 C 
BRANCH  23  24
ATOM     24  O   UNL     1       7.577  25.700  41.303  1.00  0.00    -0.394 OA
ATOM     25  H   UNL     1       7.557  26.370  42.026  1.00  0.00     0.210 HD
ENDBRANCH  23  24
ENDBRANCH  18  23
BRANCH  20  26
ATOM     26  O   UNL     1      11.745  23.161  40.047  1.00  0.00    -0.350 OA
BRANCH  26  27
ATOM     27  C   UNL     1      12.516  24.317  40.141  1.00  0.00     0.169 C 
BRANCH  27  28
ATOM     28  C   UNL     1      13.972  23.931  40.363  1.00  0.00     0.119 C 
BRANCH  28  29
ATOM     29  N   UNL     1      13.958  22.748  41.198  1.00  0.00    -0.092 NA
ATOM     30  N   UNL     1      14.872  21.933  41.076  1.00  0.00     0.001 N 
ATOM     31  N   UNL     1      15.705  21.014  41.226  1.00  0.00    -0.003 NA
ENDBRANCH  28  29
ENDBRANCH  27  28
ENDBRANCH  26  27
ENDBRANCH  20  26
BRANCH  21  32
ATOM     32  O   UNL     1       7.377  22.750  40.578  1.00  0.00    -0.387 OA
ATOM     33  H   UNL     1       7.737  22.047  41.152  1.00  0.00     0.211 HD
ENDBRANCH  21  32
BRANCH  22  34
ATOM     34  O   UNL     1       9.896  21.274  38.892  1.00  0.00    -0.385 OA
ATOM     35  H   UNL     1       9.090  20.799  38.549  1.00  0.00     0.211 HD
ENDBRANCH  22  34
ENDBRANCH  16  17
ENDBRANCH  11  16
BRANCH  13  36
ATOM     36  O   UNL     1      10.109  26.619  35.814  1.00  0.00    -0.385 OA
ATOM     37  H   UNL     1      10.016  26.885  34.885  1.00  0.00     0.211 HD
ENDBRANCH  13  36
BRANCH  14  38
ATOM     38  O   UNL     1       9.899  23.388  34.688  1.00  0.00    -0.387 OA
ATOM     39  H   UNL     1       9.944  23.012  33.785  1.00  0.00     0.211 HD
ENDBRANCH  14  38
BRANCH  15  40
ATOM     40  O   UNL     1       7.164  23.615  34.997  1.00  0.00    -0.387 OA
ATOM     41  H   UNL     1       7.591  23.300  35.828  1.00  0.00     0.211 HD
ENDBRANCH  15  40
ENDBRANCH   9  10
ENDBRANCH   8   9
ENDBRANCH   3   8
BRANCH   3  42
ATOM     42  C   UNL     1       3.867  25.377  32.232  1.00  0.00     0.364 C 
ATOM     43  O   UNL     1       2.893  26.148  32.051  1.00  0.00    -0.246 OA
BRANCH  42  44
ATOM     44  O   UNL     1       4.638  25.035  31.150  1.00  0.00    -0.477 OA
ATOM     45  H   UNL     1       4.393  24.375  30.441  1.00  0.00     0.296 HD
ENDBRANCH  42  44
ENDBRANCH   3  42
BRANCH   6  46
ATOM     46  O   UNL     1       4.422  23.641  35.998  1.00  0.00    -0.391 OA
ATOM     47  H   UNL     1       4.731  22.881  36.573  1.00  0.00     0.211 HD
ENDBRANCH   6  46
BRANCH   7  48
ATOM     48  N   UNL     1       2.622  21.082  34.369  1.00  0.00    -0.348 N 
ATOM     49  C   UNL     1       2.815  19.728  34.749  1.00  0.00     0.217 C 
ATOM     50  H   UNL     1       1.677  21.360  34.027  1.00  0.00     0.163 HD
ATOM     51  C   UNL     1       1.741  18.708  34.678  1.00  0.00     0.114 C 
ATOM     52  O   UNL     1       3.938  19.327  35.173  1.00  0.00    -0.275 OA
ENDBRANCH   7  48
ENDBRANCH   1   2
BRANCH   1  53
ATOM     53  O   UNL     1       5.387  20.585  33.098  1.00  0.00    -0.388 OA
ATOM     54  H   UNL     1       6.355  20.716  33.152  1.00  0.00     0.211 HD
ENDBRANCH   1  53
BRANCH   1  55
ATOM     55  C   UNL     1       3.880  20.801  31.309  1.00  0.00     0.165 C 
BRANCH  55  56
ATOM     56  O   UNL     1       4.609  20.443  30.170  1.00  0.00    -0.388 OA
ATOM     57  H   UNL     1       4.347  21.041  29.430  1.00  0.00     0.211 HD
ENDBRANCH  55  56
BRANCH  55  58
ATOM     58  C   UNL     1       2.818  21.813  30.866  1.00  0.00     0.154 C 
BRANCH  58  59
ATOM     59  N   UNL     1       3.210  22.466  29.648  1.00  0.00    -0.319 N 
ATOM     60  C   UNL     1       2.372  22.621  28.510  1.00  0.00     0.407 C 
ATOM     61  H   UNL     1       4.186  22.880  29.549  1.00  0.00     0.167 HD
ATOM     62  O   UNL     1       1.207  22.152  28.575  1.00  0.00    -0.225 OA
BRANCH  60  63
ATOM     63  O   UNL     1       2.795  23.257  27.357  1.00  0.00    -0.443 OA
BRANCH  63  64
ATOM     64  C   UNL     1       2.351  24.565  27.092  1.00  0.00     0.294 C 
BRANCH  64  65
ATOM     65  C   UNL     1       3.486  25.504  27.034  1.00  0.00     0.120 A 
ATOM     66  C   UNL     1       4.027  25.965  25.841  1.00  0.00     0.138 A 
ATOM     67  N   UNL     1       4.167  26.076  28.057  1.00  0.00    -0.132 NA
ATOM     68  N   UNL     1       5.026  26.809  26.195  1.00  0.00    -0.252 N 
ATOM     69  N   UNL     1       5.083  26.853  27.518  1.00  0.00    -0.067 NA
BRANCH  68  70
ATOM     70  C   UNL     1       5.883  27.548  25.292  1.00  0.00     0.158 C 
BRANCH  70  71
ATOM     71  C   UNL     1       7.260  27.809  25.859  1.00  0.00     0.146 C 
BRANCH  71  72
ATOM     72  C   UNL     1       8.153  26.733  25.408  1.00  0.00     0.305 C 
ATOM     73  O   UNL     1       9.137  26.410  26.109  1.00  0.00    -0.252 OA
BRANCH  72  74
ATOM     74  O   UNL     1       7.939  26.053  24.210  1.00  0.00    -0.481 OA
ATOM     75  H   UNL     1       7.168  25.410  24.063  1.00  0.00     0.296 HD
ENDBRANCH  72  74
ENDBRANCH  71  72
ENDBRANCH  70  71
ENDBRANCH  68  70
ENDBRANCH  64  65
ENDBRANCH  63  64
ENDBRANCH  60  63
ENDBRANCH  58  59
ENDBRANCH  55  58
ENDBRANCH   1  55
TORSDOF 33
