REMARK VINA RESULT:    -5.960     14.396     21.153
REMARK INTER + INTRA:         -22.602
REMARK INTER:                 -14.438
REMARK INTRA:                  -8.164
REMARK UNBOUND:                -6.885
REMARK SMILES CCOC(=O)c1cccc(-n2cc(COC(=O)NC[C@@H](O)C(O)[C@@H]3O[C@@](OC[C@H]4O[C@@H](O[C@H]5[C@H](O)[C@@H](O)[C@H](OCCN=[N+]=[N-])O[C@@H]5CO)[C@H](O)[C@@H](O)[C@H]4O)(C(=O)O)C[C@H](O)[C@H]3NC(C)=O)nn2)c1
REMARK SMILES IDX 22 1 24 2 26 3 58 4 25 5 59 6 61 7 27 8 28 9 29 10 31 11
REMARK SMILES IDX 30 12 49 13 51 14 53 15 32 16 33 17 46 18 45 19 38 20 34 21
REMARK SMILES IDX 36 22 47 23 48 24 39 26 40 27 41 28 42 29 43 30 44 31 35 32
REMARK SMILES IDX 37 34 50 36 52 38 54 40 55 42 56 43 57 44 60 46 62 48 63 49
REMARK SMILES IDX 64 51 65 52 23 53 20 55 21 56 19 58 18 59 16 60 17 62 15 63
REMARK SMILES IDX 14 64 13 65 12 66 66 67 11 68 67 69 10 70 68 71 9 72 6 73
REMARK SMILES IDX 8 74 7 75 4 76 5 77 3 78 2 79 1 80
REMARK H PARENT 48 25 35 33 37 35 50 37 52 39 54 41 57 45 60 47 62 50 23 54
REMARK H PARENT 21 57 18 61
REMARK Flexibility Score: inf
ROOT
ATOM      1  C   UNL     1      17.616  31.435  20.655  1.00  0.00     0.176 C 
ENDROOT
BRANCH   1   2
ATOM      2  C   UNL     1      17.398  30.385  19.649  1.00  0.00     0.178 C 
ATOM      3  C   UNL     1      18.670  29.455  17.887  1.00  0.00     0.272 C 
ATOM      4  C   UNL     1      17.418  28.643  17.814  1.00  0.00     0.113 C 
ATOM      5  O   UNL     1      18.237  30.652  18.564  1.00  0.00    -0.332 OA
ATOM      6  C   UNL     1      16.153  29.484  17.750  1.00  0.00     0.145 C 
ATOM      7  C   UNL     1      16.014  30.207  19.131  1.00  0.00     0.142 C 
BRANCH   3   8
ATOM      8  O   UNL     1      19.045  29.867  16.647  1.00  0.00    -0.338 OA
BRANCH   8   9
ATOM      9  C   UNL     1      19.270  29.113  15.599  1.00  0.00     0.199 C 
BRANCH   9  10
ATOM     10  C   UNL     1      18.535  29.095  14.328  1.00  0.00     0.179 C 
ATOM     11  C   UNL     1      16.398  29.115  13.377  1.00  0.00     0.282 C 
ATOM     12  O   UNL     1      17.235  28.758  14.459  1.00  0.00    -0.341 OA
ATOM     13  C   UNL     1      17.197  29.431  12.151  1.00  0.00     0.202 C 
ATOM     14  C   UNL     1      18.226  30.493  12.366  1.00  0.00     0.179 C 
ATOM     15  C   UNL     1      18.573  30.569  13.813  1.00  0.00     0.177 C 
BRANCH  11  16
ATOM     16  O   UNL     1      15.598  30.110  13.857  1.00  0.00    -0.341 OA
BRANCH  16  17
ATOM     17  C   UNL     1      14.285  30.123  13.537  1.00  0.00     0.184 C 
ATOM     18  C   UNL     1      13.803  31.550  13.547  1.00  0.00     0.178 C 
ATOM     19  O   UNL     1      12.462  31.638  13.173  1.00  0.00    -0.341 OA
ATOM     20  C   UNL     1      11.688  31.055  14.215  1.00  0.00     0.281 C 
ATOM     21  C   UNL     1      13.420  29.362  14.556  1.00  0.00     0.180 C 
ATOM     22  C   UNL     1      11.969  29.580  14.135  1.00  0.00     0.202 C 
BRANCH  18  23
ATOM     23  C   UNL     1      14.611  32.402  12.610  1.00  0.00     0.191 C 
BRANCH  23  24
ATOM     24  O   UNL     1      15.724  32.960  13.291  1.00  0.00    -0.394 OA
ATOM     25  H   UNL     1      16.041  33.773  12.822  1.00  0.00     0.210 HD
ENDBRANCH  23  24
ENDBRANCH  18  23
BRANCH  20  26
ATOM     26  O   UNL     1      10.384  31.398  14.009  1.00  0.00    -0.350 OA
BRANCH  26  27
ATOM     27  C   UNL     1      10.002  31.262  12.682  1.00  0.00     0.169 C 
BRANCH  27  28
ATOM     28  C   UNL     1       8.623  30.698  12.508  1.00  0.00     0.119 C 
BRANCH  28  29
ATOM     29  N   UNL     1       8.570  29.366  13.124  1.00  0.00    -0.092 NA
ATOM     30  N   UNL     1       8.591  28.385  12.368  1.00  0.00     0.001 N 
ATOM     31  N   UNL     1       8.849  27.322  11.769  1.00  0.00    -0.003 NA
ENDBRANCH  28  29
ENDBRANCH  27  28
ENDBRANCH  26  27
ENDBRANCH  20  26
BRANCH  21  32
ATOM     32  O   UNL     1      13.625  27.994  14.464  1.00  0.00    -0.387 OA
ATOM     33  H   UNL     1      12.739  27.560  14.502  1.00  0.00     0.211 HD
ENDBRANCH  21  32
BRANCH  22  34
ATOM     34  O   UNL     1      11.103  28.836  14.931  1.00  0.00    -0.385 OA
ATOM     35  H   UNL     1      10.240  28.611  14.470  1.00  0.00     0.211 HD
ENDBRANCH  22  34
ENDBRANCH  16  17
ENDBRANCH  11  16
BRANCH  13  36
ATOM     36  O   UNL     1      17.752  28.239  11.645  1.00  0.00    -0.385 OA
ATOM     37  H   UNL     1      17.335  27.964  10.797  1.00  0.00     0.211 HD
ENDBRANCH  13  36
BRANCH  14  38
ATOM     38  O   UNL     1      17.921  31.692  11.762  1.00  0.00    -0.387 OA
ATOM     39  H   UNL     1      18.243  31.635  10.823  1.00  0.00     0.211 HD
ENDBRANCH  14  38
BRANCH  15  40
ATOM     40  O   UNL     1      17.743  31.378  14.523  1.00  0.00    -0.387 OA
ATOM     41  H   UNL     1      17.639  32.244  14.054  1.00  0.00     0.211 HD
ENDBRANCH  15  40
ENDBRANCH   9  10
ENDBRANCH   8   9
ENDBRANCH   3   8
BRANCH   3  42
ATOM     42  C   UNL     1      19.756  28.893  18.678  1.00  0.00     0.364 C 
ATOM     43  O   UNL     1      19.618  27.877  19.376  1.00  0.00    -0.246 OA
BRANCH  42  44
ATOM     44  O   UNL     1      21.016  29.493  18.677  1.00  0.00    -0.477 OA
ATOM     45  H   UNL     1      21.792  29.155  18.147  1.00  0.00     0.296 HD
ENDBRANCH  42  44
ENDBRANCH   3  42
BRANCH   6  46
ATOM     46  O   UNL     1      16.337  30.477  16.820  1.00  0.00    -0.391 OA
ATOM     47  H   UNL     1      16.508  30.072  15.936  1.00  0.00     0.211 HD
ENDBRANCH   6  46
BRANCH   7  48
ATOM     48  N   UNL     1      15.202  29.339  19.950  1.00  0.00    -0.348 N 
ATOM     49  C   UNL     1      14.071  29.786  20.710  1.00  0.00     0.217 C 
ATOM     50  H   UNL     1      15.400  28.296  20.034  1.00  0.00     0.163 HD
ATOM     51  C   UNL     1      13.257  28.862  21.544  1.00  0.00     0.114 C 
ATOM     52  O   UNL     1      13.746  30.990  20.682  1.00  0.00    -0.275 OA
ENDBRANCH   7  48
ENDBRANCH   1   2
BRANCH   1  53
ATOM     53  O   UNL     1      16.672  31.547  21.640  1.00  0.00    -0.388 OA
ATOM     54  H   UNL     1      16.242  32.434  21.659  1.00  0.00     0.211 HD
ENDBRANCH   1  53
BRANCH   1  55
ATOM     55  C   UNL     1      19.011  31.567  21.213  1.00  0.00     0.165 C 
BRANCH  55  56
ATOM     56  O   UNL     1      19.639  30.319  21.266  1.00  0.00    -0.388 OA
ATOM     57  H   UNL     1      20.363  30.328  21.944  1.00  0.00     0.211 HD
ENDBRANCH  55  56
BRANCH  55  58
ATOM     58  C   UNL     1      19.113  32.380  22.467  1.00  0.00     0.154 C 
BRANCH  58  59
ATOM     59  N   UNL     1      19.743  31.650  23.543  1.00  0.00    -0.319 N 
ATOM     60  C   UNL     1      18.989  30.861  24.439  1.00  0.00     0.407 C 
ATOM     61  H   UNL     1      20.801  31.694  23.679  1.00  0.00     0.167 HD
ATOM     62  O   UNL     1      17.748  30.707  24.398  1.00  0.00    -0.225 OA
BRANCH  60  63
ATOM     63  O   UNL     1      19.631  30.175  25.490  1.00  0.00    -0.443 OA
BRANCH  63  64
ATOM     64  C   UNL     1      20.885  29.573  25.401  1.00  0.00     0.294 C 
BRANCH  64  65
ATOM     65  C   UNL     1      20.918  28.241  24.785  1.00  0.00     0.121 A 
ATOM     66  C   UNL     1      21.549  27.904  23.592  1.00  0.00     0.144 A 
ATOM     67  N   UNL     1      20.363  27.123  25.237  1.00  0.00    -0.131 NA
ATOM     68  N   UNL     1      21.344  26.604  23.381  1.00  0.00    -0.220 N 
ATOM     69  N   UNL     1      20.628  26.139  24.379  1.00  0.00    -0.062 NA
BRANCH  68  70
ATOM     70  C   UNL     1      21.821  25.864  22.278  1.00  0.00     0.067 A 
ATOM     71  C   UNL     1      22.058  26.463  21.044  1.00  0.00     0.044 A 
ATOM     72  C   UNL     1      22.086  24.523  22.367  1.00  0.00     0.028 A 
ATOM     73  C   UNL     1      22.531  25.790  19.950  1.00  0.00     0.062 A 
ATOM     74  C   UNL     1      22.567  23.806  21.282  1.00  0.00     0.003 A 
ATOM     75  C   UNL     1      22.789  24.430  20.077  1.00  0.00     0.016 A 
BRANCH  73  76
ATOM     76  C   UNL     1      22.752  26.476  18.694  1.00  0.00     0.338 C 
ATOM     77  O   UNL     1      23.364  27.561  18.686  1.00  0.00    -0.246 OA
BRANCH  76  78
ATOM     78  O   UNL     1      22.293  25.931  17.522  1.00  0.00    -0.462 OA
BRANCH  78  79
ATOM     79  C   UNL     1      23.119  25.326  16.554  1.00  0.00     0.230 C 
ATOM     80  C   UNL     1      22.323  25.051  15.296  1.00  0.00     0.049 C 
ENDBRANCH  78  79
ENDBRANCH  76  78
ENDBRANCH  73  76
ENDBRANCH  68  70
ENDBRANCH  64  65
ENDBRANCH  63  64
ENDBRANCH  60  63
ENDBRANCH  58  59
ENDBRANCH  55  58
ENDBRANCH   1  55
TORSDOF 33
