REMARK VINA RESULT:    -4.612      5.315     12.074
REMARK INTER + INTRA:         -21.649
REMARK INTER:                 -17.066
REMARK INTRA:                  -4.583
REMARK UNBOUND:                -8.679
REMARK SMILES CCOC(CCn1cc(COC(=O)NC[C@@H](O)C(O)[C@@H]2O[C@@](OC[C@H]3O[C@@H](O[C@H]4[C@H](O)[C@@H](O)[C@H](OCCN=[N+]=[N-])O[C@@H]4CO)[C@H](O)[C@@H](O)[C@H]3O)(C(=O)O)C[C@H](O)[C@H]2NC(C)=O)nn1)OCC
REMARK SMILES IDX 18 1 20 2 22 3 54 4 21 5 55 6 57 7 23 8 24 9 25 10 27 11
REMARK SMILES IDX 26 12 45 13 47 14 49 15 28 16 29 17 42 18 41 19 34 20 30 21
REMARK SMILES IDX 32 22 43 23 44 24 35 26 36 27 37 28 38 29 39 30 40 31 31 32
REMARK SMILES IDX 33 34 46 36 48 38 50 40 51 42 52 43 53 44 56 46 58 48 59 49
REMARK SMILES IDX 60 51 61 52 19 53 16 55 17 56 15 58 14 59 12 60 13 62 11 63
REMARK SMILES IDX 10 64 9 65 8 66 62 67 7 68 63 69 6 70 5 71 4 72 3 73 2 74
REMARK SMILES IDX 1 75 64 76 65 77 66 78
REMARK H PARENT 44 25 31 33 33 35 46 37 48 39 50 41 53 45 56 47 58 50 19 54
REMARK H PARENT 17 57 14 61
REMARK Flexibility Score: inf
ROOT
ATOM      1  C   UNL     1      16.086  29.986  20.995  1.00  0.00     0.176 C 
ENDROOT
BRANCH   1   2
ATOM      2  C   UNL     1      17.573  30.076  20.820  1.00  0.00     0.178 C 
ATOM      3  C   UNL     1      19.494  28.848  20.430  1.00  0.00     0.272 C 
ATOM      4  C   UNL     1      20.045  30.229  20.393  1.00  0.00     0.113 C 
ATOM      5  O   UNL     1      18.105  28.803  20.686  1.00  0.00    -0.332 OA
ATOM      6  C   UNL     1      19.606  31.142  21.484  1.00  0.00     0.145 C 
ATOM      7  C   UNL     1      18.265  30.661  22.055  1.00  0.00     0.142 C 
BRANCH   3   8
ATOM      8  O   UNL     1      20.084  27.942  21.215  1.00  0.00    -0.338 OA
BRANCH   8   9
ATOM      9  C   UNL     1      21.179  28.230  21.941  1.00  0.00     0.199 C 
BRANCH   9  10
ATOM     10  C   UNL     1      22.174  27.092  21.909  1.00  0.00     0.179 C 
ATOM     11  C   UNL     1      24.004  26.167  22.825  1.00  0.00     0.282 C 
ATOM     12  O   UNL     1      22.802  26.865  23.119  1.00  0.00    -0.341 OA
ATOM     13  C   UNL     1      23.645  24.790  22.409  1.00  0.00     0.202 C 
ATOM     14  C   UNL     1      22.706  24.842  21.227  1.00  0.00     0.179 C 
ATOM     15  C   UNL     1      21.553  25.795  21.401  1.00  0.00     0.177 C 
BRANCH  11  16
ATOM     16  O   UNL     1      24.855  26.253  23.932  1.00  0.00    -0.341 OA
BRANCH  16  17
ATOM     17  C   UNL     1      24.110  26.221  25.068  1.00  0.00     0.184 C 
ATOM     18  C   UNL     1      24.199  27.355  26.014  1.00  0.00     0.178 C 
ATOM     19  O   UNL     1      23.090  27.293  26.869  1.00  0.00    -0.341 OA
ATOM     20  C   UNL     1      23.182  26.171  27.706  1.00  0.00     0.281 C 
ATOM     21  C   UNL     1      24.483  24.973  25.931  1.00  0.00     0.180 C 
ATOM     22  C   UNL     1      23.318  24.881  26.926  1.00  0.00     0.202 C 
BRANCH  18  23
ATOM     23  C   UNL     1      24.165  28.673  25.300  1.00  0.00     0.191 C 
BRANCH  23  24
ATOM     24  O   UNL     1      25.383  28.978  24.691  1.00  0.00    -0.394 OA
ATOM     25  H   UNL     1      26.055  28.285  24.815  1.00  0.00     0.210 HD
ENDBRANCH  23  24
ENDBRANCH  18  23
BRANCH  20  26
ATOM     26  O   UNL     1      21.998  26.114  28.420  1.00  0.00    -0.350 OA
BRANCH  26  27
ATOM     27  C   UNL     1      22.100  26.170  29.777  1.00  0.00     0.169 C 
BRANCH  27  28
ATOM     28  C   UNL     1      23.523  26.446  30.187  1.00  0.00     0.119 C 
BRANCH  28  29
ATOM     29  N   UNL     1      24.130  25.209  30.672  1.00  0.00    -0.092 NA
ATOM     30  N   UNL     1      25.340  25.303  30.963  1.00  0.00     0.001 N 
ATOM     31  N   UNL     1      26.552  25.076  30.935  1.00  0.00    -0.003 NA
ENDBRANCH  28  29
ENDBRANCH  27  28
ENDBRANCH  26  27
ENDBRANCH  20  26
BRANCH  21  32
ATOM     32  O   UNL     1      24.555  23.842  25.162  1.00  0.00    -0.387 OA
ATOM     33  H   UNL     1      23.862  23.806  24.459  1.00  0.00     0.211 HD
ENDBRANCH  21  32
BRANCH  22  34
ATOM     34  O   UNL     1      23.493  23.842  27.800  1.00  0.00    -0.385 OA
ATOM     35  H   UNL     1      23.540  24.241  28.724  1.00  0.00     0.211 HD
ENDBRANCH  22  34
ENDBRANCH  16  17
ENDBRANCH  11  16
BRANCH  13  36
ATOM     36  O   UNL     1      24.771  24.077  21.969  1.00  0.00    -0.385 OA
ATOM     37  H   UNL     1      25.555  24.662  21.866  1.00  0.00     0.211 HD
ENDBRANCH  13  36
BRANCH  14  38
ATOM     38  O   UNL     1      22.292  23.574  20.835  1.00  0.00    -0.387 OA
ATOM     39  H   UNL     1      22.625  23.351  19.924  1.00  0.00     0.211 HD
ENDBRANCH  14  38
BRANCH  15  40
ATOM     40  O   UNL     1      20.620  25.342  22.320  1.00  0.00    -0.387 OA
ATOM     41  H   UNL     1      21.054  24.847  23.051  1.00  0.00     0.211 HD
ENDBRANCH  15  40
ENDBRANCH   9  10
ENDBRANCH   8   9
ENDBRANCH   3   8
BRANCH   3  42
ATOM     42  C   UNL     1      19.592  28.320  19.032  1.00  0.00     0.364 C 
ATOM     43  O   UNL     1      18.582  27.987  18.384  1.00  0.00    -0.246 OA
BRANCH  42  44
ATOM     44  O   UNL     1      20.822  28.179  18.396  1.00  0.00    -0.477 OA
ATOM     45  H   UNL     1      21.628  27.930  18.960  1.00  0.00     0.296 HD
ENDBRANCH  42  44
ENDBRANCH   3  42
BRANCH   6  46
ATOM     46  O   UNL     1      20.525  31.333  22.486  1.00  0.00    -0.391 OA
ATOM     47  H   UNL     1      20.525  30.628  23.179  1.00  0.00     0.211 HD
ENDBRANCH   6  46
BRANCH   7  48
ATOM     48  N   UNL     1      17.528  31.713  22.674  1.00  0.00    -0.348 N 
ATOM     49  C   UNL     1      17.329  31.657  24.083  1.00  0.00     0.217 C 
ATOM     50  H   UNL     1      17.132  32.519  22.153  1.00  0.00     0.163 HD
ATOM     51  C   UNL     1      16.565  32.738  24.758  1.00  0.00     0.114 C 
ATOM     52  O   UNL     1      17.795  30.694  24.781  1.00  0.00    -0.275 OA
ENDBRANCH   7  48
ENDBRANCH   1   2
BRANCH   1  53
ATOM     53  O   UNL     1      15.549  31.175  20.470  1.00  0.00    -0.388 OA
ATOM     54  H   UNL     1      14.587  31.045  20.226  1.00  0.00     0.211 HD
ENDBRANCH   1  53
BRANCH   1  55
ATOM     55  C   UNL     1      15.582  28.855  20.120  1.00  0.00     0.165 C 
BRANCH  55  56
ATOM     56  O   UNL     1      15.976  29.020  18.824  1.00  0.00    -0.388 OA
ATOM     57  H   UNL     1      15.584  29.808  18.369  1.00  0.00     0.211 HD
ENDBRANCH  55  56
BRANCH  55  58
ATOM     58  C   UNL     1      14.085  28.750  20.212  1.00  0.00     0.154 C 
BRANCH  58  59
ATOM     59  N   UNL     1      13.539  28.784  21.537  1.00  0.00    -0.319 N 
ATOM     60  C   UNL     1      12.835  29.862  22.095  1.00  0.00     0.407 C 
ATOM     61  H   UNL     1      13.698  27.906  22.121  1.00  0.00     0.167 HD
ATOM     62  O   UNL     1      12.602  30.915  21.479  1.00  0.00    -0.225 OA
BRANCH  60  63
ATOM     63  O   UNL     1      12.348  29.789  23.420  1.00  0.00    -0.443 OA
BRANCH  63  64
ATOM     64  C   UNL     1      11.539  30.863  23.922  1.00  0.00     0.294 C 
BRANCH  64  65
ATOM     65  C   UNL     1      10.175  30.339  24.190  1.00  0.00     0.120 A 
ATOM     66  C   UNL     1       9.827  29.060  24.553  1.00  0.00     0.138 A 
ATOM     67  N   UNL     1       9.038  31.035  24.112  1.00  0.00    -0.132 NA
ATOM     68  N   UNL     1       8.484  29.040  24.679  1.00  0.00    -0.252 N 
ATOM     69  N   UNL     1       8.038  30.253  24.406  1.00  0.00    -0.067 NA
BRANCH  68  70
ATOM     70  C   UNL     1       7.728  27.880  25.050  1.00  0.00     0.151 C 
BRANCH  70  71
ATOM     71  C   UNL     1       6.337  27.829  24.486  1.00  0.00     0.086 C 
BRANCH  71  72
ATOM     72  C   UNL     1       5.332  28.050  25.615  1.00  0.00     0.251 C 
BRANCH  72  73
ATOM     73  O   UNL     1       6.061  28.096  26.788  1.00  0.00    -0.353 OA
BRANCH  73  74
ATOM     74  C   UNL     1       5.475  28.914  27.745  1.00  0.00     0.160 C 
ATOM     75  C   UNL     1       5.883  30.363  27.562  1.00  0.00     0.035 C 
ENDBRANCH  73  74
ENDBRANCH  72  73
BRANCH  72  76
ATOM     76  O   UNL     1       4.309  27.150  25.581  1.00  0.00    -0.353 OA
BRANCH  76  77
ATOM     77  C   UNL     1       4.634  25.825  25.689  1.00  0.00     0.160 C 
ATOM     78  C   UNL     1       3.551  25.109  26.462  1.00  0.00     0.035 C 
ENDBRANCH  76  77
ENDBRANCH  72  76
ENDBRANCH  71  72
ENDBRANCH  70  71
ENDBRANCH  68  70
ENDBRANCH  64  65
ENDBRANCH  63  64
ENDBRANCH  60  63
ENDBRANCH  58  59
ENDBRANCH  55  58
ENDBRANCH   1  55
TORSDOF 36
