REMARK VINA RESULT:    -6.661      0.000      0.000
REMARK INTER + INTRA:         -23.616
REMARK INTER:                 -15.808
REMARK INTRA:                  -7.808
REMARK UNBOUND:                -6.052
REMARK SMILES CC(=O)N[C@@H]1[C@@H](O)C[C@](OC[C@H]2O[C@@H](O[C@H]3[C@H](O)[C@@H](O)[C@H](OCCN=[N+]=[N-])O[C@@H]3CO)[C@H](O)[C@@H](O)[C@H]2O)(C(=O)O)O[C@H]1C(O)[C@H](O)CNC(=O)OCc1cn(CC(O)CO)nn1
REMARK SMILES IDX 43 1 42 2 9 3 8 4 41 5 6 6 5 7 10 8 11 9 12 10 14 11 13 12
REMARK SMILES IDX 32 13 34 14 36 15 15 16 16 17 29 18 28 19 21 20 17 21 19 22
REMARK SMILES IDX 30 23 31 24 22 26 23 27 24 28 25 29 26 30 27 31 18 32 20 34
REMARK SMILES IDX 33 36 35 38 37 40 38 42 39 43 40 44 7 46 4 48 2 49 1 51 3 52
REMARK SMILES IDX 44 53 45 55 46 56 47 58 48 59 49 60 50 62 51 63 52 64 53 65
REMARK SMILES IDX 54 66 62 67 55 68 61 69 56 70 57 71 58 72 59 74 60 75
REMARK H PARENT 31 25 18 33 20 35 33 37 35 39 37 41 40 45 7 47 4 50 44 54
REMARK H PARENT 46 57 48 61 58 73 60 76
REMARK Flexibility Score: inf
ROOT
ATOM      1  C   UNL     1       4.003  21.467  31.808  1.00  0.00     0.176 C 
ENDROOT
BRANCH   1   2
ATOM      2  C   UNL     1       2.712  21.802  32.578  1.00  0.00     0.178 C 
ATOM      3  C   UNL     1       1.278  23.590  33.149  1.00  0.00     0.272 C 
ATOM      4  C   UNL     1       1.320  23.187  34.596  1.00  0.00     0.113 C 
ATOM      5  O   UNL     1       2.423  23.098  32.505  1.00  0.00    -0.332 OA
ATOM      6  C   UNL     1       2.365  22.216  35.000  1.00  0.00     0.145 C 
ATOM      7  C   UNL     1       2.833  21.271  33.957  1.00  0.00     0.142 C 
BRANCH   3   8
ATOM      8  O   UNL     1       1.282  24.902  33.025  1.00  0.00    -0.338 OA
BRANCH   8   9
ATOM      9  C   UNL     1       1.639  25.994  33.553  1.00  0.00     0.199 C 
BRANCH   9  10
ATOM     10  C   UNL     1       2.954  26.669  33.332  1.00  0.00     0.179 C 
ATOM     11  C   UNL     1       5.019  26.899  34.290  1.00  0.00     0.282 C 
ATOM     12  O   UNL     1       3.951  26.018  34.156  1.00  0.00    -0.341 OA
ATOM     13  C   UNL     1       5.171  27.888  33.186  1.00  0.00     0.202 C 
ATOM     14  C   UNL     1       4.702  27.430  31.839  1.00  0.00     0.179 C 
ATOM     15  C   UNL     1       3.552  26.441  31.943  1.00  0.00     0.177 C 
BRANCH  11  16
ATOM     16  O   UNL     1       6.234  26.293  34.531  1.00  0.00    -0.341 OA
BRANCH  16  17
ATOM     17  C   UNL     1       6.134  25.032  35.114  1.00  0.00     0.184 C 
ATOM     18  C   UNL     1       6.517  25.118  36.560  1.00  0.00     0.178 C 
ATOM     19  O   UNL     1       7.652  24.387  36.873  1.00  0.00    -0.341 OA
ATOM     20  C   UNL     1       8.646  24.558  35.895  1.00  0.00     0.281 C 
ATOM     21  C   UNL     1       6.865  24.039  34.310  1.00  0.00     0.180 C 
ATOM     22  C   UNL     1       8.237  23.662  34.751  1.00  0.00     0.202 C 
BRANCH  18  23
ATOM     23  C   UNL     1       5.404  24.646  37.474  1.00  0.00     0.191 C 
BRANCH  23  24
ATOM     24  O   UNL     1       4.178  25.191  37.117  1.00  0.00    -0.394 OA
ATOM     25  H   UNL     1       4.006  24.913  36.161  1.00  0.00     0.210 HD
ENDBRANCH  23  24
ENDBRANCH  18  23
BRANCH  20  26
ATOM     26  O   UNL     1       9.832  24.128  36.469  1.00  0.00    -0.350 OA
BRANCH  26  27
ATOM     27  C   UNL     1      10.732  25.144  36.749  1.00  0.00     0.169 C 
BRANCH  27  28
ATOM     28  C   UNL     1      12.108  24.888  36.174  1.00  0.00     0.119 C 
BRANCH  28  29
ATOM     29  N   UNL     1      12.431  25.784  35.097  1.00  0.00    -0.092 NA
ATOM     30  N   UNL     1      11.679  26.096  34.181  1.00  0.00     0.001 N 
ATOM     31  N   UNL     1      10.861  26.247  33.274  1.00  0.00    -0.003 NA
ENDBRANCH  28  29
ENDBRANCH  27  28
ENDBRANCH  26  27
ENDBRANCH  20  26
BRANCH  21  32
ATOM     32  O   UNL     1       6.123  22.843  34.148  1.00  0.00    -0.387 OA
ATOM     33  H   UNL     1       6.811  22.114  34.280  1.00  0.00     0.211 HD
ENDBRANCH  21  32
BRANCH  22  34
ATOM     34  O   UNL     1       9.178  23.665  33.724  1.00  0.00    -0.385 OA
ATOM     35  H   UNL     1       9.341  22.785  33.348  1.00  0.00     0.211 HD
ENDBRANCH  22  34
ENDBRANCH  16  17
ENDBRANCH  11  16
BRANCH  13  36
ATOM     36  O   UNL     1       4.663  29.160  33.539  1.00  0.00    -0.385 OA
ATOM     37  H   UNL     1       4.222  29.167  34.409  1.00  0.00     0.211 HD
ENDBRANCH  13  36
BRANCH  14  38
ATOM     38  O   UNL     1       5.722  26.924  31.037  1.00  0.00    -0.387 OA
ATOM     39  H   UNL     1       6.208  27.675  30.620  1.00  0.00     0.211 HD
ENDBRANCH  14  38
BRANCH  15  40
ATOM     40  O   UNL     1       4.141  25.149  31.982  1.00  0.00    -0.387 OA
ATOM     41  H   UNL     1       4.206  24.825  32.913  1.00  0.00     0.211 HD
ENDBRANCH  15  40
ENDBRANCH   9  10
ENDBRANCH   8   9
ENDBRANCH   3   8
BRANCH   3  42
ATOM     42  C   UNL     1       0.092  22.988  32.456  1.00  0.00     0.364 C 
ATOM     43  O   UNL     1      -0.719  22.341  33.189  1.00  0.00    -0.246 OA
BRANCH  42  44
ATOM     44  O   UNL     1      -0.143  23.101  31.110  1.00  0.00    -0.477 OA
ATOM     45  H   UNL     1      -1.082  23.277  30.736  1.00  0.00     0.296 HD
ENDBRANCH  42  44
ENDBRANCH   3  42
BRANCH   6  46
ATOM     46  O   UNL     1       3.479  22.968  35.445  1.00  0.00    -0.391 OA
ATOM     47  H   UNL     1       3.345  23.226  36.378  1.00  0.00     0.211 HD
ENDBRANCH   6  46
BRANCH   7  48
ATOM     48  N   UNL     1       2.172  19.983  34.146  1.00  0.00    -0.348 N 
ATOM     49  C   UNL     1       2.848  18.864  34.694  1.00  0.00     0.217 C 
ATOM     50  H   UNL     1       1.177  19.839  33.883  1.00  0.00     0.163 HD
ATOM     51  C   UNL     1       2.181  17.551  34.888  1.00  0.00     0.114 C 
ATOM     52  O   UNL     1       4.053  19.014  35.019  1.00  0.00    -0.275 OA
ENDBRANCH   7  48
ENDBRANCH   1   2
BRANCH   1  53
ATOM     53  O   UNL     1       4.897  20.856  32.666  1.00  0.00    -0.388 OA
ATOM     54  H   UNL     1       5.811  21.207  32.526  1.00  0.00     0.211 HD
ENDBRANCH   1  53
BRANCH   1  55
ATOM     55  C   UNL     1       3.688  20.538  30.647  1.00  0.00     0.165 C 
BRANCH  55  56
ATOM     56  O   UNL     1       4.920  20.388  29.964  1.00  0.00    -0.388 OA
ATOM     57  H   UNL     1       5.537  21.109  30.238  1.00  0.00     0.211 HD
ENDBRANCH  55  56
BRANCH  55  58
ATOM     58  C   UNL     1       2.684  21.082  29.691  1.00  0.00     0.154 C 
BRANCH  58  59
ATOM     59  N   UNL     1       3.201  22.198  28.928  1.00  0.00    -0.319 N 
ATOM     60  C   UNL     1       2.801  22.406  27.588  1.00  0.00     0.407 C 
ATOM     61  H   UNL     1       3.886  22.890  29.341  1.00  0.00     0.167 HD
ATOM     62  O   UNL     1       2.003  21.637  27.006  1.00  0.00    -0.225 OA
BRANCH  60  63
ATOM     63  O   UNL     1       3.274  23.480  26.861  1.00  0.00    -0.443 OA
BRANCH  63  64
ATOM     64  C   UNL     1       2.902  24.809  26.969  1.00  0.00     0.294 C 
BRANCH  64  65
ATOM     65  C   UNL     1       4.013  25.779  27.086  1.00  0.00     0.120 A 
ATOM     66  C   UNL     1       4.836  26.154  26.061  1.00  0.00     0.138 A 
ATOM     67  N   UNL     1       4.397  26.437  28.221  1.00  0.00    -0.132 NA
ATOM     68  N   UNL     1       5.706  27.033  26.591  1.00  0.00    -0.249 N 
ATOM     69  N   UNL     1       5.431  27.187  27.863  1.00  0.00    -0.067 NA
BRANCH  68  70
ATOM     70  C   UNL     1       6.784  27.706  25.898  1.00  0.00     0.180 C 
BRANCH  70  71
ATOM     71  C   UNL     1       7.530  26.635  25.090  1.00  0.00     0.161 C 
BRANCH  71  72
ATOM     72  O   UNL     1       7.513  27.033  23.776  1.00  0.00    -0.389 OA
ATOM     73  H   UNL     1       8.285  26.685  23.266  1.00  0.00     0.211 HD
ENDBRANCH  71  72
BRANCH  71  74
ATOM     74  C   UNL     1       8.939  26.494  25.617  1.00  0.00     0.189 C 
BRANCH  74  75
ATOM     75  O   UNL     1       8.953  25.670  26.720  1.00  0.00    -0.394 OA
ATOM     76  H   UNL     1       9.463  26.105  27.451  1.00  0.00     0.210 HD
ENDBRANCH  74  75
ENDBRANCH  71  74
ENDBRANCH  70  71
ENDBRANCH  68  70
ENDBRANCH  64  65
ENDBRANCH  63  64
ENDBRANCH  60  63
ENDBRANCH  58  59
ENDBRANCH  55  58
ENDBRANCH   1  55
TORSDOF 34
