REMARK VINA RESULT:    -6.407     12.920     19.361
REMARK INTER + INTRA:         -23.779
REMARK INTER:                 -15.280
REMARK INTRA:                  -8.499
REMARK UNBOUND:                -6.885
REMARK SMILES CCOC(=O)c1cccc(-n2cc(COC(=O)NC[C@@H](O)C(O)[C@@H]3O[C@@](OC[C@H]4O[C@@H](O[C@H]5[C@H](O)[C@@H](O)[C@H](OCCN=[N+]=[N-])O[C@@H]5CO)[C@H](O)[C@@H](O)[C@H]4O)(C(=O)O)C[C@H](O)[C@H]3NC(C)=O)nn2)c1
REMARK SMILES IDX 22 1 24 2 26 3 58 4 25 5 59 6 61 7 27 8 28 9 29 10 31 11
REMARK SMILES IDX 30 12 49 13 51 14 53 15 32 16 33 17 46 18 45 19 38 20 34 21
REMARK SMILES IDX 36 22 47 23 48 24 39 26 40 27 41 28 42 29 43 30 44 31 35 32
REMARK SMILES IDX 37 34 50 36 52 38 54 40 55 42 56 43 57 44 60 46 62 48 63 49
REMARK SMILES IDX 64 51 65 52 23 53 20 55 21 56 19 58 18 59 16 60 17 62 15 63
REMARK SMILES IDX 14 64 13 65 12 66 66 67 11 68 67 69 10 70 68 71 9 72 6 73
REMARK SMILES IDX 8 74 7 75 4 76 5 77 3 78 2 79 1 80
REMARK H PARENT 48 25 35 33 37 35 50 37 52 39 54 41 57 45 60 47 62 50 23 54
REMARK H PARENT 21 57 18 61
REMARK Flexibility Score: inf
ROOT
ATOM      1  C   UNL     1      21.557  29.002  20.712  1.00  0.00     0.176 C 
ENDROOT
BRANCH   1   2
ATOM      2  C   UNL     1      20.709  30.091  21.220  1.00  0.00     0.178 C 
ATOM      3  C   UNL     1      18.954  30.260  22.794  1.00  0.00     0.272 C 
ATOM      4  C   UNL     1      19.102  31.681  22.356  1.00  0.00     0.113 C 
ATOM      5  O   UNL     1      19.523  29.524  21.693  1.00  0.00    -0.332 OA
ATOM      6  C   UNL     1      19.063  31.856  20.846  1.00  0.00     0.145 C 
ATOM      7  C   UNL     1      20.355  31.183  20.274  1.00  0.00     0.142 C 
BRANCH   3   8
ATOM      8  O   UNL     1      17.643  29.901  22.818  1.00  0.00    -0.338 OA
BRANCH   8   9
ATOM      9  C   UNL     1      16.635  30.623  23.242  1.00  0.00     0.199 C 
BRANCH   9  10
ATOM     10  C   UNL     1      15.330  30.815  22.596  1.00  0.00     0.179 C 
ATOM     11  C   UNL     1      14.174  30.625  20.571  1.00  0.00     0.282 C 
ATOM     12  O   UNL     1      15.394  30.856  21.249  1.00  0.00    -0.341 OA
ATOM     13  C   UNL     1      13.002  30.780  21.490  1.00  0.00     0.202 C 
ATOM     14  C   UNL     1      13.077  29.914  22.705  1.00  0.00     0.179 C 
ATOM     15  C   UNL     1      14.497  29.549  22.974  1.00  0.00     0.177 C 
BRANCH  11  16
ATOM     16  O   UNL     1      14.322  29.409  19.972  1.00  0.00    -0.341 OA
BRANCH  16  17
ATOM     17  C   UNL     1      14.566  29.345  18.644  1.00  0.00     0.184 C 
ATOM     18  C   UNL     1      16.043  29.136  18.438  1.00  0.00     0.178 C 
ATOM     19  O   UNL     1      16.356  29.009  17.083  1.00  0.00    -0.341 OA
ATOM     20  C   UNL     1      16.146  30.278  16.476  1.00  0.00     0.281 C 
ATOM     21  C   UNL     1      14.201  30.648  17.912  1.00  0.00     0.180 C 
ATOM     22  C   UNL     1      14.654  30.467  16.465  1.00  0.00     0.202 C 
BRANCH  18  23
ATOM     23  C   UNL     1      16.521  27.903  19.149  1.00  0.00     0.191 C 
BRANCH  23  24
ATOM     24  O   UNL     1      17.091  28.251  20.402  1.00  0.00    -0.394 OA
ATOM     25  H   UNL     1      16.380  28.500  21.045  1.00  0.00     0.210 HD
ENDBRANCH  23  24
ENDBRANCH  18  23
BRANCH  20  26
ATOM     26  O   UNL     1      16.724  30.250  15.240  1.00  0.00    -0.350 OA
BRANCH  26  27
ATOM     27  C   UNL     1      16.539  29.036  14.594  1.00  0.00     0.169 C 
BRANCH  27  28
ATOM     28  C   UNL     1      17.449  28.834  13.420  1.00  0.00     0.119 C 
BRANCH  28  29
ATOM     29  N   UNL     1      18.831  29.107  13.834  1.00  0.00    -0.092 NA
ATOM     30  N   UNL     1      19.393  30.093  13.339  1.00  0.00     0.001 N 
ATOM     31  N   UNL     1      19.993  31.165  13.125  1.00  0.00    -0.003 NA
ENDBRANCH  28  29
ENDBRANCH  27  28
ENDBRANCH  26  27
ENDBRANCH  20  26
BRANCH  21  32
ATOM     32  O   UNL     1      12.826  30.817  17.845  1.00  0.00    -0.387 OA
ATOM     33  H   UNL     1      12.440  29.963  17.535  1.00  0.00     0.211 HD
ENDBRANCH  21  32
BRANCH  22  34
ATOM     34  O   UNL     1      14.267  31.553  15.685  1.00  0.00    -0.385 OA
ATOM     35  H   UNL     1      13.278  31.722  15.709  1.00  0.00     0.211 HD
ENDBRANCH  22  34
ENDBRANCH  16  17
ENDBRANCH  11  16
BRANCH  13  36
ATOM     36  O   UNL     1      12.848  32.143  21.810  1.00  0.00    -0.385 OA
ATOM     37  H   UNL     1      11.941  32.472  21.615  1.00  0.00     0.211 HD
ENDBRANCH  13  36
BRANCH  14  38
ATOM     38  O   UNL     1      12.184  28.866  22.696  1.00  0.00    -0.387 OA
ATOM     39  H   UNL     1      12.472  28.244  21.975  1.00  0.00     0.211 HD
ENDBRANCH  14  38
BRANCH  15  40
ATOM     40  O   UNL     1      14.907  28.447  22.293  1.00  0.00    -0.387 OA
ATOM     41  H   UNL     1      14.532  28.463  21.377  1.00  0.00     0.211 HD
ENDBRANCH  15  40
ENDBRANCH   9  10
ENDBRANCH   8   9
ENDBRANCH   3   8
BRANCH   3  42
ATOM     42  C   UNL     1      19.695  29.874  23.986  1.00  0.00     0.364 C 
ATOM     43  O   UNL     1      19.697  28.715  24.427  1.00  0.00    -0.246 OA
BRANCH  42  44
ATOM     44  O   UNL     1      20.445  30.818  24.689  1.00  0.00    -0.477 OA
ATOM     45  H   UNL     1      20.831  31.642  24.276  1.00  0.00     0.296 HD
ENDBRANCH  42  44
ENDBRANCH   3  42
BRANCH   6  46
ATOM     46  O   UNL     1      18.008  31.131  20.350  1.00  0.00    -0.391 OA
ATOM     47  H   UNL     1      17.167  31.453  20.756  1.00  0.00     0.211 HD
ENDBRANCH   6  46
BRANCH   7  48
ATOM     48  N   UNL     1      21.348  32.231  20.208  1.00  0.00    -0.348 N 
ATOM     49  C   UNL     1      22.209  32.443  19.083  1.00  0.00     0.217 C 
ATOM     50  H   UNL     1      21.494  32.918  21.008  1.00  0.00     0.163 HD
ATOM     51  C   UNL     1      23.222  33.532  19.050  1.00  0.00     0.114 C 
ATOM     52  O   UNL     1      22.121  31.697  18.087  1.00  0.00    -0.275 OA
ENDBRANCH   7  48
ENDBRANCH   1   2
BRANCH   1  53
ATOM     53  O   UNL     1      21.814  27.971  21.576  1.00  0.00    -0.388 OA
ATOM     54  H   UNL     1      21.744  27.086  21.147  1.00  0.00     0.211 HD
ENDBRANCH   1  53
BRANCH   1  55
ATOM     55  C   UNL     1      21.258  28.494  19.324  1.00  0.00     0.165 C 
BRANCH  55  56
ATOM     56  O   UNL     1      20.045  27.799  19.305  1.00  0.00    -0.388 OA
ATOM     57  H   UNL     1      20.125  26.986  18.743  1.00  0.00     0.211 HD
ENDBRANCH  55  56
BRANCH  55  58
ATOM     58  C   UNL     1      22.399  27.794  18.651  1.00  0.00     0.154 C 
BRANCH  58  59
ATOM     59  N   UNL     1      22.498  26.406  19.044  1.00  0.00    -0.319 N 
ATOM     60  C   UNL     1      23.525  25.954  19.901  1.00  0.00     0.407 C 
ATOM     61  H   UNL     1      21.787  25.693  18.690  1.00  0.00     0.167 HD
ATOM     62  O   UNL     1      24.420  26.674  20.399  1.00  0.00    -0.225 OA
BRANCH  60  63
ATOM     63  O   UNL     1      23.606  24.592  20.251  1.00  0.00    -0.443 OA
BRANCH  63  64
ATOM     64  C   UNL     1      22.613  23.881  20.922  1.00  0.00     0.294 C 
BRANCH  64  65
ATOM     65  C   UNL     1      22.060  24.523  22.122  1.00  0.00     0.121 A 
ATOM     66  C   UNL     1      22.649  24.555  23.381  1.00  0.00     0.144 A 
ATOM     67  N   UNL     1      20.914  25.183  22.234  1.00  0.00    -0.131 NA
ATOM     68  N   UNL     1      21.833  25.229  24.191  1.00  0.00    -0.220 N 
ATOM     69  N   UNL     1      20.788  25.606  23.491  1.00  0.00    -0.062 NA
BRANCH  68  70
ATOM     70  C   UNL     1      22.063  25.491  25.559  1.00  0.00     0.067 A 
ATOM     71  C   UNL     1      21.678  26.694  26.146  1.00  0.00     0.044 A 
ATOM     72  C   UNL     1      22.663  24.575  26.380  1.00  0.00     0.028 A 
ATOM     73  C   UNL     1      21.869  26.989  27.469  1.00  0.00     0.062 A 
ATOM     74  C   UNL     1      22.874  24.835  27.726  1.00  0.00     0.003 A 
ATOM     75  C   UNL     1      22.481  26.035  28.273  1.00  0.00     0.016 A 
BRANCH  73  76
ATOM     76  C   UNL     1      21.447  28.262  28.014  1.00  0.00     0.338 C 
ATOM     77  O   UNL     1      21.135  29.189  27.241  1.00  0.00    -0.246 OA
BRANCH  76  78
ATOM     78  O   UNL     1      21.388  28.444  29.372  1.00  0.00    -0.462 OA
BRANCH  78  79
ATOM     79  C   UNL     1      20.190  28.570  30.103  1.00  0.00     0.230 C 
ATOM     80  C   UNL     1      19.757  27.215  30.619  1.00  0.00     0.049 C 
ENDBRANCH  78  79
ENDBRANCH  76  78
ENDBRANCH  73  76
ENDBRANCH  68  70
ENDBRANCH  64  65
ENDBRANCH  63  64
ENDBRANCH  60  63
ENDBRANCH  58  59
ENDBRANCH  55  58
ENDBRANCH   1  55
TORSDOF 33
