REMARK VINA RESULT:    -7.750      0.000      0.000
REMARK INTER + INTRA:         -24.669
REMARK INTER:                 -15.904
REMARK INTRA:                  -8.765
REMARK UNBOUND:                -5.593
REMARK SMILES CC(=O)N[C@@H]1[C@@H](O)C[C@](OC[C@H]2O[C@@H](O[C@H]3[C@H](O)[C@@H](O)[C@H](OCCN=[N+]=[N-])O[C@@H]3CO)[C@H](O)[C@@H](O)[C@H]2O)(C(=O)O)O[C@H]1C(O)[C@H](O)CNC(=O)OCc1cn(C2c3ccccc3-c3ccccc32)nn1
REMARK SMILES IDX 9 1 8 2 6 3 5 4 42 5 41 6 10 7 11 8 12 9 14 10 13 11 32 12
REMARK SMILES IDX 34 13 36 14 15 15 16 16 29 17 28 18 21 19 17 20 19 21 30 22
REMARK SMILES IDX 31 23 22 25 23 26 24 27 25 28 26 29 27 30 18 31 20 33 33 35
REMARK SMILES IDX 35 37 37 39 38 41 39 42 40 43 7 45 43 47 44 48 45 50 46 51
REMARK SMILES IDX 47 53 48 54 49 55 50 57 51 58 52 59 53 60 54 61 70 62 55 63
REMARK SMILES IDX 69 64 56 65 57 66 68 67 58 68 62 69 63 70 67 71 59 72 61 73
REMARK SMILES IDX 64 74 66 75 60 76 65 77 4 78 2 79 1 81 3 82
REMARK H PARENT 31 24 18 32 20 34 33 36 35 38 37 40 40 44 7 46 44 49 46 52
REMARK H PARENT 48 56 4 80
REMARK Flexibility Score: inf
ROOT
ATOM      1  C   UNL     1      22.722  25.405  22.212  1.00  0.00     0.272 C 
ATOM      2  C   UNL     1      23.152  23.996  22.281  1.00  0.00     0.113 C 
ATOM      3  C   UNL     1      24.575  23.803  21.916  1.00  0.00     0.145 C 
ATOM      4  C   UNL     1      25.154  24.921  21.094  1.00  0.00     0.142 C 
ATOM      5  C   UNL     1      24.064  25.550  20.298  1.00  0.00     0.178 C 
ATOM      6  O   UNL     1      22.987  26.020  20.979  1.00  0.00    -0.332 OA
ENDROOT
BRANCH   1   7
ATOM      7  O   UNL     1      23.255  26.187  23.202  1.00  0.00    -0.338 OA
BRANCH   7   8
ATOM      8  C   UNL     1      23.340  25.634  24.450  1.00  0.00     0.199 C 
BRANCH   8   9
ATOM      9  C   UNL     1      24.544  26.187  25.180  1.00  0.00     0.179 C 
ATOM     10  C   UNL     1      23.246  27.567  26.561  1.00  0.00     0.282 C 
ATOM     11  O   UNL     1      24.232  27.452  25.623  1.00  0.00    -0.341 OA
ATOM     12  C   UNL     1      23.406  26.565  27.639  1.00  0.00     0.202 C 
ATOM     13  C   UNL     1      24.890  26.155  27.607  1.00  0.00     0.179 C 
ATOM     14  C   UNL     1      24.986  25.309  26.319  1.00  0.00     0.177 C 
BRANCH  10  15
ATOM     15  O   UNL     1      22.008  27.707  25.993  1.00  0.00    -0.341 OA
BRANCH  15  16
ATOM     16  C   UNL     1      21.610  28.979  25.682  1.00  0.00     0.184 C 
ATOM     17  C   UNL     1      20.870  29.597  26.808  1.00  0.00     0.178 C 
ATOM     18  O   UNL     1      19.784  30.366  26.403  1.00  0.00    -0.341 OA
ATOM     19  C   UNL     1      19.966  30.997  25.216  1.00  0.00     0.281 C 
ATOM     20  C   UNL     1      20.749  28.817  24.432  1.00  0.00     0.180 C 
ATOM     21  C   UNL     1      19.867  29.950  24.111  1.00  0.00     0.202 C 
BRANCH  17  22
ATOM     22  C   UNL     1      21.757  30.490  27.649  1.00  0.00     0.191 C 
BRANCH  22  23
ATOM     23  O   UNL     1      22.981  30.739  26.983  1.00  0.00    -0.394 OA
ATOM     24  H   UNL     1      23.688  30.966  27.660  1.00  0.00     0.210 HD
ENDBRANCH  22  23
ENDBRANCH  17  22
BRANCH  19  25
ATOM     25  O   UNL     1      21.171  31.647  25.035  1.00  0.00    -0.350 OA
BRANCH  25  26
ATOM     26  C   UNL     1      21.337  32.198  23.796  1.00  0.00     0.169 C 
BRANCH  26  27
ATOM     27  C   UNL     1      22.693  32.086  23.189  1.00  0.00     0.119 C 
BRANCH  27  28
ATOM     28  N   UNL     1      23.582  31.211  23.927  1.00  0.00    -0.092 NA
ATOM     29  N   UNL     1      24.119  30.303  23.281  1.00  0.00     0.001 N 
ATOM     30  N   UNL     1      24.612  29.312  22.730  1.00  0.00    -0.003 NA
ENDBRANCH  27  28
ENDBRANCH  26  27
ENDBRANCH  25  26
ENDBRANCH  19  25
BRANCH  20  31
ATOM     31  O   UNL     1      21.600  28.597  23.315  1.00  0.00    -0.387 OA
ATOM     32  H   UNL     1      22.518  28.388  23.621  1.00  0.00     0.211 HD
ENDBRANCH  20  31
BRANCH  21  33
ATOM     33  O   UNL     1      18.529  29.533  24.073  1.00  0.00    -0.385 OA
ATOM     34  H   UNL     1      18.001  29.876  24.840  1.00  0.00     0.211 HD
ENDBRANCH  21  33
ENDBRANCH  15  16
ENDBRANCH  10  15
BRANCH  12  35
ATOM     35  O   UNL     1      23.205  27.083  28.917  1.00  0.00    -0.385 OA
ATOM     36  H   UNL     1      23.582  27.993  28.948  1.00  0.00     0.211 HD
ENDBRANCH  12  35
BRANCH  13  37
ATOM     37  O   UNL     1      25.210  25.325  28.655  1.00  0.00    -0.387 OA
ATOM     38  H   UNL     1      25.148  24.389  28.346  1.00  0.00     0.211 HD
ENDBRANCH  13  37
BRANCH  14  39
ATOM     39  O   UNL     1      24.078  24.280  26.483  1.00  0.00    -0.387 OA
ATOM     40  H   UNL     1      24.170  23.571  25.800  1.00  0.00     0.211 HD
ENDBRANCH  14  39
ENDBRANCH   8   9
ENDBRANCH   7   8
ENDBRANCH   1   7
BRANCH   1  41
ATOM     41  C   UNL     1      21.197  25.488  22.277  1.00  0.00     0.364 C 
ATOM     42  O   UNL     1      20.646  26.393  21.642  1.00  0.00    -0.246 OA
BRANCH  41  43
ATOM     43  O   UNL     1      20.457  24.595  23.011  1.00  0.00    -0.477 OA
ATOM     44  H   UNL     1      20.000  23.788  22.570  1.00  0.00     0.296 HD
ENDBRANCH  41  43
ENDBRANCH   1  41
BRANCH   3  45
ATOM     45  O   UNL     1      25.427  23.544  22.990  1.00  0.00    -0.391 OA
ATOM     46  H   UNL     1      25.583  24.316  23.554  1.00  0.00     0.211 HD
ENDBRANCH   3  45
BRANCH   5  47
ATOM     47  C   UNL     1      24.659  26.693  19.478  1.00  0.00     0.176 C 
BRANCH  47  48
ATOM     48  O   UNL     1      25.390  27.511  20.300  1.00  0.00    -0.388 OA
ATOM     49  H   UNL     1      24.828  28.257  20.668  1.00  0.00     0.211 HD
ENDBRANCH  47  48
BRANCH  47  50
ATOM     50  C   UNL     1      23.535  27.422  18.806  1.00  0.00     0.165 C 
BRANCH  50  51
ATOM     51  O   UNL     1      23.795  27.516  17.427  1.00  0.00    -0.388 OA
ATOM     52  H   UNL     1      24.671  27.126  17.212  1.00  0.00     0.211 HD
ENDBRANCH  50  51
BRANCH  50  53
ATOM     53  C   UNL     1      23.577  28.867  19.317  1.00  0.00     0.154 C 
BRANCH  53  54
ATOM     54  N   UNL     1      22.540  29.021  20.290  1.00  0.00    -0.319 N 
ATOM     55  C   UNL     1      21.263  29.488  19.915  1.00  0.00     0.407 C 
ATOM     56  H   UNL     1      22.729  28.782  21.293  1.00  0.00     0.167 HD
ATOM     57  O   UNL     1      21.003  29.792  18.723  1.00  0.00    -0.225 OA
BRANCH  55  58
ATOM     58  O   UNL     1      20.240  29.632  20.831  1.00  0.00    -0.443 OA
BRANCH  58  59
ATOM     59  C   UNL     1      19.131  30.493  20.622  1.00  0.00     0.294 C 
BRANCH  59  60
ATOM     60  C   UNL     1      17.930  29.636  20.456  1.00  0.00     0.120 A 
ATOM     61  C   UNL     1      16.616  30.032  20.248  1.00  0.00     0.139 A 
ATOM     62  N   UNL     1      17.897  28.295  20.473  1.00  0.00    -0.132 NA
ATOM     63  N   UNL     1      15.840  28.941  20.146  1.00  0.00    -0.240 N 
ATOM     64  N   UNL     1      16.648  27.903  20.287  1.00  0.00    -0.066 NA
BRANCH  63  65
ATOM     65  C   UNL     1      14.394  28.912  19.922  1.00  0.00     0.170 C 
ATOM     66  C   UNL     1      14.081  29.836  18.829  1.00  0.00    -0.011 A 
ATOM     67  C   UNL     1      13.681  29.477  21.082  1.00  0.00    -0.011 A 
ATOM     68  C   UNL     1      14.450  29.849  17.489  1.00  0.00     0.007 A 
ATOM     69  C   UNL     1      13.274  30.853  19.264  1.00  0.00    -0.012 A 
ATOM     70  C   UNL     1      13.027  30.619  20.685  1.00  0.00    -0.012 A 
ATOM     71  C   UNL     1      13.569  29.077  22.400  1.00  0.00     0.007 A 
ATOM     72  C   UNL     1      14.016  30.848  16.648  1.00  0.00     0.000 A 
ATOM     73  C   UNL     1      12.837  31.859  18.415  1.00  0.00     0.009 A 
ATOM     74  C   UNL     1      12.275  31.353  21.574  1.00  0.00     0.009 A 
ATOM     75  C   UNL     1      12.823  29.796  23.305  1.00  0.00     0.000 A 
ATOM     76  C   UNL     1      13.198  31.878  17.088  1.00  0.00     0.001 A 
ATOM     77  C   UNL     1      12.173  30.939  22.890  1.00  0.00     0.001 A 
ENDBRANCH  63  65
ENDBRANCH  59  60
ENDBRANCH  58  59
ENDBRANCH  55  58
ENDBRANCH  53  54
ENDBRANCH  50  53
ENDBRANCH  47  50
ENDBRANCH   5  47
BRANCH   4  78
ATOM     78  N   UNL     1      26.060  24.286  20.118  1.00  0.00    -0.348 N 
ATOM     79  C   UNL     1      27.422  24.666  20.009  1.00  0.00     0.217 C 
ATOM     80  H   UNL     1      25.669  23.553  19.510  1.00  0.00     0.163 HD
ATOM     81  C   UNL     1      28.328  24.013  19.013  1.00  0.00     0.114 C 
ATOM     82  O   UNL     1      27.847  25.572  20.779  1.00  0.00    -0.275 OA
ENDBRANCH   4  78
TORSDOF 30
