REMARK VINA RESULT:    -6.346      8.088     13.543
REMARK INTER + INTRA:         -23.951
REMARK INTER:                 -17.567
REMARK INTRA:                  -6.384
REMARK UNBOUND:                -7.402
REMARK SMILES CC(=O)N[C@@H]1[C@@H](O)C[C@](OC[C@H]2O[C@@H](O[C@H]3[C@H](O)[C@@H](O)[C@H](OCCN=[N+]=[N-])O[C@@H]3CO)[C@H](O)[C@@H](O)[C@H]2O)(C(=O)O)O[C@H]1C(O)[C@H](O)CNC(=O)OCc1cn(-c2ccc(S(=O)(=O)c3ccc(N)cc3)cc2)nn1
REMARK SMILES IDX 43 1 42 2 9 3 8 4 41 5 6 6 5 7 10 8 11 9 12 10 14 11 13 12
REMARK SMILES IDX 32 13 34 14 36 15 15 16 16 17 29 18 28 19 21 20 17 21 19 22
REMARK SMILES IDX 30 23 31 24 22 26 23 27 24 28 25 29 26 30 27 31 18 32 20 34
REMARK SMILES IDX 33 36 35 38 37 40 38 42 39 43 40 44 7 46 4 48 2 49 1 51 3 52
REMARK SMILES IDX 44 53 45 55 46 56 47 58 48 59 49 60 50 62 51 63 52 64 53 65
REMARK SMILES IDX 54 66 73 67 55 68 72 69 56 70 57 71 71 72 58 73 70 74 59 75
REMARK SMILES IDX 60 76 61 77 62 78 63 79 64 80 69 81 65 82 68 83 66 84 67 85
REMARK H PARENT 31 25 18 33 20 35 33 37 35 39 37 41 40 45 7 47 4 50 44 54
REMARK H PARENT 46 57 48 61 67 86 67 87
REMARK Flexibility Score: inf
ROOT
ATOM      1  C   UNL     1      31.962  21.899  20.946  1.00  0.00     0.176 C 
ENDROOT
BRANCH   1   2
ATOM      2  C   UNL     1      30.695  21.169  21.390  1.00  0.00     0.178 C 
ATOM      3  C   UNL     1      28.679  20.309  20.651  1.00  0.00     0.272 C 
ATOM      4  C   UNL     1      27.976  20.900  21.829  1.00  0.00     0.113 C 
ATOM      5  O   UNL     1      29.836  21.046  20.340  1.00  0.00    -0.332 OA
ATOM      6  C   UNL     1      28.649  22.217  22.182  1.00  0.00     0.145 C 
ATOM      7  C   UNL     1      30.064  21.939  22.561  1.00  0.00     0.142 C 
BRANCH   3   8
ATOM      8  O   UNL     1      27.945  20.314  19.462  1.00  0.00    -0.338 OA
BRANCH   8   9
ATOM      9  C   UNL     1      28.499  20.981  18.411  1.00  0.00     0.199 C 
BRANCH   9  10
ATOM     10  C   UNL     1      28.246  20.210  17.135  1.00  0.00     0.179 C 
ATOM     11  C   UNL     1      27.344  20.353  15.042  1.00  0.00     0.282 C 
ATOM     12  O   UNL     1      27.728  21.100  16.187  1.00  0.00    -0.341 OA
ATOM     13  C   UNL     1      28.631  19.946  14.384  1.00  0.00     0.202 C 
ATOM     14  C   UNL     1      29.348  18.962  15.280  1.00  0.00     0.179 C 
ATOM     15  C   UNL     1      29.505  19.568  16.664  1.00  0.00     0.177 C 
BRANCH  11  16
ATOM     16  O   UNL     1      26.517  21.144  14.287  1.00  0.00    -0.341 OA
BRANCH  16  17
ATOM     17  C   UNL     1      25.222  20.581  14.202  1.00  0.00     0.184 C 
ATOM     18  C   UNL     1      24.906  20.378  12.754  1.00  0.00     0.178 C 
ATOM     19  O   UNL     1      23.726  20.927  12.327  1.00  0.00    -0.341 OA
ATOM     20  C   UNL     1      23.488  22.234  12.638  1.00  0.00     0.281 C 
ATOM     21  C   UNL     1      24.313  21.623  14.838  1.00  0.00     0.180 C 
ATOM     22  C   UNL     1      24.246  22.758  13.836  1.00  0.00     0.202 C 
BRANCH  18  23
ATOM     23  C   UNL     1      24.746  18.857  12.571  1.00  0.00     0.191 C 
BRANCH  23  24
ATOM     24  O   UNL     1      24.899  18.162  13.745  1.00  0.00    -0.394 OA
ATOM     25  H   UNL     1      24.365  17.331  13.808  1.00  0.00     0.210 HD
ENDBRANCH  23  24
ENDBRANCH  18  23
BRANCH  20  26
ATOM     26  O   UNL     1      22.136  22.356  12.939  1.00  0.00    -0.350 OA
BRANCH  26  27
ATOM     27  C   UNL     1      21.288  22.294  11.867  1.00  0.00     0.169 C 
BRANCH  27  28
ATOM     28  C   UNL     1      20.033  21.565  12.213  1.00  0.00     0.119 C 
BRANCH  28  29
ATOM     29  N   UNL     1      20.086  20.203  11.655  1.00  0.00    -0.092 NA
ATOM     30  N   UNL     1      19.233  19.366  11.943  1.00  0.00     0.001 N 
ATOM     31  N   UNL     1      18.197  18.683  11.857  1.00  0.00    -0.003 NA
ENDBRANCH  28  29
ENDBRANCH  27  28
ENDBRANCH  26  27
ENDBRANCH  20  26
BRANCH  21  32
ATOM     32  O   UNL     1      23.051  21.109  15.019  1.00  0.00    -0.387 OA
ATOM     33  H   UNL     1      22.712  21.324  15.930  1.00  0.00     0.211 HD
ENDBRANCH  21  32
BRANCH  22  34
ATOM     34  O   UNL     1      25.486  23.266  13.524  1.00  0.00    -0.385 OA
ATOM     35  H   UNL     1      26.173  23.063  14.212  1.00  0.00     0.211 HD
ENDBRANCH  22  34
ENDBRANCH  16  17
ENDBRANCH  11  16
BRANCH  13  36
ATOM     36  O   UNL     1      28.439  19.430  13.104  1.00  0.00    -0.385 OA
ATOM     37  H   UNL     1      28.080  20.190  12.545  1.00  0.00     0.211 HD
ENDBRANCH  13  36
BRANCH  14  38
ATOM     38  O   UNL     1      30.653  18.793  14.794  1.00  0.00    -0.387 OA
ATOM     39  H   UNL     1      31.200  18.324  15.450  1.00  0.00     0.211 HD
ENDBRANCH  14  38
BRANCH  15  40
ATOM     40  O   UNL     1      30.582  20.442  16.703  1.00  0.00    -0.387 OA
ATOM     41  H   UNL     1      31.286  20.090  17.295  1.00  0.00     0.211 HD
ENDBRANCH  15  40
ENDBRANCH   9  10
ENDBRANCH   8   9
ENDBRANCH   3   8
BRANCH   3  42
ATOM     42  C   UNL     1      29.110  18.901  20.862  1.00  0.00     0.364 C 
ATOM     43  O   UNL     1      29.776  18.215  20.052  1.00  0.00    -0.246 OA
BRANCH  42  44
ATOM     44  O   UNL     1      28.761  18.265  22.042  1.00  0.00    -0.477 OA
ATOM     45  H   UNL     1      29.472  17.985  22.736  1.00  0.00     0.296 HD
ENDBRANCH  42  44
ENDBRANCH   3  42
BRANCH   6  46
ATOM     46  O   UNL     1      28.666  22.967  21.001  1.00  0.00    -0.391 OA
ATOM     47  H   UNL     1      29.490  22.798  20.469  1.00  0.00     0.211 HD
ENDBRANCH   6  46
BRANCH   7  48
ATOM     48  N   UNL     1      30.246  21.213  23.778  1.00  0.00    -0.348 N 
ATOM     49  C   UNL     1      31.192  21.557  24.785  1.00  0.00     0.217 C 
ATOM     50  H   UNL     1      29.649  20.370  23.960  1.00  0.00     0.163 HD
ATOM     51  C   UNL     1      31.286  20.723  26.009  1.00  0.00     0.114 C 
ATOM     52  O   UNL     1      31.906  22.551  24.596  1.00  0.00    -0.275 OA
ENDBRANCH   7  48
ENDBRANCH   1   2
BRANCH   1  53
ATOM     53  O   UNL     1      33.013  21.646  21.812  1.00  0.00    -0.388 OA
ATOM     54  H   UNL     1      32.894  22.167  22.661  1.00  0.00     0.211 HD
ENDBRANCH   1  53
BRANCH   1  55
ATOM     55  C   UNL     1      32.280  21.674  19.518  1.00  0.00     0.165 C 
BRANCH  55  56
ATOM     56  O   UNL     1      33.611  21.279  19.354  1.00  0.00    -0.388 OA
ATOM     57  H   UNL     1      34.253  22.003  19.434  1.00  0.00     0.211 HD
ENDBRANCH  55  56
BRANCH  55  58
ATOM     58  C   UNL     1      32.128  22.948  18.714  1.00  0.00     0.154 C 
BRANCH  58  59
ATOM     59  N   UNL     1      30.766  23.268  18.394  1.00  0.00    -0.319 N 
ATOM     60  C   UNL     1      30.377  24.630  18.354  1.00  0.00     0.407 C 
ATOM     61  H   UNL     1      30.069  22.534  18.193  1.00  0.00     0.167 HD
ATOM     62  O   UNL     1      31.249  25.515  18.592  1.00  0.00    -0.225 OA
BRANCH  60  63
ATOM     63  O   UNL     1      29.104  25.072  18.075  1.00  0.00    -0.443 OA
BRANCH  63  64
ATOM     64  C   UNL     1      28.241  24.472  17.132  1.00  0.00     0.294 C 
BRANCH  64  65
ATOM     65  C   UNL     1      26.867  24.461  17.691  1.00  0.00     0.121 A 
ATOM     66  C   UNL     1      26.417  24.749  18.964  1.00  0.00     0.144 A 
ATOM     67  N   UNL     1      25.730  24.162  16.986  1.00  0.00    -0.131 NA
ATOM     68  N   UNL     1      25.055  24.621  18.994  1.00  0.00    -0.220 N 
ATOM     69  N   UNL     1      24.693  24.268  17.786  1.00  0.00    -0.062 NA
BRANCH  68  70
ATOM     70  C   UNL     1      24.185  24.836  20.085  1.00  0.00     0.066 A 
ATOM     71  C   UNL     1      24.350  25.948  20.916  1.00  0.00     0.030 A 
ATOM     72  C   UNL     1      23.150  23.992  20.399  1.00  0.00     0.030 A 
ATOM     73  C   UNL     1      23.533  26.202  21.989  1.00  0.00     0.023 A 
ATOM     74  C   UNL     1      22.315  24.244  21.489  1.00  0.00     0.023 A 
ATOM     75  C   UNL     1      22.496  25.347  22.293  1.00  0.00     0.072 A 
BRANCH  75  76
ATOM     76  S   UNL     1      21.444  25.662  23.657  1.00  0.00     0.206 S 
ATOM     77  O   UNL     1      20.419  24.542  23.737  1.00  0.00    -0.219 OA
ATOM     78  O   UNL     1      20.790  27.001  23.594  1.00  0.00    -0.219 OA
BRANCH  76  79
ATOM     79  C   UNL     1      22.391  25.537  25.140  1.00  0.00     0.072 A 
ATOM     80  C   UNL     1      22.128  26.361  26.200  1.00  0.00     0.023 A 
ATOM     81  C   UNL     1      23.404  24.613  25.251  1.00  0.00     0.023 A 
ATOM     82  C   UNL     1      22.868  26.256  27.342  1.00  0.00     0.027 A 
ATOM     83  C   UNL     1      24.139  24.519  26.404  1.00  0.00     0.027 A 
ATOM     84  C   UNL     1      23.900  25.329  27.478  1.00  0.00     0.031 A 
BRANCH  84  85
ATOM     85  N   UNL     1      24.642  25.256  28.677  1.00  0.00    -0.399 N 
ATOM     86  H   UNL     1      25.671  25.248  28.669  1.00  0.00     0.156 HD
ATOM     87  H   UNL     1      24.144  25.210  29.584  1.00  0.00     0.156 HD
ENDBRANCH  84  85
ENDBRANCH  76  79
ENDBRANCH  75  76
ENDBRANCH  68  70
ENDBRANCH  64  65
ENDBRANCH  63  64
ENDBRANCH  60  63
ENDBRANCH  58  59
ENDBRANCH  55  58
ENDBRANCH   1  55
TORSDOF 33
