REMARK VINA RESULT:    -5.628      2.627      9.715
REMARK INTER + INTRA:         -22.112
REMARK INTER:                 -13.885
REMARK INTRA:                  -8.227
REMARK UNBOUND:                -7.602
REMARK SMILES CC(=O)N[C@@H]1[C@@H](O)C[C@](OC[C@H]2O[C@@H](O[C@H]3[C@H](O)[C@@H](O)[C@H](OCCN=[N+]=[N-])O[C@@H]3CO)[C@H](O)[C@@H](O)[C@H]2O)(C(=O)O)O[C@H]1C(O)[C@H](O)CNC(=O)OCc1cn(CC(=O)Nc2ncccn2)nn1
REMARK SMILES IDX 9 1 8 2 6 3 5 4 42 5 41 6 10 7 11 8 12 9 14 10 13 11 32 12
REMARK SMILES IDX 34 13 36 14 15 15 16 16 29 17 28 18 21 19 17 20 19 21 30 22
REMARK SMILES IDX 31 23 22 25 23 26 24 27 25 28 26 29 27 30 18 31 20 33 33 35
REMARK SMILES IDX 35 37 37 39 38 41 39 42 40 43 7 45 43 47 44 48 45 50 46 51
REMARK SMILES IDX 47 53 48 54 49 55 50 57 51 58 52 59 53 60 54 61 67 62 55 63
REMARK SMILES IDX 66 64 56 65 57 66 58 67 59 68 60 70 61 71 65 72 62 73 64 74
REMARK SMILES IDX 63 75 4 76 2 77 1 79 3 80
REMARK H PARENT 31 24 18 32 20 34 33 36 35 38 37 40 40 44 7 46 44 49 46 52
REMARK H PARENT 48 56 59 69 4 78
REMARK Flexibility Score: inf
ROOT
ATOM      1  C   UNL     1      19.907  29.350  16.561  1.00  0.00     0.272 C 
ATOM      2  C   UNL     1      19.774  30.706  15.889  1.00  0.00     0.113 C 
ATOM      3  C   UNL     1      18.653  31.471  16.465  1.00  0.00     0.145 C 
ATOM      4  C   UNL     1      18.565  31.468  17.984  1.00  0.00     0.142 C 
ATOM      5  C   UNL     1      19.148  30.279  18.602  1.00  0.00     0.178 C 
ATOM      6  O   UNL     1      20.239  29.784  17.900  1.00  0.00    -0.332 OA
ENDROOT
BRANCH   1   7
ATOM      7  O   UNL     1      20.991  28.743  16.094  1.00  0.00    -0.338 OA
BRANCH   7   8
ATOM      8  C   UNL     1      21.498  27.581  16.009  1.00  0.00     0.199 C 
BRANCH   8   9
ATOM      9  C   UNL     1      22.709  27.042  16.695  1.00  0.00     0.179 C 
ATOM     10  C   UNL     1      23.202  25.499  18.377  1.00  0.00     0.282 C 
ATOM     11  O   UNL     1      22.198  26.164  17.745  1.00  0.00    -0.341 OA
ATOM     12  C   UNL     1      23.664  24.295  17.495  1.00  0.00     0.202 C 
ATOM     13  C   UNL     1      23.138  24.679  16.127  1.00  0.00     0.179 C 
ATOM     14  C   UNL     1      23.603  26.140  15.928  1.00  0.00     0.177 C 
BRANCH  10  15
ATOM     15  O   UNL     1      22.723  24.959  19.578  1.00  0.00    -0.341 OA
BRANCH  15  16
ATOM     16  C   UNL     1      23.452  25.379  20.684  1.00  0.00     0.184 C 
ATOM     17  C   UNL     1      23.725  24.145  21.554  1.00  0.00     0.178 C 
ATOM     18  O   UNL     1      23.342  24.365  22.868  1.00  0.00    -0.341 OA
ATOM     19  C   UNL     1      21.958  24.576  22.963  1.00  0.00     0.281 C 
ATOM     20  C   UNL     1      22.710  26.428  21.424  1.00  0.00     0.180 C 
ATOM     21  C   UNL     1      21.701  25.955  22.427  1.00  0.00     0.202 C 
BRANCH  17  22
ATOM     22  C   UNL     1      25.216  23.853  21.570  1.00  0.00     0.191 C 
BRANCH  22  23
ATOM     23  O   UNL     1      25.815  24.248  20.373  1.00  0.00    -0.394 OA
ATOM     24  H   UNL     1      25.756  23.542  19.673  1.00  0.00     0.210 HD
ENDBRANCH  22  23
ENDBRANCH  17  22
BRANCH  19  25
ATOM     25  O   UNL     1      21.659  24.510  24.311  1.00  0.00    -0.350 OA
BRANCH  25  26
ATOM     26  C   UNL     1      22.606  25.098  25.122  1.00  0.00     0.169 C 
BRANCH  26  27
ATOM     27  C   UNL     1      22.042  26.099  26.107  1.00  0.00     0.119 C 
BRANCH  27  28
ATOM     28  N   UNL     1      22.148  27.461  25.611  1.00  0.00    -0.092 NA
ATOM     29  N   UNL     1      21.173  28.069  25.158  1.00  0.00     0.001 N 
ATOM     30  N   UNL     1      20.137  28.455  24.628  1.00  0.00    -0.003 NA
ENDBRANCH  27  28
ENDBRANCH  26  27
ENDBRANCH  25  26
ENDBRANCH  19  25
BRANCH  20  31
ATOM     31  O   UNL     1      23.640  27.211  22.162  1.00  0.00    -0.387 OA
ATOM     32  H   UNL     1      24.271  26.603  22.644  1.00  0.00     0.211 HD
ENDBRANCH  20  31
BRANCH  21  33
ATOM     33  O   UNL     1      20.439  26.001  21.845  1.00  0.00    -0.385 OA
ATOM     34  H   UNL     1      19.844  26.571  22.389  1.00  0.00     0.211 HD
ENDBRANCH  21  33
ENDBRANCH  15  16
ENDBRANCH  10  15
BRANCH  12  35
ATOM     35  O   UNL     1      25.060  24.352  17.395  1.00  0.00    -0.385 OA
ATOM     36  H   UNL     1      25.407  23.587  17.929  1.00  0.00     0.211 HD
ENDBRANCH  12  35
BRANCH  13  37
ATOM     37  O   UNL     1      21.785  24.526  15.992  1.00  0.00    -0.387 OA
ATOM     38  H   UNL     1      21.400  23.848  16.581  1.00  0.00     0.211 HD
ENDBRANCH  13  37
BRANCH  14  39
ATOM     39  O   UNL     1      23.815  26.335  14.610  1.00  0.00    -0.387 OA
ATOM     40  H   UNL     1      24.742  26.618  14.413  1.00  0.00     0.211 HD
ENDBRANCH  14  39
ENDBRANCH   8   9
ENDBRANCH   7   8
ENDBRANCH   1   7
BRANCH   1  41
ATOM     41  C   UNL     1      18.702  28.550  16.626  1.00  0.00     0.364 C 
ATOM     42  O   UNL     1      18.535  27.726  17.588  1.00  0.00    -0.246 OA
BRANCH  41  43
ATOM     43  O   UNL     1      17.673  28.581  15.715  1.00  0.00    -0.477 OA
ATOM     44  H   UNL     1      17.284  29.395  15.303  1.00  0.00     0.296 HD
ENDBRANCH  41  43
ENDBRANCH   1  41
BRANCH   3  45
ATOM     45  O   UNL     1      18.789  32.806  16.009  1.00  0.00    -0.391 OA
ATOM     46  H   UNL     1      19.556  32.847  15.361  1.00  0.00     0.211 HD
ENDBRANCH   3  45
BRANCH   5  47
ATOM     47  C   UNL     1      19.705  30.496  20.034  1.00  0.00     0.176 C 
BRANCH  47  48
ATOM     48  O   UNL     1      20.105  31.745  20.317  1.00  0.00    -0.388 OA
ATOM     49  H   UNL     1      20.095  31.991  21.284  1.00  0.00     0.211 HD
ENDBRANCH  47  48
BRANCH  47  50
ATOM     50  C   UNL     1      19.162  29.634  21.065  1.00  0.00     0.165 C 
BRANCH  50  51
ATOM     51  O   UNL     1      19.113  28.291  20.403  1.00  0.00    -0.388 OA
ATOM     52  H   UNL     1      19.333  27.625  21.072  1.00  0.00     0.211 HD
ENDBRANCH  50  51
BRANCH  50  53
ATOM     53  C   UNL     1      17.893  29.785  21.746  1.00  0.00     0.154 C 
BRANCH  53  54
ATOM     54  N   UNL     1      16.613  29.570  21.252  1.00  0.00    -0.319 N 
ATOM     55  C   UNL     1      15.949  28.478  20.657  1.00  0.00     0.407 C 
ATOM     56  H   UNL     1      15.956  30.470  21.345  1.00  0.00     0.167 HD
ATOM     57  O   UNL     1      16.535  27.396  20.463  1.00  0.00    -0.225 OA
BRANCH  55  58
ATOM     58  O   UNL     1      14.635  28.560  20.275  1.00  0.00    -0.443 OA
BRANCH  58  59
ATOM     59  C   UNL     1      13.952  29.587  19.712  1.00  0.00     0.294 C 
BRANCH  59  60
ATOM     60  C   UNL     1      14.300  29.852  18.298  1.00  0.00     0.120 A 
ATOM     61  C   UNL     1      13.494  30.496  17.349  1.00  0.00     0.138 A 
ATOM     62  N   UNL     1      15.404  29.494  17.584  1.00  0.00    -0.132 NA
ATOM     63  N   UNL     1      14.097  30.507  16.156  1.00  0.00    -0.243 N 
ATOM     64  N   UNL     1      15.251  29.891  16.341  1.00  0.00    -0.067 NA
BRANCH  63  65
ATOM     65  C   UNL     1      13.643  31.058  14.894  1.00  0.00     0.246 C 
BRANCH  65  66
ATOM     66  C   UNL     1      14.679  30.711  13.846  1.00  0.00     0.248 C 
ATOM     67  O   UNL     1      14.433  29.910  12.912  1.00  0.00    -0.272 OA
ATOM     68  N   UNL     1      15.968  31.297  13.905  1.00  0.00    -0.293 N 
ATOM     69  H   UNL     1      16.118  31.959  14.707  1.00  0.00     0.173 HD
BRANCH  68  70
ATOM     70  C   UNL     1      17.025  31.081  12.996  1.00  0.00     0.229 A 
ATOM     71  N   UNL     1      17.858  30.025  13.032  1.00  0.00    -0.221 NA
ATOM     72  N   UNL     1      17.224  31.997  12.027  1.00  0.00    -0.221 NA
ATOM     73  C   UNL     1      18.877  29.858  12.139  1.00  0.00     0.117 A 
ATOM     74  C   UNL     1      18.202  31.883  11.128  1.00  0.00     0.117 A 
ATOM     75  C   UNL     1      19.054  30.813  11.161  1.00  0.00     0.040 A 
ENDBRANCH  68  70
ENDBRANCH  65  66
ENDBRANCH  63  65
ENDBRANCH  59  60
ENDBRANCH  58  59
ENDBRANCH  55  58
ENDBRANCH  53  54
ENDBRANCH  50  53
ENDBRANCH  47  50
ENDBRANCH   5  47
BRANCH   4  76
ATOM     76  N   UNL     1      17.203  31.781  18.297  1.00  0.00    -0.348 N 
ATOM     77  C   UNL     1      16.869  32.810  19.255  1.00  0.00     0.217 C 
ATOM     78  H   UNL     1      16.394  31.277  17.845  1.00  0.00     0.163 HD
ATOM     79  C   UNL     1      15.443  33.085  19.527  1.00  0.00     0.114 C 
ATOM     80  O   UNL     1      17.775  33.443  19.835  1.00  0.00    -0.275 OA
ENDBRANCH   4  76
TORSDOF 32
