REMARK VINA RESULT:    -6.322     15.150     20.977
REMARK INTER + INTRA:         -23.095
REMARK INTER:                 -17.139
REMARK INTRA:                  -5.956
REMARK UNBOUND:                -6.425
REMARK SMILES CC(=O)N[C@@H]1[C@@H](O)C[C@](OC[C@H]2O[C@@H](O[C@H]3[C@H](O)[C@@H](O)[C@H](OCCN=[N+]=[N-])O[C@@H]3CO)[C@H](O)[C@@H](O)[C@H]2O)(C(=O)O)O[C@H]1C(O)[C@H](O)CNC(=O)OCc1cn(-c2ccc(S(=O)(=O)Nc3nccs3)cc2)nn1
REMARK SMILES IDX 43 1 42 2 9 3 8 4 41 5 6 6 5 7 10 8 11 9 12 10 14 11 13 12
REMARK SMILES IDX 32 13 34 14 36 15 15 16 16 17 29 18 28 19 21 20 17 21 19 22
REMARK SMILES IDX 30 23 31 24 22 26 23 27 24 28 25 29 26 30 27 31 18 32 20 34
REMARK SMILES IDX 33 36 35 38 37 40 38 42 39 43 40 44 7 46 4 48 2 49 1 51 3 52
REMARK SMILES IDX 44 53 45 55 46 56 47 58 48 59 49 60 50 62 51 63 52 64 53 65
REMARK SMILES IDX 54 66 72 67 55 68 71 69 56 70 57 71 70 72 58 73 69 74 59 75
REMARK SMILES IDX 60 76 61 77 62 78 63 79 64 81 65 82 68 83 66 84 67 85
REMARK H PARENT 31 25 18 33 20 35 33 37 35 39 37 41 40 45 7 47 4 50 44 54
REMARK H PARENT 46 57 48 61 63 80
REMARK Flexibility Score: inf
ROOT
ATOM      1  C   UNL     1       5.276  23.128  32.932  1.00  0.00     0.176 C 
ENDROOT
BRANCH   1   2
ATOM      2  C   UNL     1       3.813  22.836  32.977  1.00  0.00     0.178 C 
ATOM      3  C   UNL     1       2.361  21.506  31.717  1.00  0.00     0.272 C 
ATOM      4  C   UNL     1       1.433  22.077  32.811  1.00  0.00     0.113 C 
ATOM      5  O   UNL     1       3.572  22.140  31.752  1.00  0.00    -0.332 OA
ATOM      6  C   UNL     1       1.478  23.554  32.907  1.00  0.00     0.145 C 
ATOM      7  C   UNL     1       2.925  24.052  32.870  1.00  0.00     0.142 C 
BRANCH   3   8
ATOM      8  O   UNL     1       1.802  21.704  30.479  1.00  0.00    -0.338 OA
BRANCH   8   9
ATOM      9  C   UNL     1       2.625  22.299  29.557  1.00  0.00     0.199 C 
BRANCH   9  10
ATOM     10  C   UNL     1       1.875  22.990  28.442  1.00  0.00     0.179 C 
ATOM     11  C   UNL     1       1.870  24.533  26.830  1.00  0.00     0.282 C 
ATOM     12  O   UNL     1       2.715  23.674  27.571  1.00  0.00    -0.341 OA
ATOM     13  C   UNL     1       1.225  23.677  25.767  1.00  0.00     0.202 C 
ATOM     14  C   UNL     1       1.396  22.196  26.118  1.00  0.00     0.179 C 
ATOM     15  C   UNL     1       1.113  21.985  27.594  1.00  0.00     0.177 C 
BRANCH  11  16
ATOM     16  O   UNL     1       2.532  25.575  26.275  1.00  0.00    -0.341 OA
BRANCH  16  17
ATOM     17  C   UNL     1       3.852  25.726  26.660  1.00  0.00     0.184 C 
ATOM     18  C   UNL     1       4.157  26.765  27.662  1.00  0.00     0.178 C 
ATOM     19  O   UNL     1       5.489  27.211  27.434  1.00  0.00    -0.341 OA
ATOM     20  C   UNL     1       5.542  28.062  26.322  1.00  0.00     0.281 C 
ATOM     21  C   UNL     1       4.761  25.867  25.446  1.00  0.00     0.180 C 
ATOM     22  C   UNL     1       5.021  27.334  25.097  1.00  0.00     0.202 C 
BRANCH  18  23
ATOM     23  C   UNL     1       4.207  26.269  29.107  1.00  0.00     0.191 C 
BRANCH  23  24
ATOM     24  O   UNL     1       5.463  26.125  29.612  1.00  0.00    -0.394 OA
ATOM     25  H   UNL     1       6.123  26.105  28.882  1.00  0.00     0.210 HD
ENDBRANCH  23  24
ENDBRANCH  18  23
BRANCH  20  26
ATOM     26  O   UNL     1       6.853  28.442  26.142  1.00  0.00    -0.350 OA
BRANCH  26  27
ATOM     27  C   UNL     1       7.196  28.800  24.863  1.00  0.00     0.169 C 
BRANCH  27  28
ATOM     28  C   UNL     1       7.296  30.293  24.657  1.00  0.00     0.119 C 
BRANCH  28  29
ATOM     29  N   UNL     1       7.014  30.553  23.269  1.00  0.00    -0.092 NA
ATOM     30  N   UNL     1       6.060  29.996  22.731  1.00  0.00     0.001 N 
ATOM     31  N   UNL     1       5.424  29.216  22.020  1.00  0.00    -0.003 NA
ENDBRANCH  28  29
ENDBRANCH  27  28
ENDBRANCH  26  27
ENDBRANCH  20  26
BRANCH  21  32
ATOM     32  O   UNL     1       6.007  25.290  25.688  1.00  0.00    -0.387 OA
ATOM     33  H   UNL     1       6.694  25.653  25.083  1.00  0.00     0.211 HD
ENDBRANCH  21  32
BRANCH  22  34
ATOM     34  O   UNL     1       3.896  27.931  24.545  1.00  0.00    -0.385 OA
ATOM     35  H   UNL     1       3.263  28.087  25.281  1.00  0.00     0.211 HD
ENDBRANCH  22  34
ENDBRANCH  16  17
ENDBRANCH  11  16
BRANCH  13  36
ATOM     36  O   UNL     1      -0.183  23.845  25.730  1.00  0.00    -0.385 OA
ATOM     37  H   UNL     1      -0.638  23.202  26.292  1.00  0.00     0.211 HD
ENDBRANCH  13  36
BRANCH  14  38
ATOM     38  O   UNL     1       2.651  21.744  25.739  1.00  0.00    -0.387 OA
ATOM     39  H   UNL     1       3.295  22.489  25.619  1.00  0.00     0.211 HD
ENDBRANCH  14  38
BRANCH  15  40
ATOM     40  O   UNL     1       1.457  20.680  27.910  1.00  0.00    -0.387 OA
ATOM     41  H   UNL     1       2.370  20.563  28.219  1.00  0.00     0.211 HD
ENDBRANCH  15  40
ENDBRANCH   9  10
ENDBRANCH   8   9
ENDBRANCH   3   8
BRANCH   3  42
ATOM     42  C   UNL     1       2.495  20.082  32.029  1.00  0.00     0.364 C 
ATOM     43  O   UNL     1       1.997  19.571  33.084  1.00  0.00    -0.246 OA
BRANCH  42  44
ATOM     44  O   UNL     1       3.167  19.194  31.207  1.00  0.00    -0.477 OA
ATOM     45  H   UNL     1       3.944  18.637  31.587  1.00  0.00     0.296 HD
ENDBRANCH  42  44
ENDBRANCH   3  42
BRANCH   6  46
ATOM     46  O   UNL     1       0.711  24.193  31.933  1.00  0.00    -0.391 OA
ATOM     47  H   UNL     1       0.651  23.619  31.132  1.00  0.00     0.211 HD
ENDBRANCH   6  46
BRANCH   7  48
ATOM     48  N   UNL     1       3.121  25.057  33.853  1.00  0.00    -0.348 N 
ATOM     49  C   UNL     1       2.977  26.431  33.509  1.00  0.00     0.217 C 
ATOM     50  H   UNL     1       3.369  24.831  34.835  1.00  0.00     0.163 HD
ATOM     51  C   UNL     1       3.162  27.534  34.467  1.00  0.00     0.114 C 
ATOM     52  O   UNL     1       2.671  26.738  32.306  1.00  0.00    -0.275 OA
ENDBRANCH   7  48
ENDBRANCH   1   2
BRANCH   1  53
ATOM     53  O   UNL     1       5.484  24.224  32.038  1.00  0.00    -0.388 OA
ATOM     54  H   UNL     1       6.434  24.431  31.960  1.00  0.00     0.211 HD
ENDBRANCH   1  53
BRANCH   1  55
ATOM     55  C   UNL     1       6.178  21.998  32.525  1.00  0.00     0.165 C 
BRANCH  55  56
ATOM     56  O   UNL     1       5.600  20.854  33.174  1.00  0.00    -0.388 OA
ATOM     57  H   UNL     1       6.331  20.240  33.444  1.00  0.00     0.211 HD
ENDBRANCH  55  56
BRANCH  55  58
ATOM     58  C   UNL     1       7.548  22.106  33.183  1.00  0.00     0.154 C 
BRANCH  58  59
ATOM     59  N   UNL     1       7.438  23.100  34.218  1.00  0.00    -0.319 N 
ATOM     60  C   UNL     1       8.518  23.924  34.632  1.00  0.00     0.407 C 
ATOM     61  H   UNL     1       6.507  23.258  34.726  1.00  0.00     0.167 HD
ATOM     62  O   UNL     1       9.626  23.834  34.092  1.00  0.00    -0.225 OA
BRANCH  60  63
ATOM     63  O   UNL     1       8.367  24.854  35.654  1.00  0.00    -0.443 OA
BRANCH  63  64
ATOM     64  C   UNL     1       7.762  26.113  35.543  1.00  0.00     0.294 C 
BRANCH  64  65
ATOM     65  C   UNL     1       8.445  27.058  34.646  1.00  0.00     0.121 A 
ATOM     66  C   UNL     1       9.825  27.270  34.564  1.00  0.00     0.144 A 
ATOM     67  N   UNL     1       7.928  27.888  33.741  1.00  0.00    -0.131 NA
ATOM     68  N   UNL     1      10.094  28.210  33.621  1.00  0.00    -0.220 N 
ATOM     69  N   UNL     1       8.918  28.567  33.138  1.00  0.00    -0.062 NA
BRANCH  68  70
ATOM     70  C   UNL     1      11.407  28.675  33.265  1.00  0.00     0.066 A 
ATOM     71  C   UNL     1      12.543  28.145  33.807  1.00  0.00     0.030 A 
ATOM     72  C   UNL     1      11.509  29.704  32.346  1.00  0.00     0.030 A 
ATOM     73  C   UNL     1      13.793  28.641  33.438  1.00  0.00     0.024 A 
ATOM     74  C   UNL     1      12.717  30.225  31.950  1.00  0.00     0.024 A 
ATOM     75  C   UNL     1      13.852  29.665  32.522  1.00  0.00     0.088 A 
BRANCH  75  76
ATOM     76  S   UNL     1      15.403  30.311  32.044  1.00  0.00     0.263 S 
ATOM     77  O   UNL     1      16.430  29.832  33.050  1.00  0.00    -0.201 OA
ATOM     78  O   UNL     1      15.310  31.806  32.169  1.00  0.00    -0.201 OA
BRANCH  76  79
ATOM     79  N   UNL     1      15.775  29.821  30.456  1.00  0.00    -0.255 N 
ATOM     80  H   UNL     1      16.300  28.939  30.325  1.00  0.00     0.182 HD
BRANCH  79  81
ATOM     81  C   UNL     1      15.377  30.599  29.382  1.00  0.00     0.196 A 
ATOM     82  N   UNL     1      14.310  31.036  28.835  1.00  0.00    -0.228 NA
ATOM     83  S   UNL     1      16.628  31.346  28.230  1.00  0.00    -0.105 S 
ATOM     84  C   UNL     1      14.242  31.774  27.789  1.00  0.00     0.125 A 
ATOM     85  C   UNL     1      15.394  32.160  27.158  1.00  0.00     0.089 A 
ENDBRANCH  79  81
ENDBRANCH  76  79
ENDBRANCH  75  76
ENDBRANCH  68  70
ENDBRANCH  64  65
ENDBRANCH  63  64
ENDBRANCH  60  63
ENDBRANCH  58  59
ENDBRANCH  55  58
ENDBRANCH   1  55
TORSDOF 33
