REMARK VINA RESULT:    -6.506     10.197     14.792
REMARK INTER + INTRA:         -21.745
REMARK INTER:                 -15.061
REMARK INTRA:                  -6.685
REMARK UNBOUND:                -5.351
REMARK SMILES CC(=O)N[C@@H]1[C@@H](O)C[C@](OC[C@H]2O[C@@H](O[C@H]3[C@H](O)[C@@H](O)[C@H](OCCN=[N+]=[N-])O[C@@H]3CO)[C@H](O)[C@@H](O)[C@H]2O)(C(=O)O)O[C@H]1C(O)[C@H](O)CNC(=O)OCc1cn(-c2ccc([N+](=O)[O-])cc2)nn1
REMARK SMILES IDX 9 1 8 2 6 3 5 4 42 5 41 6 10 7 11 8 12 9 14 10 13 11 32 12
REMARK SMILES IDX 34 13 36 14 15 15 16 16 29 17 28 18 21 19 17 20 19 21 30 22
REMARK SMILES IDX 31 23 22 25 23 26 24 27 25 28 26 29 27 30 18 31 20 33 33 35
REMARK SMILES IDX 35 37 37 39 38 41 39 42 40 43 7 45 43 47 44 48 45 50 46 51
REMARK SMILES IDX 47 53 48 54 49 55 50 57 51 58 52 59 53 60 54 61 66 62 55 63
REMARK SMILES IDX 65 64 56 65 57 66 64 67 58 68 63 69 59 70 60 71 61 72 62 73
REMARK SMILES IDX 4 74 2 75 1 77 3 78
REMARK H PARENT 31 24 18 32 20 34 33 36 35 38 37 40 40 44 7 46 44 49 46 52
REMARK H PARENT 48 56 4 76
REMARK Flexibility Score: inf
ROOT
ATOM      1  C   UNL     1      17.033  29.301  19.146  1.00  0.00     0.272 C 
ATOM      2  C   UNL     1      15.871  28.369  19.037  1.00  0.00     0.113 C 
ATOM      3  C   UNL     1      14.812  28.764  19.974  1.00  0.00     0.145 C 
ATOM      4  C   UNL     1      15.216  29.790  21.048  1.00  0.00     0.142 C 
ATOM      5  C   UNL     1      16.593  29.537  21.451  1.00  0.00     0.178 C 
ATOM      6  O   UNL     1      17.510  29.248  20.444  1.00  0.00    -0.332 OA
ENDROOT
BRANCH   1   7
ATOM      7  O   UNL     1      16.826  30.562  18.681  1.00  0.00    -0.338 OA
BRANCH   7   8
ATOM      8  C   UNL     1      16.571  30.696  17.354  1.00  0.00     0.199 C 
BRANCH   8   9
ATOM      9  C   UNL     1      16.145  32.116  17.001  1.00  0.00     0.179 C 
ATOM     10  C   UNL     1      13.949  32.441  17.740  1.00  0.00     0.282 C 
ATOM     11  O   UNL     1      14.810  32.225  16.710  1.00  0.00    -0.341 OA
ATOM     12  C   UNL     1      14.496  32.605  19.099  1.00  0.00     0.202 C 
ATOM     13  C   UNL     1      15.773  33.404  19.089  1.00  0.00     0.179 C 
ATOM     14  C   UNL     1      16.657  33.168  17.917  1.00  0.00     0.177 C 
BRANCH  10  15
ATOM     15  O   UNL     1      12.936  31.494  17.642  1.00  0.00    -0.341 OA
BRANCH  15  16
ATOM     16  C   UNL     1      12.425  31.255  16.410  1.00  0.00     0.184 C 
ATOM     17  C   UNL     1      10.946  31.548  16.282  1.00  0.00     0.178 C 
ATOM     18  O   UNL     1      10.540  31.199  14.978  1.00  0.00    -0.341 OA
ATOM     19  C   UNL     1      10.502  29.809  14.872  1.00  0.00     0.281 C 
ATOM     20  C   UNL     1      12.525  29.732  16.191  1.00  0.00     0.180 C 
ATOM     21  C   UNL     1      11.977  29.388  14.820  1.00  0.00     0.202 C 
BRANCH  17  22
ATOM     22  C   UNL     1      10.586  33.001  16.454  1.00  0.00     0.191 C 
BRANCH  22  23
ATOM     23  O   UNL     1      10.503  33.198  17.855  1.00  0.00    -0.394 OA
ATOM     24  H   UNL     1      10.850  32.402  18.338  1.00  0.00     0.210 HD
ENDBRANCH  22  23
ENDBRANCH  17  22
BRANCH  19  25
ATOM     25  O   UNL     1       9.904  29.434  13.698  1.00  0.00    -0.350 OA
BRANCH  25  26
ATOM     26  C   UNL     1      10.617  29.681  12.552  1.00  0.00     0.169 C 
BRANCH  26  27
ATOM     27  C   UNL     1      10.497  28.627  11.488  1.00  0.00     0.119 C 
BRANCH  27  28
ATOM     28  N   UNL     1      11.788  27.944  11.372  1.00  0.00    -0.092 NA
ATOM     29  N   UNL     1      12.134  27.491  10.291  1.00  0.00     0.001 N 
ATOM     30  N   UNL     1      12.551  27.263   9.167  1.00  0.00    -0.003 NA
ENDBRANCH  27  28
ENDBRANCH  26  27
ENDBRANCH  25  26
ENDBRANCH  19  25
BRANCH  20  31
ATOM     31  O   UNL     1      13.791  29.263  16.402  1.00  0.00    -0.387 OA
ATOM     32  H   UNL     1      14.387  29.858  16.898  1.00  0.00     0.211 HD
ENDBRANCH  20  31
BRANCH  21  33
ATOM     33  O   UNL     1      12.128  28.049  14.579  1.00  0.00    -0.385 OA
ATOM     34  H   UNL     1      13.022  27.891  14.191  1.00  0.00     0.211 HD
ENDBRANCH  21  33
ENDBRANCH  15  16
ENDBRANCH  10  15
BRANCH  12  35
ATOM     35  O   UNL     1      13.600  33.383  19.857  1.00  0.00    -0.385 OA
ATOM     36  H   UNL     1      13.161  32.859  20.554  1.00  0.00     0.211 HD
ENDBRANCH  12  35
BRANCH  13  37
ATOM     37  O   UNL     1      16.456  33.183  20.310  1.00  0.00    -0.387 OA
ATOM     38  H   UNL     1      15.809  32.831  20.944  1.00  0.00     0.211 HD
ENDBRANCH  13  37
BRANCH  14  39
ATOM     39  O   UNL     1      17.986  32.917  18.229  1.00  0.00    -0.387 OA
ATOM     40  H   UNL     1      18.309  32.223  17.593  1.00  0.00     0.211 HD
ENDBRANCH  14  39
ENDBRANCH   8   9
ENDBRANCH   7   8
ENDBRANCH   1   7
BRANCH   1  41
ATOM     41  C   UNL     1      18.179  28.694  18.363  1.00  0.00     0.364 C 
ATOM     42  O   UNL     1      18.048  27.578  17.824  1.00  0.00    -0.246 OA
BRANCH  41  43
ATOM     43  O   UNL     1      19.360  29.374  18.257  1.00  0.00    -0.477 OA
ATOM     44  H   UNL     1      19.902  29.473  17.403  1.00  0.00     0.296 HD
ENDBRANCH  41  43
ENDBRANCH   1  41
BRANCH   3  45
ATOM     45  O   UNL     1      13.727  29.323  19.301  1.00  0.00    -0.391 OA
ATOM     46  H   UNL     1      13.647  28.959  18.398  1.00  0.00     0.211 HD
ENDBRANCH   3  45
BRANCH   5  47
ATOM     47  C   UNL     1      17.328  30.418  22.361  1.00  0.00     0.176 C 
BRANCH  47  48
ATOM     48  O   UNL     1      17.490  29.962  23.673  1.00  0.00    -0.388 OA
ATOM     49  H   UNL     1      18.055  29.176  23.767  1.00  0.00     0.211 HD
ENDBRANCH  47  48
BRANCH  47  50
ATOM     50  C   UNL     1      18.649  30.996  21.968  1.00  0.00     0.165 C 
BRANCH  50  51
ATOM     51  O   UNL     1      18.750  31.496  20.707  1.00  0.00    -0.388 OA
ATOM     52  H   UNL     1      18.763  30.788  20.011  1.00  0.00     0.211 HD
ENDBRANCH  50  51
BRANCH  50  53
ATOM     53  C   UNL     1      19.821  30.211  22.494  1.00  0.00     0.154 C 
BRANCH  53  54
ATOM     54  N   UNL     1      20.014  28.923  21.882  1.00  0.00    -0.319 N 
ATOM     55  C   UNL     1      20.832  28.687  20.751  1.00  0.00     0.407 C 
ATOM     56  H   UNL     1      19.530  28.071  22.273  1.00  0.00     0.167 HD
ATOM     57  O   UNL     1      21.431  29.627  20.221  1.00  0.00    -0.225 OA
BRANCH  55  58
ATOM     58  O   UNL     1      20.984  27.410  20.207  1.00  0.00    -0.443 OA
BRANCH  58  59
ATOM     59  C   UNL     1      21.969  26.494  20.607  1.00  0.00     0.294 C 
BRANCH  59  60
ATOM     60  C   UNL     1      21.673  25.968  21.956  1.00  0.00     0.121 A 
ATOM     61  C   UNL     1      22.263  26.317  23.169  1.00  0.00     0.144 A 
ATOM     62  N   UNL     1      20.737  25.034  22.300  1.00  0.00    -0.131 NA
ATOM     63  N   UNL     1      21.692  25.616  24.166  1.00  0.00    -0.220 N 
ATOM     64  N   UNL     1      20.778  24.853  23.607  1.00  0.00    -0.062 NA
BRANCH  63  65
ATOM     65  C   UNL     1      21.999  25.687  25.563  1.00  0.00     0.067 A 
ATOM     66  C   UNL     1      21.704  26.770  26.356  1.00  0.00     0.035 A 
ATOM     67  C   UNL     1      22.641  24.617  26.170  1.00  0.00     0.035 A 
ATOM     68  C   UNL     1      22.035  26.792  27.709  1.00  0.00     0.088 A 
ATOM     69  C   UNL     1      22.970  24.635  27.510  1.00  0.00     0.088 A 
ATOM     70  C   UNL     1      22.675  25.720  28.306  1.00  0.00     0.269 A 
BRANCH  70  71
ATOM     71  N   UNL     1      23.010  25.755  29.689  1.00  0.00     0.062 N 
ATOM     72  O   UNL     1      23.828  24.992  30.227  1.00  0.00    -0.258 OA
ATOM     73  O   UNL     1      22.387  26.691  30.475  1.00  0.00    -0.258 OA
ENDBRANCH  70  71
ENDBRANCH  63  65
ENDBRANCH  59  60
ENDBRANCH  58  59
ENDBRANCH  55  58
ENDBRANCH  53  54
ENDBRANCH  50  53
ENDBRANCH  47  50
ENDBRANCH   5  47
BRANCH   4  74
ATOM     74  N   UNL     1      14.304  29.409  22.139  1.00  0.00    -0.348 N 
ATOM     75  C   UNL     1      13.076  30.054  22.359  1.00  0.00     0.217 C 
ATOM     76  H   UNL     1      14.595  28.625  22.749  1.00  0.00     0.163 HD
ATOM     77  C   UNL     1      12.225  29.592  23.498  1.00  0.00     0.114 C 
ATOM     78  O   UNL     1      12.673  30.988  21.648  1.00  0.00    -0.275 OA
ENDBRANCH   4  74
TORSDOF 31
