REMARK VINA RESULT:    -5.111      4.211      9.491
REMARK INTER + INTRA:         -22.191
REMARK INTER:                 -13.775
REMARK INTRA:                  -8.417
REMARK UNBOUND:                -8.417
REMARK SMILES CC(=O)N[C@@H]1[C@@H](O)C[C@](OC[C@H]2O[C@@H](O[C@H]3[C@H](O)[C@@H](O)[C@H](OCCN=[N+]=[N-])O[C@@H]3CO)[C@H](O)[C@@H](O)[C@H]2O)(C(=O)O)O[C@H]1C(O)[C@H](O)CNC(=O)OCc1cn(CCNC(=O)NCc2ccco2)nn1
REMARK SMILES IDX 43 1 42 2 9 3 8 4 41 5 6 6 5 7 10 8 11 9 12 10 14 11 13 12
REMARK SMILES IDX 32 13 34 14 36 15 15 16 16 17 29 18 28 19 21 20 17 21 19 22
REMARK SMILES IDX 30 23 31 24 22 26 23 27 24 28 25 29 26 30 27 31 18 32 20 34
REMARK SMILES IDX 33 36 35 38 37 40 38 42 39 43 40 44 7 46 4 48 2 49 1 51 3 52
REMARK SMILES IDX 44 53 45 55 46 56 47 58 48 59 49 60 50 62 51 63 52 64 53 65
REMARK SMILES IDX 54 66 69 67 55 68 68 69 56 70 57 71 58 72 59 73 60 75 61 76
REMARK SMILES IDX 62 78 63 79 64 80 67 81 65 82 66 83
REMARK H PARENT 31 25 18 33 20 35 33 37 35 39 37 41 40 45 7 47 4 50 44 54
REMARK H PARENT 46 57 48 61 58 74 61 77
REMARK Flexibility Score: inf
ROOT
ATOM      1  C   UNL     1      22.012  28.096  18.926  1.00  0.00     0.176 C 
ENDROOT
BRANCH   1   2
ATOM      2  C   UNL     1      22.387  27.430  17.641  1.00  0.00     0.178 C 
ATOM      3  C   UNL     1      23.346  25.323  18.182  1.00  0.00     0.272 C 
ATOM      4  C   UNL     1      24.596  26.218  18.468  1.00  0.00     0.113 C 
ATOM      5  O   UNL     1      22.341  26.071  17.684  1.00  0.00    -0.332 OA
ATOM      6  C   UNL     1      24.819  27.238  17.424  1.00  0.00     0.145 C 
ATOM      7  C   UNL     1      23.587  27.971  16.952  1.00  0.00     0.142 C 
BRANCH   3   8
ATOM      8  O   UNL     1      22.981  24.880  19.435  1.00  0.00    -0.338 OA
BRANCH   8   9
ATOM      9  C   UNL     1      23.807  24.985  20.472  1.00  0.00     0.199 C 
BRANCH   9  10
ATOM     10  C   UNL     1      23.453  25.159  21.867  1.00  0.00     0.179 C 
ATOM     11  C   UNL     1      23.403  26.456  23.758  1.00  0.00     0.282 C 
ATOM     12  O   UNL     1      23.512  26.448  22.368  1.00  0.00    -0.341 OA
ATOM     13  C   UNL     1      22.762  25.254  24.348  1.00  0.00     0.202 C 
ATOM     14  C   UNL     1      21.725  24.579  23.499  1.00  0.00     0.179 C 
ATOM     15  C   UNL     1      21.976  24.751  22.030  1.00  0.00     0.177 C 
BRANCH  11  16
ATOM     16  O   UNL     1      22.770  27.594  24.228  1.00  0.00    -0.341 OA
BRANCH  16  17
ATOM     17  C   UNL     1      22.385  28.469  23.192  1.00  0.00     0.184 C 
ATOM     18  C   UNL     1      23.156  29.743  23.375  1.00  0.00     0.178 C 
ATOM     19  O   UNL     1      22.426  30.863  22.984  1.00  0.00    -0.341 OA
ATOM     20  C   UNL     1      21.374  30.982  23.885  1.00  0.00     0.281 C 
ATOM     21  C   UNL     1      20.900  28.603  23.240  1.00  0.00     0.180 C 
ATOM     22  C   UNL     1      20.353  29.934  23.595  1.00  0.00     0.202 C 
BRANCH  18  23
ATOM     23  C   UNL     1      24.377  29.693  22.456  1.00  0.00     0.191 C 
BRANCH  23  24
ATOM     24  O   UNL     1      23.982  29.010  21.285  1.00  0.00    -0.394 OA
ATOM     25  H   UNL     1      24.840  28.676  20.892  1.00  0.00     0.210 HD
ENDBRANCH  23  24
ENDBRANCH  18  23
BRANCH  20  26
ATOM     26  O   UNL     1      20.786  32.225  23.634  1.00  0.00    -0.350 OA
BRANCH  26  27
ATOM     27  C   UNL     1      19.978  32.189  22.497  1.00  0.00     0.169 C 
BRANCH  27  28
ATOM     28  C   UNL     1      18.852  33.198  22.733  1.00  0.00     0.119 C 
BRANCH  28  29
ATOM     29  N   UNL     1      17.633  32.426  22.895  1.00  0.00    -0.092 NA
ATOM     30  N   UNL     1      17.357  31.891  23.979  1.00  0.00     0.001 N 
ATOM     31  N   UNL     1      16.960  31.639  25.129  1.00  0.00    -0.003 NA
ENDBRANCH  28  29
ENDBRANCH  27  28
ENDBRANCH  26  27
ENDBRANCH  20  26
BRANCH  21  32
ATOM     32  O   UNL     1      20.404  28.197  21.985  1.00  0.00    -0.387 OA
ATOM     33  H   UNL     1      19.699  27.530  22.065  1.00  0.00     0.211 HD
ENDBRANCH  21  32
BRANCH  22  34
ATOM     34  O   UNL     1      19.590  29.795  24.782  1.00  0.00    -0.385 OA
ATOM     35  H   UNL     1      18.662  29.569  24.468  1.00  0.00     0.211 HD
ENDBRANCH  22  34
ENDBRANCH  16  17
ENDBRANCH  11  16
BRANCH  13  36
ATOM     36  O   UNL     1      23.689  24.342  24.871  1.00  0.00    -0.385 OA
ATOM     37  H   UNL     1      23.309  23.812  25.607  1.00  0.00     0.211 HD
ENDBRANCH  13  36
BRANCH  14  38
ATOM     38  O   UNL     1      20.428  24.993  23.830  1.00  0.00    -0.387 OA
ATOM     39  H   UNL     1      19.825  24.320  23.408  1.00  0.00     0.211 HD
ENDBRANCH  14  38
BRANCH  15  40
ATOM     40  O   UNL     1      21.139  25.655  21.420  1.00  0.00    -0.387 OA
ATOM     41  H   UNL     1      21.685  26.277  20.904  1.00  0.00     0.211 HD
ENDBRANCH  15  40
ENDBRANCH   9  10
ENDBRANCH   8   9
ENDBRANCH   3   8
BRANCH   3  42
ATOM     42  C   UNL     1      23.886  24.244  17.359  1.00  0.00     0.364 C 
ATOM     43  O   UNL     1      25.073  23.899  17.439  1.00  0.00    -0.246 OA
BRANCH  42  44
ATOM     44  O   UNL     1      23.121  23.527  16.433  1.00  0.00    -0.477 OA
ATOM     45  H   UNL     1      22.801  23.998  15.585  1.00  0.00     0.296 HD
ENDBRANCH  42  44
ENDBRANCH   3  42
BRANCH   6  46
ATOM     46  O   UNL     1      25.730  28.179  17.941  1.00  0.00    -0.391 OA
ATOM     47  H   UNL     1      26.589  28.095  17.455  1.00  0.00     0.211 HD
ENDBRANCH   6  46
BRANCH   7  48
ATOM     48  N   UNL     1      23.487  27.825  15.500  1.00  0.00    -0.348 N 
ATOM     49  C   UNL     1      23.104  28.897  14.684  1.00  0.00     0.217 C 
ATOM     50  H   UNL     1      23.712  26.895  15.087  1.00  0.00     0.163 HD
ATOM     51  C   UNL     1      22.985  28.797  13.198  1.00  0.00     0.114 C 
ATOM     52  O   UNL     1      22.845  30.004  15.256  1.00  0.00    -0.275 OA
ENDBRANCH   7  48
ENDBRANCH   1   2
BRANCH   1  53
ATOM     53  O   UNL     1      20.827  27.444  19.425  1.00  0.00    -0.388 OA
ATOM     54  H   UNL     1      20.295  27.245  18.640  1.00  0.00     0.211 HD
ENDBRANCH   1  53
BRANCH   1  55
ATOM     55  C   UNL     1      21.580  29.530  18.834  1.00  0.00     0.165 C 
BRANCH  55  56
ATOM     56  O   UNL     1      21.354  30.188  20.020  1.00  0.00    -0.388 OA
ATOM     57  H   UNL     1      22.154  30.650  20.376  1.00  0.00     0.211 HD
ENDBRANCH  55  56
BRANCH  55  58
ATOM     58  C   UNL     1      20.380  29.688  17.894  1.00  0.00     0.154 C 
BRANCH  58  59
ATOM     59  N   UNL     1      19.176  29.973  18.637  1.00  0.00    -0.319 N 
ATOM     60  C   UNL     1      18.110  29.054  18.768  1.00  0.00     0.407 C 
ATOM     61  H   UNL     1      19.091  30.898  19.100  1.00  0.00     0.167 HD
ATOM     62  O   UNL     1      18.197  27.926  18.217  1.00  0.00    -0.225 OA
BRANCH  60  63
ATOM     63  O   UNL     1      16.959  29.358  19.489  1.00  0.00    -0.443 OA
BRANCH  63  64
ATOM     64  C   UNL     1      16.088  28.297  19.867  1.00  0.00     0.294 C 
BRANCH  64  65
ATOM     65  C   UNL     1      15.376  28.790  21.087  1.00  0.00     0.120 A 
ATOM     66  C   UNL     1      14.026  28.990  21.187  1.00  0.00     0.138 A 
ATOM     67  N   UNL     1      15.934  29.115  22.279  1.00  0.00    -0.132 NA
ATOM     68  N   UNL     1      13.805  29.426  22.419  1.00  0.00    -0.250 N 
ATOM     69  N   UNL     1      14.963  29.500  23.074  1.00  0.00    -0.067 NA
BRANCH  68  70
ATOM     70  C   UNL     1      12.490  29.777  22.955  1.00  0.00     0.167 C 
BRANCH  70  71
ATOM     71  C   UNL     1      12.661  31.084  23.731  1.00  0.00     0.141 C 
BRANCH  71  72
ATOM     72  N   UNL     1      12.948  30.730  25.091  1.00  0.00    -0.336 N 
ATOM     73  C   UNL     1      13.403  31.644  26.062  1.00  0.00     0.315 C 
ATOM     74  H   UNL     1      12.803  29.718  25.352  1.00  0.00     0.165 HD
ATOM     75  O   UNL     1      13.606  32.844  25.779  1.00  0.00    -0.249 OA
ATOM     76  N   UNL     1      13.631  31.172  27.399  1.00  0.00    -0.331 N 
ATOM     77  H   UNL     1      13.446  30.155  27.592  1.00  0.00     0.165 HD
BRANCH  76  78
ATOM     78  C   UNL     1      14.092  32.073  28.418  1.00  0.00     0.193 C 
BRANCH  78  79
ATOM     79  C   UNL     1      13.496  31.717  29.733  1.00  0.00     0.122 A 
ATOM     80  C   UNL     1      13.061  30.442  30.077  1.00  0.00     0.047 A 
ATOM     81  O   UNL     1      13.293  32.504  30.735  1.00  0.00    -0.467 OA
ATOM     82  C   UNL     1      12.589  30.539  31.353  1.00  0.00     0.042 A 
ATOM     83  C   UNL     1      12.749  31.844  31.733  1.00  0.00     0.195 A 
ENDBRANCH  78  79
ENDBRANCH  76  78
ENDBRANCH  71  72
ENDBRANCH  70  71
ENDBRANCH  68  70
ENDBRANCH  64  65
ENDBRANCH  63  64
ENDBRANCH  60  63
ENDBRANCH  58  59
ENDBRANCH  55  58
ENDBRANCH   1  55
TORSDOF 34
