REMARK VINA RESULT:    -5.731      7.789     10.860
REMARK INTER + INTRA:         -22.380
REMARK INTER:                 -17.365
REMARK INTRA:                  -5.015
REMARK UNBOUND:                -7.602
REMARK SMILES CC(=O)N[C@@H]1[C@@H](O)C[C@](OC[C@H]2O[C@@H](O[C@H]3[C@H](O)[C@@H](O)[C@H](OCCN=[N+]=[N-])O[C@@H]3CO)[C@H](O)[C@@H](O)[C@H]2O)(C(=O)O)O[C@H]1C(O)[C@H](O)CNC(=O)OCc1cn(CC(=O)Nc2ncccn2)nn1
REMARK SMILES IDX 9 1 8 2 6 3 5 4 42 5 41 6 10 7 11 8 12 9 14 10 13 11 32 12
REMARK SMILES IDX 34 13 36 14 15 15 16 16 29 17 28 18 21 19 17 20 19 21 30 22
REMARK SMILES IDX 31 23 22 25 23 26 24 27 25 28 26 29 27 30 18 31 20 33 33 35
REMARK SMILES IDX 35 37 37 39 38 41 39 42 40 43 7 45 43 47 44 48 45 50 46 51
REMARK SMILES IDX 47 53 48 54 49 55 50 57 51 58 52 59 53 60 54 61 67 62 55 63
REMARK SMILES IDX 66 64 56 65 57 66 58 67 59 68 60 70 61 71 65 72 62 73 64 74
REMARK SMILES IDX 63 75 4 76 2 77 1 79 3 80
REMARK H PARENT 31 24 18 32 20 34 33 36 35 38 37 40 40 44 7 46 44 49 46 52
REMARK H PARENT 48 56 59 69 4 78
REMARK Flexibility Score: inf
ROOT
ATOM      1  C   UNL     1      29.893  19.208  18.493  1.00  0.00     0.272 C 
ATOM      2  C   UNL     1      29.212  18.443  19.615  1.00  0.00     0.113 C 
ATOM      3  C   UNL     1      29.791  18.801  20.924  1.00  0.00     0.145 C 
ATOM      4  C   UNL     1      30.005  20.287  21.164  1.00  0.00     0.142 C 
ATOM      5  C   UNL     1      30.215  21.055  19.938  1.00  0.00     0.178 C 
ATOM      6  O   UNL     1      29.505  20.552  18.857  1.00  0.00    -0.332 OA
ENDROOT
BRANCH   1   7
ATOM      7  O   UNL     1      29.270  18.943  17.352  1.00  0.00    -0.338 OA
BRANCH   7   8
ATOM      8  C   UNL     1      28.343  19.406  16.615  1.00  0.00     0.199 C 
BRANCH   8   9
ATOM      9  C   UNL     1      28.462  20.288  15.418  1.00  0.00     0.179 C 
ATOM     10  C   UNL     1      27.080  21.683  14.152  1.00  0.00     0.282 C 
ATOM     11  O   UNL     1      27.104  20.760  15.150  1.00  0.00    -0.341 OA
ATOM     12  C   UNL     1      27.527  23.070  14.716  1.00  0.00     0.202 C 
ATOM     13  C   UNL     1      28.250  22.680  15.990  1.00  0.00     0.179 C 
ATOM     14  C   UNL     1      29.219  21.556  15.558  1.00  0.00     0.177 C 
BRANCH  10  15
ATOM     15  O   UNL     1      25.766  21.839  13.691  1.00  0.00    -0.341 OA
BRANCH  15  16
ATOM     16  C   UNL     1      24.984  20.712  13.908  1.00  0.00     0.184 C 
ATOM     17  C   UNL     1      24.961  19.906  12.603  1.00  0.00     0.178 C 
ATOM     18  O   UNL     1      23.661  19.611  12.220  1.00  0.00    -0.341 OA
ATOM     19  C   UNL     1      22.939  20.780  11.937  1.00  0.00     0.281 C 
ATOM     20  C   UNL     1      23.622  21.105  14.344  1.00  0.00     0.180 C 
ATOM     21  C   UNL     1      22.637  21.424  13.260  1.00  0.00     0.202 C 
BRANCH  17  22
ATOM     22  C   UNL     1      25.673  18.580  12.810  1.00  0.00     0.191 C 
BRANCH  22  23
ATOM     23  O   UNL     1      25.006  17.796  13.753  1.00  0.00    -0.394 OA
ATOM     24  H   UNL     1      24.913  16.850  13.455  1.00  0.00     0.210 HD
ENDBRANCH  22  23
ENDBRANCH  17  22
BRANCH  19  25
ATOM     25  O   UNL     1      21.776  20.364  11.317  1.00  0.00    -0.350 OA
BRANCH  25  26
ATOM     26  C   UNL     1      20.949  19.616  12.127  1.00  0.00     0.169 C 
BRANCH  26  27
ATOM     27  C   UNL     1      19.502  20.061  12.113  1.00  0.00     0.119 C 
BRANCH  27  28
ATOM     28  N   UNL     1      18.602  18.956  11.823  1.00  0.00    -0.092 NA
ATOM     29  N   UNL     1      18.540  18.442  10.702  1.00  0.00     0.001 N 
ATOM     30  N   UNL     1      18.520  18.157   9.509  1.00  0.00    -0.003 NA
ENDBRANCH  27  28
ENDBRANCH  26  27
ENDBRANCH  25  26
ENDBRANCH  19  25
BRANCH  20  31
ATOM     31  O   UNL     1      23.047  20.028  15.073  1.00  0.00    -0.387 OA
ATOM     32  H   UNL     1      22.377  20.391  15.721  1.00  0.00     0.211 HD
ENDBRANCH  20  31
BRANCH  21  33
ATOM     33  O   UNL     1      22.578  22.805  13.103  1.00  0.00    -0.385 OA
ATOM     34  H   UNL     1      22.777  23.245  13.964  1.00  0.00     0.211 HD
ENDBRANCH  21  33
ENDBRANCH  15  16
ENDBRANCH  10  15
BRANCH  12  35
ATOM     35  O   UNL     1      28.512  23.579  13.861  1.00  0.00    -0.385 OA
ATOM     36  H   UNL     1      29.312  23.001  13.986  1.00  0.00     0.211 HD
ENDBRANCH  12  35
BRANCH  13  37
ATOM     37  O   UNL     1      27.415  22.304  17.007  1.00  0.00    -0.387 OA
ATOM     38  H   UNL     1      27.141  23.038  17.589  1.00  0.00     0.211 HD
ENDBRANCH  13  37
BRANCH  14  39
ATOM     39  O   UNL     1      30.314  21.624  16.345  1.00  0.00    -0.387 OA
ATOM     40  H   UNL     1      30.275  22.376  16.985  1.00  0.00     0.211 HD
ENDBRANCH  14  39
ENDBRANCH   8   9
ENDBRANCH   7   8
ENDBRANCH   1   7
BRANCH   1  41
ATOM     41  C   UNL     1      31.339  19.142  18.464  1.00  0.00     0.364 C 
ATOM     42  O   UNL     1      31.998  19.935  17.709  1.00  0.00    -0.246 OA
BRANCH  41  43
ATOM     43  O   UNL     1      32.114  18.272  19.193  1.00  0.00    -0.477 OA
ATOM     44  H   UNL     1      32.898  18.517  19.749  1.00  0.00     0.296 HD
ENDBRANCH  41  43
ENDBRANCH   1  41
BRANCH   3  45
ATOM     45  O   UNL     1      28.915  18.290  21.914  1.00  0.00    -0.391 OA
ATOM     46  H   UNL     1      28.068  18.830  21.902  1.00  0.00     0.211 HD
ENDBRANCH   3  45
BRANCH   5  47
ATOM     47  C   UNL     1      29.764  22.537  20.012  1.00  0.00     0.176 C 
BRANCH  47  48
ATOM     48  O   UNL     1      30.178  23.321  19.005  1.00  0.00    -0.388 OA
ATOM     49  H   UNL     1      29.870  24.269  19.043  1.00  0.00     0.211 HD
ENDBRANCH  47  48
BRANCH  47  50
ATOM     50  C   UNL     1      28.503  22.786  20.682  1.00  0.00     0.165 C 
BRANCH  50  51
ATOM     51  O   UNL     1      27.504  22.102  19.800  1.00  0.00    -0.388 OA
ATOM     52  H   UNL     1      26.875  21.636  20.374  1.00  0.00     0.211 HD
ENDBRANCH  50  51
BRANCH  50  53
ATOM     53  C   UNL     1      27.928  24.076  21.003  1.00  0.00     0.154 C 
BRANCH  53  54
ATOM     54  N   UNL     1      26.613  24.499  20.862  1.00  0.00    -0.319 N 
ATOM     55  C   UNL     1      25.383  24.123  21.439  1.00  0.00     0.407 C 
ATOM     56  H   UNL     1      26.501  25.327  20.120  1.00  0.00     0.167 HD
ATOM     57  O   UNL     1      25.318  23.206  22.279  1.00  0.00    -0.225 OA
BRANCH  55  58
ATOM     58  O   UNL     1      24.212  24.754  21.105  1.00  0.00    -0.443 OA
BRANCH  58  59
ATOM     59  C   UNL     1      22.941  24.510  21.510  1.00  0.00     0.294 C 
BRANCH  59  60
ATOM     60  C   UNL     1      21.987  25.605  21.225  1.00  0.00     0.120 A 
ATOM     61  C   UNL     1      22.043  26.496  20.144  1.00  0.00     0.138 A 
ATOM     62  N   UNL     1      20.913  26.042  21.940  1.00  0.00    -0.132 NA
ATOM     63  N   UNL     1      21.059  27.397  20.232  1.00  0.00    -0.243 N 
ATOM     64  N   UNL     1      20.397  27.087  21.333  1.00  0.00    -0.067 NA
BRANCH  63  65
ATOM     65  C   UNL     1      20.730  28.499  19.348  1.00  0.00     0.246 C 
BRANCH  65  66
ATOM     66  C   UNL     1      19.225  28.517  19.183  1.00  0.00     0.248 C 
ATOM     67  O   UNL     1      18.659  27.956  18.213  1.00  0.00    -0.272 OA
ATOM     68  N   UNL     1      18.416  29.178  20.140  1.00  0.00    -0.293 N 
ATOM     69  H   UNL     1      18.942  29.630  20.930  1.00  0.00     0.173 HD
BRANCH  68  70
ATOM     70  C   UNL     1      17.008  29.266  20.125  1.00  0.00     0.229 A 
ATOM     71  N   UNL     1      16.186  28.447  20.803  1.00  0.00    -0.221 NA
ATOM     72  N   UNL     1      16.444  30.233  19.374  1.00  0.00    -0.221 NA
ATOM     73  C   UNL     1      14.826  28.559  20.753  1.00  0.00     0.117 A 
ATOM     74  C   UNL     1      15.122  30.390  19.290  1.00  0.00     0.117 A 
ATOM     75  C   UNL     1      14.279  29.558  19.976  1.00  0.00     0.040 A 
ENDBRANCH  68  70
ENDBRANCH  65  66
ENDBRANCH  63  65
ENDBRANCH  59  60
ENDBRANCH  58  59
ENDBRANCH  55  58
ENDBRANCH  53  54
ENDBRANCH  50  53
ENDBRANCH  47  50
ENDBRANCH   5  47
BRANCH   4  76
ATOM     76  N   UNL     1      31.006  20.377  22.184  1.00  0.00    -0.348 N 
ATOM     77  C   UNL     1      30.711  20.949  23.478  1.00  0.00     0.217 C 
ATOM     78  H   UNL     1      31.991  20.032  22.035  1.00  0.00     0.163 HD
ATOM     79  C   UNL     1      31.789  21.005  24.488  1.00  0.00     0.114 C 
ATOM     80  O   UNL     1      29.567  21.383  23.724  1.00  0.00    -0.275 OA
ENDBRANCH   4  76
TORSDOF 32
