REMARK VINA RESULT:    -5.448     13.111     18.245
REMARK INTER + INTRA:         -21.693
REMARK INTER:                 -14.683
REMARK INTRA:                  -7.010
REMARK UNBOUND:                -7.010
REMARK SMILES CC(=O)N[C@@H]1[C@@H](O)C[C@](OC[C@H]2O[C@@H](O[C@H]3[C@H](O)[C@@H](O)[C@H](OCCN=[N+]=[N-])O[C@@H]3CO)[C@H](O)[C@@H](O)[C@H]2O)(C(=O)O)O[C@H]1C(O)[C@H](O)CNC(=O)OCc1cn([C@@H](CC(=O)O)C(=O)O)nn1
REMARK SMILES IDX 43 1 42 2 9 3 8 4 41 5 6 6 5 7 10 8 11 9 12 10 14 11 13 12
REMARK SMILES IDX 32 13 34 14 36 15 15 16 16 17 29 18 28 19 21 20 17 21 19 22
REMARK SMILES IDX 30 23 31 24 22 26 23 27 24 28 25 29 26 30 27 31 18 32 20 34
REMARK SMILES IDX 33 36 35 38 37 40 38 42 39 43 40 44 7 46 4 48 2 49 1 51 3 52
REMARK SMILES IDX 44 53 45 55 46 56 47 58 48 59 49 60 50 62 51 63 52 64 53 65
REMARK SMILES IDX 54 66 65 67 55 68 64 69 56 70 57 71 58 72 59 73 60 74 61 76
REMARK SMILES IDX 62 77 63 78
REMARK H PARENT 31 25 18 33 20 35 33 37 35 39 37 41 40 45 7 47 4 50 44 54
REMARK H PARENT 46 57 48 61 60 75 63 79
REMARK Flexibility Score: inf
ROOT
ATOM      1  C   UNL     1       2.851  21.996  34.411  1.00  0.00     0.176 C 
ENDROOT
BRANCH   1   2
ATOM      2  C   UNL     1       3.098  23.253  35.226  1.00  0.00     0.178 C 
ATOM      3  C   UNL     1       3.919  25.444  34.988  1.00  0.00     0.272 C 
ATOM      4  C   UNL     1       3.972  25.204  36.503  1.00  0.00     0.113 C 
ATOM      5  O   UNL     1       3.689  24.173  34.415  1.00  0.00    -0.332 OA
ATOM      6  C   UNL     1       4.866  23.987  36.689  1.00  0.00     0.145 C 
ATOM      7  C   UNL     1       3.911  22.810  36.429  1.00  0.00     0.142 C 
BRANCH   3   8
ATOM      8  O   UNL     1       4.975  25.968  34.567  1.00  0.00    -0.338 OA
BRANCH   8   9
ATOM      9  C   UNL     1       6.027  26.480  34.142  1.00  0.00     0.199 C 
BRANCH   9  10
ATOM     10  C   UNL     1       6.484  27.794  34.776  1.00  0.00     0.179 C 
ATOM     11  C   UNL     1       8.032  27.092  36.328  1.00  0.00     0.282 C 
ATOM     12  O   UNL     1       6.847  27.722  36.078  1.00  0.00    -0.341 OA
ATOM     13  C   UNL     1       9.165  27.677  35.579  1.00  0.00     0.202 C 
ATOM     14  C   UNL     1       8.628  28.959  34.924  1.00  0.00     0.179 C 
ATOM     15  C   UNL     1       7.556  28.482  33.963  1.00  0.00     0.177 C 
BRANCH  11  16
ATOM     16  O   UNL     1       7.981  25.709  36.398  1.00  0.00    -0.341 OA
BRANCH  16  17
ATOM     17  C   UNL     1       9.220  25.111  36.441  1.00  0.00     0.184 C 
ATOM     18  C   UNL     1       9.244  23.815  35.715  1.00  0.00     0.178 C 
ATOM     19  O   UNL     1      10.514  23.254  35.720  1.00  0.00    -0.341 OA
ATOM     20  C   UNL     1      11.212  23.439  36.917  1.00  0.00     0.281 C 
ATOM     21  C   UNL     1       9.519  24.874  37.919  1.00  0.00     0.180 C 
ATOM     22  C   UNL     1      10.227  23.566  38.075  1.00  0.00     0.202 C 
BRANCH  18  23
ATOM     23  C   UNL     1       8.929  24.105  34.248  1.00  0.00     0.191 C 
BRANCH  23  24
ATOM     24  O   UNL     1       9.844  25.068  33.776  1.00  0.00    -0.394 OA
ATOM     25  H   UNL     1      10.745  24.659  33.940  1.00  0.00     0.210 HD
ENDBRANCH  23  24
ENDBRANCH  18  23
BRANCH  20  26
ATOM     26  O   UNL     1      11.895  24.637  36.819  1.00  0.00    -0.350 OA
BRANCH  26  27
ATOM     27  C   UNL     1      12.860  24.718  35.863  1.00  0.00     0.169 C 
BRANCH  27  28
ATOM     28  C   UNL     1      13.136  26.145  35.499  1.00  0.00     0.119 C 
BRANCH  28  29
ATOM     29  N   UNL     1      12.226  26.522  34.416  1.00  0.00    -0.092 NA
ATOM     30  N   UNL     1      12.458  27.588  33.810  1.00  0.00     0.001 N 
ATOM     31  N   UNL     1      12.184  28.701  33.324  1.00  0.00    -0.003 NA
ENDBRANCH  28  29
ENDBRANCH  27  28
ENDBRANCH  26  27
ENDBRANCH  20  26
BRANCH  21  32
ATOM     32  O   UNL     1      10.316  25.901  38.408  1.00  0.00    -0.387 OA
ATOM     33  H   UNL     1      11.235  25.561  38.608  1.00  0.00     0.211 HD
ENDBRANCH  21  32
BRANCH  22  34
ATOM     34  O   UNL     1       9.375  22.461  38.121  1.00  0.00    -0.385 OA
ATOM     35  H   UNL     1       8.900  22.473  37.231  1.00  0.00     0.211 HD
ENDBRANCH  22  34
ENDBRANCH  16  17
ENDBRANCH  11  16
BRANCH  13  36
ATOM     36  O   UNL     1      10.223  28.091  36.391  1.00  0.00    -0.385 OA
ATOM     37  H   UNL     1      10.768  27.280  36.607  1.00  0.00     0.211 HD
ENDBRANCH  13  36
BRANCH  14  38
ATOM     38  O   UNL     1       9.604  29.683  34.286  1.00  0.00    -0.387 OA
ATOM     39  H   UNL     1      10.218  30.136  34.929  1.00  0.00     0.211 HD
ENDBRANCH  14  38
BRANCH  15  40
ATOM     40  O   UNL     1       8.123  27.647  33.026  1.00  0.00    -0.387 OA
ATOM     41  H   UNL     1       8.924  27.186  33.329  1.00  0.00     0.211 HD
ENDBRANCH  15  40
ENDBRANCH   9  10
ENDBRANCH   8   9
ENDBRANCH   3   8
BRANCH   3  42
ATOM     42  C   UNL     1       2.642  26.257  34.799  1.00  0.00     0.364 C 
ATOM     43  O   UNL     1       2.047  26.711  35.787  1.00  0.00    -0.246 OA
BRANCH  42  44
ATOM     44  O   UNL     1       2.130  26.500  33.538  1.00  0.00    -0.477 OA
ATOM     45  H   UNL     1       2.733  26.657  32.719  1.00  0.00     0.296 HD
ENDBRANCH  42  44
ENDBRANCH   3  42
BRANCH   6  46
ATOM     46  O   UNL     1       5.781  23.898  35.617  1.00  0.00    -0.391 OA
ATOM     47  H   UNL     1       5.469  24.355  34.818  1.00  0.00     0.211 HD
ENDBRANCH   6  46
BRANCH   7  48
ATOM     48  N   UNL     1       3.125  22.661  37.631  1.00  0.00    -0.348 N 
ATOM     49  C   UNL     1       3.219  21.466  38.407  1.00  0.00     0.217 C 
ATOM     50  H   UNL     1       2.469  23.399  37.976  1.00  0.00     0.163 HD
ATOM     51  C   UNL     1       2.373  21.372  39.644  1.00  0.00     0.114 C 
ATOM     52  O   UNL     1       3.979  20.517  38.077  1.00  0.00    -0.275 OA
ENDBRANCH   7  48
ENDBRANCH   1   2
BRANCH   1  53
ATOM     53  O   UNL     1       3.417  20.877  35.010  1.00  0.00    -0.388 OA
ATOM     54  H   UNL     1       4.413  20.942  35.053  1.00  0.00     0.211 HD
ENDBRANCH   1  53
BRANCH   1  55
ATOM     55  C   UNL     1       3.223  22.072  32.978  1.00  0.00     0.165 C 
BRANCH  55  56
ATOM     56  O   UNL     1       4.552  22.309  32.706  1.00  0.00    -0.388 OA
ATOM     57  H   UNL     1       5.162  22.157  33.475  1.00  0.00     0.211 HD
ENDBRANCH  55  56
BRANCH  55  58
ATOM     58  C   UNL     1       2.278  22.933  32.212  1.00  0.00     0.154 C 
BRANCH  58  59
ATOM     59  N   UNL     1       2.795  24.178  31.737  1.00  0.00    -0.319 N 
ATOM     60  C   UNL     1       2.859  24.420  30.344  1.00  0.00     0.407 C 
ATOM     61  H   UNL     1       3.122  24.907  32.386  1.00  0.00     0.167 HD
ATOM     62  O   UNL     1       2.430  23.506  29.558  1.00  0.00    -0.225 OA
BRANCH  60  63
ATOM     63  O   UNL     1       3.351  25.562  29.737  1.00  0.00    -0.443 OA
BRANCH  63  64
ATOM     64  C   UNL     1       2.725  26.054  28.540  1.00  0.00     0.294 C 
BRANCH  64  65
ATOM     65  C   UNL     1       3.747  26.127  27.469  1.00  0.00     0.120 A 
ATOM     66  C   UNL     1       4.798  27.000  27.303  1.00  0.00     0.139 A 
ATOM     67  N   UNL     1       3.813  25.295  26.376  1.00  0.00    -0.132 NA
ATOM     68  N   UNL     1       5.455  26.687  26.149  1.00  0.00    -0.237 N 
ATOM     69  N   UNL     1       4.826  25.666  25.642  1.00  0.00    -0.066 NA
BRANCH  68  70
ATOM     70  C   UNL     1       6.606  27.370  25.605  1.00  0.00     0.229 C 
BRANCH  70  71
ATOM     71  C   UNL     1       7.521  26.331  24.981  1.00  0.00     0.161 C 
BRANCH  71  72
ATOM     72  C   UNL     1       8.854  26.333  25.613  1.00  0.00     0.306 C 
ATOM     73  O   UNL     1       9.800  27.009  25.134  1.00  0.00    -0.252 OA
BRANCH  72  74
ATOM     74  O   UNL     1       9.089  25.588  26.748  1.00  0.00    -0.481 OA
ATOM     75  H   UNL     1       9.870  24.921  26.746  1.00  0.00     0.296 HD
ENDBRANCH  72  74
ENDBRANCH  71  72
ENDBRANCH  70  71
BRANCH  70  76
ATOM     76  C   UNL     1       6.158  28.316  24.568  1.00  0.00     0.329 C 
ATOM     77  O   UNL     1       6.834  29.349  24.355  1.00  0.00    -0.250 OA
BRANCH  76  78
ATOM     78  O   UNL     1       5.013  28.120  23.807  1.00  0.00    -0.480 OA
ATOM     79  H   UNL     1       4.115  28.361  24.218  1.00  0.00     0.296 HD
ENDBRANCH  76  78
ENDBRANCH  70  76
ENDBRANCH  68  70
ENDBRANCH  64  65
ENDBRANCH  63  64
ENDBRANCH  60  63
ENDBRANCH  58  59
ENDBRANCH  55  58
ENDBRANCH   1  55
TORSDOF 35
