REMARK VINA RESULT:    -8.250      1.108      1.687
REMARK INTER + INTRA:         -20.126
REMARK INTER:                 -14.746
REMARK INTRA:                  -5.381
REMARK UNBOUND:                 3.076
REMARK SMILES CC(=O)N[C@@H]1[C@@H](O)C[C@](OC[C@H]2O[C@@H](O[C@H]3[C@H](O)[C@@H](O)[C@H](OCCN=[N+]=[N-])O[C@@H]3CO)[C@H](O)[C@@H](O)[C@H]2O)(C(=O)O)O[C@H]1C(O)[C@H](O)CNC(=O)OCc1cn(C2CC(O)C=C[C@@H](O)C2)nn1
REMARK SMILES IDX 43 1 42 2 9 3 8 4 41 5 6 6 5 7 10 8 11 9 12 10 14 11 13 12
REMARK SMILES IDX 32 13 34 14 36 15 15 16 16 17 29 18 28 19 21 20 17 21 19 22
REMARK SMILES IDX 30 23 31 24 22 26 23 27 24 28 25 29 26 30 27 31 18 32 20 34
REMARK SMILES IDX 33 36 35 38 37 40 38 42 39 43 40 44 7 46 4 48 2 49 1 51 3 52
REMARK SMILES IDX 44 53 45 55 46 56 47 58 48 59 49 60 50 62 51 63 52 64 53 65
REMARK SMILES IDX 54 66 66 67 55 68 65 69 56 70 57 71 58 72 59 74 64 76 62 77
REMARK SMILES IDX 61 78 60 79 63 81
REMARK H PARENT 31 25 18 33 20 35 33 37 35 39 37 41 40 45 7 47 4 50 44 54
REMARK H PARENT 46 57 48 61 59 75 63 82
REMARK Flexibility Score: 90.00
ROOT
ATOM      1  C   UNL     1      17.031  31.825  21.220  1.00  0.00     0.176 C 
ENDROOT
BRANCH   1   2
ATOM      2  C   UNL     1      16.124  30.607  21.249  1.00  0.00     0.178 C 
ATOM      3  C   UNL     1      14.912  29.350  19.672  1.00  0.00     0.272 C 
ATOM      4  C   UNL     1      14.064  28.755  20.735  1.00  0.00     0.113 C 
ATOM      5  O   UNL     1      15.605  30.472  19.929  1.00  0.00    -0.332 OA
ATOM      6  C   UNL     1      14.409  29.173  22.118  1.00  0.00     0.145 C 
ATOM      7  C   UNL     1      14.946  30.639  22.121  1.00  0.00     0.142 C 
BRANCH   3   8
ATOM      8  O   UNL     1      14.122  29.482  18.511  1.00  0.00    -0.338 OA
BRANCH   8   9
ATOM      9  C   UNL     1      13.801  30.766  18.178  1.00  0.00     0.199 C 
BRANCH   9  10
ATOM     10  C   UNL     1      14.241  31.086  16.748  1.00  0.00     0.179 C 
ATOM     11  C   UNL     1      15.468  29.893  15.198  1.00  0.00     0.282 C 
ATOM     12  O   UNL     1      15.384  30.395  16.498  1.00  0.00    -0.341 OA
ATOM     13  C   UNL     1      14.356  28.863  15.119  1.00  0.00     0.202 C 
ATOM     14  C   UNL     1      13.066  29.647  15.042  1.00  0.00     0.179 C 
ATOM     15  C   UNL     1      13.125  30.950  15.772  1.00  0.00     0.177 C 
BRANCH  11  16
ATOM     16  O   UNL     1      16.724  29.372  15.000  1.00  0.00    -0.341 OA
BRANCH  16  17
ATOM     17  C   UNL     1      17.487  30.264  14.240  1.00  0.00     0.184 C 
ATOM     18  C   UNL     1      18.474  29.509  13.386  1.00  0.00     0.178 C 
ATOM     19  O   UNL     1      19.560  29.017  14.064  1.00  0.00    -0.341 OA
ATOM     20  C   UNL     1      19.636  29.426  15.393  1.00  0.00     0.281 C 
ATOM     21  C   UNL     1      18.143  31.328  15.077  1.00  0.00     0.180 C 
ATOM     22  C   UNL     1      19.544  30.946  15.470  1.00  0.00     0.202 C 
BRANCH  18  23
ATOM     23  C   UNL     1      18.937  30.363  12.214  1.00  0.00     0.191 C 
BRANCH  23  24
ATOM     24  O   UNL     1      17.974  31.273  11.819  1.00  0.00    -0.394 OA
ATOM     25  H   UNL     1      17.382  31.541  12.539  1.00  0.00     0.210 HD
ENDBRANCH  23  24
ENDBRANCH  18  23
BRANCH  20  26
ATOM     26  O   UNL     1      20.874  28.996  15.859  1.00  0.00    -0.350 OA
BRANCH  26  27
ATOM     27  C   UNL     1      21.869  29.672  15.162  1.00  0.00     0.169 C 
BRANCH  27  28
ATOM     28  C   UNL     1      22.806  28.704  14.460  1.00  0.00     0.119 C 
BRANCH  28  29
ATOM     29  N   UNL     1      23.135  27.588  15.323  1.00  0.00    -0.092 NA
ATOM     30  N   UNL     1      22.979  26.432  14.896  1.00  0.00     0.001 N 
ATOM     31  N   UNL     1      22.683  25.341  14.391  1.00  0.00    -0.003 NA
ENDBRANCH  28  29
ENDBRANCH  27  28
ENDBRANCH  26  27
ENDBRANCH  20  26
BRANCH  21  32
ATOM     32  O   UNL     1      18.159  32.542  14.389  1.00  0.00    -0.387 OA
ATOM     33  H   UNL     1      17.250  32.906  14.261  1.00  0.00     0.211 HD
ENDBRANCH  21  32
BRANCH  22  34
ATOM     34  O   UNL     1      19.832  31.364  16.764  1.00  0.00    -0.385 OA
ATOM     35  H   UNL     1      20.481  30.750  17.196  1.00  0.00     0.211 HD
ENDBRANCH  22  34
ENDBRANCH  16  17
ENDBRANCH  11  16
BRANCH  13  36
ATOM     36  O   UNL     1      14.457  28.003  14.057  1.00  0.00    -0.385 OA
ATOM     37  H   UNL     1      13.973  28.269  13.259  1.00  0.00     0.211 HD
ENDBRANCH  13  36
BRANCH  14  38
ATOM     38  O   UNL     1      12.058  28.807  15.512  1.00  0.00    -0.387 OA
ATOM     39  H   UNL     1      12.435  28.088  16.093  1.00  0.00     0.211 HD
ENDBRANCH  14  38
BRANCH  15  40
ATOM     40  O   UNL     1      11.927  31.155  16.486  1.00  0.00    -0.387 OA
ATOM     41  H   UNL     1      11.942  31.940  17.053  1.00  0.00     0.211 HD
ENDBRANCH  15  40
ENDBRANCH   9  10
ENDBRANCH   8   9
ENDBRANCH   3   8
BRANCH   3  42
ATOM     42  C   UNL     1      15.935  28.291  19.322  1.00  0.00     0.364 C 
ATOM     43  O   UNL     1      16.321  27.425  20.152  1.00  0.00    -0.246 OA
BRANCH  42  44
ATOM     44  O   UNL     1      16.449  28.297  18.036  1.00  0.00    -0.477 OA
ATOM     45  H   UNL     1      15.836  28.237  17.223  1.00  0.00     0.296 HD
ENDBRANCH  42  44
ENDBRANCH   3  42
BRANCH   6  46
ATOM     46  O   UNL     1      13.338  29.062  22.969  1.00  0.00    -0.391 OA
ATOM     47  H   UNL     1      12.996  28.142  22.966  1.00  0.00     0.211 HD
ENDBRANCH   6  46
BRANCH   7  48
ATOM     48  N   UNL     1      15.025  31.087  23.458  1.00  0.00    -0.348 N 
ATOM     49  C   UNL     1      14.478  32.342  23.824  1.00  0.00     0.217 C 
ATOM     50  H   UNL     1      15.453  30.500  24.197  1.00  0.00     0.163 HD
ATOM     51  C   UNL     1      14.550  32.834  25.225  1.00  0.00     0.114 C 
ATOM     52  O   UNL     1      13.922  33.054  22.953  1.00  0.00    -0.275 OA
ENDBRANCH   7  48
ENDBRANCH   1   2
BRANCH   1  53
ATOM     53  O   UNL     1      17.499  31.770  19.834  1.00  0.00    -0.388 OA
ATOM     54  H   UNL     1      16.699  31.554  19.261  1.00  0.00     0.211 HD
ENDBRANCH   1  53
BRANCH   1  55
ATOM     55  C   UNL     1      18.321  31.650  21.970  1.00  0.00     0.165 C 
BRANCH  55  56
ATOM     56  O   UNL     1      18.712  32.802  22.609  1.00  0.00    -0.388 OA
ATOM     57  H   UNL     1      18.951  32.675  23.554  1.00  0.00     0.211 HD
ENDBRANCH  55  56
BRANCH  55  58
ATOM     58  C   UNL     1      19.452  31.276  21.020  1.00  0.00     0.154 C 
BRANCH  58  59
ATOM     59  N   UNL     1      19.805  29.893  21.046  1.00  0.00    -0.319 N 
ATOM     60  C   UNL     1      19.645  29.032  19.925  1.00  0.00     0.407 C 
ATOM     61  H   UNL     1      20.205  29.469  21.936  1.00  0.00     0.167 HD
ATOM     62  O   UNL     1      19.165  29.546  18.875  1.00  0.00    -0.225 OA
BRANCH  60  63
ATOM     63  O   UNL     1      20.005  27.706  20.009  1.00  0.00    -0.443 OA
BRANCH  63  64
ATOM     64  C   UNL     1      21.377  27.330  20.095  1.00  0.00     0.294 C 
BRANCH  64  65
ATOM     65  C   UNL     1      21.579  26.648  21.393  1.00  0.00     0.120 A 
ATOM     66  C   UNL     1      21.801  27.209  22.624  1.00  0.00     0.138 A 
ATOM     67  N   UNL     1      21.582  25.317  21.579  1.00  0.00    -0.132 NA
ATOM     68  N   UNL     1      21.935  26.195  23.516  1.00  0.00    -0.249 N 
ATOM     69  N   UNL     1      21.797  25.066  22.853  1.00  0.00    -0.067 NA
BRANCH  68  70
ATOM     70  C   UNL     1      22.192  26.327  24.957  1.00  0.00     0.115 C 
BRANCH  70  71
ATOM     71  C   UNL     1      21.069  27.092  25.572  1.00  0.00     0.063 C 
BRANCH  71  72
ATOM     72  C   UNL     1      21.582  27.805  26.827  1.00  0.00     0.139 CG0
ATOM     73  G   UNL     1      21.737  26.820  27.909  1.00  0.00     0.000 G0
BRANCH  72  74
ATOM     74  O   UNL     1      20.701  28.822  27.188  1.00  0.00    -0.389 OA
ATOM     75  H   UNL     1      19.977  28.416  27.745  1.00  0.00     0.211 HD
ENDBRANCH  72  74
ENDBRANCH  71  72
ENDBRANCH  70  71
BRANCH  70  76
ATOM     76  C   UNL     1      22.305  24.955  25.546  1.00  0.00     0.063 C 
BRANCH  76  77
ATOM     77  C   UNL     1      23.196  25.084  26.786  1.00  0.00     0.139 C 
BRANCH  77  78
ATOM     78  C   UNL     1      22.402  25.640  27.914  1.00  0.00     0.002 C 
ATOM     79  C   UNL     1      21.738  26.788  27.912  1.00  0.00     0.002 CG0
ATOM     80  G   UNL     1      21.602  27.793  26.845  1.00  0.00     0.000 G0
ENDBRANCH  77  78
BRANCH  77  81
ATOM     81  O   UNL     1      23.780  23.873  27.125  1.00  0.00    -0.389 OA
ATOM     82  H   UNL     1      23.056  23.187  27.145  1.00  0.00     0.211 HD
ENDBRANCH  77  81
ENDBRANCH  76  77
ENDBRANCH  70  76
ENDBRANCH  68  70
ENDBRANCH  64  65
ENDBRANCH  63  64
ENDBRANCH  60  63
ENDBRANCH  58  59
ENDBRANCH  55  58
ENDBRANCH   1  55
TORSDOF 32
