REMARK VINA RESULT:    -4.904     21.243     25.724
REMARK INTER + INTRA:         -24.644
REMARK INTER:                 -15.434
REMARK INTRA:                  -9.211
REMARK UNBOUND:               -10.710
REMARK SMILES CC(=O)N[C@@H]1[C@@H](O)C[C@](OC[C@H]2O[C@@H](O[C@H]3[C@H](O)[C@@H](O)[C@H](OCCN=[N+]=[N-])O[C@@H]3CO)[C@H](O)[C@@H](O)[C@H]2O)(C(=O)O)O[C@H]1C(O)[C@H](O)CNC(=O)OCc1cn(CC(=O)NCC(O)Cn2ccnc2[N+](=O)[O-])nn1
REMARK SMILES IDX 47 1 45 2 43 3 42 4 9 5 8 6 41 7 6 8 5 9 10 10 11 11 12 12
REMARK SMILES IDX 14 13 13 14 32 15 34 16 36 17 15 18 16 19 29 20 28 21 21 22
REMARK SMILES IDX 17 23 19 24 30 25 31 26 22 28 23 29 24 30 25 31 26 32 27 33
REMARK SMILES IDX 18 34 20 36 33 38 35 40 37 42 38 44 39 45 40 46 7 48 4 50
REMARK SMILES IDX 2 51 1 53 3 54 44 55 46 57 48 59 49 60 50 62 51 63 52 64
REMARK SMILES IDX 53 65 54 66 73 67 55 68 72 69 56 70 57 71 58 72 59 73 60 75
REMARK SMILES IDX 61 76 62 77 63 79 64 80 65 81 68 82 66 83 67 84 69 85 70 86
REMARK SMILES IDX 71 87
REMARK H PARENT 31 27 18 35 20 37 33 39 35 41 37 43 40 47 7 49 4 52 44 56
REMARK H PARENT 46 58 48 61 59 74 62 78
REMARK Flexibility Score: inf
ROOT
ATOM      1  C   UNL     1      31.739  17.902  23.193  1.00  0.00     0.154 C 
ENDROOT
BRANCH   1   2
ATOM      2  C   UNL     1      32.021  17.818  24.656  1.00  0.00     0.165 C 
BRANCH   2   3
ATOM      3  C   UNL     1      33.405  18.141  25.079  1.00  0.00     0.176 C 
BRANCH   3   4
ATOM      4  C   UNL     1      33.841  17.793  26.442  1.00  0.00     0.178 C 
ATOM      5  C   UNL     1      33.295  17.758  28.700  1.00  0.00     0.272 C 
ATOM      6  C   UNL     1      34.356  16.714  28.695  1.00  0.00     0.113 C 
ATOM      7  O   UNL     1      32.958  18.214  27.413  1.00  0.00    -0.332 OA
ATOM      8  C   UNL     1      35.588  17.075  27.935  1.00  0.00     0.145 C 
ATOM      9  C   UNL     1      35.230  18.120  26.840  1.00  0.00     0.142 C 
BRANCH   5  10
ATOM     10  O   UNL     1      33.511  18.855  29.482  1.00  0.00    -0.338 OA
BRANCH  10  11
ATOM     11  C   UNL     1      32.826  19.992  29.188  1.00  0.00     0.199 C 
BRANCH  11  12
ATOM     12  C   UNL     1      33.725  21.133  28.756  1.00  0.00     0.179 C 
ATOM     13  C   UNL     1      34.314  22.391  26.884  1.00  0.00     0.282 C 
ATOM     14  O   UNL     1      33.994  21.154  27.434  1.00  0.00    -0.341 OA
ATOM     15  C   UNL     1      35.107  23.243  27.843  1.00  0.00     0.202 C 
ATOM     16  C   UNL     1      34.365  23.450  29.144  1.00  0.00     0.179 C 
ATOM     17  C   UNL     1      33.221  22.460  29.255  1.00  0.00     0.177 C 
BRANCH  13  18
ATOM     18  O   UNL     1      33.253  23.088  26.427  1.00  0.00    -0.341 OA
BRANCH  18  19
ATOM     19  C   UNL     1      32.708  22.854  25.223  1.00  0.00     0.184 C 
ATOM     20  C   UNL     1      32.519  24.033  24.306  1.00  0.00     0.178 C 
ATOM     21  O   UNL     1      32.377  23.507  23.020  1.00  0.00    -0.341 OA
ATOM     22  C   UNL     1      31.164  22.841  22.880  1.00  0.00     0.281 C 
ATOM     23  C   UNL     1      31.305  22.233  25.321  1.00  0.00     0.180 C 
ATOM     24  C   UNL     1      30.956  21.783  23.921  1.00  0.00     0.202 C 
BRANCH  20  25
ATOM     25  C   UNL     1      33.755  24.882  24.303  1.00  0.00     0.191 C 
BRANCH  25  26
ATOM     26  O   UNL     1      33.777  25.772  25.385  1.00  0.00    -0.394 OA
ATOM     27  H   UNL     1      34.749  25.811  25.655  1.00  0.00     0.210 HD
ENDBRANCH  25  26
ENDBRANCH  20  25
BRANCH  22  28
ATOM     28  O   UNL     1      31.182  22.211  21.638  1.00  0.00    -0.350 OA
BRANCH  28  29
ATOM     29  C   UNL     1      32.345  21.457  21.467  1.00  0.00     0.169 C 
BRANCH  29  30
ATOM     30  C   UNL     1      32.663  21.504  19.971  1.00  0.00     0.119 C 
BRANCH  30  31
ATOM     31  N   UNL     1      32.467  20.194  19.373  1.00  0.00    -0.092 NA
ATOM     32  N   UNL     1      33.244  19.288  19.742  1.00  0.00     0.001 N 
ATOM     33  N   UNL     1      33.767  18.311  20.263  1.00  0.00    -0.003 NA
ENDBRANCH  30  31
ENDBRANCH  29  30
ENDBRANCH  28  29
ENDBRANCH  22  28
BRANCH  23  34
ATOM     34  O   UNL     1      31.314  21.095  26.121  1.00  0.00    -0.387 OA
ATOM     35  H   UNL     1      30.890  21.390  26.988  1.00  0.00     0.211 HD
ENDBRANCH  23  34
BRANCH  24  36
ATOM     36  O   UNL     1      29.643  21.326  23.812  1.00  0.00    -0.385 OA
ATOM     37  H   UNL     1      29.064  21.915  24.379  1.00  0.00     0.211 HD
ENDBRANCH  24  36
ENDBRANCH  18  19
ENDBRANCH  13  18
BRANCH  15  38
ATOM     38  O   UNL     1      36.388  22.720  28.062  1.00  0.00    -0.385 OA
ATOM     39  H   UNL     1      36.414  21.870  27.520  1.00  0.00     0.211 HD
ENDBRANCH  15  38
BRANCH  16  40
ATOM     40  O   UNL     1      33.814  24.726  29.209  1.00  0.00    -0.387 OA
ATOM     41  H   UNL     1      33.748  25.062  30.151  1.00  0.00     0.211 HD
ENDBRANCH  16  40
BRANCH  17  42
ATOM     42  O   UNL     1      32.053  22.882  28.665  1.00  0.00    -0.387 OA
ATOM     43  H   UNL     1      31.556  23.545  29.219  1.00  0.00     0.211 HD
ENDBRANCH  17  42
ENDBRANCH  11  12
ENDBRANCH  10  11
ENDBRANCH   5  10
BRANCH   5  44
ATOM     44  C   UNL     1      32.025  17.076  29.151  1.00  0.00     0.364 C 
ATOM     45  O   UNL     1      31.276  16.638  28.260  1.00  0.00    -0.246 OA
BRANCH  44  46
ATOM     46  O   UNL     1      31.676  16.926  30.473  1.00  0.00    -0.477 OA
ATOM     47  H   UNL     1      30.934  16.257  30.748  1.00  0.00     0.296 HD
ENDBRANCH  44  46
ENDBRANCH   5  44
BRANCH   8  48
ATOM     48  O   UNL     1      36.667  17.485  28.650  1.00  0.00    -0.391 OA
ATOM     49  H   UNL     1      37.198  18.199  28.269  1.00  0.00     0.211 HD
ENDBRANCH   8  48
BRANCH   9  50
ATOM     50  N   UNL     1      36.242  18.035  25.855  1.00  0.00    -0.348 N 
ATOM     51  C   UNL     1      36.965  19.206  25.426  1.00  0.00     0.217 C 
ATOM     52  H   UNL     1      36.503  17.141  25.420  1.00  0.00     0.163 HD
ATOM     53  C   UNL     1      38.026  19.139  24.386  1.00  0.00     0.114 C 
ATOM     54  O   UNL     1      36.674  20.299  25.955  1.00  0.00    -0.275 OA
ENDBRANCH   9  50
ENDBRANCH   3   4
BRANCH   3  55
ATOM     55  O   UNL     1      33.613  19.514  24.795  1.00  0.00    -0.388 OA
ATOM     56  H   UNL     1      32.758  19.964  24.890  1.00  0.00     0.211 HD
ENDBRANCH   3  55
ENDBRANCH   2   3
BRANCH   2  57
ATOM     57  O   UNL     1      31.418  16.744  25.266  1.00  0.00    -0.388 OA
ATOM     58  H   UNL     1      31.824  16.442  26.098  1.00  0.00     0.211 HD
ENDBRANCH   2  57
ENDBRANCH   1   2
BRANCH   1  59
ATOM     59  N   UNL     1      30.551  18.674  22.950  1.00  0.00    -0.319 N 
ATOM     60  C   UNL     1      29.856  18.670  21.715  1.00  0.00     0.407 C 
ATOM     61  H   UNL     1      30.147  19.292  23.714  1.00  0.00     0.167 HD
ATOM     62  O   UNL     1      30.276  17.956  20.781  1.00  0.00    -0.225 OA
BRANCH  60  63
ATOM     63  O   UNL     1      28.724  19.414  21.459  1.00  0.00    -0.443 OA
BRANCH  63  64
ATOM     64  C   UNL     1      28.683  20.382  20.444  1.00  0.00     0.294 C 
BRANCH  64  65
ATOM     65  C   UNL     1      27.935  21.604  20.733  1.00  0.00     0.120 A 
ATOM     66  C   UNL     1      27.520  22.576  19.859  1.00  0.00     0.138 A 
ATOM     67  N   UNL     1      27.518  22.021  21.939  1.00  0.00    -0.132 NA
ATOM     68  N   UNL     1      26.872  23.542  20.551  1.00  0.00    -0.243 N 
ATOM     69  N   UNL     1      26.880  23.194  21.799  1.00  0.00    -0.067 NA
BRANCH  68  70
ATOM     70  C   UNL     1      26.256  24.737  19.987  1.00  0.00     0.245 C 
BRANCH  70  71
ATOM     71  C   UNL     1      24.786  24.589  20.032  1.00  0.00     0.241 C 
ATOM     72  O   UNL     1      24.083  24.642  18.966  1.00  0.00    -0.273 OA
ATOM     73  N   UNL     1      24.067  24.375  21.245  1.00  0.00    -0.352 N 
ATOM     74  H   UNL     1      24.591  24.324  22.135  1.00  0.00     0.163 HD
BRANCH  73  75
ATOM     75  C   UNL     1      22.624  24.238  21.187  1.00  0.00     0.151 C 
BRANCH  75  76
ATOM     76  C   UNL     1      21.962  24.610  22.477  1.00  0.00     0.168 C 
BRANCH  76  77
ATOM     77  O   UNL     1      20.678  25.092  22.295  1.00  0.00    -0.388 OA
ATOM     78  H   UNL     1      20.425  25.581  23.113  1.00  0.00     0.211 HD
ENDBRANCH  76  77
BRANCH  76  79
ATOM     79  C   UNL     1      22.837  25.657  23.151  1.00  0.00     0.239 C 
BRANCH  79  80
ATOM     80  N   UNL     1      22.944  25.431  24.564  1.00  0.00    -0.227 N 
ATOM     81  C   UNL     1      23.812  24.562  25.146  1.00  0.00     0.204 A 
ATOM     82  C   UNL     1      22.243  25.977  25.588  1.00  0.00     0.434 A 
ATOM     83  C   UNL     1      23.633  24.585  26.507  1.00  0.00     0.245 A 
ATOM     84  N   UNL     1      22.665  25.460  26.758  1.00  0.00    -0.074 NA
BRANCH  82  85
ATOM     85  N   UNL     1      21.220  26.962  25.449  1.00  0.00    -0.047 N 
ATOM     86  O   UNL     1      21.352  28.143  25.772  1.00  0.00    -0.390 OA
ATOM     87  O   UNL     1      19.997  26.566  24.927  1.00  0.00    -0.390 OA
ENDBRANCH  82  85
ENDBRANCH  79  80
ENDBRANCH  76  79
ENDBRANCH  75  76
ENDBRANCH  73  75
ENDBRANCH  70  71
ENDBRANCH  68  70
ENDBRANCH  64  65
ENDBRANCH  63  64
ENDBRANCH  60  63
ENDBRANCH   1  59
TORSDOF 37
