REMARK VINA RESULT:    -5.459      2.247      8.369
REMARK INTER + INTRA:         -21.279
REMARK INTER:                 -13.965
REMARK INTRA:                  -7.314
REMARK UNBOUND:                -7.364
REMARK SMILES CC(=O)N[C@@H]1[C@@H](O)C[C@](OC[C@H]2O[C@@H](O[C@H]3[C@H](O)[C@@H](O)[C@H](OCCN=[N+]=[N-])O[C@@H]3CO)[C@H](O)[C@@H](O)[C@H]2O)(C(=O)O)O[C@H]1C(O)[C@H](O)CNC(=O)OCc1cn([C@@H](C)C(=O)O)nn1
REMARK SMILES IDX 9 1 8 2 6 3 5 4 42 5 41 6 10 7 11 8 12 9 14 10 13 11 32 12
REMARK SMILES IDX 34 13 36 14 15 15 16 16 29 17 28 18 21 19 17 20 19 21 30 22
REMARK SMILES IDX 31 23 22 25 23 26 24 27 25 28 26 29 27 30 18 31 20 33 33 35
REMARK SMILES IDX 35 37 37 39 38 41 39 42 40 43 7 45 43 47 44 48 45 50 46 51
REMARK SMILES IDX 47 53 48 54 49 55 50 57 51 58 52 59 53 60 54 61 62 62 55 63
REMARK SMILES IDX 61 64 56 65 57 66 58 67 59 68 60 69 4 71 2 72 1 74 3 75
REMARK H PARENT 31 24 18 32 20 34 33 36 35 38 37 40 40 44 7 46 44 49 46 52
REMARK H PARENT 48 56 60 70 4 73
REMARK Flexibility Score: inf
ROOT
ATOM      1  C   UNL     1       2.753  21.776  30.893  1.00  0.00     0.272 C 
ATOM      2  C   UNL     1       1.644  21.690  31.868  1.00  0.00     0.113 C 
ATOM      3  C   UNL     1       1.565  23.026  32.571  1.00  0.00     0.145 C 
ATOM      4  C   UNL     1       2.826  22.994  33.507  1.00  0.00     0.142 C 
ATOM      5  C   UNL     1       3.979  22.470  32.796  1.00  0.00     0.178 C 
ATOM      6  O   UNL     1       3.902  22.365  31.432  1.00  0.00    -0.332 OA
ENDROOT
BRANCH   1   7
ATOM      7  O   UNL     1       2.392  22.385  29.731  1.00  0.00    -0.338 OA
BRANCH   7   8
ATOM      8  C   UNL     1       1.275  21.988  29.094  1.00  0.00     0.199 C 
BRANCH   8   9
ATOM      9  C   UNL     1       0.619  23.168  28.335  1.00  0.00     0.179 C 
ATOM     10  C   UNL     1       0.877  25.446  28.064  1.00  0.00     0.282 C 
ATOM     11  O   UNL     1       1.421  24.259  28.543  1.00  0.00    -0.341 OA
ATOM     12  C   UNL     1      -0.350  25.226  27.229  1.00  0.00     0.202 C 
ATOM     13  C   UNL     1      -0.130  24.103  26.234  1.00  0.00     0.179 C 
ATOM     14  C   UNL     1       0.475  22.869  26.882  1.00  0.00     0.177 C 
BRANCH  10  15
ATOM     15  O   UNL     1       1.780  26.181  27.284  1.00  0.00    -0.341 OA
BRANCH  15  16
ATOM     16  C   UNL     1       3.085  25.746  27.460  1.00  0.00     0.184 C 
ATOM     17  C   UNL     1       3.880  26.781  28.191  1.00  0.00     0.178 C 
ATOM     18  O   UNL     1       4.839  27.386  27.377  1.00  0.00    -0.341 OA
ATOM     19  C   UNL     1       4.269  27.860  26.192  1.00  0.00     0.281 C 
ATOM     20  C   UNL     1       3.674  25.491  26.093  1.00  0.00     0.180 C 
ATOM     21  C   UNL     1       3.866  26.738  25.277  1.00  0.00     0.202 C 
BRANCH  17  22
ATOM     22  C   UNL     1       4.593  26.204  29.392  1.00  0.00     0.191 C 
BRANCH  22  23
ATOM     23  O   UNL     1       3.908  25.122  29.938  1.00  0.00    -0.394 OA
ATOM     24  H   UNL     1       3.894  24.381  29.299  1.00  0.00     0.210 HD
ENDBRANCH  22  23
ENDBRANCH  17  22
BRANCH  19  25
ATOM     25  O   UNL     1       5.245  28.617  25.567  1.00  0.00    -0.350 OA
BRANCH  25  26
ATOM     26  C   UNL     1       6.069  27.786  24.837  1.00  0.00     0.169 C 
BRANCH  26  27
ATOM     27  C   UNL     1       6.974  28.595  23.931  1.00  0.00     0.119 C 
BRANCH  27  28
ATOM     28  N   UNL     1       8.182  28.939  24.678  1.00  0.00    -0.092 NA
ATOM     29  N   UNL     1       9.050  28.107  24.943  1.00  0.00     0.001 N 
ATOM     30  N   UNL     1       9.949  27.285  24.942  1.00  0.00    -0.003 NA
ENDBRANCH  27  28
ENDBRANCH  26  27
ENDBRANCH  25  26
ENDBRANCH  19  25
BRANCH  20  31
ATOM     31  O   UNL     1       4.880  24.795  26.164  1.00  0.00    -0.387 OA
ATOM     32  H   UNL     1       5.431  25.036  26.940  1.00  0.00     0.211 HD
ENDBRANCH  20  31
BRANCH  21  33
ATOM     33  O   UNL     1       2.673  27.091  24.650  1.00  0.00    -0.385 OA
ATOM     34  H   UNL     1       2.266  27.882  25.072  1.00  0.00     0.211 HD
ENDBRANCH  21  33
ENDBRANCH  15  16
ENDBRANCH  10  15
BRANCH  12  35
ATOM     35  O   UNL     1      -1.513  25.092  27.950  1.00  0.00    -0.385 OA
ATOM     36  H   UNL     1      -2.007  24.265  27.657  1.00  0.00     0.211 HD
ENDBRANCH  12  35
BRANCH  13  37
ATOM     37  O   UNL     1       0.773  24.594  25.266  1.00  0.00    -0.387 OA
ATOM     38  H   UNL     1       1.475  23.922  25.065  1.00  0.00     0.211 HD
ENDBRANCH  13  37
BRANCH  14  39
ATOM     39  O   UNL     1       1.703  22.554  26.301  1.00  0.00    -0.387 OA
ATOM     40  H   UNL     1       2.433  22.999  26.804  1.00  0.00     0.211 HD
ENDBRANCH  14  39
ENDBRANCH   8   9
ENDBRANCH   7   8
ENDBRANCH   1   7
BRANCH   1  41
ATOM     41  C   UNL     1       3.200  20.388  30.601  1.00  0.00     0.364 C 
ATOM     42  O   UNL     1       2.409  19.442  30.722  1.00  0.00    -0.246 OA
BRANCH  41  43
ATOM     43  O   UNL     1       4.498  20.121  30.189  1.00  0.00    -0.477 OA
ATOM     44  H   UNL     1       5.259  20.022  30.877  1.00  0.00     0.296 HD
ENDBRANCH  41  43
ENDBRANCH   1  41
BRANCH   3  45
ATOM     45  O   UNL     1       1.842  24.017  31.637  1.00  0.00    -0.391 OA
ATOM     46  H   UNL     1       2.723  23.938  31.236  1.00  0.00     0.211 HD
ENDBRANCH   3  45
BRANCH   5  47
ATOM     47  C   UNL     1       5.320  23.116  33.107  1.00  0.00     0.176 C 
BRANCH  47  48
ATOM     48  O   UNL     1       5.487  24.186  32.156  1.00  0.00    -0.388 OA
ATOM     49  H   UNL     1       6.399  24.516  32.204  1.00  0.00     0.211 HD
ENDBRANCH  47  48
BRANCH  47  50
ATOM     50  C   UNL     1       6.512  22.226  32.818  1.00  0.00     0.165 C 
BRANCH  50  51
ATOM     51  O   UNL     1       6.258  20.891  32.763  1.00  0.00    -0.388 OA
ATOM     52  H   UNL     1       5.317  20.611  32.715  1.00  0.00     0.211 HD
ENDBRANCH  50  51
BRANCH  50  53
ATOM     53  C   UNL     1       7.723  22.633  33.587  1.00  0.00     0.154 C 
BRANCH  53  54
ATOM     54  N   UNL     1       7.682  23.879  34.256  1.00  0.00    -0.319 N 
ATOM     55  C   UNL     1       8.750  24.798  34.431  1.00  0.00     0.407 C 
ATOM     56  H   UNL     1       6.741  24.157  34.676  1.00  0.00     0.167 HD
ATOM     57  O   UNL     1       9.861  24.531  33.957  1.00  0.00    -0.225 OA
BRANCH  55  58
ATOM     58  O   UNL     1       8.532  25.992  35.139  1.00  0.00    -0.443 OA
BRANCH  58  59
ATOM     59  C   UNL     1       8.726  27.237  34.522  1.00  0.00     0.294 C 
BRANCH  59  60
ATOM     60  C   UNL     1       7.503  27.792  33.930  1.00  0.00     0.120 A 
ATOM     61  C   UNL     1       6.198  27.681  34.356  1.00  0.00     0.139 A 
ATOM     62  N   UNL     1       7.499  28.548  32.800  1.00  0.00    -0.132 NA
ATOM     63  N   UNL     1       5.449  28.362  33.488  1.00  0.00    -0.238 N 
ATOM     64  N   UNL     1       6.226  28.886  32.549  1.00  0.00    -0.066 NA
BRANCH  63  65
ATOM     65  C   UNL     1       4.009  28.511  33.549  1.00  0.00     0.215 C 
ATOM     66  C   UNL     1       3.636  29.935  33.280  1.00  0.00     0.046 C 
BRANCH  65  67
ATOM     67  C   UNL     1       3.333  27.614  32.582  1.00  0.00     0.328 C 
ATOM     68  O   UNL     1       2.671  28.128  31.648  1.00  0.00    -0.250 OA
BRANCH  67  69
ATOM     69  O   UNL     1       3.408  26.232  32.672  1.00  0.00    -0.480 OA
ATOM     70  H   UNL     1       3.286  25.636  31.862  1.00  0.00     0.296 HD
ENDBRANCH  67  69
ENDBRANCH  65  67
ENDBRANCH  63  65
ENDBRANCH  59  60
ENDBRANCH  58  59
ENDBRANCH  55  58
ENDBRANCH  53  54
ENDBRANCH  50  53
ENDBRANCH  47  50
ENDBRANCH   5  47
BRANCH   4  71
ATOM     71  N   UNL     1       2.442  22.294  34.718  1.00  0.00    -0.348 N 
ATOM     72  C   UNL     1       2.826  21.010  35.103  1.00  0.00     0.217 C 
ATOM     73  H   UNL     1       1.800  22.829  35.371  1.00  0.00     0.163 HD
ATOM     74  C   UNL     1       2.360  20.400  36.372  1.00  0.00     0.114 C 
ATOM     75  O   UNL     1       3.580  20.355  34.360  1.00  0.00    -0.275 OA
ENDBRANCH   4  71
TORSDOF 32
