REMARK VINA RESULT:    -6.001      4.489      8.701
REMARK INTER + INTRA:         -21.712
REMARK INTER:                 -13.750
REMARK INTRA:                  -7.962
REMARK UNBOUND:                -6.939
REMARK SMILES CC(=O)N[C@@H]1[C@@H](O)C[C@](OC[C@H]2O[C@@H](O[C@H]3[C@H](O)[C@@H](O)[C@H](OCCN=[N+]=[N-])O[C@@H]3CO)[C@H](O)[C@@H](O)[C@H]2O)(C(=O)O)O[C@H]1C(O)[C@H](O)CNC(=O)OCc1cn([C@H]2C[C@H]3CC[C@@H](C2)N3C)nn1
REMARK SMILES IDX 9 1 8 2 6 3 5 4 42 5 41 6 10 7 11 8 12 9 14 10 13 11 32 12
REMARK SMILES IDX 34 13 36 14 15 15 16 16 29 17 28 18 21 19 17 20 19 21 30 22
REMARK SMILES IDX 31 23 22 25 23 26 24 27 25 28 26 29 27 30 18 31 20 33 33 35
REMARK SMILES IDX 35 37 37 39 38 41 39 42 40 43 7 45 43 47 44 48 45 50 46 51
REMARK SMILES IDX 47 53 48 54 49 55 50 57 51 58 52 59 53 60 54 61 66 62 55 63
REMARK SMILES IDX 65 64 56 65 62 66 57 67 61 68 58 69 63 70 60 71 59 72 64 73
REMARK SMILES IDX 4 74 2 75 1 77 3 78
REMARK H PARENT 31 24 18 32 20 34 33 36 35 38 37 40 40 44 7 46 44 49 46 52
REMARK H PARENT 48 56 4 76
REMARK Flexibility Score: inf
ROOT
ATOM      1  C   UNL     1      22.711  25.385  23.067  1.00  0.00     0.272 C 
ATOM      2  C   UNL     1      22.569  24.497  21.843  1.00  0.00     0.113 C 
ATOM      3  C   UNL     1      23.602  24.721  20.781  1.00  0.00     0.145 C 
ATOM      4  C   UNL     1      23.999  26.149  20.803  1.00  0.00     0.142 C 
ATOM      5  C   UNL     1      22.804  26.949  21.330  1.00  0.00     0.178 C 
ATOM      6  O   UNL     1      22.912  26.702  22.760  1.00  0.00    -0.332 OA
ENDROOT
BRANCH   1   7
ATOM      7  O   UNL     1      23.663  24.840  23.875  1.00  0.00    -0.338 OA
BRANCH   7   8
ATOM      8  C   UNL     1      24.542  25.631  24.520  1.00  0.00     0.199 C 
BRANCH   8   9
ATOM      9  C   UNL     1      24.373  25.868  25.974  1.00  0.00     0.179 C 
ATOM     10  C   UNL     1      23.632  27.502  27.345  1.00  0.00     0.282 C 
ATOM     11  O   UNL     1      23.326  26.826  26.157  1.00  0.00    -0.341 OA
ATOM     12  C   UNL     1      23.830  26.618  28.502  1.00  0.00     0.202 C 
ATOM     13  C   UNL     1      24.006  25.167  28.265  1.00  0.00     0.179 C 
ATOM     14  C   UNL     1      23.932  24.720  26.822  1.00  0.00     0.177 C 
BRANCH  10  15
ATOM     15  O   UNL     1      22.638  28.434  27.522  1.00  0.00    -0.341 OA
BRANCH  15  16
ATOM     16  C   UNL     1      22.524  29.309  26.438  1.00  0.00     0.184 C 
ATOM     17  C   UNL     1      22.989  30.702  26.707  1.00  0.00     0.178 C 
ATOM     18  O   UNL     1      22.161  31.508  27.422  1.00  0.00    -0.341 OA
ATOM     19  C   UNL     1      20.855  31.451  27.077  1.00  0.00     0.281 C 
ATOM     20  C   UNL     1      21.059  29.280  26.061  1.00  0.00     0.180 C 
ATOM     21  C   UNL     1      20.343  30.017  27.191  1.00  0.00     0.202 C 
BRANCH  17  22
ATOM     22  C   UNL     1      23.564  31.350  25.442  1.00  0.00     0.191 C 
BRANCH  22  23
ATOM     23  O   UNL     1      23.472  30.555  24.323  1.00  0.00    -0.394 OA
ATOM     24  H   UNL     1      22.626  30.670  23.839  1.00  0.00     0.210 HD
ENDBRANCH  22  23
ENDBRANCH  17  22
BRANCH  19  25
ATOM     25  O   UNL     1      20.470  32.051  25.915  1.00  0.00    -0.350 OA
BRANCH  25  26
ATOM     26  C   UNL     1      19.318  32.774  25.912  1.00  0.00     0.169 C 
BRANCH  26  27
ATOM     27  C   UNL     1      18.458  32.475  24.732  1.00  0.00     0.119 C 
BRANCH  27  28
ATOM     28  N   UNL     1      17.927  31.106  24.780  1.00  0.00    -0.092 NA
ATOM     29  N   UNL     1      17.830  30.440  23.734  1.00  0.00     0.001 N 
ATOM     30  N   UNL     1      18.264  29.768  22.778  1.00  0.00    -0.003 NA
ENDBRANCH  27  28
ENDBRANCH  26  27
ENDBRANCH  25  26
ENDBRANCH  19  25
BRANCH  20  31
ATOM     31  O   UNL     1      20.781  29.903  24.868  1.00  0.00    -0.387 OA
ATOM     32  H   UNL     1      20.639  29.286  24.133  1.00  0.00     0.211 HD
ENDBRANCH  20  31
BRANCH  21  33
ATOM     33  O   UNL     1      20.690  29.488  28.432  1.00  0.00    -0.385 OA
ATOM     34  H   UNL     1      19.845  29.385  28.946  1.00  0.00     0.211 HD
ENDBRANCH  21  33
ENDBRANCH  15  16
ENDBRANCH  10  15
BRANCH  12  35
ATOM     35  O   UNL     1      24.980  27.082  29.191  1.00  0.00    -0.385 OA
ATOM     36  H   UNL     1      25.768  27.133  28.609  1.00  0.00     0.211 HD
ENDBRANCH  12  35
BRANCH  13  37
ATOM     37  O   UNL     1      23.032  24.410  28.962  1.00  0.00    -0.387 OA
ATOM     38  H   UNL     1      23.277  24.451  29.942  1.00  0.00     0.211 HD
ENDBRANCH  13  37
BRANCH  14  39
ATOM     39  O   UNL     1      22.563  24.455  26.575  1.00  0.00    -0.387 OA
ATOM     40  H   UNL     1      22.303  23.857  27.344  1.00  0.00     0.211 HD
ENDBRANCH  14  39
ENDBRANCH   8   9
ENDBRANCH   7   8
ENDBRANCH   1   7
BRANCH   1  41
ATOM     41  C   UNL     1      21.370  25.299  23.727  1.00  0.00     0.364 C 
ATOM     42  O   UNL     1      20.755  24.241  23.816  1.00  0.00    -0.246 OA
BRANCH  41  43
ATOM     43  O   UNL     1      20.773  26.444  24.270  1.00  0.00    -0.477 OA
ATOM     44  H   UNL     1      20.477  26.387  25.254  1.00  0.00     0.296 HD
ENDBRANCH  41  43
ENDBRANCH   1  41
BRANCH   3  45
ATOM     45  O   UNL     1      24.680  23.857  21.088  1.00  0.00    -0.391 OA
ATOM     46  H   UNL     1      24.451  22.925  20.844  1.00  0.00     0.211 HD
ENDBRANCH   3  45
BRANCH   5  47
ATOM     47  C   UNL     1      22.909  28.410  21.149  1.00  0.00     0.176 C 
BRANCH  47  48
ATOM     48  O   UNL     1      23.811  28.880  22.200  1.00  0.00    -0.388 OA
ATOM     49  H   UNL     1      23.341  28.757  23.063  1.00  0.00     0.211 HD
ENDBRANCH  47  48
BRANCH  47  50
ATOM     50  C   UNL     1      21.678  29.217  21.538  1.00  0.00     0.165 C 
BRANCH  50  51
ATOM     51  O   UNL     1      20.810  28.298  22.177  1.00  0.00    -0.388 OA
ATOM     52  H   UNL     1      19.928  28.269  21.730  1.00  0.00     0.211 HD
ENDBRANCH  50  51
BRANCH  50  53
ATOM     53  C   UNL     1      20.962  29.935  20.467  1.00  0.00     0.154 C 
BRANCH  53  54
ATOM     54  N   UNL     1      19.821  29.082  20.074  1.00  0.00    -0.319 N 
ATOM     55  C   UNL     1      19.653  28.643  18.738  1.00  0.00     0.407 C 
ATOM     56  H   UNL     1      19.137  28.809  20.803  1.00  0.00     0.167 HD
ATOM     57  O   UNL     1      20.517  28.985  17.869  1.00  0.00    -0.225 OA
BRANCH  55  58
ATOM     58  O   UNL     1      18.570  27.854  18.385  1.00  0.00    -0.443 OA
BRANCH  58  59
ATOM     59  C   UNL     1      17.339  28.488  18.119  1.00  0.00     0.294 C 
BRANCH  59  60
ATOM     60  C   UNL     1      16.465  28.600  19.304  1.00  0.00     0.120 A 
ATOM     61  C   UNL     1      15.541  29.605  19.506  1.00  0.00     0.138 A 
ATOM     62  N   UNL     1      16.387  27.821  20.387  1.00  0.00    -0.132 NA
ATOM     63  N   UNL     1      14.934  29.421  20.685  1.00  0.00    -0.249 N 
ATOM     64  N   UNL     1      15.464  28.319  21.216  1.00  0.00    -0.067 NA
BRANCH  63  65
ATOM     65  C   UNL     1      13.908  30.300  21.227  1.00  0.00     0.112 C 
ATOM     66  C   UNL     1      14.602  31.336  22.044  1.00  0.00     0.046 C 
ATOM     67  C   UNL     1      12.905  29.460  21.949  1.00  0.00     0.046 C 
ATOM     68  C   UNL     1      13.956  31.639  23.358  1.00  0.00     0.058 C 
ATOM     69  C   UNL     1      12.400  30.030  23.238  1.00  0.00     0.058 C 
ATOM     70  N   UNL     1      12.536  31.469  23.318  1.00  0.00    -0.300 NA
ATOM     71  C   UNL     1      14.391  30.581  24.369  1.00  0.00     0.021 C 
ATOM     72  C   UNL     1      13.295  29.543  24.359  1.00  0.00     0.021 C 
ATOM     73  C   UNL     1      11.871  32.157  22.238  1.00  0.00     0.105 C 
ENDBRANCH  63  65
ENDBRANCH  59  60
ENDBRANCH  58  59
ENDBRANCH  55  58
ENDBRANCH  53  54
ENDBRANCH  50  53
ENDBRANCH  47  50
ENDBRANCH   5  47
BRANCH   4  74
ATOM     74  N   UNL     1      24.708  26.638  19.698  1.00  0.00    -0.348 N 
ATOM     75  C   UNL     1      26.081  27.052  19.777  1.00  0.00     0.217 C 
ATOM     76  H   UNL     1      24.272  26.688  18.750  1.00  0.00     0.163 HD
ATOM     77  C   UNL     1      26.760  27.548  18.534  1.00  0.00     0.114 C 
ATOM     78  O   UNL     1      26.709  27.008  20.842  1.00  0.00    -0.275 OA
ENDBRANCH   4  74
TORSDOF 30
