REMARK VINA RESULT:    -6.279      2.151      2.534
REMARK INTER + INTRA:         -20.670
REMARK INTER:                 -13.822
REMARK INTRA:                  -6.848
REMARK UNBOUND:                -5.215
REMARK SMILES CC(=O)N[C@@H]1[C@@H](O)C[C@](OC[C@H]2O[C@@H](O[C@H]3[C@H](O)[C@@H](O)[C@H](OCCN=[N+]=[N-])O[C@@H]3CO)[C@H](O)[C@@H](O)[C@H]2O)(C(=O)O)O[C@H]1C(O)[C@H](O)CNC(=O)OCc1cn(C2CCCC2)nn1
REMARK SMILES IDX 9 1 8 2 6 3 5 4 42 5 41 6 10 7 11 8 12 9 14 10 13 11 32 12
REMARK SMILES IDX 34 13 36 14 15 15 16 16 29 17 28 18 21 19 17 20 19 21 30 22
REMARK SMILES IDX 31 23 22 25 23 26 24 27 25 28 26 29 27 30 18 31 20 33 33 35
REMARK SMILES IDX 35 37 37 39 38 41 39 42 40 43 7 45 43 47 44 48 45 50 46 51
REMARK SMILES IDX 47 53 48 54 49 55 50 57 51 58 52 59 53 60 54 61 62 62 55 63
REMARK SMILES IDX 61 64 56 65 57 66 60 67 58 68 59 69 4 70 2 71 1 73 3 74
REMARK H PARENT 31 24 18 32 20 34 33 36 35 38 37 40 40 44 7 46 44 49 46 52
REMARK H PARENT 48 56 4 72
REMARK Flexibility Score: inf
ROOT
ATOM      1  C   UNL     1      20.272  28.212  20.788  1.00  0.00     0.272 C 
ATOM      2  C   UNL     1      20.725  29.313  21.671  1.00  0.00     0.113 C 
ATOM      3  C   UNL     1      19.704  29.790  22.644  1.00  0.00     0.145 C 
ATOM      4  C   UNL     1      18.363  30.061  21.919  1.00  0.00     0.142 C 
ATOM      5  C   UNL     1      18.567  29.767  20.475  1.00  0.00     0.178 C 
ATOM      6  O   UNL     1      18.906  28.370  20.457  1.00  0.00    -0.332 OA
ENDROOT
BRANCH   1   7
ATOM      7  O   UNL     1      20.423  26.981  21.318  1.00  0.00    -0.338 OA
BRANCH   7   8
ATOM      8  C   UNL     1      21.675  26.539  21.662  1.00  0.00     0.199 C 
BRANCH   8   9
ATOM      9  C   UNL     1      21.520  25.121  22.206  1.00  0.00     0.179 C 
ATOM     10  C   UNL     1      23.723  24.392  22.398  1.00  0.00     0.282 C 
ATOM     11  O   UNL     1      22.483  24.261  21.786  1.00  0.00    -0.341 OA
ATOM     12  C   UNL     1      23.650  24.839  23.817  1.00  0.00     0.202 C 
ATOM     13  C   UNL     1      22.346  24.548  24.490  1.00  0.00     0.179 C 
ATOM     14  C   UNL     1      21.248  25.168  23.662  1.00  0.00     0.177 C 
BRANCH  10  15
ATOM     15  O   UNL     1      24.607  25.138  21.620  1.00  0.00    -0.341 OA
BRANCH  15  16
ATOM     16  C   UNL     1      25.235  24.362  20.647  1.00  0.00     0.184 C 
ATOM     17  C   UNL     1      26.725  24.414  20.685  1.00  0.00     0.178 C 
ATOM     18  O   UNL     1      27.225  23.670  19.618  1.00  0.00    -0.341 OA
ATOM     19  C   UNL     1      27.084  24.383  18.441  1.00  0.00     0.281 C 
ATOM     20  C   UNL     1      24.806  24.949  19.309  1.00  0.00     0.180 C 
ATOM     21  C   UNL     1      25.595  24.431  18.150  1.00  0.00     0.202 C 
BRANCH  17  22
ATOM     22  C   UNL     1      27.327  23.771  21.930  1.00  0.00     0.191 C 
BRANCH  22  23
ATOM     23  O   UNL     1      26.421  22.767  22.307  1.00  0.00    -0.394 OA
ATOM     24  H   UNL     1      25.980  22.986  23.145  1.00  0.00     0.210 HD
ENDBRANCH  22  23
ENDBRANCH  17  22
BRANCH  19  25
ATOM     25  O   UNL     1      27.682  23.669  17.406  1.00  0.00    -0.350 OA
BRANCH  25  26
ATOM     26  C   UNL     1      27.273  22.326  17.459  1.00  0.00     0.169 C 
BRANCH  26  27
ATOM     27  C   UNL     1      28.326  21.425  16.838  1.00  0.00     0.119 C 
BRANCH  27  28
ATOM     28  N   UNL     1      29.209  20.898  17.837  1.00  0.00    -0.092 NA
ATOM     29  N   UNL     1      28.792  20.502  18.945  1.00  0.00     0.001 N 
ATOM     30  N   UNL     1      28.411  20.591  20.109  1.00  0.00    -0.003 NA
ENDBRANCH  27  28
ENDBRANCH  26  27
ENDBRANCH  25  26
ENDBRANCH  19  25
BRANCH  20  31
ATOM     31  O   UNL     1      23.473  24.584  19.134  1.00  0.00    -0.387 OA
ATOM     32  H   UNL     1      23.367  23.663  18.791  1.00  0.00     0.211 HD
ENDBRANCH  20  31
BRANCH  21  33
ATOM     33  O   UNL     1      25.423  25.317  17.075  1.00  0.00    -0.385 OA
ATOM     34  H   UNL     1      25.911  24.909  16.314  1.00  0.00     0.211 HD
ENDBRANCH  21  33
ENDBRANCH  15  16
ENDBRANCH  10  15
BRANCH  12  35
ATOM     35  O   UNL     1      24.641  24.205  24.604  1.00  0.00    -0.385 OA
ATOM     36  H   UNL     1      24.826  23.340  24.192  1.00  0.00     0.211 HD
ENDBRANCH  12  35
BRANCH  13  37
ATOM     37  O   UNL     1      22.333  25.133  25.743  1.00  0.00    -0.387 OA
ATOM     38  H   UNL     1      23.046  25.809  25.768  1.00  0.00     0.211 HD
ENDBRANCH  13  37
BRANCH  14  39
ATOM     39  O   UNL     1      20.999  26.443  24.154  1.00  0.00    -0.387 OA
ATOM     40  H   UNL     1      20.542  26.438  25.007  1.00  0.00     0.211 HD
ENDBRANCH  14  39
ENDBRANCH   8   9
ENDBRANCH   7   8
ENDBRANCH   1   7
BRANCH   1  41
ATOM     41  C   UNL     1      20.968  28.352  19.452  1.00  0.00     0.364 C 
ATOM     42  O   UNL     1      20.662  27.667  18.464  1.00  0.00    -0.246 OA
BRANCH  41  43
ATOM     43  O   UNL     1      21.987  29.308  19.398  1.00  0.00    -0.477 OA
ATOM     44  H   UNL     1      22.034  30.023  20.135  1.00  0.00     0.296 HD
ENDBRANCH  41  43
ENDBRANCH   1  41
BRANCH   3  45
ATOM     45  O   UNL     1      19.530  29.013  23.760  1.00  0.00    -0.391 OA
ATOM     46  H   UNL     1      20.228  29.211  24.426  1.00  0.00     0.211 HD
ENDBRANCH   3  45
BRANCH   5  47
ATOM     47  C   UNL     1      17.328  29.843  19.619  1.00  0.00     0.176 C 
BRANCH  47  48
ATOM     48  O   UNL     1      16.245  29.356  20.464  1.00  0.00    -0.388 OA
ATOM     49  H   UNL     1      16.300  29.954  21.244  1.00  0.00     0.211 HD
ENDBRANCH  47  48
BRANCH  47  50
ATOM     50  C   UNL     1      17.269  28.886  18.462  1.00  0.00     0.165 C 
BRANCH  50  51
ATOM     51  O   UNL     1      18.290  28.889  17.580  1.00  0.00    -0.388 OA
ATOM     52  H   UNL     1      18.842  29.702  17.568  1.00  0.00     0.211 HD
ENDBRANCH  50  51
BRANCH  50  53
ATOM     53  C   UNL     1      15.984  29.169  17.692  1.00  0.00     0.154 C 
BRANCH  53  54
ATOM     54  N   UNL     1      15.600  30.565  17.945  1.00  0.00    -0.319 N 
ATOM     55  C   UNL     1      14.275  31.012  17.707  1.00  0.00     0.407 C 
ATOM     56  H   UNL     1      16.295  31.268  18.306  1.00  0.00     0.167 HD
ATOM     57  O   UNL     1      13.423  30.194  17.275  1.00  0.00    -0.225 OA
BRANCH  55  58
ATOM     58  O   UNL     1      13.901  32.316  17.938  1.00  0.00    -0.443 OA
BRANCH  58  59
ATOM     59  C   UNL     1      13.129  32.696  19.061  1.00  0.00     0.294 C 
BRANCH  59  60
ATOM     60  C   UNL     1      13.479  31.945  20.288  1.00  0.00     0.120 A 
ATOM     61  C   UNL     1      12.714  31.125  21.087  1.00  0.00     0.138 A 
ATOM     62  N   UNL     1      14.700  31.947  20.865  1.00  0.00    -0.132 NA
ATOM     63  N   UNL     1      13.468  30.670  22.091  1.00  0.00    -0.249 N 
ATOM     64  N   UNL     1      14.673  31.190  21.923  1.00  0.00    -0.067 NA
BRANCH  63  65
ATOM     65  C   UNL     1      13.089  29.775  23.178  1.00  0.00     0.109 C 
ATOM     66  C   UNL     1      14.165  29.615  24.200  1.00  0.00     0.027 C 
ATOM     67  C   UNL     1      11.938  30.403  23.934  1.00  0.00     0.027 C 
ATOM     68  C   UNL     1      13.912  30.620  25.293  1.00  0.00     0.002 C 
ATOM     69  C   UNL     1      12.540  31.197  25.053  1.00  0.00     0.002 C 
ENDBRANCH  63  65
ENDBRANCH  59  60
ENDBRANCH  58  59
ENDBRANCH  55  58
ENDBRANCH  53  54
ENDBRANCH  50  53
ENDBRANCH  47  50
ENDBRANCH   5  47
BRANCH   4  70
ATOM     70  N   UNL     1      17.927  31.398  22.252  1.00  0.00    -0.348 N 
ATOM     71  C   UNL     1      17.450  31.692  23.587  1.00  0.00     0.217 C 
ATOM     72  H   UNL     1      17.951  32.196  21.584  1.00  0.00     0.163 HD
ATOM     73  C   UNL     1      16.998  33.058  23.950  1.00  0.00     0.114 C 
ATOM     74  O   UNL     1      17.408  30.792  24.468  1.00  0.00    -0.275 OA
ENDBRANCH   4  70
TORSDOF 30
