REMARK VINA RESULT:    -5.758      5.442      8.596
REMARK INTER + INTRA:         -20.862
REMARK INTER:                 -14.342
REMARK INTRA:                  -6.520
REMARK UNBOUND:                -6.520
REMARK SMILES CC(=O)N[C@@H]1[C@@H](O)C[C@](OC[C@H]2O[C@@H](O[C@H]3[C@H](O)[C@@H](O)[C@H](OCCN=[N+]=[N-])O[C@@H]3CO)[C@H](O)[C@@H](O)[C@H]2O)(C(=O)O)O[C@H]1C(O)[C@H](O)CNC(=O)OCc1cn(-c2nc(C)nc(N)n2)nn1
REMARK SMILES IDX 9 1 8 2 6 3 5 4 42 5 41 6 10 7 11 8 12 9 14 10 13 11 32 12
REMARK SMILES IDX 34 13 36 14 15 15 16 16 29 17 28 18 21 19 17 20 19 21 30 22
REMARK SMILES IDX 31 23 22 25 23 26 24 27 25 28 26 29 27 30 18 31 20 33 33 35
REMARK SMILES IDX 35 37 37 39 38 41 39 42 40 43 7 45 43 47 44 48 45 50 46 51
REMARK SMILES IDX 47 53 48 54 49 55 50 57 51 58 52 59 53 60 54 61 65 62 55 63
REMARK SMILES IDX 64 64 56 65 63 66 57 67 61 68 58 69 60 70 59 71 62 72 4 75
REMARK SMILES IDX 2 76 1 78 3 79
REMARK H PARENT 31 24 18 32 20 34 33 36 35 38 37 40 40 44 7 46 44 49 46 52
REMARK H PARENT 48 56 62 73 62 74 4 77
REMARK Flexibility Score: inf
ROOT
ATOM      1  C   UNL     1      17.155  29.556  18.552  1.00  0.00     0.272 C 
ATOM      2  C   UNL     1      16.662  30.278  17.345  1.00  0.00     0.113 C 
ATOM      3  C   UNL     1      15.582  31.256  17.692  1.00  0.00     0.145 C 
ATOM      4  C   UNL     1      14.474  30.518  18.397  1.00  0.00     0.142 C 
ATOM      5  C   UNL     1      14.976  29.569  19.460  1.00  0.00     0.178 C 
ATOM      6  O   UNL     1      16.055  28.851  19.110  1.00  0.00    -0.332 OA
ENDROOT
BRANCH   1   7
ATOM      7  O   UNL     1      17.883  30.178  19.412  1.00  0.00    -0.338 OA
BRANCH   7   8
ATOM      8  C   UNL     1      18.592  30.036  20.464  1.00  0.00     0.199 C 
BRANCH   8   9
ATOM      9  C   UNL     1      19.887  29.317  20.626  1.00  0.00     0.179 C 
ATOM     10  C   UNL     1      20.971  27.482  21.258  1.00  0.00     0.282 C 
ATOM     11  O   UNL     1      19.705  27.993  20.861  1.00  0.00    -0.341 OA
ATOM     12  C   UNL     1      21.712  27.306  19.957  1.00  0.00     0.202 C 
ATOM     13  C   UNL     1      21.960  28.661  19.343  1.00  0.00     0.179 C 
ATOM     14  C   UNL     1      20.994  29.719  19.706  1.00  0.00     0.177 C 
BRANCH  10  15
ATOM     15  O   UNL     1      20.843  26.296  21.928  1.00  0.00    -0.341 OA
BRANCH  15  16
ATOM     16  C   UNL     1      21.705  26.161  23.003  1.00  0.00     0.184 C 
ATOM     17  C   UNL     1      22.192  24.774  23.258  1.00  0.00     0.178 C 
ATOM     18  O   UNL     1      21.965  24.342  24.558  1.00  0.00    -0.341 OA
ATOM     19  C   UNL     1      22.418  25.216  25.539  1.00  0.00     0.281 C 
ATOM     20  C   UNL     1      20.892  26.631  24.225  1.00  0.00     0.180 C 
ATOM     21  C   UNL     1      21.825  26.588  25.411  1.00  0.00     0.202 C 
BRANCH  17  22
ATOM     22  C   UNL     1      23.614  24.517  22.836  1.00  0.00     0.191 C 
BRANCH  22  23
ATOM     23  O   UNL     1      24.205  25.780  22.613  1.00  0.00    -0.394 OA
ATOM     24  H   UNL     1      23.544  26.506  22.595  1.00  0.00     0.210 HD
ENDBRANCH  22  23
ENDBRANCH  17  22
BRANCH  19  25
ATOM     25  O   UNL     1      23.780  25.320  25.592  1.00  0.00    -0.350 OA
BRANCH  25  26
ATOM     26  C   UNL     1      24.308  26.282  26.400  1.00  0.00     0.169 C 
BRANCH  26  27
ATOM     27  C   UNL     1      25.301  25.754  27.399  1.00  0.00     0.119 C 
BRANCH  27  28
ATOM     28  N   UNL     1      24.660  25.756  28.721  1.00  0.00    -0.092 NA
ATOM     29  N   UNL     1      25.408  25.772  29.697  1.00  0.00     0.001 N 
ATOM     30  N   UNL     1      25.848  25.361  30.792  1.00  0.00    -0.003 NA
ENDBRANCH  27  28
ENDBRANCH  26  27
ENDBRANCH  25  26
ENDBRANCH  19  25
BRANCH  20  31
ATOM     31  O   UNL     1      20.379  27.889  23.988  1.00  0.00    -0.387 OA
ATOM     32  H   UNL     1      19.818  28.200  24.751  1.00  0.00     0.211 HD
ENDBRANCH  20  31
BRANCH  21  33
ATOM     33  O   UNL     1      21.077  26.941  26.534  1.00  0.00    -0.385 OA
ATOM     34  H   UNL     1      21.477  27.715  27.004  1.00  0.00     0.211 HD
ENDBRANCH  21  33
ENDBRANCH  15  16
ENDBRANCH  10  15
BRANCH  12  35
ATOM     35  O   UNL     1      22.903  26.599  20.104  1.00  0.00    -0.385 OA
ATOM     36  H   UNL     1      22.929  25.901  19.402  1.00  0.00     0.211 HD
ENDBRANCH  12  35
BRANCH  13  37
ATOM     37  O   UNL     1      22.090  28.464  17.965  1.00  0.00    -0.387 OA
ATOM     38  H   UNL     1      22.652  29.152  17.530  1.00  0.00     0.211 HD
ENDBRANCH  13  37
BRANCH  14  39
ATOM     39  O   UNL     1      20.595  30.411  18.568  1.00  0.00    -0.387 OA
ATOM     40  H   UNL     1      19.624  30.627  18.707  1.00  0.00     0.211 HD
ENDBRANCH  14  39
ENDBRANCH   8   9
ENDBRANCH   7   8
ENDBRANCH   1   7
BRANCH   1  41
ATOM     41  C   UNL     1      17.927  28.358  17.930  1.00  0.00     0.364 C 
ATOM     42  O   UNL     1      17.487  27.243  18.180  1.00  0.00    -0.246 OA
BRANCH  41  43
ATOM     43  O   UNL     1      19.026  28.574  17.159  1.00  0.00    -0.477 OA
ATOM     44  H   UNL     1      19.427  27.868  16.526  1.00  0.00     0.296 HD
ENDBRANCH  41  43
ENDBRANCH   1  41
BRANCH   3  45
ATOM     45  O   UNL     1      15.983  32.273  18.528  1.00  0.00    -0.391 OA
ATOM     46  H   UNL     1      16.376  31.952  19.358  1.00  0.00     0.211 HD
ENDBRANCH   3  45
BRANCH   5  47
ATOM     47  C   UNL     1      15.046  30.190  20.834  1.00  0.00     0.176 C 
BRANCH  47  48
ATOM     48  O   UNL     1      14.040  31.125  21.003  1.00  0.00    -0.388 OA
ATOM     49  H   UNL     1      13.384  31.166  20.284  1.00  0.00     0.211 HD
ENDBRANCH  47  48
BRANCH  47  50
ATOM     50  C   UNL     1      14.963  29.110  21.867  1.00  0.00     0.165 C 
BRANCH  50  51
ATOM     51  O   UNL     1      13.793  28.363  21.643  1.00  0.00    -0.388 OA
ATOM     52  H   UNL     1      13.259  28.821  20.970  1.00  0.00     0.211 HD
ENDBRANCH  50  51
BRANCH  50  53
ATOM     53  C   UNL     1      14.947  29.579  23.282  1.00  0.00     0.154 C 
BRANCH  53  54
ATOM     54  N   UNL     1      15.842  30.691  23.508  1.00  0.00    -0.319 N 
ATOM     55  C   UNL     1      17.221  30.562  23.765  1.00  0.00     0.407 C 
ATOM     56  H   UNL     1      15.469  31.686  23.487  1.00  0.00     0.167 HD
ATOM     57  O   UNL     1      17.749  29.447  23.808  1.00  0.00    -0.225 OA
BRANCH  55  58
ATOM     58  O   UNL     1      18.037  31.668  23.980  1.00  0.00    -0.443 OA
BRANCH  58  59
ATOM     59  C   UNL     1      19.314  31.598  24.562  1.00  0.00     0.294 C 
BRANCH  59  60
ATOM     60  C   UNL     1      19.246  31.224  26.007  1.00  0.00     0.121 A 
ATOM     61  C   UNL     1      20.211  30.547  26.722  1.00  0.00     0.148 A 
ATOM     62  N   UNL     1      18.241  31.475  26.868  1.00  0.00    -0.131 NA
ATOM     63  N   UNL     1      19.769  30.407  27.984  1.00  0.00    -0.185 N 
ATOM     64  N   UNL     1      18.582  30.975  28.042  1.00  0.00    -0.059 NA
BRANCH  63  65
ATOM     65  C   UNL     1      20.499  29.757  29.015  1.00  0.00     0.257 A 
ATOM     66  N   UNL     1      20.835  28.460  28.872  1.00  0.00    -0.175 NA
ATOM     67  N   UNL     1      20.893  30.359  30.151  1.00  0.00    -0.196 NA
ATOM     68  C   UNL     1      21.533  27.789  29.823  1.00  0.00     0.225 A 
ATOM     69  C   UNL     1      21.582  29.731  31.110  1.00  0.00     0.133 A 
ATOM     70  N   UNL     1      21.899  28.451  30.942  1.00  0.00    -0.198 NA
ATOM     71  C   UNL     1      22.001  30.446  32.366  1.00  0.00     0.090 C 
BRANCH  68  72
ATOM     72  N   UNL     1      21.860  26.429  29.622  1.00  0.00    -0.368 N 
ATOM     73  H   UNL     1      21.835  25.744  30.403  1.00  0.00     0.159 HD
ATOM     74  H   UNL     1      22.134  26.084  28.682  1.00  0.00     0.159 HD
ENDBRANCH  68  72
ENDBRANCH  63  65
ENDBRANCH  59  60
ENDBRANCH  58  59
ENDBRANCH  55  58
ENDBRANCH  53  54
ENDBRANCH  50  53
ENDBRANCH  47  50
ENDBRANCH   5  47
BRANCH   4  75
ATOM     75  N   UNL     1      13.698  29.796  17.411  1.00  0.00    -0.348 N 
ATOM     76  C   UNL     1      12.668  30.445  16.673  1.00  0.00     0.217 C 
ATOM     77  H   UNL     1      13.859  28.779  17.201  1.00  0.00     0.163 HD
ATOM     78  C   UNL     1      11.890  29.697  15.678  1.00  0.00     0.114 C 
ATOM     79  O   UNL     1      12.431  31.655  16.879  1.00  0.00    -0.275 OA
ENDBRANCH   4  75
TORSDOF 31
