REMARK VINA RESULT:    -6.423      0.000      0.000
REMARK INTER + INTRA:         -21.282
REMARK INTER:                 -15.344
REMARK INTRA:                  -5.938
REMARK UNBOUND:                -4.909
REMARK SMILES CC(=O)N[C@@H]1[C@@H](O)C[C@](OC[C@H]2O[C@@H](O[C@H]3[C@H](O)[C@@H](O)[C@H](OCCN=[N+]=[N-])O[C@@H]3CO)[C@H](O)[C@@H](O)[C@H]2O)(C(=O)O)O[C@H]1C(O)[C@H](O)CNC(=O)OCc1cn(CCO)nn1
REMARK SMILES IDX 9 1 8 2 6 3 5 4 42 5 41 6 10 7 11 8 12 9 14 10 13 11 32 12
REMARK SMILES IDX 34 13 36 14 15 15 16 16 29 17 28 18 21 19 17 20 19 21 30 22
REMARK SMILES IDX 31 23 22 25 23 26 24 27 25 28 26 29 27 30 18 31 20 33 33 35
REMARK SMILES IDX 35 37 37 39 38 41 39 42 40 43 7 45 43 47 44 48 45 50 46 51
REMARK SMILES IDX 47 53 48 54 49 55 50 57 51 58 52 59 53 60 54 61 60 62 55 63
REMARK SMILES IDX 59 64 56 65 57 66 58 67 4 69 2 70 1 72 3 73
REMARK H PARENT 31 24 18 32 20 34 33 36 35 38 37 40 40 44 7 46 44 49 46 52
REMARK H PARENT 48 56 58 68 4 71
REMARK Flexibility Score: inf
ROOT
ATOM      1  C   UNL     1       2.711  21.663  30.851  1.00  0.00     0.272 C 
ATOM      2  C   UNL     1       1.428  21.162  31.430  1.00  0.00     0.113 C 
ATOM      3  C   UNL     1       1.639  20.726  32.853  1.00  0.00     0.145 C 
ATOM      4  C   UNL     1       2.213  21.940  33.583  1.00  0.00     0.142 C 
ATOM      5  C   UNL     1       3.588  22.184  32.971  1.00  0.00     0.178 C 
ATOM      6  O   UNL     1       3.286  22.603  31.653  1.00  0.00    -0.332 OA
ENDROOT
BRANCH   1   7
ATOM      7  O   UNL     1       2.501  22.255  29.584  1.00  0.00    -0.338 OA
BRANCH   7   8
ATOM      8  C   UNL     1       1.261  22.099  29.058  1.00  0.00     0.199 C 
BRANCH   8   9
ATOM      9  C   UNL     1       1.020  23.087  27.906  1.00  0.00     0.179 C 
ATOM     10  C   UNL     1       1.219  25.324  27.321  1.00  0.00     0.282 C 
ATOM     11  O   UNL     1       1.239  24.376  28.343  1.00  0.00    -0.341 OA
ATOM     12  C   UNL     1       2.316  25.100  26.314  1.00  0.00     0.202 C 
ATOM     13  C   UNL     1       2.856  23.692  26.307  1.00  0.00     0.179 C 
ATOM     14  C   UNL     1       1.759  22.727  26.663  1.00  0.00     0.177 C 
BRANCH  10  15
ATOM     15  O   UNL     1       1.392  26.519  27.906  1.00  0.00    -0.341 OA
BRANCH  15  16
ATOM     16  C   UNL     1       2.584  27.137  27.901  1.00  0.00     0.184 C 
ATOM     17  C   UNL     1       3.380  27.319  29.114  1.00  0.00     0.178 C 
ATOM     18  O   UNL     1       4.056  28.526  29.081  1.00  0.00    -0.341 OA
ATOM     19  C   UNL     1       4.627  28.905  27.909  1.00  0.00     0.281 C 
ATOM     20  C   UNL     1       2.289  28.558  27.352  1.00  0.00     0.180 C 
ATOM     21  C   UNL     1       3.607  29.016  26.765  1.00  0.00     0.202 C 
BRANCH  17  22
ATOM     22  C   UNL     1       4.420  26.223  29.332  1.00  0.00     0.191 C 
BRANCH  22  23
ATOM     23  O   UNL     1       3.826  24.993  29.617  1.00  0.00    -0.394 OA
ATOM     24  H   UNL     1       3.311  25.086  30.441  1.00  0.00     0.210 HD
ENDBRANCH  22  23
ENDBRANCH  17  22
BRANCH  19  25
ATOM     25  O   UNL     1       5.750  28.234  27.516  1.00  0.00    -0.350 OA
BRANCH  25  26
ATOM     26  C   UNL     1       5.942  28.069  26.178  1.00  0.00     0.169 C 
BRANCH  26  27
ATOM     27  C   UNL     1       5.855  26.632  25.789  1.00  0.00     0.119 C 
BRANCH  27  28
ATOM     28  N   UNL     1       7.065  26.263  25.034  1.00  0.00    -0.092 NA
ATOM     29  N   UNL     1       8.131  26.672  25.529  1.00  0.00     0.001 N 
ATOM     30  N   UNL     1       9.193  26.515  26.157  1.00  0.00    -0.003 NA
ENDBRANCH  27  28
ENDBRANCH  26  27
ENDBRANCH  25  26
ENDBRANCH  19  25
BRANCH  20  31
ATOM     31  O   UNL     1       1.268  28.529  26.440  1.00  0.00    -0.387 OA
ATOM     32  H   UNL     1       1.422  27.877  25.710  1.00  0.00     0.211 HD
ENDBRANCH  20  31
BRANCH  21  33
ATOM     33  O   UNL     1       3.506  30.278  26.245  1.00  0.00    -0.385 OA
ATOM     34  H   UNL     1       4.251  30.869  26.519  1.00  0.00     0.211 HD
ENDBRANCH  21  33
ENDBRANCH  15  16
ENDBRANCH  10  15
BRANCH  12  35
ATOM     35  O   UNL     1       1.769  25.301  25.036  1.00  0.00    -0.385 OA
ATOM     36  H   UNL     1       1.487  24.472  24.601  1.00  0.00     0.211 HD
ENDBRANCH  12  35
BRANCH  13  37
ATOM     37  O   UNL     1       3.949  23.615  27.129  1.00  0.00    -0.387 OA
ATOM     38  H   UNL     1       4.790  23.929  26.670  1.00  0.00     0.211 HD
ENDBRANCH  13  37
BRANCH  14  39
ATOM     39  O   UNL     1       2.371  21.474  26.886  1.00  0.00    -0.387 OA
ATOM     40  H   UNL     1       3.316  21.486  26.594  1.00  0.00     0.211 HD
ENDBRANCH  14  39
ENDBRANCH   8   9
ENDBRANCH   7   8
ENDBRANCH   1   7
BRANCH   1  41
ATOM     41  C   UNL     1       3.587  20.506  30.565  1.00  0.00     0.364 C 
ATOM     42  O   UNL     1       3.165  19.336  30.499  1.00  0.00    -0.246 OA
BRANCH  41  43
ATOM     43  O   UNL     1       4.944  20.682  30.353  1.00  0.00    -0.477 OA
ATOM     44  H   UNL     1       5.498  20.066  29.733  1.00  0.00     0.296 HD
ENDBRANCH  41  43
ENDBRANCH   1  41
BRANCH   3  45
ATOM     45  O   UNL     1       0.401  20.446  33.475  1.00  0.00    -0.391 OA
ATOM     46  H   UNL     1       0.442  20.756  34.420  1.00  0.00     0.211 HD
ENDBRANCH   3  45
BRANCH   5  47
ATOM     47  C   UNL     1       4.198  23.388  33.613  1.00  0.00     0.176 C 
BRANCH  47  48
ATOM     48  O   UNL     1       5.251  23.044  34.462  1.00  0.00    -0.388 OA
ATOM     49  H   UNL     1       5.300  22.064  34.617  1.00  0.00     0.211 HD
ENDBRANCH  47  48
BRANCH  47  50
ATOM     50  C   UNL     1       4.577  24.536  32.762  1.00  0.00     0.165 C 
BRANCH  50  51
ATOM     51  O   UNL     1       5.734  24.013  32.036  1.00  0.00    -0.388 OA
ATOM     52  H   UNL     1       6.247  24.779  31.688  1.00  0.00     0.211 HD
ENDBRANCH  50  51
BRANCH  50  53
ATOM     53  C   UNL     1       5.214  25.691  33.514  1.00  0.00     0.154 C 
BRANCH  53  54
ATOM     54  N   UNL     1       6.631  25.582  33.651  1.00  0.00    -0.319 N 
ATOM     55  C   UNL     1       7.234  25.515  34.932  1.00  0.00     0.407 C 
ATOM     56  H   UNL     1       7.271  25.558  32.807  1.00  0.00     0.167 HD
ATOM     57  O   UNL     1       6.440  25.567  35.932  1.00  0.00    -0.225 OA
BRANCH  55  58
ATOM     58  O   UNL     1       8.574  25.398  35.190  1.00  0.00    -0.443 OA
BRANCH  58  59
ATOM     59  C   UNL     1       9.214  24.157  34.963  1.00  0.00     0.294 C 
BRANCH  59  60
ATOM     60  C   UNL     1       9.590  23.472  36.203  1.00  0.00     0.120 A 
ATOM     61  C   UNL     1       8.887  23.515  37.382  1.00  0.00     0.138 A 
ATOM     62  N   UNL     1      10.653  22.689  36.446  1.00  0.00    -0.132 NA
ATOM     63  N   UNL     1       9.526  22.770  38.305  1.00  0.00    -0.250 N 
ATOM     64  N   UNL     1      10.593  22.277  37.719  1.00  0.00    -0.067 NA
BRANCH  63  65
ATOM     65  C   UNL     1       9.086  22.566  39.693  1.00  0.00     0.174 C 
BRANCH  65  66
ATOM     66  C   UNL     1       9.542  21.198  40.135  1.00  0.00     0.179 C 
BRANCH  66  67
ATOM     67  O   UNL     1      10.744  21.365  40.843  1.00  0.00    -0.394 OA
ATOM     68  H   UNL     1      11.283  20.556  40.887  1.00  0.00     0.210 HD
ENDBRANCH  66  67
ENDBRANCH  65  66
ENDBRANCH  63  65
ENDBRANCH  59  60
ENDBRANCH  58  59
ENDBRANCH  55  58
ENDBRANCH  53  54
ENDBRANCH  50  53
ENDBRANCH  47  50
ENDBRANCH   5  47
BRANCH   4  69
ATOM     69  N   UNL     1       2.154  21.834  34.988  1.00  0.00    -0.348 N 
ATOM     70  C   UNL     1       2.784  20.836  35.766  1.00  0.00     0.217 C 
ATOM     71  H   UNL     1       1.616  22.554  35.536  1.00  0.00     0.163 HD
ATOM     72  C   UNL     1       2.631  20.846  37.235  1.00  0.00     0.114 C 
ATOM     73  O   UNL     1       3.465  19.947  35.232  1.00  0.00    -0.275 OA
ENDBRANCH   4  69
TORSDOF 32
