REMARK VINA RESULT:    -5.511     11.459     16.315
REMARK INTER + INTRA:         -21.216
REMARK INTER:                 -13.312
REMARK INTRA:                  -7.904
REMARK UNBOUND:                -7.652
REMARK SMILES CC(=O)N[C@@H]1[C@@H](O)C[C@](OC[C@H]2O[C@@H](O[C@H]3[C@H](O)[C@@H](O)[C@H](OCCN=[N+]=[N-])O[C@@H]3CO)[C@H](O)[C@@H](O)[C@H]2O)(C(=O)O)O[C@H]1C(O)[C@H](O)CNC(=O)OCc1cn(-c2ccc(Br)cc2)nn1
REMARK SMILES IDX 9 1 8 2 6 3 5 4 42 5 41 6 10 7 11 8 12 9 14 10 13 11 32 12
REMARK SMILES IDX 34 13 36 14 15 15 16 16 29 17 28 18 21 19 17 20 19 21 30 22
REMARK SMILES IDX 31 23 22 25 23 26 24 27 25 28 26 29 27 30 18 31 20 33 33 35
REMARK SMILES IDX 35 37 37 39 38 41 39 42 40 43 7 45 43 47 44 48 45 50 46 51
REMARK SMILES IDX 47 53 48 54 49 55 50 57 51 58 52 59 53 60 54 61 64 62 55 63
REMARK SMILES IDX 63 64 56 65 57 66 62 67 58 68 61 69 59 70 60 71 4 72 2 73
REMARK SMILES IDX 1 75 3 76
REMARK H PARENT 31 24 18 32 20 34 33 36 35 38 37 40 40 44 7 46 44 49 46 52
REMARK H PARENT 48 56 4 74
REMARK Flexibility Score: inf
ROOT
ATOM      1  C   UNL     1      19.514  31.355  23.021  1.00  0.00     0.272 C 
ATOM      2  C   UNL     1      19.890  32.772  23.533  1.00  0.00     0.113 C 
ATOM      3  C   UNL     1      21.369  32.846  23.622  1.00  0.00     0.145 C 
ATOM      4  C   UNL     1      21.917  32.542  22.213  1.00  0.00     0.142 C 
ATOM      5  C   UNL     1      21.590  31.084  21.985  1.00  0.00     0.178 C 
ATOM      6  O   UNL     1      20.217  31.018  21.901  1.00  0.00    -0.332 OA
ENDROOT
BRANCH   1   7
ATOM      7  O   UNL     1      18.169  31.513  22.670  1.00  0.00    -0.338 OA
BRANCH   7   8
ATOM      8  C   UNL     1      17.374  32.095  23.610  1.00  0.00     0.199 C 
BRANCH   8   9
ATOM      9  C   UNL     1      15.918  31.769  23.219  1.00  0.00     0.179 C 
ATOM     10  C   UNL     1      14.823  30.650  21.500  1.00  0.00     0.282 C 
ATOM     11  O   UNL     1      15.805  31.531  21.879  1.00  0.00    -0.341 OA
ATOM     12  C   UNL     1      13.713  30.515  22.462  1.00  0.00     0.202 C 
ATOM     13  C   UNL     1      14.101  30.287  23.889  1.00  0.00     0.179 C 
ATOM     14  C   UNL     1      15.561  30.553  24.059  1.00  0.00     0.177 C 
BRANCH  10  15
ATOM     15  O   UNL     1      15.470  29.473  21.124  1.00  0.00    -0.341 OA
BRANCH  15  16
ATOM     16  C   UNL     1      16.225  29.639  19.977  1.00  0.00     0.184 C 
ATOM     17  C   UNL     1      15.516  29.134  18.761  1.00  0.00     0.178 C 
ATOM     18  O   UNL     1      16.223  29.459  17.639  1.00  0.00    -0.341 OA
ATOM     19  C   UNL     1      17.534  29.800  17.765  1.00  0.00     0.281 C 
ATOM     20  C   UNL     1      17.513  28.802  20.058  1.00  0.00     0.180 C 
ATOM     21  C   UNL     1      18.320  29.022  18.796  1.00  0.00     0.202 C 
BRANCH  17  22
ATOM     22  C   UNL     1      14.152  29.791  18.664  1.00  0.00     0.191 C 
BRANCH  22  23
ATOM     23  O   UNL     1      13.570  29.529  17.446  1.00  0.00    -0.394 OA
ATOM     24  H   UNL     1      13.626  30.298  16.852  1.00  0.00     0.210 HD
ENDBRANCH  22  23
ENDBRANCH  17  22
BRANCH  19  25
ATOM     25  O   UNL     1      17.737  31.171  17.884  1.00  0.00    -0.350 OA
BRANCH  25  26
ATOM     26  C   UNL     1      19.060  31.539  18.027  1.00  0.00     0.169 C 
BRANCH  26  27
ATOM     27  C   UNL     1      19.827  31.604  16.748  1.00  0.00     0.119 C 
BRANCH  27  28
ATOM     28  N   UNL     1      20.894  30.617  16.763  1.00  0.00    -0.092 NA
ATOM     29  N   UNL     1      20.771  29.645  16.014  1.00  0.00     0.001 N 
ATOM     30  N   UNL     1      20.791  28.695  15.203  1.00  0.00    -0.003 NA
ENDBRANCH  27  28
ENDBRANCH  26  27
ENDBRANCH  25  26
ENDBRANCH  19  25
BRANCH  20  31
ATOM     31  O   UNL     1      18.204  29.095  21.219  1.00  0.00    -0.387 OA
ATOM     32  H   UNL     1      19.180  28.938  21.113  1.00  0.00     0.211 HD
ENDBRANCH  20  31
BRANCH  21  33
ATOM     33  O   UNL     1      18.820  27.862  18.246  1.00  0.00    -0.385 OA
ATOM     34  H   UNL     1      18.245  27.112  18.526  1.00  0.00     0.211 HD
ENDBRANCH  21  33
ENDBRANCH  15  16
ENDBRANCH  10  15
BRANCH  12  35
ATOM     35  O   UNL     1      12.921  31.689  22.337  1.00  0.00    -0.385 OA
ATOM     36  H   UNL     1      12.088  31.470  21.828  1.00  0.00     0.211 HD
ENDBRANCH  12  35
BRANCH  13  37
ATOM     37  O   UNL     1      13.839  28.949  24.267  1.00  0.00    -0.387 OA
ATOM     38  H   UNL     1      14.399  28.790  25.068  1.00  0.00     0.211 HD
ENDBRANCH  13  37
BRANCH  14  39
ATOM     39  O   UNL     1      16.345  29.450  23.731  1.00  0.00    -0.387 OA
ATOM     40  H   UNL     1      17.086  29.710  23.129  1.00  0.00     0.211 HD
ENDBRANCH  14  39
ENDBRANCH   8   9
ENDBRANCH   7   8
ENDBRANCH   1   7
BRANCH   1  41
ATOM     41  C   UNL     1      19.605  30.461  24.174  1.00  0.00     0.364 C 
ATOM     42  O   UNL     1      19.903  30.845  25.330  1.00  0.00    -0.246 OA
BRANCH  41  43
ATOM     43  O   UNL     1      19.355  29.109  24.031  1.00  0.00    -0.477 OA
ATOM     44  H   UNL     1      18.918  28.533  24.748  1.00  0.00     0.296 HD
ENDBRANCH  41  43
ENDBRANCH   1  41
BRANCH   3  45
ATOM     45  O   UNL     1      21.811  34.129  23.913  1.00  0.00    -0.391 OA
ATOM     46  H   UNL     1      21.462  34.754  23.243  1.00  0.00     0.211 HD
ENDBRANCH   3  45
BRANCH   5  47
ATOM     47  C   UNL     1      22.144  30.501  20.730  1.00  0.00     0.176 C 
BRANCH  47  48
ATOM     48  O   UNL     1      21.969  31.512  19.742  1.00  0.00    -0.388 OA
ATOM     49  H   UNL     1      22.083  32.393  20.178  1.00  0.00     0.211 HD
ENDBRANCH  47  48
BRANCH  47  50
ATOM     50  C   UNL     1      21.353  29.326  20.175  1.00  0.00     0.165 C 
BRANCH  50  51
ATOM     51  O   UNL     1      21.090  28.538  21.330  1.00  0.00    -0.388 OA
ATOM     52  H   UNL     1      21.891  27.953  21.515  1.00  0.00     0.211 HD
ENDBRANCH  50  51
BRANCH  50  53
ATOM     53  C   UNL     1      22.176  28.480  19.267  1.00  0.00     0.154 C 
BRANCH  53  54
ATOM     54  N   UNL     1      21.821  27.100  19.351  1.00  0.00    -0.319 N 
ATOM     55  C   UNL     1      22.752  26.017  19.442  1.00  0.00     0.407 C 
ATOM     56  H   UNL     1      20.793  26.805  19.350  1.00  0.00     0.167 HD
ATOM     57  O   UNL     1      23.978  26.277  19.441  1.00  0.00    -0.225 OA
BRANCH  55  58
ATOM     58  O   UNL     1      22.342  24.707  19.531  1.00  0.00    -0.443 OA
BRANCH  58  59
ATOM     59  C   UNL     1      22.586  23.969  20.700  1.00  0.00     0.294 C 
BRANCH  59  60
ATOM     60  C   UNL     1      21.998  24.690  21.851  1.00  0.00     0.121 A 
ATOM     61  C   UNL     1      22.493  24.624  23.159  1.00  0.00     0.144 A 
ATOM     62  N   UNL     1      20.937  25.507  21.925  1.00  0.00    -0.131 NA
ATOM     63  N   UNL     1      21.721  25.391  23.949  1.00  0.00    -0.220 N 
ATOM     64  N   UNL     1      20.791  25.910  23.173  1.00  0.00    -0.062 NA
BRANCH  63  65
ATOM     65  C   UNL     1      21.939  25.549  25.345  1.00  0.00     0.066 A 
ATOM     66  C   UNL     1      22.573  24.650  26.142  1.00  0.00     0.029 A 
ATOM     67  C   UNL     1      21.464  26.728  25.909  1.00  0.00     0.029 A 
ATOM     68  C   UNL     1      22.729  24.930  27.484  1.00  0.00     0.018 A 
ATOM     69  C   UNL     1      21.626  26.993  27.250  1.00  0.00     0.018 A 
ATOM     70  C   UNL     1      22.269  26.086  28.066  1.00  0.00     0.018 A 
ATOM     71  Br  UNL     1      22.508  26.436  29.926  1.00  0.00    -0.051 Br
ENDBRANCH  63  65
ENDBRANCH  59  60
ENDBRANCH  58  59
ENDBRANCH  55  58
ENDBRANCH  53  54
ENDBRANCH  50  53
ENDBRANCH  47  50
ENDBRANCH   5  47
BRANCH   4  72
ATOM     72  N   UNL     1      23.313  32.855  22.247  1.00  0.00    -0.348 N 
ATOM     73  C   UNL     1      23.929  33.689  21.275  1.00  0.00     0.217 C 
ATOM     74  H   UNL     1      23.904  32.464  23.002  1.00  0.00     0.163 HD
ATOM     75  C   UNL     1      25.372  34.029  21.284  1.00  0.00     0.114 C 
ATOM     76  O   UNL     1      23.224  34.183  20.336  1.00  0.00    -0.275 OA
ENDBRANCH   4  72
TORSDOF 30
