REMARK VINA RESULT:    -5.966     14.843     22.631
REMARK INTER + INTRA:         -22.961
REMARK INTER:                 -15.559
REMARK INTRA:                  -7.402
REMARK UNBOUND:                -7.402
REMARK SMILES CC(=O)N[C@@H]1[C@@H](O)C[C@](OC[C@H]2O[C@@H](O[C@H]3[C@H](O)[C@@H](O)[C@H](OCCN=[N+]=[N-])O[C@@H]3CO)[C@H](O)[C@@H](O)[C@H]2O)(C(=O)O)O[C@H]1C(O)[C@H](O)CNC(=O)OCc1cn(-c2ccc(S(=O)(=O)c3ccc(N)cc3)cc2)nn1
REMARK SMILES IDX 43 1 42 2 9 3 8 4 41 5 6 6 5 7 10 8 11 9 12 10 14 11 13 12
REMARK SMILES IDX 32 13 34 14 36 15 15 16 16 17 29 18 28 19 21 20 17 21 19 22
REMARK SMILES IDX 30 23 31 24 22 26 23 27 24 28 25 29 26 30 27 31 18 32 20 34
REMARK SMILES IDX 33 36 35 38 37 40 38 42 39 43 40 44 7 46 4 48 2 49 1 51 3 52
REMARK SMILES IDX 44 53 45 55 46 56 47 58 48 59 49 60 50 62 51 63 52 64 53 65
REMARK SMILES IDX 54 66 73 67 55 68 72 69 56 70 57 71 71 72 58 73 70 74 59 75
REMARK SMILES IDX 60 76 61 77 62 78 63 79 64 80 69 81 65 82 68 83 66 84 67 85
REMARK H PARENT 31 25 18 33 20 35 33 37 35 39 37 41 40 45 7 47 4 50 44 54
REMARK H PARENT 46 57 48 61 67 86 67 87
REMARK Flexibility Score: inf
ROOT
ATOM      1  C   UNL     1       3.512  22.625  33.118  1.00  0.00     0.176 C 
ENDROOT
BRANCH   1   2
ATOM      2  C   UNL     1       4.765  23.487  33.269  1.00  0.00     0.178 C 
ATOM      3  C   UNL     1       6.461  24.076  34.727  1.00  0.00     0.272 C 
ATOM      4  C   UNL     1       6.301  25.515  34.358  1.00  0.00     0.113 C 
ATOM      5  O   UNL     1       5.257  23.376  34.534  1.00  0.00    -0.332 OA
ATOM      6  C   UNL     1       4.832  25.781  34.074  1.00  0.00     0.145 C 
ATOM      7  C   UNL     1       4.414  24.941  32.915  1.00  0.00     0.142 C 
BRANCH   3   8
ATOM      8  O   UNL     1       6.777  23.843  36.069  1.00  0.00    -0.338 OA
BRANCH   8   9
ATOM      9  C   UNL     1       7.332  24.884  36.750  1.00  0.00     0.199 C 
BRANCH   9  10
ATOM     10  C   UNL     1       7.345  24.567  38.229  1.00  0.00     0.179 C 
ATOM     11  C   UNL     1       6.185  23.535  39.904  1.00  0.00     0.282 C 
ATOM     12  O   UNL     1       6.271  23.710  38.497  1.00  0.00    -0.341 OA
ATOM     13  C   UNL     1       7.351  22.660  40.266  1.00  0.00     0.202 C 
ATOM     14  C   UNL     1       8.631  23.431  40.038  1.00  0.00     0.179 C 
ATOM     15  C   UNL     1       8.650  23.959  38.613  1.00  0.00     0.177 C 
BRANCH  11  16
ATOM     16  O   UNL     1       4.948  23.018  40.184  1.00  0.00    -0.341 OA
BRANCH  16  17
ATOM     17  C   UNL     1       4.460  22.261  39.093  1.00  0.00     0.184 C 
ATOM     18  C   UNL     1       3.043  22.674  38.847  1.00  0.00     0.178 C 
ATOM     19  O   UNL     1       2.130  21.654  38.813  1.00  0.00    -0.341 OA
ATOM     20  C   UNL     1       2.142  20.761  39.844  1.00  0.00     0.281 C 
ATOM     21  C   UNL     1       4.553  20.816  39.563  1.00  0.00     0.180 C 
ATOM     22  C   UNL     1       3.451  20.660  40.592  1.00  0.00     0.202 C 
BRANCH  18  23
ATOM     23  C   UNL     1       3.029  23.292  37.435  1.00  0.00     0.191 C 
BRANCH  23  24
ATOM     24  O   UNL     1       3.626  22.487  36.497  1.00  0.00    -0.394 OA
ATOM     25  H   UNL     1       2.998  22.016  35.895  1.00  0.00     0.210 HD
ENDBRANCH  23  24
ENDBRANCH  18  23
BRANCH  20  26
ATOM     26  O   UNL     1       1.890  19.501  39.313  1.00  0.00    -0.350 OA
BRANCH  26  27
ATOM     27  C   UNL     1       0.698  19.369  38.654  1.00  0.00     0.169 C 
BRANCH  27  28
ATOM     28  C   UNL     1       0.867  18.617  37.377  1.00  0.00     0.119 C 
BRANCH  28  29
ATOM     29  N   UNL     1       2.232  18.070  37.306  1.00  0.00    -0.092 NA
ATOM     30  N   UNL     1       2.961  18.305  36.344  1.00  0.00     0.001 N 
ATOM     31  N   UNL     1       3.827  18.867  35.650  1.00  0.00    -0.003 NA
ENDBRANCH  28  29
ENDBRANCH  27  28
ENDBRANCH  26  27
ENDBRANCH  20  26
BRANCH  21  32
ATOM     32  O   UNL     1       4.314  19.957  38.516  1.00  0.00    -0.387 OA
ATOM     33  H   UNL     1       5.058  19.994  37.856  1.00  0.00     0.211 HD
ENDBRANCH  21  32
BRANCH  22  34
ATOM     34  O   UNL     1       3.562  21.556  41.630  1.00  0.00    -0.385 OA
ATOM     35  H   UNL     1       4.072  22.372  41.385  1.00  0.00     0.211 HD
ENDBRANCH  22  34
ENDBRANCH  16  17
ENDBRANCH  11  16
BRANCH  13  36
ATOM     36  O   UNL     1       7.271  22.173  41.569  1.00  0.00    -0.385 OA
ATOM     37  H   UNL     1       6.314  22.309  41.862  1.00  0.00     0.211 HD
ENDBRANCH  13  36
BRANCH  14  38
ATOM     38  O   UNL     1       9.707  22.535  40.120  1.00  0.00    -0.387 OA
ATOM     39  H   UNL     1      10.409  22.792  39.496  1.00  0.00     0.211 HD
ENDBRANCH  14  38
BRANCH  15  40
ATOM     40  O   UNL     1       9.046  22.970  37.724  1.00  0.00    -0.387 OA
ATOM     41  H   UNL     1       9.942  22.637  37.961  1.00  0.00     0.211 HD
ENDBRANCH  15  40
ENDBRANCH   9  10
ENDBRANCH   8   9
ENDBRANCH   3   8
BRANCH   3  42
ATOM     42  C   UNL     1       7.501  23.371  33.931  1.00  0.00     0.364 C 
ATOM     43  O   UNL     1       7.444  22.176  33.556  1.00  0.00    -0.246 OA
BRANCH  42  44
ATOM     44  O   UNL     1       8.641  24.063  33.558  1.00  0.00    -0.477 OA
ATOM     45  H   UNL     1       9.565  23.605  33.522  1.00  0.00     0.296 HD
ENDBRANCH  42  44
ENDBRANCH   3  42
BRANCH   6  46
ATOM     46  O   UNL     1       4.136  25.325  35.199  1.00  0.00    -0.391 OA
ATOM     47  H   UNL     1       4.538  24.493  35.570  1.00  0.00     0.211 HD
ENDBRANCH   6  46
BRANCH   7  48
ATOM     48  N   UNL     1       4.995  25.291  31.658  1.00  0.00    -0.348 N 
ATOM     49  C   UNL     1       4.416  26.205  30.731  1.00  0.00     0.217 C 
ATOM     50  H   UNL     1       5.911  24.859  31.384  1.00  0.00     0.163 HD
ATOM     51  C   UNL     1       5.118  26.488  29.455  1.00  0.00     0.114 C 
ATOM     52  O   UNL     1       3.337  26.732  31.033  1.00  0.00    -0.275 OA
ENDBRANCH   7  48
ENDBRANCH   1   2
BRANCH   1  53
ATOM     53  O   UNL     1       2.560  23.264  32.340  1.00  0.00    -0.388 OA
ATOM     54  H   UNL     1       2.422  24.204  32.664  1.00  0.00     0.211 HD
ENDBRANCH   1  53
BRANCH   1  55
ATOM     55  C   UNL     1       3.817  21.240  32.695  1.00  0.00     0.165 C 
BRANCH  55  56
ATOM     56  O   UNL     1       4.730  20.638  33.565  1.00  0.00    -0.388 OA
ATOM     57  H   UNL     1       4.734  19.668  33.529  1.00  0.00     0.211 HD
ENDBRANCH  55  56
BRANCH  55  58
ATOM     58  C   UNL     1       4.471  21.213  31.331  1.00  0.00     0.154 C 
BRANCH  58  59
ATOM     59  N   UNL     1       3.577  21.542  30.257  1.00  0.00    -0.319 N 
ATOM     60  C   UNL     1       2.747  20.524  29.724  1.00  0.00     0.407 C 
ATOM     61  H   UNL     1       3.525  22.496  29.867  1.00  0.00     0.167 HD
ATOM     62  O   UNL     1       2.817  19.364  30.223  1.00  0.00    -0.225 OA
BRANCH  60  63
ATOM     63  O   UNL     1       1.858  20.703  28.689  1.00  0.00    -0.443 OA
BRANCH  63  64
ATOM     64  C   UNL     1       0.885  21.724  28.641  1.00  0.00     0.294 C 
BRANCH  64  65
ATOM     65  C   UNL     1       1.307  22.731  27.637  1.00  0.00     0.121 A 
ATOM     66  C   UNL     1       2.372  23.608  27.644  1.00  0.00     0.144 A 
ATOM     67  N   UNL     1       0.679  22.964  26.440  1.00  0.00    -0.131 NA
ATOM     68  N   UNL     1       2.362  24.330  26.481  1.00  0.00    -0.220 N 
ATOM     69  N   UNL     1       1.329  23.907  25.795  1.00  0.00    -0.062 NA
BRANCH  68  70
ATOM     70  C   UNL     1       3.275  25.323  26.066  1.00  0.00     0.066 A 
ATOM     71  C   UNL     1       2.819  26.574  25.640  1.00  0.00     0.030 A 
ATOM     72  C   UNL     1       4.634  25.135  26.050  1.00  0.00     0.030 A 
ATOM     73  C   UNL     1       3.665  27.572  25.227  1.00  0.00     0.023 A 
ATOM     74  C   UNL     1       5.501  26.147  25.631  1.00  0.00     0.023 A 
ATOM     75  C   UNL     1       5.027  27.371  25.216  1.00  0.00     0.072 A 
BRANCH  75  76
ATOM     76  S   UNL     1       6.116  28.639  24.695  1.00  0.00     0.206 S 
ATOM     77  O   UNL     1       5.515  29.311  23.471  1.00  0.00    -0.219 OA
ATOM     78  O   UNL     1       7.500  28.150  24.427  1.00  0.00    -0.219 OA
BRANCH  76  79
ATOM     79  C   UNL     1       6.163  29.890  25.938  1.00  0.00     0.072 A 
ATOM     80  C   UNL     1       6.590  31.153  25.633  1.00  0.00     0.023 A 
ATOM     81  C   UNL     1       5.773  29.612  27.228  1.00  0.00     0.023 A 
ATOM     82  C   UNL     1       6.624  32.112  26.604  1.00  0.00     0.027 A 
ATOM     83  C   UNL     1       5.812  30.586  28.193  1.00  0.00     0.027 A 
ATOM     84  C   UNL     1       6.235  31.856  27.918  1.00  0.00     0.031 A 
BRANCH  84  85
ATOM     85  N   UNL     1       6.287  32.876  28.891  1.00  0.00    -0.399 N 
ATOM     86  H   UNL     1       6.429  32.659  29.887  1.00  0.00     0.156 HD
ATOM     87  H   UNL     1       6.183  33.865  28.601  1.00  0.00     0.156 HD
ENDBRANCH  84  85
ENDBRANCH  76  79
ENDBRANCH  75  76
ENDBRANCH  68  70
ENDBRANCH  64  65
ENDBRANCH  63  64
ENDBRANCH  60  63
ENDBRANCH  58  59
ENDBRANCH  55  58
ENDBRANCH   1  55
TORSDOF 33
