REMARK VINA RESULT:    -5.911      0.000      0.000
REMARK INTER + INTRA:         -24.349
REMARK INTER:                 -14.820
REMARK INTRA:                  -9.528
REMARK UNBOUND:                -8.417
REMARK SMILES CC(=O)N[C@@H]1[C@@H](O)C[C@](OC[C@H]2O[C@@H](O[C@H]3[C@H](O)[C@@H](O)[C@H](OCCN=[N+]=[N-])O[C@@H]3CO)[C@H](O)[C@@H](O)[C@H]2O)(C(=O)O)O[C@H]1C(O)[C@H](O)CNC(=O)OCc1cn(CCNC(=O)NCc2ccco2)nn1
REMARK SMILES IDX 43 1 42 2 9 3 8 4 41 5 6 6 5 7 10 8 11 9 12 10 14 11 13 12
REMARK SMILES IDX 32 13 34 14 36 15 15 16 16 17 29 18 28 19 21 20 17 21 19 22
REMARK SMILES IDX 30 23 31 24 22 26 23 27 24 28 25 29 26 30 27 31 18 32 20 34
REMARK SMILES IDX 33 36 35 38 37 40 38 42 39 43 40 44 7 46 4 48 2 49 1 51 3 52
REMARK SMILES IDX 44 53 45 55 46 56 47 58 48 59 49 60 50 62 51 63 52 64 53 65
REMARK SMILES IDX 54 66 69 67 55 68 68 69 56 70 57 71 58 72 59 73 60 75 61 76
REMARK SMILES IDX 62 78 63 79 64 80 67 81 65 82 66 83
REMARK H PARENT 31 25 18 33 20 35 33 37 35 39 37 41 40 45 7 47 4 50 44 54
REMARK H PARENT 46 57 48 61 58 74 61 77
REMARK Flexibility Score: inf
ROOT
ATOM      1  C   UNL     1      16.850  30.376  20.550  1.00  0.00     0.176 C 
ENDROOT
BRANCH   1   2
ATOM      2  C   UNL     1      15.780  31.118  21.285  1.00  0.00     0.178 C 
ATOM      3  C   UNL     1      16.221  30.885  23.610  1.00  0.00     0.272 C 
ATOM      4  C   UNL     1      15.552  29.493  23.370  1.00  0.00     0.113 C 
ATOM      5  O   UNL     1      16.179  31.625  22.484  1.00  0.00    -0.332 OA
ATOM      6  C   UNL     1      14.339  29.580  22.532  1.00  0.00     0.145 C 
ATOM      7  C   UNL     1      14.443  30.472  21.319  1.00  0.00     0.142 C 
BRANCH   3   8
ATOM      8  O   UNL     1      17.536  30.563  23.871  1.00  0.00    -0.338 OA
BRANCH   8   9
ATOM      9  C   UNL     1      18.496  31.482  23.810  1.00  0.00     0.199 C 
BRANCH   9  10
ATOM     10  C   UNL     1      19.927  31.269  23.900  1.00  0.00     0.179 C 
ATOM     11  C   UNL     1      21.792  30.791  25.146  1.00  0.00     0.282 C 
ATOM     12  O   UNL     1      20.401  30.711  25.074  1.00  0.00    -0.341 OA
ATOM     13  C   UNL     1      22.484  30.950  23.843  1.00  0.00     0.202 C 
ATOM     14  C   UNL     1      21.810  30.318  22.660  1.00  0.00     0.179 C 
ATOM     15  C   UNL     1      20.319  30.255  22.807  1.00  0.00     0.177 C 
BRANCH  11  16
ATOM     16  O   UNL     1      22.343  29.722  25.834  1.00  0.00    -0.341 OA
BRANCH  16  17
ATOM     17  C   UNL     1      21.369  28.921  26.464  1.00  0.00     0.184 C 
ATOM     18  C   UNL     1      21.629  28.981  27.941  1.00  0.00     0.178 C 
ATOM     19  O   UNL     1      21.319  27.783  28.581  1.00  0.00    -0.341 OA
ATOM     20  C   UNL     1      22.233  26.842  28.122  1.00  0.00     0.281 C 
ATOM     21  C   UNL     1      21.437  27.562  25.853  1.00  0.00     0.180 C 
ATOM     22  C   UNL     1      21.883  26.450  26.726  1.00  0.00     0.202 C 
BRANCH  18  23
ATOM     23  C   UNL     1      20.701  30.035  28.543  1.00  0.00     0.191 C 
BRANCH  23  24
ATOM     24  O   UNL     1      19.637  30.213  27.632  1.00  0.00    -0.394 OA
ATOM     25  H   UNL     1      20.086  30.304  26.741  1.00  0.00     0.210 HD
ENDBRANCH  23  24
ENDBRANCH  18  23
BRANCH  20  26
ATOM     26  O   UNL     1      22.069  25.714  28.931  1.00  0.00    -0.350 OA
BRANCH  26  27
ATOM     27  C   UNL     1      22.795  25.824  30.116  1.00  0.00     0.169 C 
BRANCH  27  28
ATOM     28  C   UNL     1      24.273  25.738  29.728  1.00  0.00     0.119 C 
BRANCH  28  29
ATOM     29  N   UNL     1      24.981  25.266  30.905  1.00  0.00    -0.092 NA
ATOM     30  N   UNL     1      26.212  25.116  30.890  1.00  0.00     0.001 N 
ATOM     31  N   UNL     1      27.443  25.271  30.947  1.00  0.00    -0.003 NA
ENDBRANCH  28  29
ENDBRANCH  27  28
ENDBRANCH  26  27
ENDBRANCH  20  26
BRANCH  21  32
ATOM     32  O   UNL     1      20.162  27.279  25.325  1.00  0.00    -0.387 OA
ATOM     33  H   UNL     1      20.084  27.537  24.389  1.00  0.00     0.211 HD
ENDBRANCH  21  32
BRANCH  22  34
ATOM     34  O   UNL     1      23.063  25.898  26.168  1.00  0.00    -0.385 OA
ATOM     35  H   UNL     1      23.421  26.613  25.559  1.00  0.00     0.211 HD
ENDBRANCH  22  34
ENDBRANCH  16  17
ENDBRANCH  11  16
BRANCH  13  36
ATOM     36  O   UNL     1      22.867  32.273  23.586  1.00  0.00    -0.385 OA
ATOM     37  H   UNL     1      22.673  32.867  24.346  1.00  0.00     0.211 HD
ENDBRANCH  13  36
BRANCH  14  38
ATOM     38  O   UNL     1      22.333  29.050  22.377  1.00  0.00    -0.387 OA
ATOM     39  H   UNL     1      22.529  29.061  21.399  1.00  0.00     0.211 HD
ENDBRANCH  14  38
BRANCH  15  40
ATOM     40  O   UNL     1      19.837  29.001  23.095  1.00  0.00    -0.387 OA
ATOM     41  H   UNL     1      19.337  29.050  23.931  1.00  0.00     0.211 HD
ENDBRANCH  15  40
ENDBRANCH   9  10
ENDBRANCH   8   9
ENDBRANCH   3   8
BRANCH   3  42
ATOM     42  C   UNL     1      15.538  31.387  24.799  1.00  0.00     0.364 C 
ATOM     43  O   UNL     1      14.923  32.463  24.788  1.00  0.00    -0.246 OA
BRANCH  42  44
ATOM     44  O   UNL     1      15.523  30.708  26.022  1.00  0.00    -0.477 OA
ATOM     45  H   UNL     1      14.627  30.414  26.413  1.00  0.00     0.296 HD
ENDBRANCH  42  44
ENDBRANCH   3  42
BRANCH   6  46
ATOM     46  O   UNL     1      14.026  28.276  22.105  1.00  0.00    -0.391 OA
ATOM     47  H   UNL     1      13.867  28.287  21.127  1.00  0.00     0.211 HD
ENDBRANCH   6  46
BRANCH   7  48
ATOM     48  N   UNL     1      13.367  31.462  21.376  1.00  0.00    -0.348 N 
ATOM     49  C   UNL     1      12.652  31.827  20.227  1.00  0.00     0.217 C 
ATOM     50  H   UNL     1      13.146  31.889  22.300  1.00  0.00     0.163 HD
ATOM     51  C   UNL     1      11.548  32.833  20.234  1.00  0.00     0.114 C 
ATOM     52  O   UNL     1      12.976  31.265  19.133  1.00  0.00    -0.275 OA
ENDBRANCH   7  48
ENDBRANCH   1   2
BRANCH   1  53
ATOM     53  O   UNL     1      17.337  31.237  19.502  1.00  0.00    -0.388 OA
ATOM     54  H   UNL     1      18.142  30.810  19.174  1.00  0.00     0.211 HD
ENDBRANCH   1  53
BRANCH   1  55
ATOM     55  C   UNL     1      16.415  29.156  19.791  1.00  0.00     0.165 C 
BRANCH  55  56
ATOM     56  O   UNL     1      16.664  27.938  20.378  1.00  0.00    -0.388 OA
ATOM     57  H   UNL     1      16.816  27.992  21.355  1.00  0.00     0.211 HD
ENDBRANCH  55  56
BRANCH  55  58
ATOM     58  C   UNL     1      16.944  29.179  18.354  1.00  0.00     0.154 C 
BRANCH  58  59
ATOM     59  N   UNL     1      18.088  28.311  18.211  1.00  0.00    -0.319 N 
ATOM     60  C   UNL     1      19.411  28.789  18.068  1.00  0.00     0.407 C 
ATOM     61  H   UNL     1      17.931  27.285  18.215  1.00  0.00     0.167 HD
ATOM     62  O   UNL     1      19.621  30.030  18.065  1.00  0.00    -0.225 OA
BRANCH  60  63
ATOM     63  O   UNL     1      20.495  27.928  17.930  1.00  0.00    -0.443 OA
BRANCH  63  64
ATOM     64  C   UNL     1      21.651  28.147  18.733  1.00  0.00     0.294 C 
BRANCH  64  65
ATOM     65  C   UNL     1      21.506  27.212  19.891  1.00  0.00     0.120 A 
ATOM     66  C   UNL     1      22.253  26.083  20.093  1.00  0.00     0.138 A 
ATOM     67  N   UNL     1      20.632  27.322  20.921  1.00  0.00    -0.132 NA
ATOM     68  N   UNL     1      21.816  25.545  21.222  1.00  0.00    -0.250 N 
ATOM     69  N   UNL     1      20.835  26.299  21.718  1.00  0.00    -0.067 NA
BRANCH  68  70
ATOM     70  C   UNL     1      22.332  24.310  21.811  1.00  0.00     0.167 C 
BRANCH  70  71
ATOM     71  C   UNL     1      23.740  24.615  22.324  1.00  0.00     0.141 C 
BRANCH  71  72
ATOM     72  N   UNL     1      23.637  25.764  23.175  1.00  0.00    -0.336 N 
ATOM     73  C   UNL     1      24.686  26.680  23.391  1.00  0.00     0.315 C 
ATOM     74  H   UNL     1      22.710  25.908  23.658  1.00  0.00     0.165 HD
ATOM     75  O   UNL     1      25.803  26.527  22.850  1.00  0.00    -0.249 OA
ATOM     76  N   UNL     1      24.451  27.809  24.247  1.00  0.00    -0.331 N 
ATOM     77  H   UNL     1      23.496  27.898  24.680  1.00  0.00     0.165 HD
BRANCH  76  78
ATOM     78  C   UNL     1      25.494  28.766  24.489  1.00  0.00     0.193 C 
BRANCH  78  79
ATOM     79  C   UNL     1      26.070  28.571  25.847  1.00  0.00     0.122 A 
ATOM     80  C   UNL     1      26.337  27.331  26.414  1.00  0.00     0.047 A 
ATOM     81  O   UNL     1      26.405  29.489  26.689  1.00  0.00    -0.467 OA
ATOM     82  C   UNL     1      26.854  27.588  27.651  1.00  0.00     0.042 A 
ATOM     83  C   UNL     1      26.882  28.949  27.789  1.00  0.00     0.195 A 
ENDBRANCH  78  79
ENDBRANCH  76  78
ENDBRANCH  71  72
ENDBRANCH  70  71
ENDBRANCH  68  70
ENDBRANCH  64  65
ENDBRANCH  63  64
ENDBRANCH  60  63
ENDBRANCH  58  59
ENDBRANCH  55  58
ENDBRANCH   1  55
TORSDOF 34
