REMARK VINA RESULT:    -6.490      0.000      0.000
REMARK INTER + INTRA:         -22.017
REMARK INTER:                 -15.099
REMARK INTRA:                  -6.918
REMARK UNBOUND:                -6.043
REMARK SMILES CC(=O)N[C@@H]1[C@@H](O)C[C@](OC[C@H]2O[C@@H](O[C@H]3[C@H](O)[C@@H](O)[C@H](OCCN=[N+]=[N-])O[C@@H]3CO)[C@H](O)[C@@H](O)[C@H]2O)(C(=O)O)O[C@H]1C(O)[C@H](O)CNC(=O)OCc1cn(-c2ccccc2I)nn1
REMARK SMILES IDX 9 1 8 2 6 3 5 4 42 5 41 6 10 7 11 8 12 9 14 10 13 11 32 12
REMARK SMILES IDX 34 13 36 14 15 15 16 16 29 17 28 18 21 19 17 20 19 21 30 22
REMARK SMILES IDX 31 23 22 25 23 26 24 27 25 28 26 29 27 30 18 31 20 33 33 35
REMARK SMILES IDX 35 37 37 39 38 41 39 42 40 43 7 45 43 47 44 48 45 50 46 51
REMARK SMILES IDX 47 53 48 54 49 55 50 57 51 58 52 59 53 60 54 61 64 62 55 63
REMARK SMILES IDX 63 64 56 65 57 66 61 67 58 68 60 69 62 70 59 71 4 72 2 73
REMARK SMILES IDX 1 75 3 76
REMARK H PARENT 31 24 18 32 20 34 33 36 35 38 37 40 40 44 7 46 44 49 46 52
REMARK H PARENT 48 56 4 74
REMARK Flexibility Score: inf
ROOT
ATOM      1  C   UNL     1      14.423  30.735  16.900  1.00  0.00     0.272 C 
ATOM      2  C   UNL     1      13.477  31.019  15.768  1.00  0.00     0.113 C 
ATOM      3  C   UNL     1      13.676  30.025  14.611  1.00  0.00     0.145 C 
ATOM      4  C   UNL     1      15.116  30.307  14.092  1.00  0.00     0.142 C 
ATOM      5  C   UNL     1      16.057  30.279  15.264  1.00  0.00     0.178 C 
ATOM      6  O   UNL     1      15.355  29.780  16.368  1.00  0.00    -0.332 OA
ENDROOT
BRANCH   1   7
ATOM      7  O   UNL     1      13.934  30.101  17.998  1.00  0.00    -0.338 OA
BRANCH   7   8
ATOM      8  C   UNL     1      14.541  29.280  18.802  1.00  0.00     0.199 C 
BRANCH   8   9
ATOM      9  C   UNL     1      13.965  28.897  20.107  1.00  0.00     0.179 C 
ATOM     10  C   UNL     1      15.466  29.229  21.796  1.00  0.00     0.282 C 
ATOM     11  O   UNL     1      14.777  28.329  21.031  1.00  0.00    -0.341 OA
ATOM     12  C   UNL     1      14.556  29.857  22.843  1.00  0.00     0.202 C 
ATOM     13  C   UNL     1      13.127  29.911  22.253  1.00  0.00     0.179 C 
ATOM     14  C   UNL     1      13.260  30.125  20.758  1.00  0.00     0.177 C 
BRANCH  10  15
ATOM     15  O   UNL     1      16.334  30.073  21.179  1.00  0.00    -0.341 OA
BRANCH  15  16
ATOM     16  C   UNL     1      17.660  29.933  21.520  1.00  0.00     0.184 C 
ATOM     17  C   UNL     1      18.238  31.033  22.371  1.00  0.00     0.178 C 
ATOM     18  O   UNL     1      19.620  31.094  22.210  1.00  0.00    -0.341 OA
ATOM     19  C   UNL     1      20.204  29.864  21.883  1.00  0.00     0.281 C 
ATOM     20  C   UNL     1      18.456  30.054  20.201  1.00  0.00     0.180 C 
ATOM     21  C   UNL     1      19.798  29.403  20.507  1.00  0.00     0.202 C 
BRANCH  17  22
ATOM     22  C   UNL     1      17.827  31.006  23.807  1.00  0.00     0.191 C 
BRANCH  22  23
ATOM     23  O   UNL     1      17.604  29.665  24.142  1.00  0.00    -0.394 OA
ATOM     24  H   UNL     1      18.394  29.346  24.656  1.00  0.00     0.210 HD
ENDBRANCH  22  23
ENDBRANCH  17  22
BRANCH  19  25
ATOM     25  O   UNL     1      20.048  28.926  22.857  1.00  0.00    -0.350 OA
BRANCH  25  26
ATOM     26  C   UNL     1      21.173  28.735  23.597  1.00  0.00     0.169 C 
BRANCH  26  27
ATOM     27  C   UNL     1      20.997  28.206  24.985  1.00  0.00     0.119 C 
BRANCH  27  28
ATOM     28  N   UNL     1      20.683  29.171  26.001  1.00  0.00    -0.092 NA
ATOM     29  N   UNL     1      20.827  30.368  25.694  1.00  0.00     0.001 N 
ATOM     30  N   UNL     1      20.968  31.590  25.633  1.00  0.00    -0.003 NA
ENDBRANCH  27  28
ENDBRANCH  26  27
ENDBRANCH  25  26
ENDBRANCH  19  25
BRANCH  20  31
ATOM     31  O   UNL     1      17.800  29.406  19.172  1.00  0.00    -0.387 OA
ATOM     32  H   UNL     1      16.840  29.651  19.244  1.00  0.00     0.211 HD
ENDBRANCH  20  31
BRANCH  21  33
ATOM     33  O   UNL     1      20.738  29.707  19.524  1.00  0.00    -0.385 OA
ATOM     34  H   UNL     1      20.365  30.462  18.962  1.00  0.00     0.211 HD
ENDBRANCH  21  33
ENDBRANCH  15  16
ENDBRANCH  10  15
BRANCH  12  35
ATOM     35  O   UNL     1      14.449  29.090  23.995  1.00  0.00    -0.385 OA
ATOM     36  H   UNL     1      13.968  28.259  23.741  1.00  0.00     0.211 HD
ENDBRANCH  12  35
BRANCH  13  37
ATOM     37  O   UNL     1      12.328  30.842  22.837  1.00  0.00    -0.387 OA
ATOM     38  H   UNL     1      11.380  30.558  23.008  1.00  0.00     0.211 HD
ENDBRANCH  13  37
BRANCH  14  39
ATOM     39  O   UNL     1      14.097  31.205  20.530  1.00  0.00    -0.387 OA
ATOM     40  H   UNL     1      15.056  30.918  20.652  1.00  0.00     0.211 HD
ENDBRANCH  14  39
ENDBRANCH   8   9
ENDBRANCH   7   8
ENDBRANCH   1   7
BRANCH   1  41
ATOM     41  C   UNL     1      15.180  31.951  17.244  1.00  0.00     0.364 C 
ATOM     42  O   UNL     1      14.867  33.107  16.908  1.00  0.00    -0.246 OA
BRANCH  41  43
ATOM     43  O   UNL     1      16.363  31.866  18.010  1.00  0.00    -0.477 OA
ATOM     44  H   UNL     1      16.375  32.273  18.956  1.00  0.00     0.296 HD
ENDBRANCH  41  43
ENDBRANCH   1  41
BRANCH   3  45
ATOM     45  O   UNL     1      13.552  28.714  15.018  1.00  0.00    -0.391 OA
ATOM     46  H   UNL     1      14.262  28.485  15.664  1.00  0.00     0.211 HD
ENDBRANCH   3  45
BRANCH   5  47
ATOM     47  C   UNL     1      17.136  29.187  15.028  1.00  0.00     0.176 C 
BRANCH  47  48
ATOM     48  O   UNL     1      17.452  28.684  16.348  1.00  0.00    -0.388 OA
ATOM     49  H   UNL     1      18.117  29.341  16.716  1.00  0.00     0.211 HD
ENDBRANCH  47  48
BRANCH  47  50
ATOM     50  C   UNL     1      18.444  29.779  14.598  1.00  0.00     0.165 C 
BRANCH  50  51
ATOM     51  O   UNL     1      18.935  29.051  13.482  1.00  0.00    -0.388 OA
ATOM     52  H   UNL     1      19.904  29.211  13.355  1.00  0.00     0.211 HD
ENDBRANCH  50  51
BRANCH  50  53
ATOM     53  C   UNL     1      19.526  29.899  15.585  1.00  0.00     0.154 C 
BRANCH  53  54
ATOM     54  N   UNL     1      20.579  28.905  15.490  1.00  0.00    -0.319 N 
ATOM     55  C   UNL     1      20.687  27.915  16.513  1.00  0.00     0.407 C 
ATOM     56  H   UNL     1      21.272  28.862  14.718  1.00  0.00     0.167 HD
ATOM     57  O   UNL     1      19.862  27.936  17.485  1.00  0.00    -0.225 OA
BRANCH  55  58
ATOM     58  O   UNL     1      21.630  26.908  16.542  1.00  0.00    -0.443 OA
BRANCH  58  59
ATOM     59  C   UNL     1      22.796  27.019  17.346  1.00  0.00     0.294 C 
BRANCH  59  60
ATOM     60  C   UNL     1      22.652  26.060  18.501  1.00  0.00     0.121 A 
ATOM     61  C   UNL     1      22.506  26.354  19.837  1.00  0.00     0.144 A 
ATOM     62  N   UNL     1      22.648  24.720  18.407  1.00  0.00    -0.131 NA
ATOM     63  N   UNL     1      22.424  25.167  20.467  1.00  0.00    -0.219 N 
ATOM     64  N   UNL     1      22.511  24.180  19.595  1.00  0.00    -0.062 NA
BRANCH  63  65
ATOM     65  C   UNL     1      22.276  24.958  21.867  1.00  0.00     0.080 A 
ATOM     66  C   UNL     1      21.015  24.926  22.451  1.00  0.00     0.029 A 
ATOM     67  C   UNL     1      23.373  24.790  22.679  1.00  0.00     0.039 A 
ATOM     68  C   UNL     1      20.918  24.725  23.833  1.00  0.00     0.002 A 
ATOM     69  C   UNL     1      23.256  24.589  24.061  1.00  0.00     0.017 A 
ATOM     70  I   UNL     1      25.304  24.836  21.819  1.00  0.00    -0.042 I 
ATOM     71  C   UNL     1      22.015  24.556  24.644  1.00  0.00     0.001 A 
ENDBRANCH  63  65
ENDBRANCH  59  60
ENDBRANCH  58  59
ENDBRANCH  55  58
ENDBRANCH  53  54
ENDBRANCH  50  53
ENDBRANCH  47  50
ENDBRANCH   5  47
BRANCH   4  72
ATOM     72  N   UNL     1      15.032  31.530  13.382  1.00  0.00    -0.348 N 
ATOM     73  C   UNL     1      15.765  31.780  12.167  1.00  0.00     0.217 C 
ATOM     74  H   UNL     1      14.438  32.322  13.688  1.00  0.00     0.163 HD
ATOM     75  C   UNL     1      15.684  33.050  11.421  1.00  0.00     0.114 C 
ATOM     76  O   UNL     1      16.499  30.841  11.760  1.00  0.00    -0.275 OA
ENDBRANCH   4  72
TORSDOF 30
