REMARK VINA RESULT:    -4.931      1.106      1.735
REMARK INTER + INTRA:         -21.320
REMARK INTER:                 -13.978
REMARK INTRA:                  -7.342
REMARK UNBOUND:                -8.028
REMARK SMILES CCN(CC)CCn1cc(COC(=O)NC[C@@H](O)C(O)[C@@H]2O[C@@](OC[C@H]3O[C@@H](O[C@H]4[C@H](O)[C@@H](O)[C@H](OCCN=[N+]=[N-])O[C@@H]4CO)[C@H](O)[C@@H](O)[C@H]3O)(C(=O)O)C[C@H](O)[C@H]2NC(C)=O)nn1
REMARK SMILES IDX 19 1 21 2 23 3 55 4 22 5 56 6 58 7 24 8 25 9 26 10 28 11
REMARK SMILES IDX 27 12 46 13 48 14 50 15 29 16 30 17 43 18 42 19 35 20 31 21
REMARK SMILES IDX 33 22 44 23 45 24 36 26 37 27 38 28 39 29 40 30 41 31 32 32
REMARK SMILES IDX 34 34 47 36 49 38 51 40 52 42 53 43 54 44 57 46 59 48 60 49
REMARK SMILES IDX 61 51 62 52 20 53 17 55 18 56 16 58 15 59 13 60 14 62 12 63
REMARK SMILES IDX 11 64 10 65 9 66 63 67 8 68 64 69 7 70 6 71 3 72 2 73 1 74
REMARK SMILES IDX 4 75 5 76
REMARK H PARENT 45 25 32 33 34 35 47 37 49 39 51 41 54 45 57 47 59 50 20 54
REMARK H PARENT 18 57 15 61
REMARK Flexibility Score: inf
ROOT
ATOM      1  C   UNL     1      24.407  27.061  23.623  1.00  0.00     0.176 C 
ENDROOT
BRANCH   1   2
ATOM      2  C   UNL     1      23.472  26.096  22.944  1.00  0.00     0.178 C 
ATOM      3  C   UNL     1      22.373  25.648  20.972  1.00  0.00     0.272 C 
ATOM      4  C   UNL     1      22.087  24.374  21.783  1.00  0.00     0.113 C 
ATOM      5  O   UNL     1      23.260  26.465  21.637  1.00  0.00    -0.332 OA
ATOM      6  C   UNL     1      21.554  24.645  23.152  1.00  0.00     0.145 C 
ATOM      7  C   UNL     1      22.112  26.005  23.602  1.00  0.00     0.142 C 
BRANCH   3   8
ATOM      8  O   UNL     1      21.153  26.222  20.704  1.00  0.00    -0.338 OA
BRANCH   8   9
ATOM      9  C   UNL     1      21.108  27.594  20.736  1.00  0.00     0.199 C 
BRANCH   9  10
ATOM     10  C   UNL     1      20.923  28.178  19.324  1.00  0.00     0.179 C 
ATOM     11  C   UNL     1      18.979  28.818  18.164  1.00  0.00     0.282 C 
ATOM     12  O   UNL     1      19.650  27.908  18.968  1.00  0.00    -0.341 OA
ATOM     13  C   UNL     1      19.895  29.614  17.323  1.00  0.00     0.202 C 
ATOM     14  C   UNL     1      20.968  30.332  18.093  1.00  0.00     0.179 C 
ATOM     15  C   UNL     1      21.176  29.651  19.428  1.00  0.00     0.177 C 
BRANCH  11  16
ATOM     16  O   UNL     1      18.132  29.497  19.029  1.00  0.00    -0.341 OA
BRANCH  16  17
ATOM     17  C   UNL     1      16.988  29.944  18.468  1.00  0.00     0.184 C 
ATOM     18  C   UNL     1      16.242  30.916  19.345  1.00  0.00     0.178 C 
ATOM     19  O   UNL     1      15.123  31.397  18.606  1.00  0.00    -0.341 OA
ATOM     20  C   UNL     1      14.127  30.448  18.676  1.00  0.00     0.281 C 
ATOM     21  C   UNL     1      16.005  28.830  18.123  1.00  0.00     0.180 C 
ATOM     22  C   UNL     1      14.631  29.071  18.662  1.00  0.00     0.202 C 
BRANCH  18  23
ATOM     23  C   UNL     1      17.044  32.035  19.903  1.00  0.00     0.191 C 
BRANCH  23  24
ATOM     24  O   UNL     1      18.165  32.203  19.099  1.00  0.00    -0.394 OA
ATOM     25  H   UNL     1      18.664  33.038  19.280  1.00  0.00     0.210 HD
ENDBRANCH  23  24
ENDBRANCH  18  23
BRANCH  20  26
ATOM     26  O   UNL     1      13.101  30.703  17.771  1.00  0.00    -0.350 OA
BRANCH  26  27
ATOM     27  C   UNL     1      13.463  31.438  16.683  1.00  0.00     0.169 C 
BRANCH  27  28
ATOM     28  C   UNL     1      13.216  30.716  15.371  1.00  0.00     0.119 C 
BRANCH  28  29
ATOM     29  N   UNL     1      12.221  29.673  15.524  1.00  0.00    -0.092 NA
ATOM     30  N   UNL     1      12.335  28.557  15.003  1.00  0.00     0.001 N 
ATOM     31  N   UNL     1      12.224  27.678  14.146  1.00  0.00    -0.003 NA
ENDBRANCH  28  29
ENDBRANCH  27  28
ENDBRANCH  26  27
ENDBRANCH  20  26
BRANCH  21  32
ATOM     32  O   UNL     1      15.945  28.713  16.748  1.00  0.00    -0.387 OA
ATOM     33  H   UNL     1      16.234  27.843  16.404  1.00  0.00     0.211 HD
ENDBRANCH  21  32
BRANCH  22  34
ATOM     34  O   UNL     1      14.480  28.502  19.951  1.00  0.00    -0.385 OA
ATOM     35  H   UNL     1      14.915  29.137  20.578  1.00  0.00     0.211 HD
ENDBRANCH  22  34
ENDBRANCH  16  17
ENDBRANCH  11  16
BRANCH  13  36
ATOM     36  O   UNL     1      20.565  28.724  16.433  1.00  0.00    -0.385 OA
ATOM     37  H   UNL     1      21.449  29.062  16.201  1.00  0.00     0.211 HD
ENDBRANCH  13  36
BRANCH  14  38
ATOM     38  O   UNL     1      20.746  31.692  18.238  1.00  0.00    -0.387 OA
ATOM     39  H   UNL     1      19.900  31.903  18.666  1.00  0.00     0.211 HD
ENDBRANCH  14  38
BRANCH  15  40
ATOM     40  O   UNL     1      20.273  30.197  20.330  1.00  0.00    -0.387 OA
ATOM     41  H   UNL     1      20.715  30.344  21.215  1.00  0.00     0.211 HD
ENDBRANCH  15  40
ENDBRANCH   9  10
ENDBRANCH   8   9
ENDBRANCH   3   8
BRANCH   3  42
ATOM     42  C   UNL     1      23.014  25.152  19.728  1.00  0.00     0.364 C 
ATOM     43  O   UNL     1      24.235  25.428  19.472  1.00  0.00    -0.246 OA
BRANCH  42  44
ATOM     44  O   UNL     1      22.380  24.383  18.773  1.00  0.00    -0.477 OA
ATOM     45  H   UNL     1      22.874  23.614  18.333  1.00  0.00     0.296 HD
ENDBRANCH  42  44
ENDBRANCH   3  42
BRANCH   6  46
ATOM     46  O   UNL     1      20.190  24.557  23.280  1.00  0.00    -0.391 OA
ATOM     47  H   UNL     1      19.953  24.918  24.173  1.00  0.00     0.211 HD
ENDBRANCH   6  46
BRANCH   7  48
ATOM     48  N   UNL     1      22.124  26.125  25.020  1.00  0.00    -0.348 N 
ATOM     49  C   UNL     1      21.195  27.041  25.634  1.00  0.00     0.217 C 
ATOM     50  H   UNL     1      22.743  25.607  25.669  1.00  0.00     0.163 HD
ATOM     51  C   UNL     1      21.151  27.220  27.107  1.00  0.00     0.114 C 
ATOM     52  O   UNL     1      20.390  27.721  24.943  1.00  0.00    -0.275 OA
ENDBRANCH   7  48
ENDBRANCH   1   2
BRANCH   1  53
ATOM     53  O   UNL     1      25.711  26.644  23.389  1.00  0.00    -0.388 OA
ATOM     54  H   UNL     1      26.228  26.676  24.255  1.00  0.00     0.211 HD
ENDBRANCH   1  53
BRANCH   1  55
ATOM     55  C   UNL     1      24.196  28.403  22.970  1.00  0.00     0.165 C 
BRANCH  55  56
ATOM     56  O   UNL     1      25.426  28.885  22.506  1.00  0.00    -0.388 OA
ATOM     57  H   UNL     1      25.302  29.826  22.234  1.00  0.00     0.211 HD
ENDBRANCH  55  56
BRANCH  55  58
ATOM     58  C   UNL     1      23.546  29.433  23.817  1.00  0.00     0.154 C 
BRANCH  58  59
ATOM     59  N   UNL     1      22.235  29.795  23.401  1.00  0.00    -0.319 N 
ATOM     60  C   UNL     1      21.843  31.177  23.435  1.00  0.00     0.407 C 
ATOM     61  H   UNL     1      21.558  29.100  23.085  1.00  0.00     0.167 HD
ATOM     62  O   UNL     1      22.632  32.059  23.829  1.00  0.00    -0.225 OA
BRANCH  60  63
ATOM     63  O   UNL     1      20.563  31.506  23.019  1.00  0.00    -0.443 OA
BRANCH  63  64
ATOM     64  C   UNL     1      19.504  31.480  23.990  1.00  0.00     0.294 C 
BRANCH  64  65
ATOM     65  C   UNL     1      18.386  30.726  23.407  1.00  0.00     0.120 A 
ATOM     66  C   UNL     1      17.047  30.935  23.750  1.00  0.00     0.138 A 
ATOM     67  N   UNL     1      18.367  29.755  22.498  1.00  0.00    -0.132 NA
ATOM     68  N   UNL     1      16.282  30.088  23.038  1.00  0.00    -0.251 N 
ATOM     69  N   UNL     1      17.099  29.390  22.295  1.00  0.00    -0.067 NA
BRANCH  68  70
ATOM     70  C   UNL     1      14.838  29.959  23.075  1.00  0.00     0.161 C 
BRANCH  70  71
ATOM     71  C   UNL     1      14.284  31.185  23.768  1.00  0.00     0.108 C 
BRANCH  71  72
ATOM     72  N   UNL     1      13.341  30.878  24.804  1.00  0.00    -0.302 NA
BRANCH  72  73
ATOM     73  C   UNL     1      12.074  31.524  24.597  1.00  0.00     0.081 C 
ATOM     74  C   UNL     1      11.209  30.622  23.726  1.00  0.00     0.021 C 
ENDBRANCH  72  73
BRANCH  72  75
ATOM     75  C   UNL     1      13.868  31.066  26.120  1.00  0.00     0.081 C 
ATOM     76  C   UNL     1      13.512  32.438  26.657  1.00  0.00     0.021 C 
ENDBRANCH  72  75
ENDBRANCH  71  72
ENDBRANCH  70  71
ENDBRANCH  68  70
ENDBRANCH  64  65
ENDBRANCH  63  64
ENDBRANCH  60  63
ENDBRANCH  58  59
ENDBRANCH  55  58
ENDBRANCH   1  55
TORSDOF 34
