REMARK VINA RESULT:    -4.493      7.945     12.258
REMARK INTER + INTRA:         -21.313
REMARK INTER:                 -14.101
REMARK INTRA:                  -7.212
REMARK UNBOUND:                -8.679
REMARK SMILES CCOC(CCn1cc(COC(=O)NC[C@@H](O)C(O)[C@@H]2O[C@@](OC[C@H]3O[C@@H](O[C@H]4[C@H](O)[C@@H](O)[C@H](OCCN=[N+]=[N-])O[C@@H]4CO)[C@H](O)[C@@H](O)[C@H]3O)(C(=O)O)C[C@H](O)[C@H]2NC(C)=O)nn1)OCC
REMARK SMILES IDX 18 1 20 2 22 3 54 4 21 5 55 6 57 7 23 8 24 9 25 10 27 11
REMARK SMILES IDX 26 12 45 13 47 14 49 15 28 16 29 17 42 18 41 19 34 20 30 21
REMARK SMILES IDX 32 22 43 23 44 24 35 26 36 27 37 28 38 29 39 30 40 31 31 32
REMARK SMILES IDX 33 34 46 36 48 38 50 40 51 42 52 43 53 44 56 46 58 48 59 49
REMARK SMILES IDX 60 51 61 52 19 53 16 55 17 56 15 58 14 59 12 60 13 62 11 63
REMARK SMILES IDX 10 64 9 65 8 66 62 67 7 68 63 69 6 70 5 71 4 72 3 73 2 74
REMARK SMILES IDX 1 75 64 76 65 77 66 78
REMARK H PARENT 44 25 31 33 33 35 46 37 48 39 50 41 53 45 56 47 58 50 19 54
REMARK H PARENT 17 57 14 61
REMARK Flexibility Score: inf
ROOT
ATOM      1  C   UNL     1      24.828  23.992  17.166  1.00  0.00     0.176 C 
ENDROOT
BRANCH   1   2
ATOM      2  C   UNL     1      25.348  23.988  15.759  1.00  0.00     0.178 C 
ATOM      3  C   UNL     1      24.731  23.889  13.532  1.00  0.00     0.272 C 
ATOM      4  C   UNL     1      26.195  24.115  13.396  1.00  0.00     0.113 C 
ATOM      5  O   UNL     1      24.296  23.810  14.874  1.00  0.00    -0.332 OA
ATOM      6  C   UNL     1      27.072  23.281  14.263  1.00  0.00     0.145 C 
ATOM      7  C   UNL     1      26.287  22.807  15.493  1.00  0.00     0.142 C 
BRANCH   3   8
ATOM      8  O   UNL     1      24.173  22.878  12.860  1.00  0.00    -0.338 OA
BRANCH   8   9
ATOM      9  C   UNL     1      23.156  22.158  13.367  1.00  0.00     0.199 C 
BRANCH   9  10
ATOM     10  C   UNL     1      23.392  20.675  13.191  1.00  0.00     0.179 C 
ATOM     11  C   UNL     1      22.617  18.731  12.376  1.00  0.00     0.282 C 
ATOM     12  O   UNL     1      22.712  20.125  12.120  1.00  0.00    -0.341 OA
ATOM     13  C   UNL     1      23.968  18.140  12.210  1.00  0.00     0.202 C 
ATOM     14  C   UNL     1      24.943  18.830  13.134  1.00  0.00     0.179 C 
ATOM     15  C   UNL     1      24.875  20.334  13.087  1.00  0.00     0.177 C 
BRANCH  11  16
ATOM     16  O   UNL     1      21.624  18.190  11.552  1.00  0.00    -0.341 OA
BRANCH  16  17
ATOM     17  C   UNL     1      21.266  19.115  10.624  1.00  0.00     0.184 C 
ATOM     18  C   UNL     1      19.853  19.550  10.556  1.00  0.00     0.178 C 
ATOM     19  O   UNL     1      19.803  20.749   9.832  1.00  0.00    -0.341 OA
ATOM     20  C   UNL     1      20.132  20.520   8.487  1.00  0.00     0.281 C 
ATOM     21  C   UNL     1      21.574  18.593   9.185  1.00  0.00     0.180 C 
ATOM     22  C   UNL     1      21.488  19.865   8.330  1.00  0.00     0.202 C 
BRANCH  18  23
ATOM     23  C   UNL     1      19.288  19.805  11.921  1.00  0.00     0.191 C 
BRANCH  23  24
ATOM     24  O   UNL     1      19.942  20.847  12.579  1.00  0.00    -0.394 OA
ATOM     25  H   UNL     1      19.538  21.069  13.436  1.00  0.00     0.210 HD
ENDBRANCH  23  24
ENDBRANCH  18  23
BRANCH  20  26
ATOM     26  O   UNL     1      20.185  21.761   7.878  1.00  0.00    -0.350 OA
BRANCH  26  27
ATOM     27  C   UNL     1      20.438  22.828   8.685  1.00  0.00     0.169 C 
BRANCH  27  28
ATOM     28  C   UNL     1      21.851  23.311   8.489  1.00  0.00     0.119 C 
BRANCH  28  29
ATOM     29  N   UNL     1      22.340  23.883   9.742  1.00  0.00    -0.092 NA
ATOM     30  N   UNL     1      21.919  25.032   9.988  1.00  0.00     0.001 N 
ATOM     31  N   UNL     1      21.947  26.242  10.226  1.00  0.00    -0.003 NA
ENDBRANCH  28  29
ENDBRANCH  27  28
ENDBRANCH  26  27
ENDBRANCH  20  26
BRANCH  21  32
ATOM     32  O   UNL     1      22.827  18.045   9.113  1.00  0.00    -0.387 OA
ATOM     33  H   UNL     1      22.818  17.087   8.868  1.00  0.00     0.211 HD
ENDBRANCH  21  32
BRANCH  22  34
ATOM     34  O   UNL     1      21.704  19.589   7.007  1.00  0.00    -0.385 OA
ATOM     35  H   UNL     1      21.759  18.586   6.922  1.00  0.00     0.211 HD
ENDBRANCH  22  34
ENDBRANCH  16  17
ENDBRANCH  11  16
BRANCH  13  36
ATOM     36  O   UNL     1      23.985  16.787  12.581  1.00  0.00    -0.385 OA
ATOM     37  H   UNL     1      23.374  16.607  13.330  1.00  0.00     0.211 HD
ENDBRANCH  13  36
BRANCH  14  38
ATOM     38  O   UNL     1      26.239  18.352  12.974  1.00  0.00    -0.387 OA
ATOM     39  H   UNL     1      26.824  18.635  13.727  1.00  0.00     0.211 HD
ENDBRANCH  14  38
BRANCH  15  40
ATOM     40  O   UNL     1      25.385  20.854  11.907  1.00  0.00    -0.387 OA
ATOM     41  H   UNL     1      26.161  21.432  12.082  1.00  0.00     0.211 HD
ENDBRANCH  15  40
ENDBRANCH   9  10
ENDBRANCH   8   9
ENDBRANCH   3   8
BRANCH   3  42
ATOM     42  C   UNL     1      24.067  25.138  13.039  1.00  0.00     0.364 C 
ATOM     43  O   UNL     1      23.076  25.624  13.615  1.00  0.00    -0.246 OA
BRANCH  42  44
ATOM     44  O   UNL     1      24.533  25.809  11.913  1.00  0.00    -0.477 OA
ATOM     45  H   UNL     1      25.397  25.491  11.488  1.00  0.00     0.296 HD
ENDBRANCH  42  44
ENDBRANCH   3  42
BRANCH   6  46
ATOM     46  O   UNL     1      27.678  22.224  13.631  1.00  0.00    -0.391 OA
ATOM     47  H   UNL     1      27.853  22.371  12.669  1.00  0.00     0.211 HD
ENDBRANCH   6  46
BRANCH   7  48
ATOM     48  N   UNL     1      27.136  22.497  16.596  1.00  0.00    -0.348 N 
ATOM     49  C   UNL     1      27.586  21.155  16.743  1.00  0.00     0.217 C 
ATOM     50  H   UNL     1      27.445  23.200  17.296  1.00  0.00     0.163 HD
ATOM     51  C   UNL     1      28.472  20.800  17.882  1.00  0.00     0.114 C 
ATOM     52  O   UNL     1      27.244  20.246  15.913  1.00  0.00    -0.275 OA
ENDBRANCH   7  48
ENDBRANCH   1   2
BRANCH   1  53
ATOM     53  O   UNL     1      25.580  24.953  17.867  1.00  0.00    -0.388 OA
ATOM     54  H   UNL     1      25.345  25.874  17.553  1.00  0.00     0.211 HD
ENDBRANCH   1  53
BRANCH   1  55
ATOM     55  C   UNL     1      23.399  24.495  17.133  1.00  0.00     0.165 C 
BRANCH  55  56
ATOM     56  O   UNL     1      23.349  25.822  16.818  1.00  0.00    -0.388 OA
ATOM     57  H   UNL     1      22.872  26.030  15.975  1.00  0.00     0.211 HD
ENDBRANCH  55  56
BRANCH  55  58
ATOM     58  C   UNL     1      22.722  24.236  18.450  1.00  0.00     0.154 C 
BRANCH  58  59
ATOM     59  N   UNL     1      23.294  24.900  19.585  1.00  0.00    -0.319 N 
ATOM     60  C   UNL     1      22.883  24.728  20.916  1.00  0.00     0.407 C 
ATOM     61  H   UNL     1      24.093  25.572  19.368  1.00  0.00     0.167 HD
ATOM     62  O   UNL     1      21.966  23.959  21.251  1.00  0.00    -0.225 OA
BRANCH  60  63
ATOM     63  O   UNL     1      23.514  25.445  21.957  1.00  0.00    -0.443 OA
BRANCH  63  64
ATOM     64  C   UNL     1      24.571  24.811  22.693  1.00  0.00     0.294 C 
BRANCH  64  65
ATOM     65  C   UNL     1      25.798  24.819  21.855  1.00  0.00     0.120 A 
ATOM     66  C   UNL     1      26.845  23.931  21.898  1.00  0.00     0.138 A 
ATOM     67  N   UNL     1      26.095  25.712  20.908  1.00  0.00    -0.132 NA
ATOM     68  N   UNL     1      27.738  24.331  20.968  1.00  0.00    -0.252 N 
ATOM     69  N   UNL     1      27.251  25.413  20.386  1.00  0.00    -0.067 NA
BRANCH  68  70
ATOM     70  C   UNL     1      28.976  23.661  20.699  1.00  0.00     0.151 C 
BRANCH  70  71
ATOM     71  C   UNL     1      29.897  23.545  21.879  1.00  0.00     0.086 C 
BRANCH  71  72
ATOM     72  C   UNL     1      29.764  22.147  22.481  1.00  0.00     0.251 C 
BRANCH  72  73
ATOM     73  O   UNL     1      30.978  21.856  23.075  1.00  0.00    -0.353 OA
BRANCH  73  74
ATOM     74  C   UNL     1      30.842  21.498  24.410  1.00  0.00     0.160 C 
ATOM     75  C   UNL     1      31.417  20.121  24.677  1.00  0.00     0.035 C 
ENDBRANCH  73  74
ENDBRANCH  72  73
BRANCH  72  76
ATOM     76  O   UNL     1      29.307  21.237  21.576  1.00  0.00    -0.353 OA
BRANCH  76  77
ATOM     77  C   UNL     1      28.285  20.417  21.970  1.00  0.00     0.160 C 
ATOM     78  C   UNL     1      28.773  18.987  21.987  1.00  0.00     0.035 C 
ENDBRANCH  76  77
ENDBRANCH  72  76
ENDBRANCH  71  72
ENDBRANCH  70  71
ENDBRANCH  68  70
ENDBRANCH  64  65
ENDBRANCH  63  64
ENDBRANCH  60  63
ENDBRANCH  58  59
ENDBRANCH  55  58
ENDBRANCH   1  55
TORSDOF 36
