REMARK VINA RESULT:    -5.016      3.707      9.676
REMARK INTER + INTRA:         -21.547
REMARK INTER:                 -13.833
REMARK INTRA:                  -7.715
REMARK UNBOUND:                -8.028
REMARK SMILES CCN(CC)CCn1cc(COC(=O)NC[C@@H](O)C(O)[C@@H]2O[C@@](OC[C@H]3O[C@@H](O[C@H]4[C@H](O)[C@@H](O)[C@H](OCCN=[N+]=[N-])O[C@@H]4CO)[C@H](O)[C@@H](O)[C@H]3O)(C(=O)O)C[C@H](O)[C@H]2NC(C)=O)nn1
REMARK SMILES IDX 19 1 21 2 23 3 55 4 22 5 56 6 58 7 24 8 25 9 26 10 28 11
REMARK SMILES IDX 27 12 46 13 48 14 50 15 29 16 30 17 43 18 42 19 35 20 31 21
REMARK SMILES IDX 33 22 44 23 45 24 36 26 37 27 38 28 39 29 40 30 41 31 32 32
REMARK SMILES IDX 34 34 47 36 49 38 51 40 52 42 53 43 54 44 57 46 59 48 60 49
REMARK SMILES IDX 61 51 62 52 20 53 17 55 18 56 16 58 15 59 13 60 14 62 12 63
REMARK SMILES IDX 11 64 10 65 9 66 63 67 8 68 64 69 7 70 6 71 3 72 2 73 1 74
REMARK SMILES IDX 4 75 5 76
REMARK H PARENT 45 25 32 33 34 35 47 37 49 39 51 41 54 45 57 47 59 50 20 54
REMARK H PARENT 18 57 15 61
REMARK Flexibility Score: inf
ROOT
ATOM      1  C   UNL     1      26.519  26.771  17.504  1.00  0.00     0.176 C 
ENDROOT
BRANCH   1   2
ATOM      2  C   UNL     1      26.716  26.411  18.953  1.00  0.00     0.178 C 
ATOM      3  C   UNL     1      26.277  24.811  20.547  1.00  0.00     0.272 C 
ATOM      4  C   UNL     1      27.232  25.748  21.303  1.00  0.00     0.113 C 
ATOM      5  O   UNL     1      26.173  25.179  19.224  1.00  0.00    -0.332 OA
ATOM      6  C   UNL     1      26.834  27.186  21.235  1.00  0.00     0.145 C 
ATOM      7  C   UNL     1      26.080  27.393  19.913  1.00  0.00     0.142 C 
BRANCH   3   8
ATOM      8  O   UNL     1      25.091  24.819  21.241  1.00  0.00    -0.338 OA
BRANCH   8   9
ATOM      9  C   UNL     1      23.970  24.463  20.531  1.00  0.00     0.199 C 
BRANCH   9  10
ATOM     10  C   UNL     1      22.703  24.584  21.396  1.00  0.00     0.179 C 
ATOM     11  C   UNL     1      22.441  24.843  23.719  1.00  0.00     0.282 C 
ATOM     12  O   UNL     1      23.062  24.223  22.645  1.00  0.00    -0.341 OA
ATOM     13  C   UNL     1      21.090  25.336  23.385  1.00  0.00     0.202 C 
ATOM     14  C   UNL     1      21.048  26.253  22.194  1.00  0.00     0.179 C 
ATOM     15  C   UNL     1      22.267  26.016  21.329  1.00  0.00     0.177 C 
BRANCH  11  16
ATOM     16  O   UNL     1      23.372  25.759  24.187  1.00  0.00    -0.341 OA
BRANCH  16  17
ATOM     17  C   UNL     1      23.426  25.878  25.530  1.00  0.00     0.184 C 
ATOM     18  C   UNL     1      23.484  27.311  25.993  1.00  0.00     0.178 C 
ATOM     19  O   UNL     1      23.425  27.310  27.417  1.00  0.00    -0.341 OA
ATOM     20  C   UNL     1      24.684  27.022  27.894  1.00  0.00     0.281 C 
ATOM     21  C   UNL     1      24.626  25.173  26.155  1.00  0.00     0.180 C 
ATOM     22  C   UNL     1      25.414  26.054  27.070  1.00  0.00     0.202 C 
BRANCH  18  23
ATOM     23  C   UNL     1      22.468  28.224  25.409  1.00  0.00     0.191 C 
BRANCH  23  24
ATOM     24  O   UNL     1      22.899  28.592  24.141  1.00  0.00    -0.394 OA
ATOM     25  H   UNL     1      23.360  27.867  23.651  1.00  0.00     0.210 HD
ENDBRANCH  23  24
ENDBRANCH  18  23
BRANCH  20  26
ATOM     26  O   UNL     1      24.671  26.736  29.256  1.00  0.00    -0.350 OA
BRANCH  26  27
ATOM     27  C   UNL     1      25.202  25.529  29.596  1.00  0.00     0.169 C 
BRANCH  27  28
ATOM     28  C   UNL     1      26.310  25.637  30.627  1.00  0.00     0.119 C 
BRANCH  28  29
ATOM     29  N   UNL     1      27.594  25.277  30.059  1.00  0.00    -0.092 NA
ATOM     30  N   UNL     1      28.301  26.080  29.437  1.00  0.00     0.001 N 
ATOM     31  N   UNL     1      28.747  26.704  28.472  1.00  0.00    -0.003 NA
ENDBRANCH  28  29
ENDBRANCH  27  28
ENDBRANCH  26  27
ENDBRANCH  20  26
BRANCH  21  32
ATOM     32  O   UNL     1      24.168  24.075  26.857  1.00  0.00    -0.387 OA
ATOM     33  H   UNL     1      24.040  23.272  26.311  1.00  0.00     0.211 HD
ENDBRANCH  21  32
BRANCH  22  34
ATOM     34  O   UNL     1      26.451  26.720  26.370  1.00  0.00    -0.385 OA
ATOM     35  H   UNL     1      26.882  27.320  27.033  1.00  0.00     0.211 HD
ENDBRANCH  22  34
ENDBRANCH  16  17
ENDBRANCH  11  16
BRANCH  13  36
ATOM     36  O   UNL     1      20.276  24.212  23.057  1.00  0.00    -0.385 OA
ATOM     37  H   UNL     1      20.708  23.651  22.389  1.00  0.00     0.211 HD
ENDBRANCH  13  36
BRANCH  14  38
ATOM     38  O   UNL     1      20.897  27.592  22.515  1.00  0.00    -0.387 OA
ATOM     39  H   UNL     1      20.008  27.816  22.834  1.00  0.00     0.211 HD
ENDBRANCH  14  38
BRANCH  15  40
ATOM     40  O   UNL     1      23.293  26.818  21.812  1.00  0.00    -0.387 OA
ATOM     41  H   UNL     1      23.007  27.777  21.817  1.00  0.00     0.211 HD
ENDBRANCH  15  40
ENDBRANCH   9  10
ENDBRANCH   8   9
ENDBRANCH   3   8
BRANCH   3  42
ATOM     42  C   UNL     1      26.931  23.481  20.628  1.00  0.00     0.364 C 
ATOM     43  O   UNL     1      27.167  22.938  21.761  1.00  0.00    -0.246 OA
BRANCH  42  44
ATOM     44  O   UNL     1      27.332  22.738  19.535  1.00  0.00    -0.477 OA
ATOM     45  H   UNL     1      27.520  21.746  19.638  1.00  0.00     0.296 HD
ENDBRANCH  42  44
ENDBRANCH   3  42
BRANCH   6  46
ATOM     46  O   UNL     1      26.144  27.657  22.325  1.00  0.00    -0.391 OA
ATOM     47  H   UNL     1      25.782  28.548  22.083  1.00  0.00     0.211 HD
ENDBRANCH   6  46
BRANCH   7  48
ATOM     48  N   UNL     1      26.119  28.752  19.492  1.00  0.00    -0.348 N 
ATOM     49  C   UNL     1      24.881  29.492  19.464  1.00  0.00     0.217 C 
ATOM     50  H   UNL     1      26.965  29.275  19.203  1.00  0.00     0.163 HD
ATOM     51  C   UNL     1      24.845  30.913  19.035  1.00  0.00     0.114 C 
ATOM     52  O   UNL     1      23.790  28.960  19.800  1.00  0.00    -0.275 OA
ENDBRANCH   7  48
ENDBRANCH   1   2
BRANCH   1  53
ATOM     53  O   UNL     1      27.418  26.032  16.745  1.00  0.00    -0.388 OA
ATOM     54  H   UNL     1      28.337  26.111  17.153  1.00  0.00     0.211 HD
ENDBRANCH   1  53
BRANCH   1  55
ATOM     55  C   UNL     1      25.116  26.360  17.141  1.00  0.00     0.165 C 
BRANCH  55  56
ATOM     56  O   UNL     1      25.164  25.184  16.383  1.00  0.00    -0.388 OA
ATOM     57  H   UNL     1      25.081  24.419  17.002  1.00  0.00     0.211 HD
ENDBRANCH  55  56
BRANCH  55  58
ATOM     58  C   UNL     1      24.314  27.382  16.422  1.00  0.00     0.154 C 
BRANCH  58  59
ATOM     59  N   UNL     1      23.041  27.644  17.001  1.00  0.00    -0.319 N 
ATOM     60  C   UNL     1      21.853  27.296  16.273  1.00  0.00     0.407 C 
ATOM     61  H   UNL     1      22.945  28.081  17.918  1.00  0.00     0.167 HD
ATOM     62  O   UNL     1      21.922  26.775  15.142  1.00  0.00    -0.225 OA
BRANCH  60  63
ATOM     63  O   UNL     1      20.625  27.556  16.859  1.00  0.00    -0.443 OA
BRANCH  63  64
ATOM     64  C   UNL     1      20.346  28.899  17.289  1.00  0.00     0.294 C 
BRANCH  64  65
ATOM     65  C   UNL     1      19.515  28.813  18.497  1.00  0.00     0.120 A 
ATOM     66  C   UNL     1      18.376  29.596  18.713  1.00  0.00     0.138 A 
ATOM     67  N   UNL     1      19.624  28.049  19.581  1.00  0.00    -0.132 NA
ATOM     68  N   UNL     1      17.850  29.271  19.907  1.00  0.00    -0.251 N 
ATOM     69  N   UNL     1      18.618  28.340  20.408  1.00  0.00    -0.067 NA
BRANCH  68  70
ATOM     70  C   UNL     1      16.668  29.832  20.533  1.00  0.00     0.161 C 
BRANCH  70  71
ATOM     71  C   UNL     1      15.676  28.708  20.734  1.00  0.00     0.108 C 
BRANCH  71  72
ATOM     72  N   UNL     1      14.836  28.885  21.882  1.00  0.00    -0.302 NA
BRANCH  72  73
ATOM     73  C   UNL     1      13.439  28.879  21.543  1.00  0.00     0.081 C 
ATOM     74  C   UNL     1      13.005  30.312  21.259  1.00  0.00     0.021 C 
ENDBRANCH  72  73
BRANCH  72  75
ATOM     75  C   UNL     1      15.220  29.998  22.695  1.00  0.00     0.081 C 
ATOM     76  C   UNL     1      15.221  29.623  24.163  1.00  0.00     0.021 C 
ENDBRANCH  72  75
ENDBRANCH  71  72
ENDBRANCH  70  71
ENDBRANCH  68  70
ENDBRANCH  64  65
ENDBRANCH  63  64
ENDBRANCH  60  63
ENDBRANCH  58  59
ENDBRANCH  55  58
ENDBRANCH   1  55
TORSDOF 34
