REMARK VINA RESULT:    -6.226      0.000      0.000
REMARK INTER + INTRA:         -14.526
REMARK INTER:                 -12.263
REMARK INTRA:                  -2.263
REMARK UNBOUND:                -2.840
REMARK  Name = lig_assembled_77.pdb
REMARK  19 active torsions:
REMARK  status: ('A' for Active; 'I' for Inactive)
REMARK    1  A    between atoms: _2  and  _10
REMARK    2  A    between atoms: _3  and  _17
REMARK    3  A    between atoms: _5  and  _27
REMARK    4  A    between atoms: _7  and  _8
REMARK    5  A    between atoms: _7  and  _27
REMARK    6  A    between atoms: _13  and  _47
REMARK    7  A    between atoms: _14  and  _47
REMARK    8  A    between atoms: _23  and  _43
REMARK    9  A    between atoms: _25  and  _31
REMARK   10  A    between atoms: _26  and  _30
REMARK   11  A    between atoms: _30  and  _31
REMARK   12  A    between atoms: _33  and  _34
REMARK   13  A    between atoms: _35  and  _36
REMARK   14  A    between atoms: _37  and  _39
REMARK   15  A    between atoms: _39  and  _40
REMARK   16  A    between atoms: _39  and  _41
REMARK   17  A    between atoms: _41  and  _42
REMARK   18  A    between atoms: _41  and  _43
REMARK   19  A    between atoms: _44  and  _46
REMARK                            x       y       z     vdW  Elec       q    Type
REMARK                         _______ _______ _______ _____ _____    ______ ____
ROOT
ATOM      1  C   UNL     1      -4.164  13.091  22.367  0.00  0.00    +0.401 C 
ATOM      2  O   UNL     1      -3.223  12.680  21.685  0.00  0.00    -0.226 OA
ATOM      3  N   UNL     1      -4.129  13.205  23.695  0.00  0.00    -0.279 N 
ATOM      4  H   UNL     1      -4.949  13.561  24.165  0.00  0.00    +0.152 HD
ENDROOT
BRANCH   3   5
ATOM      5  C   UNL     1      -2.966  12.840  24.513  0.00  0.00    +0.141 C 
BRANCH   5   6
ATOM      6  C   UNL     1      -3.189  11.535  25.269  0.00  0.00    +0.163 C 
BRANCH   6   7
ATOM      7  O   UNL     1      -1.969  10.776  25.310  0.00  0.00    -0.388 OA
ATOM      8  H   UNL     1      -2.052  10.006  24.741  0.00  0.00    +0.210 HD
ENDBRANCH   6   7
BRANCH   6   9
ATOM      9  C   UNL     1      -3.692  11.844  26.690  0.00  0.00    +0.175 C 
BRANCH   9  10
ATOM     10  C   UNL     1      -3.396  10.698  27.669  0.00  0.00    +0.176 C 
ATOM     11  O   UNL     1      -4.016   9.491  27.147  0.00  0.00    -0.332 OA
ATOM     12  C   UNL     1      -3.749   8.263  27.901  0.00  0.00    +0.277 C 
ATOM     13  C   UNL     1      -4.135   8.448  29.389  0.00  0.00    +0.110 C 
ATOM     14  C   UNL     1      -3.525   9.736  29.981  0.00  0.00    +0.143 C 
ATOM     15  C   UNL     1      -3.862  10.951  29.115  0.00  0.00    +0.133 C 
BRANCH  15  16
ATOM     16  N   UNL     1      -3.202  12.157  29.641  0.00  0.00    -0.308 N 
ATOM     17  H   UNL     1      -2.192  12.173  29.655  0.00  0.00    +0.149 HD
ATOM     18  C   UNL     1      -3.851  13.230  30.099  0.00  0.00    +0.210 C 
ATOM     19  C   UNL     1      -5.390  13.163  30.088  0.00  0.00    +0.109 C 
ATOM     20  O   UNL     1      -3.273  14.232  30.520  0.00  0.00    -0.276 OA
ENDBRANCH  15  16
BRANCH  12  21
ATOM     21  C   UNL     1      -2.260   7.872  27.800  0.00  0.00    +0.414 C 
ATOM     22  O   UNL     1      -1.651   8.021  26.741  0.00  0.00    -0.240 OA
ATOM     23  O   UNL     1      -1.669   7.407  28.775  0.00  0.00    -0.240 OA
ENDBRANCH  12  21
BRANCH  14  24
ATOM     24  O   UNL     1      -4.027   9.945  31.301  0.00  0.00    -0.390 OA
ATOM     25  H   UNL     1      -4.969  10.126  31.261  0.00  0.00    +0.210 HD
ENDBRANCH  14  24
BRANCH  12  26
ATOM     26  O   UNL     1      -4.571   7.206  27.343  0.00  0.00    -0.343 OA
ATOM     27  C   UNL     1      -5.096   7.473  26.018  0.00  0.00    +0.198 C 
ENDBRANCH  12  26
ENDBRANCH   9  10
BRANCH   9  28
ATOM     28  O   UNL     1      -5.105  12.124  26.666  0.00  0.00    -0.387 OA
ATOM     29  H   UNL     1      -5.566  11.498  27.230  0.00  0.00    +0.210 HD
ENDBRANCH   9  28
ENDBRANCH   6   9
ENDBRANCH   5   6
ENDBRANCH   3   5
BRANCH   1  30
ATOM     30  O   UNL     1      -5.377  13.479  21.715  0.00  0.00    -0.444 OA
BRANCH  30  31
ATOM     31  C   UNL     1      -6.092  12.312  21.301  0.00  0.00    +0.292 C 
BRANCH  31  33
ATOM     32  N   UNL     1      -7.271  12.399  19.130  0.00  0.00    -0.131 NA
ATOM     33  C   UNL     1      -6.114  12.215  19.829  0.00  0.00    +0.121 A 
ATOM     34  C   UNL     1      -5.092  11.954  18.946  0.00  0.00    +0.143 A 
ATOM     35  N   UNL     1      -5.677  11.998  17.701  0.00  0.00    -0.220 N 
ATOM     36  N   UNL     1      -7.001  12.256  17.840  0.00  0.00    -0.060 NA
BRANCH  35  37
ATOM     37  C   UNL     1      -5.067  11.876  16.424  0.00  0.00    +0.067 A 
ATOM     38  C   UNL     1      -3.897  11.121  16.254  0.00  0.00    +0.030 A 
ATOM     39  C   UNL     1      -3.243  11.111  15.018  0.00  0.00    +0.029 A 
ATOM     40  C   UNL     1      -3.762  11.851  13.954  0.00  0.00    +0.094 A 
ATOM     41  C   UNL     1      -4.976  12.531  14.086  0.00  0.00    +0.029 A 
ATOM     42  C   UNL     1      -5.622  12.554  15.325  0.00  0.00    +0.030 A 
BRANCH  40  43
ATOM     43  S   UNL     1      -2.890  11.893  12.401  0.00  0.00    +0.025 S 
ATOM     44  O   UNL     1      -1.932  10.802  12.446  0.00  0.00    -0.164 OA
ATOM     45  O   UNL     1      -3.885  11.961  11.347  0.00  0.00    -0.164 OA
BRANCH  43  46
ATOM     46  C   UNL     1      -1.955  13.405  12.306  0.00  0.00    +0.094 A 
ATOM     47  C   UNL     1      -0.761  13.469  11.586  0.00  0.00    +0.029 A 
ATOM     48  C   UNL     1      -0.021  14.656  11.584  0.00  0.00    +0.024 A 
ATOM     49  C   UNL     1      -0.482  15.797  12.254  0.00  0.00    +0.025 A 
ATOM     50  C   UNL     1      -1.665  15.706  12.994  0.00  0.00    +0.024 A 
ATOM     51  C   UNL     1      -2.413  14.526  13.006  0.00  0.00    +0.029 A 
BRANCH  49  52
ATOM     52  N   UNL     1       0.344  16.917  12.387  0.00  0.00    -0.358 N 
ATOM     53  H   UNL     1      -0.114  17.740  12.767  0.00  0.00    +0.142 HD
ATOM     54  H   UNL     1       1.237  16.729  12.831  0.00  0.00    +0.142 HD
ENDBRANCH  49  52
ENDBRANCH  43  46
ENDBRANCH  40  43
ENDBRANCH  35  37
ENDBRANCH  31  33
ENDBRANCH  30  31
ENDBRANCH   1  30
TORSDOF 17
