REMARK VINA RESULT:    -4.789      0.000      0.000
REMARK INTER + INTRA:         -11.883
REMARK INTER:                  -8.168
REMARK INTRA:                  -3.715
REMARK UNBOUND:                -2.754
REMARK  Name = lig_assembled_19.pdb
REMARK  20 active torsions:
REMARK  status: ('A' for Active; 'I' for Inactive)
REMARK    1  A    between atoms: _2  and  _9
REMARK    2  A    between atoms: _4  and  _18
REMARK    3  A    between atoms: _5  and  _11
REMARK    4  A    between atoms: _6  and  _7
REMARK    5  A    between atoms: _6  and  _18
REMARK    6  A    between atoms: _9  and  _10
REMARK    7  A    between atoms: _10  and  _13
REMARK    8  A    between atoms: _11  and  _13
REMARK    9  A    between atoms: _14  and  _34
REMARK   10  A    between atoms: _16  and  _22
REMARK   11  A    between atoms: _17  and  _21
REMARK   12  A    between atoms: _21  and  _22
REMARK   13  A    between atoms: _24  and  _25
REMARK   14  A    between atoms: _26  and  _27
REMARK   15  A    between atoms: _28  and  _30
REMARK   16  A    between atoms: _30  and  _31
REMARK   17  A    between atoms: _30  and  _32
REMARK   18  A    between atoms: _32  and  _33
REMARK   19  A    between atoms: _32  and  _34
REMARK   20  A    between atoms: _35  and  _37
REMARK                            x       y       z     vdW  Elec       q    Type
REMARK                         _______ _______ _______ _____ _____    ______ ____
ROOT
ATOM      1  C   UNL     1      -6.970   8.756  23.909  0.00  0.00    +0.163 C 
ENDROOT
BRANCH   1   2
ATOM      2  O   UNL     1      -6.370   8.843  25.212  0.00  0.00    -0.388 OA
ATOM      3  H   UNL     1      -5.498   9.238  25.137  0.00  0.00    +0.210 HD
ENDBRANCH   1   2
BRANCH   1   4
ATOM      4  C   UNL     1      -6.651  10.006  23.071  0.00  0.00    +0.175 C 
BRANCH   4   5
ATOM      5  C   UNL     1      -5.269  10.587  23.405  0.00  0.00    +0.176 C 
ATOM      6  O   UNL     1      -5.432  11.528  24.502  0.00  0.00    -0.332 OA
ATOM      7  C   UNL     1      -4.194  12.108  25.029  0.00  0.00    +0.277 C 
ATOM      8  C   UNL     1      -3.378  12.768  23.891  0.00  0.00    +0.110 C 
ATOM      9  C   UNL     1      -3.205  11.817  22.688  0.00  0.00    +0.143 C 
ATOM     10  C   UNL     1      -4.555  11.270  22.223  0.00  0.00    +0.133 C 
BRANCH  10  11
ATOM     11  N   UNL     1      -4.369  10.298  21.134  0.00  0.00    -0.308 N 
ATOM     12  H   UNL     1      -3.923   9.419  21.357  0.00  0.00    +0.149 HD
ATOM     13  C   UNL     1      -4.751  10.501  19.870  0.00  0.00    +0.210 C 
ATOM     14  C   UNL     1      -5.404  11.861  19.558  0.00  0.00    +0.109 C 
ATOM     15  O   UNL     1      -4.596   9.663  18.981  0.00  0.00    -0.276 OA
ENDBRANCH  10  11
BRANCH   7  16
ATOM     16  C   UNL     1      -3.335  11.028  25.720  0.00  0.00    +0.414 C 
ATOM     17  O   UNL     1      -3.852   9.984  26.116  0.00  0.00    -0.240 OA
ATOM     18  O   UNL     1      -2.126  11.201  25.881  0.00  0.00    -0.240 OA
ENDBRANCH   7  16
BRANCH   9  19
ATOM     19  O   UNL     1      -2.582  12.513  21.608  0.00  0.00    -0.390 OA
ATOM     20  H   UNL     1      -2.140  13.297  21.944  0.00  0.00    +0.210 HD
ENDBRANCH   9  19
BRANCH   7  21
ATOM     21  O   UNL     1      -4.552  13.135  25.990  0.00  0.00    -0.343 OA
ATOM     22  C   UNL     1      -5.915  13.620  25.887  0.00  0.00    +0.198 C 
ENDBRANCH   7  21
ENDBRANCH   4   5
BRANCH   4  23
ATOM     23  O   UNL     1      -7.670  11.007  23.264  0.00  0.00    -0.387 OA
ATOM     24  H   UNL     1      -7.289  11.880  23.143  0.00  0.00    +0.210 HD
ENDBRANCH   4  23
ENDBRANCH   1   4
BRANCH   1  25
ATOM     25  C   UNL     1      -6.465   7.513  23.184  0.00  0.00    +0.141 C 
BRANCH  25  28
ATOM     26  C   UNL     1      -4.053   7.021  23.403  0.00  0.00    +0.401 C 
ATOM     27  O   UNL     1      -3.743   7.609  22.364  0.00  0.00    -0.226 OA
ATOM     28  N   UNL     1      -5.303   6.921  23.858  0.00  0.00    -0.279 N 
ATOM     29  H   UNL     1      -5.459   6.409  24.715  0.00  0.00    +0.152 HD
BRANCH  26  30
ATOM     30  O   UNL     1      -3.028   6.396  24.180  0.00  0.00    -0.444 OA
BRANCH  30  31
ATOM     31  C   UNL     1      -3.585   5.914  25.405  0.00  0.00    +0.292 C 
BRANCH  31  33
ATOM     32  N   UNL     1      -1.789   7.207  26.520  0.00  0.00    -0.131 NA
ATOM     33  C   UNL     1      -3.054   6.679  26.548  0.00  0.00    +0.120 A 
ATOM     34  C   UNL     1      -3.645   6.992  27.751  0.00  0.00    +0.137 A 
ATOM     35  N   UNL     1      -2.686   7.699  28.411  0.00  0.00    -0.248 N 
ATOM     36  N   UNL     1      -1.575   7.833  27.670  0.00  0.00    -0.065 NA
BRANCH  35  37
ATOM     37  C   UNL     1      -2.765   8.284  29.732  0.00  0.00    +0.186 C 
BRANCH  37  38
ATOM     38  C   UNL     1      -2.829   9.807  29.675  0.00  0.00    +0.255 C 
BRANCH  38  39
ATOM     39  O   UNL     1      -4.138  10.310  30.006  0.00  0.00    -0.463 OA
BRANCH  39  40
ATOM     40  C   UNL     1      -4.538  11.419  29.329  0.00  0.00    +0.304 C 
ATOM     41  O   UNL     1      -3.881  12.445  29.218  0.00  0.00    -0.251 OA
ATOM     42  C   UNL     1      -5.884  11.209  28.706  0.00  0.00    +0.136 C 
ENDBRANCH  39  40
ENDBRANCH  38  39
ENDBRANCH  37  38
ENDBRANCH  35  37
ENDBRANCH  31  33
ENDBRANCH  30  31
ENDBRANCH  26  30
ENDBRANCH  25  28
ENDBRANCH   1  25
TORSDOF 17
