REMARK VINA RESULT:    -5.588      0.000      0.000
REMARK INTER + INTRA:         -13.206
REMARK INTER:                  -9.483
REMARK INTRA:                  -3.723
REMARK UNBOUND:                -2.554
REMARK  Name = lig_assembled_9.pdb
REMARK  20 active torsions:
REMARK  status: ('A' for Active; 'I' for Inactive)
REMARK    1  A    between atoms: _2  and  _9
REMARK    2  A    between atoms: _4  and  _23
REMARK    3  A    between atoms: _6  and  _7
REMARK    4  A    between atoms: _6  and  _23
REMARK    5  A    between atoms: _11  and  _12
REMARK    6  A    between atoms: _12  and  _17
REMARK    7  A    between atoms: _13  and  _14
REMARK    8  A    between atoms: _13  and  _17
REMARK    9  A    between atoms: _19  and  _39
REMARK   10  A    between atoms: _21  and  _27
REMARK   11  A    between atoms: _22  and  _26
REMARK   12  A    between atoms: _26  and  _27
REMARK   13  A    between atoms: _29  and  _30
REMARK   14  A    between atoms: _31  and  _32
REMARK   15  A    between atoms: _33  and  _35
REMARK   16  A    between atoms: _35  and  _36
REMARK   17  A    between atoms: _35  and  _37
REMARK   18  A    between atoms: _37  and  _38
REMARK   19  A    between atoms: _37  and  _39
REMARK   20  A    between atoms: _40  and  _42
REMARK                            x       y       z     vdW  Elec       q    Type
REMARK                         _______ _______ _______ _____ _____    ______ ____
ROOT
ATOM      1  C   UNL     1      -7.148   8.598  24.127  0.00  0.00    +0.163 C 
ENDROOT
BRANCH   1   2
ATOM      2  O   UNL     1      -6.612   8.792  25.446  0.00  0.00    -0.388 OA
ATOM      3  H   UNL     1      -7.319   9.040  26.046  0.00  0.00    +0.210 HD
ENDBRANCH   1   2
BRANCH   1   4
ATOM      4  C   UNL     1      -6.875   9.823  23.237  0.00  0.00    +0.175 C 
BRANCH   4   5
ATOM      5  C   UNL     1      -5.499  10.445  23.515  0.00  0.00    +0.176 C 
ATOM      6  O   UNL     1      -5.669  11.470  24.533  0.00  0.00    -0.332 OA
ATOM      7  C   UNL     1      -4.435  12.105  25.005  0.00  0.00    +0.277 C 
ATOM      8  C   UNL     1      -3.631  12.679  23.813  0.00  0.00    +0.110 C 
ATOM      9  C   UNL     1      -3.452  11.635  22.691  0.00  0.00    +0.143 C 
ATOM     10  C   UNL     1      -4.797  11.036  22.278  0.00  0.00    +0.133 C 
BRANCH  10  11
ATOM     11  N   UNL     1      -4.605   9.981  21.271  0.00  0.00    -0.308 N 
ATOM     12  H   UNL     1      -4.102   9.150  21.549  0.00  0.00    +0.149 HD
ATOM     13  C   UNL     1      -5.050  10.051  20.014  0.00  0.00    +0.210 C 
ATOM     14  C   UNL     1      -5.789  11.342  19.614  0.00  0.00    +0.109 C 
ATOM     15  O   UNL     1      -4.887   9.145  19.195  0.00  0.00    -0.276 OA
ENDBRANCH  10  11
BRANCH   7  16
ATOM     16  C   UNL     1      -3.561  11.094  25.777  0.00  0.00    +0.414 C 
ATOM     17  O   UNL     1      -4.085  10.207  26.450  0.00  0.00    -0.240 OA
ATOM     18  O   UNL     1      -2.332  11.166  25.727  0.00  0.00    -0.240 OA
ENDBRANCH   7  16
BRANCH   7  19
ATOM     19  O   UNL     1      -4.802  13.202  25.881  0.00  0.00    -0.343 OA
ATOM     20  C   UNL     1      -5.838  14.075  25.366  0.00  0.00    +0.198 C 
ENDBRANCH   7  19
BRANCH   9  21
ATOM     21  O   UNL     1      -2.842  12.248  21.555  0.00  0.00    -0.390 OA
ATOM     22  H   UNL     1      -2.973  11.694  20.782  0.00  0.00    +0.210 HD
ENDBRANCH   9  21
ENDBRANCH   4   5
BRANCH   4  23
ATOM     23  O   UNL     1      -7.911  10.808  23.418  0.00  0.00    -0.387 OA
ATOM     24  H   UNL     1      -7.725  11.574  22.868  0.00  0.00    +0.210 HD
ENDBRANCH   4  23
ENDBRANCH   1   4
BRANCH   1  25
ATOM     25  C   UNL     1      -6.529   7.358  23.490  0.00  0.00    +0.141 C 
BRANCH  25  28
ATOM     26  C   UNL     1      -4.075   7.076  23.507  0.00  0.00    +0.401 C 
ATOM     27  O   UNL     1      -3.929   7.452  22.342  0.00  0.00    -0.226 OA
ATOM     28  N   UNL     1      -5.255   6.995  24.122  0.00  0.00    -0.279 N 
ATOM     29  H   UNL     1      -5.273   6.666  25.078  0.00  0.00    +0.152 HD
BRANCH  26  30
ATOM     30  O   UNL     1      -2.922   6.695  24.263  0.00  0.00    -0.444 OA
BRANCH  30  31
ATOM     31  C   UNL     1      -3.335   6.052  25.472  0.00  0.00    +0.292 C 
BRANCH  31  33
ATOM     32  N   UNL     1      -1.825   7.665  26.589  0.00  0.00    -0.131 NA
ATOM     33  C   UNL     1      -2.917   6.848  26.641  0.00  0.00    +0.121 A 
ATOM     34  C   UNL     1      -3.484   6.933  27.891  0.00  0.00    +0.143 A 
ATOM     35  N   UNL     1      -2.716   7.857  28.566  0.00  0.00    -0.220 N 
ATOM     36  N   UNL     1      -1.705   8.268  27.764  0.00  0.00    -0.060 NA
BRANCH  35  37
ATOM     37  C   UNL     1      -2.900   8.376  29.873  0.00  0.00    +0.068 A 
ATOM     38  C   UNL     1      -2.716   9.741  30.130  0.00  0.00    +0.042 A 
ATOM     39  C   UNL     1      -2.867  10.245  31.431  0.00  0.00    +0.061 A 
ATOM     40  C   UNL     1      -3.208   9.377  32.475  0.00  0.00    +0.015 A 
ATOM     41  C   UNL     1      -3.404   8.018  32.220  0.00  0.00    +0.003 A 
ATOM     42  C   UNL     1      -3.253   7.517  30.926  0.00  0.00    +0.028 A 
BRANCH  39  43
ATOM     43  C   UNL     1      -2.740  11.694  31.734  0.00  0.00    +0.339 C 
ATOM     44  O   UNL     1      -1.735  12.204  32.201  0.00  0.00    -0.245 OA
BRANCH  43  45
ATOM     45  O   UNL     1      -3.924  12.315  31.507  0.00  0.00    -0.461 OA
BRANCH  45  46
ATOM     46  C   UNL     1      -3.909  13.323  30.487  0.00  0.00    +0.229 C 
ATOM     47  C   UNL     1      -4.690  12.797  29.297  0.00  0.00    +0.048 C 
ENDBRANCH  45  46
ENDBRANCH  43  45
ENDBRANCH  39  43
ENDBRANCH  35  37
ENDBRANCH  31  33
ENDBRANCH  30  31
ENDBRANCH  26  30
ENDBRANCH  25  28
ENDBRANCH   1  25
TORSDOF 17
