REMARK VINA RESULT:    -4.773      0.000      0.000
REMARK INTER + INTRA:         -12.709
REMARK INTER:                  -9.325
REMARK INTRA:                  -3.384
REMARK UNBOUND:                -3.890
REMARK  Name = lig_assembled_66.pdb
REMARK  18 active torsions:
REMARK  status: ('A' for Active; 'I' for Inactive)
REMARK    1  A    between atoms: _2  and  _10
REMARK    2  A    between atoms: _5  and  _21
REMARK    3  A    between atoms: _7  and  _8
REMARK    4  A    between atoms: _7  and  _21
REMARK    5  A    between atoms: _10  and  _11
REMARK    6  A    between atoms: _15  and  _16
REMARK    7  A    between atoms: _17  and  _37
REMARK    8  A    between atoms: _19  and  _25
REMARK    9  A    between atoms: _20  and  _24
REMARK   10  A    between atoms: _24  and  _25
REMARK   11  A    between atoms: _27  and  _28
REMARK   12  A    between atoms: _29  and  _30
REMARK   13  A    between atoms: _31  and  _33
REMARK   14  A    between atoms: _33  and  _34
REMARK   15  A    between atoms: _33  and  _35
REMARK   16  A    between atoms: _35  and  _36
REMARK   17  A    between atoms: _35  and  _37
REMARK   18  A    between atoms: _38  and  _40
REMARK                            x       y       z     vdW  Elec       q    Type
REMARK                         _______ _______ _______ _____ _____    ______ ____
ROOT
ATOM      1  C   UNL     1      -2.930  11.152  22.813  0.00  0.00    +0.163 C 
ENDROOT
BRANCH   1   2
ATOM      2  O   UNL     1      -2.470  11.924  23.935  0.00  0.00    -0.388 OA
ATOM      3  H   UNL     1      -1.789  12.536  23.645  0.00  0.00    +0.210 HD
ENDBRANCH   1   2
BRANCH   1   4
ATOM      4  C   UNL     1      -3.928  10.071  23.262  0.00  0.00    +0.175 C 
BRANCH   4   5
ATOM      5  C   UNL     1      -3.896   9.849  24.781  0.00  0.00    +0.176 C 
ATOM      6  O   UNL     1      -2.991   8.744  25.053  0.00  0.00    -0.332 OA
ATOM      7  C   UNL     1      -2.751   8.455  26.470  0.00  0.00    +0.277 C 
ATOM      8  C   UNL     1      -4.092   8.227  27.210  0.00  0.00    +0.110 C 
ATOM      9  C   UNL     1      -5.098   9.362  26.926  0.00  0.00    +0.143 C 
ATOM     10  C   UNL     1      -5.270   9.580  25.423  0.00  0.00    +0.133 C 
BRANCH  10  11
ATOM     11  N   UNL     1      -6.164  10.719  25.166  0.00  0.00    -0.308 N 
ATOM     12  H   UNL     1      -5.911  11.615  25.559  0.00  0.00    +0.149 HD
ATOM     13  C   UNL     1      -7.288  10.647  24.447  0.00  0.00    +0.210 C 
ATOM     14  C   UNL     1      -7.659   9.263  23.884  0.00  0.00    +0.109 C 
ATOM     15  O   UNL     1      -8.010  11.622  24.236  0.00  0.00    -0.276 OA
ENDBRANCH  10  11
BRANCH   7  16
ATOM     16  C   UNL     1      -1.981   9.610  27.142  0.00  0.00    +0.414 C 
ATOM     17  O   UNL     1      -1.121  10.230  26.515  0.00  0.00    -0.240 OA
ATOM     18  O   UNL     1      -2.218   9.924  28.309  0.00  0.00    -0.240 OA
ENDBRANCH   7  16
BRANCH   7  19
ATOM     19  O   UNL     1      -1.970   7.234  26.553  0.00  0.00    -0.343 OA
ATOM     20  C   UNL     1      -2.554   6.087  25.885  0.00  0.00    +0.198 C 
ENDBRANCH   7  19
BRANCH   9  21
ATOM     21  O   UNL     1      -6.365   9.037  27.502  0.00  0.00    -0.390 OA
ATOM     22  H   UNL     1      -6.506   9.572  28.287  0.00  0.00    +0.210 HD
ENDBRANCH   9  21
ENDBRANCH   4   5
BRANCH   4  23
ATOM     23  O   UNL     1      -3.662   8.832  22.574  0.00  0.00    -0.387 OA
ATOM     24  H   UNL     1      -3.539   9.006  21.638  0.00  0.00    +0.210 HD
ENDBRANCH   4  23
ENDBRANCH   1   4
BRANCH   1  25
ATOM     25  C   UNL     1      -3.595  12.065  21.789  0.00  0.00    +0.141 C 
BRANCH  25  28
ATOM     26  C   UNL     1      -5.141  13.876  22.449  0.00  0.00    +0.401 C 
ATOM     27  O   UNL     1      -4.325  14.776  22.243  0.00  0.00    -0.226 OA
ATOM     28  N   UNL     1      -4.883  12.580  22.269  0.00  0.00    -0.279 N 
ATOM     29  H   UNL     1      -5.615  11.915  22.474  0.00  0.00    +0.152 HD
BRANCH  26  30
ATOM     30  O   UNL     1      -6.450  14.218  22.914  0.00  0.00    -0.444 OA
BRANCH  30  31
ATOM     31  C   UNL     1      -6.343  15.069  24.058  0.00  0.00    +0.292 C 
BRANCH  31  33
ATOM     32  N   UNL     1      -5.023  13.468  25.413  0.00  0.00    -0.131 NA
ATOM     33  C   UNL     1      -6.129  14.265  25.278  0.00  0.00    +0.120 A 
ATOM     34  C   UNL     1      -6.881  14.188  26.428  0.00  0.00    +0.137 A 
ATOM     35  N   UNL     1      -6.152  13.374  27.246  0.00  0.00    -0.247 N 
ATOM     36  N   UNL     1      -5.045  12.927  26.624  0.00  0.00    -0.065 NA
BRANCH  35  37
ATOM     37  C   UNL     1      -6.311  13.193  28.677  0.00  0.00    +0.180 C 
BRANCH  37  38
ATOM     38  C   UNL     1      -5.435  14.106  29.496  0.00  0.00    -0.025 A 
ATOM     39  C   UNL     1      -5.740  15.471  29.605  0.00  0.00    +0.005 A 
ATOM     40  C   UNL     1      -4.982  16.307  30.428  0.00  0.00    +0.002 A 
ATOM     41  C   UNL     1      -3.898  15.793  31.139  0.00  0.00    +0.019 A 
ATOM     42  C   UNL     1      -3.559  14.443  31.014  0.00  0.00    +0.052 A 
ATOM     43  C   UNL     1      -4.327  13.602  30.197  0.00  0.00    +0.024 A 
BRANCH  42  44
ATOM     44  C   UNL     1      -2.434  13.915  31.731  0.00  0.00    +0.099 C 
ATOM     45  N   UNL     1      -1.529  13.487  32.318  0.00  0.00    -0.191 NA
ENDBRANCH  42  44
ENDBRANCH  37  38
ENDBRANCH  35  37
ENDBRANCH  31  33
ENDBRANCH  30  31
ENDBRANCH  26  30
ENDBRANCH  25  28
ENDBRANCH   1  25
TORSDOF 16
