REMARK VINA RESULT:    -3.946      0.000      0.000
REMARK INTER + INTRA:         -12.232
REMARK INTER:                  -8.213
REMARK INTRA:                  -4.019
REMARK UNBOUND:                -4.711
REMARK  Name = lig_assembled_62.pdb
REMARK  20 active torsions:
REMARK  status: ('A' for Active; 'I' for Inactive)
REMARK    1  A    between atoms: _2  and  _10
REMARK    2  A    between atoms: _5  and  _19
REMARK    3  A    between atoms: _6  and  _10
REMARK    4  A    between atoms: _7  and  _8
REMARK    5  A    between atoms: _7  and  _19
REMARK    6  A    between atoms: _10  and  _11
REMARK    7  A    between atoms: _11  and  _14
REMARK    8  A    between atoms: _12  and  _14
REMARK    9  A    between atoms: _15  and  _35
REMARK   10  A    between atoms: _17  and  _23
REMARK   11  A    between atoms: _18  and  _22
REMARK   12  A    between atoms: _22  and  _23
REMARK   13  A    between atoms: _25  and  _26
REMARK   14  A    between atoms: _27  and  _28
REMARK   15  A    between atoms: _29  and  _31
REMARK   16  A    between atoms: _31  and  _32
REMARK   17  A    between atoms: _31  and  _33
REMARK   18  A    between atoms: _33  and  _34
REMARK   19  A    between atoms: _33  and  _35
REMARK   20  A    between atoms: _36  and  _38
REMARK                            x       y       z     vdW  Elec       q    Type
REMARK                         _______ _______ _______ _____ _____    ______ ____
ROOT
ATOM      1  C   UNL     1      -5.720   8.254  25.316  0.00  0.00    +0.163 C 
ENDROOT
BRANCH   1   2
ATOM      2  O   UNL     1      -5.896   8.890  26.593  0.00  0.00    -0.388 OA
ATOM      3  H   UNL     1      -6.167   9.802  26.463  0.00  0.00    +0.210 HD
ENDBRANCH   1   2
BRANCH   1   4
ATOM      4  C   UNL     1      -5.923   9.259  24.169  0.00  0.00    +0.175 C 
BRANCH   4   5
ATOM      5  C   UNL     1      -4.913  10.415  24.227  0.00  0.00    +0.176 C 
ATOM      6  O   UNL     1      -5.270  11.264  25.353  0.00  0.00    -0.332 OA
ATOM      7  C   UNL     1      -4.348  12.369  25.630  0.00  0.00    +0.277 C 
ATOM      8  C   UNL     1      -4.146  13.236  24.363  0.00  0.00    +0.110 C 
ATOM      9  C   UNL     1      -3.796  12.374  23.132  0.00  0.00    +0.143 C 
ATOM     10  C   UNL     1      -4.819  11.253  22.939  0.00  0.00    +0.133 C 
BRANCH  10  11
ATOM     11  N   UNL     1      -4.427  10.387  21.816  0.00  0.00    -0.308 N 
ATOM     12  H   UNL     1      -3.548   9.894  21.885  0.00  0.00    +0.149 HD
ATOM     13  C   UNL     1      -5.159  10.208  20.713  0.00  0.00    +0.210 C 
ATOM     14  C   UNL     1      -6.481  10.993  20.628  0.00  0.00    +0.109 C 
ATOM     15  O   UNL     1      -4.813   9.464  19.794  0.00  0.00    -0.276 OA
ENDBRANCH  10  11
BRANCH   7  16
ATOM     16  C   UNL     1      -2.983  11.835  26.112  0.00  0.00    +0.414 C 
ATOM     17  O   UNL     1      -2.924  11.034  27.044  0.00  0.00    -0.240 OA
ATOM     18  O   UNL     1      -1.941  12.204  25.568  0.00  0.00    -0.240 OA
ENDBRANCH   7  16
BRANCH   7  19
ATOM     19  O   UNL     1      -4.939  13.199  26.663  0.00  0.00    -0.343 OA
ATOM     20  C   UNL     1      -6.252  12.777  27.110  0.00  0.00    +0.198 C 
ENDBRANCH   7  19
BRANCH   9  21
ATOM     21  O   UNL     1      -3.769  13.192  21.962  0.00  0.00    -0.390 OA
ATOM     22  H   UNL     1      -4.302  13.978  22.108  0.00  0.00    +0.210 HD
ENDBRANCH   9  21
ENDBRANCH   4   5
BRANCH   4  23
ATOM     23  O   UNL     1      -7.270   9.774  24.193  0.00  0.00    -0.387 OA
ATOM     24  H   UNL     1      -7.385  10.333  24.965  0.00  0.00    +0.210 HD
ENDBRANCH   4  23
ENDBRANCH   1   4
BRANCH   1  25
ATOM     25  C   UNL     1      -4.324   7.649  25.222  0.00  0.00    +0.141 C 
BRANCH  25  28
ATOM     26  C   UNL     1      -2.313   7.406  26.638  0.00  0.00    +0.401 C 
ATOM     27  O   UNL     1      -1.716   6.690  25.831  0.00  0.00    -0.226 OA
ATOM     28  N   UNL     1      -3.538   7.894  26.438  0.00  0.00    -0.279 N 
ATOM     29  H   UNL     1      -3.948   8.464  27.164  0.00  0.00    +0.152 HD
BRANCH  26  30
ATOM     30  O   UNL     1      -1.674   7.743  27.872  0.00  0.00    -0.444 OA
BRANCH  30  31
ATOM     31  C   UNL     1      -2.521   7.375  28.964  0.00  0.00    +0.292 C 
BRANCH  31  33
ATOM     32  N   UNL     1      -4.408   8.971  29.111  0.00  0.00    -0.131 NA
ATOM     33  C   UNL     1      -3.170   8.569  29.536  0.00  0.00    +0.120 A 
ATOM     34  C   UNL     1      -2.726   9.437  30.509  0.00  0.00    +0.138 A 
ATOM     35  N   UNL     1      -3.730  10.354  30.622  0.00  0.00    -0.237 N 
ATOM     36  N   UNL     1      -4.744  10.064  29.783  0.00  0.00    -0.065 NA
BRANCH  35  37
ATOM     37  C   UNL     1      -3.839  11.504  31.504  0.00  0.00    +0.219 C 
BRANCH  37  38
ATOM     38  C   UNL     1      -4.261  12.735  30.718  0.00  0.00    +0.237 C 
ATOM     39  O   UNL     1      -5.075  13.565  31.115  0.00  0.00    -0.274 OA
ATOM     40  N   UNL     1      -3.627  12.929  29.520  0.00  0.00    -0.328 N 
ATOM     41  H   UNL     1      -2.883  12.336  29.175  0.00  0.00    +0.145 HD
ATOM     42  H   UNL     1      -3.882  13.747  28.979  0.00  0.00    +0.145 HD
ENDBRANCH  37  38
BRANCH  37  43
ATOM     43  C   UNL     1      -2.523  11.748  32.238  0.00  0.00    +0.195 C 
BRANCH  43  44
ATOM     44  O   UNL     1      -2.112  13.108  32.036  0.00  0.00    -0.380 OA
ATOM     45  C   UNL     1      -1.774  13.744  33.262  0.00  0.00    +0.194 C 
ENDBRANCH  43  44
ENDBRANCH  37  43
ENDBRANCH  35  37
ENDBRANCH  31  33
ENDBRANCH  30  31
ENDBRANCH  26  30
ENDBRANCH  25  28
ENDBRANCH   1  25
TORSDOF 17
