REMARK VINA RESULT:    -4.808      0.000      0.000
REMARK INTER + INTRA:         -12.249
REMARK INTER:                  -8.265
REMARK INTRA:                  -3.984
REMARK UNBOUND:                -3.505
REMARK  Name = lig_assembled_22.pdb
REMARK  20 active torsions:
REMARK  status: ('A' for Active; 'I' for Inactive)
REMARK    1  A    between atoms: _2  and  _9
REMARK    2  A    between atoms: _4  and  _18
REMARK    3  A    between atoms: _5  and  _9
REMARK    4  A    between atoms: _5  and  _12
REMARK    5  A    between atoms: _6  and  _7
REMARK    6  A    between atoms: _6  and  _18
REMARK    7  A    between atoms: _9  and  _10
REMARK    8  A    between atoms: _9  and  _11
REMARK    9  A    between atoms: _14  and  _34
REMARK   10  A    between atoms: _16  and  _22
REMARK   11  A    between atoms: _17  and  _21
REMARK   12  A    between atoms: _21  and  _22
REMARK   13  A    between atoms: _24  and  _25
REMARK   14  A    between atoms: _26  and  _27
REMARK   15  A    between atoms: _28  and  _30
REMARK   16  A    between atoms: _30  and  _31
REMARK   17  A    between atoms: _30  and  _32
REMARK   18  A    between atoms: _32  and  _33
REMARK   19  A    between atoms: _32  and  _34
REMARK   20  A    between atoms: _35  and  _37
REMARK                            x       y       z     vdW  Elec       q    Type
REMARK                         _______ _______ _______ _____ _____    ______ ____
ROOT
ATOM      1  C   UNL     1      -3.291  11.796  25.011  0.00  0.00    +0.163 C 
ENDROOT
BRANCH   1   2
ATOM      2  O   UNL     1      -2.178  10.894  24.900  0.00  0.00    -0.388 OA
ATOM      3  H   UNL     1      -1.370  11.349  25.151  0.00  0.00    +0.210 HD
ENDBRANCH   1   2
BRANCH   1   4
ATOM      4  C   UNL     1      -2.979  13.101  24.287  0.00  0.00    +0.141 C 
BRANCH   4   7
ATOM      5  C   UNL     1      -4.960  13.655  22.918  0.00  0.00    +0.401 C 
ATOM      6  O   UNL     1      -5.643  14.011  23.881  0.00  0.00    -0.226 OA
ATOM      7  N   UNL     1      -3.707  13.210  23.016  0.00  0.00    -0.279 N 
ATOM      8  H   UNL     1      -3.231  12.933  22.169  0.00  0.00    +0.152 HD
BRANCH   5   9
ATOM      9  O   UNL     1      -5.527  13.711  21.606  0.00  0.00    -0.444 OA
BRANCH   9  10
ATOM     10  C   UNL     1      -6.554  12.724  21.488  0.00  0.00    +0.292 C 
BRANCH  10  12
ATOM     11  N   UNL     1      -4.841  11.042  20.910  0.00  0.00    -0.131 NA
ATOM     12  C   UNL     1      -5.977  11.370  21.594  0.00  0.00    +0.120 A 
ATOM     13  C   UNL     1      -6.401  10.274  22.314  0.00  0.00    +0.138 A 
ATOM     14  N   UNL     1      -5.479   9.307  22.026  0.00  0.00    -0.235 N 
ATOM     15  N   UNL     1      -4.547   9.780  21.177  0.00  0.00    -0.064 NA
BRANCH  14  16
ATOM     16  C   UNL     1      -5.415   7.918  22.487  0.00  0.00    +0.155 C 
ATOM     17  C   UNL     1      -5.658   6.913  21.340  0.00  0.00    +0.048 C 
ATOM     18  C   UNL     1      -6.498   7.703  23.560  0.00  0.00    +0.048 C 
BRANCH  16  19
ATOM     19  C   UNL     1      -4.036   7.617  23.080  0.00  0.00    +0.332 C 
ATOM     20  O   UNL     1      -3.319   6.691  22.718  0.00  0.00    -0.248 OA
BRANCH  19  21
ATOM     21  O   UNL     1      -3.631   8.458  24.061  0.00  0.00    -0.479 OA
ATOM     22  H   UNL     1      -3.843   8.192  24.977  0.00  0.00    +0.295 HD
ENDBRANCH  19  21
ENDBRANCH  16  19
ENDBRANCH  14  16
ENDBRANCH  10  12
ENDBRANCH   9  10
ENDBRANCH   5   9
ENDBRANCH   4   7
ENDBRANCH   1   4
BRANCH   1  23
ATOM     23  C   UNL     1      -3.615  12.091  26.485  0.00  0.00    +0.175 C 
BRANCH  23  24
ATOM     24  C   UNL     1      -3.364  10.873  27.387  0.00  0.00    +0.176 C 
ATOM     25  O   UNL     1      -3.988   9.718  26.762  0.00  0.00    -0.332 OA
ATOM     26  C   UNL     1      -3.761   8.434  27.433  0.00  0.00    +0.277 C 
ATOM     27  C   UNL     1      -4.185   8.518  28.920  0.00  0.00    +0.110 C 
ATOM     28  C   UNL     1      -3.571   9.750  29.619  0.00  0.00    +0.143 C 
ATOM     29  C   UNL     1      -3.866  11.029  28.835  0.00  0.00    +0.133 C 
BRANCH  29  30
ATOM     30  N   UNL     1      -3.202  12.183  29.463  0.00  0.00    -0.308 N 
ATOM     31  H   UNL     1      -2.192  12.197  29.476  0.00  0.00    +0.149 HD
ATOM     32  C   UNL     1      -3.848  13.212  30.018  0.00  0.00    +0.210 C 
ATOM     33  C   UNL     1      -5.387  13.148  30.005  0.00  0.00    +0.109 C 
ATOM     34  O   UNL     1      -3.266  14.172  30.524  0.00  0.00    -0.276 OA
ENDBRANCH  29  30
BRANCH  26  35
ATOM     35  C   UNL     1      -2.276   8.025  27.343  0.00  0.00    +0.414 C 
ATOM     36  O   UNL     1      -1.656   8.171  26.290  0.00  0.00    -0.240 OA
ATOM     37  O   UNL     1      -1.699   7.551  28.322  0.00  0.00    -0.240 OA
ENDBRANCH  26  35
BRANCH  26  38
ATOM     38  O   UNL     1      -4.583   7.434  26.779  0.00  0.00    -0.343 OA
ATOM     39  C   UNL     1      -4.859   6.253  27.573  0.00  0.00    +0.198 C 
ENDBRANCH  26  38
BRANCH  28  40
ATOM     40  O   UNL     1      -4.106   9.872  30.937  0.00  0.00    -0.390 OA
ATOM     41  H   UNL     1      -5.033   9.623  30.931  0.00  0.00    +0.210 HD
ENDBRANCH  28  40
ENDBRANCH  23  24
BRANCH  23  42
ATOM     42  O   UNL     1      -4.981  12.531  26.615  0.00  0.00    -0.387 OA
ATOM     43  H   UNL     1      -4.999  13.478  26.774  0.00  0.00    +0.210 HD
ENDBRANCH  23  42
ENDBRANCH   1  23
TORSDOF 16
