REMARK VINA RESULT:    -4.918      0.000      0.000
REMARK INTER + INTRA:         -11.684
REMARK INTER:                  -8.833
REMARK INTRA:                  -2.851
REMARK UNBOUND:                -2.598
REMARK  Name = lig_assembled_67.pdb
REMARK  18 active torsions:
REMARK  status: ('A' for Active; 'I' for Inactive)
REMARK    1  A    between atoms: _2  and  _9
REMARK    2  A    between atoms: _4  and  _19
REMARK    3  A    between atoms: _6  and  _7
REMARK    4  A    between atoms: _6  and  _19
REMARK    5  A    between atoms: _9  and  _10
REMARK    6  A    between atoms: _10  and  _11
REMARK    7  A    between atoms: _15  and  _35
REMARK    8  A    between atoms: _17  and  _23
REMARK    9  A    between atoms: _18  and  _22
REMARK   10  A    between atoms: _22  and  _23
REMARK   11  A    between atoms: _25  and  _26
REMARK   12  A    between atoms: _27  and  _28
REMARK   13  A    between atoms: _29  and  _31
REMARK   14  A    between atoms: _31  and  _32
REMARK   15  A    between atoms: _31  and  _33
REMARK   16  A    between atoms: _33  and  _34
REMARK   17  A    between atoms: _33  and  _35
REMARK   18  A    between atoms: _36  and  _38
REMARK                            x       y       z     vdW  Elec       q    Type
REMARK                         _______ _______ _______ _____ _____    ______ ____
ROOT
ATOM      1  C   UNL     1      -5.367   7.332  25.102  0.00  0.00    +0.163 C 
ENDROOT
BRANCH   1   2
ATOM      2  O   UNL     1      -5.781   7.524  26.465  0.00  0.00    -0.388 OA
ATOM      3  H   UNL     1      -6.728   7.386  26.535  0.00  0.00    +0.210 HD
ENDBRANCH   1   2
BRANCH   1   4
ATOM      4  C   UNL     1      -5.367   8.665  24.334  0.00  0.00    +0.175 C 
BRANCH   4   5
ATOM      5  C   UNL     1      -4.180   9.558  24.727  0.00  0.00    +0.176 C 
ATOM      6  O   UNL     1      -4.412  10.040  26.079  0.00  0.00    -0.332 OA
ATOM      7  C   UNL     1      -3.325  10.829  26.665  0.00  0.00    +0.277 C 
ATOM      8  C   UNL     1      -2.958  12.016  25.741  0.00  0.00    +0.110 C 
ATOM      9  C   UNL     1      -2.733  11.557  24.285  0.00  0.00    +0.143 C 
ATOM     10  C   UNL     1      -3.923  10.742  23.777  0.00  0.00    +0.133 C 
BRANCH  10  11
ATOM     11  N   UNL     1      -3.660  10.237  22.421  0.00  0.00    -0.308 N 
ATOM     12  H   UNL     1      -2.906   9.574  22.302  0.00  0.00    +0.149 HD
ATOM     13  C   UNL     1      -4.352  10.596  21.336  0.00  0.00    +0.210 C 
ATOM     14  C   UNL     1      -5.477  11.627  21.546  0.00  0.00    +0.109 C 
ATOM     15  O   UNL     1      -4.118  10.145  20.214  0.00  0.00    -0.276 OA
ENDBRANCH  10  11
BRANCH   7  16
ATOM     16  C   UNL     1      -2.077   9.952  26.898  0.00  0.00    +0.414 C 
ATOM     17  O   UNL     1      -2.055   9.135  27.818  0.00  0.00    -0.240 OA
ATOM     18  O   UNL     1      -1.092  10.062  26.166  0.00  0.00    -0.240 OA
ENDBRANCH   7  16
BRANCH   9  19
ATOM     19  O   UNL     1      -2.548  12.695  23.444  0.00  0.00    -0.390 OA
ATOM     20  H   UNL     1      -2.554  12.419  22.524  0.00  0.00    +0.210 HD
ENDBRANCH   9  19
BRANCH   7  21
ATOM     21  O   UNL     1      -3.790  11.362  27.932  0.00  0.00    -0.343 OA
ATOM     22  C   UNL     1      -5.210  11.649  27.991  0.00  0.00    +0.198 C 
ENDBRANCH   7  21
ENDBRANCH   4   5
BRANCH   4  23
ATOM     23  O   UNL     1      -6.608   9.364  24.552  0.00  0.00    -0.387 OA
ATOM     24  H   UNL     1      -6.593   9.782  25.417  0.00  0.00    +0.210 HD
ENDBRANCH   4  23
ENDBRANCH   1   4
BRANCH   1  25
ATOM     25  C   UNL     1      -3.971   6.720  25.062  0.00  0.00    +0.141 C 
BRANCH  25  28
ATOM     26  C   UNL     1      -2.208   6.143  26.694  0.00  0.00    +0.401 C 
ATOM     27  O   UNL     1      -1.293   6.202  25.870  0.00  0.00    -0.226 OA
ATOM     28  N   UNL     1      -3.490   6.364  26.403  0.00  0.00    -0.279 N 
ATOM     29  H   UNL     1      -4.170   6.282  27.146  0.00  0.00    +0.152 HD
BRANCH  26  30
ATOM     30  O   UNL     1      -1.899   5.814  28.051  0.00  0.00    -0.444 OA
BRANCH  30  31
ATOM     31  C   UNL     1      -3.111   5.574  28.773  0.00  0.00    +0.292 C 
BRANCH  31  33
ATOM     32  N   UNL     1      -4.534   7.528  29.304  0.00  0.00    -0.131 NA
ATOM     33  C   UNL     1      -3.453   6.741  29.607  0.00  0.00    +0.120 A 
ATOM     34  C   UNL     1      -2.839   7.238  30.735  0.00  0.00    +0.137 A 
ATOM     35  N   UNL     1      -3.589   8.325  31.066  0.00  0.00    -0.251 N 
ATOM     36  N   UNL     1      -4.605   8.499  30.205  0.00  0.00    -0.065 NA
BRANCH  35  37
ATOM     37  C   UNL     1      -3.413   9.228  32.181  0.00  0.00    +0.150 C 
BRANCH  37  38
ATOM     38  C   UNL     1      -4.125  10.567  32.002  0.00  0.00    +0.084 C 
BRANCH  38  39
ATOM     39  C   UNL     1      -3.218  11.633  31.404  0.00  0.00    +0.252 C 
ATOM     40  O   UNL     1      -3.956  12.840  31.179  0.00  0.00    -0.349 OA
ATOM     41  C   UNL     1      -2.964  13.856  31.313  0.00  0.00    +0.191 C 
ATOM     42  C   UNL     1      -2.074  13.330  32.409  0.00  0.00    +0.191 C 
ATOM     43  O   UNL     1      -2.123  11.908  32.283  0.00  0.00    -0.349 OA
ENDBRANCH  38  39
ENDBRANCH  37  38
ENDBRANCH  35  37
ENDBRANCH  31  33
ENDBRANCH  30  31
ENDBRANCH  26  30
ENDBRANCH  25  28
ENDBRANCH   1  25
TORSDOF 16
