REMARK VINA RESULT:    -6.298      0.000      0.000
REMARK INTER + INTRA:         -15.217
REMARK INTER:                 -11.401
REMARK INTRA:                  -3.817
REMARK UNBOUND:                -3.396
REMARK  Name = lig_assembled_34.pdb
REMARK  19 active torsions:
REMARK  status: ('A' for Active; 'I' for Inactive)
REMARK    1  A    between atoms: _2  and  _9
REMARK    2  A    between atoms: _4  and  _37
REMARK    3  A    between atoms: _6  and  _7
REMARK    4  A    between atoms: _6  and  _37
REMARK    5  A    between atoms: _11  and  _12
REMARK    6  A    between atoms: _13  and  _14
REMARK    7  A    between atoms: _18  and  _31
REMARK    8  A    between atoms: _33  and  _53
REMARK    9  A    between atoms: _35  and  _41
REMARK   10  A    between atoms: _36  and  _40
REMARK   11  A    between atoms: _40  and  _41
REMARK   12  A    between atoms: _43  and  _44
REMARK   13  A    between atoms: _45  and  _46
REMARK   14  A    between atoms: _47  and  _49
REMARK   15  A    between atoms: _49  and  _50
REMARK   16  A    between atoms: _49  and  _51
REMARK   17  A    between atoms: _51  and  _52
REMARK   18  A    between atoms: _51  and  _53
REMARK   19  A    between atoms: _54  and  _56
REMARK                            x       y       z     vdW  Elec       q    Type
REMARK                         _______ _______ _______ _____ _____    ______ ____
ROOT
ATOM      1  N   UNL     1      -8.676  12.370  21.801  0.00  0.00    -0.131 NA
ATOM      2  C   UNL     1      -7.545  12.189  22.544  0.00  0.00    +0.121 A 
ATOM      3  C   UNL     1      -6.499  11.907  21.701  0.00  0.00    +0.143 A 
ATOM      4  N   UNL     1      -7.028  11.952  20.429  0.00  0.00    -0.220 N 
ATOM      5  N   UNL     1      -8.361  12.210  20.518  0.00  0.00    -0.060 NA
ENDROOT
BRANCH   4   6
ATOM      6  C   UNL     1      -6.344  11.813  19.191  0.00  0.00    +0.068 A 
ATOM      7  C   UNL     1      -7.058  11.454  18.043  0.00  0.00    +0.038 A 
ATOM      8  C   UNL     1      -6.426  11.173  16.807  0.00  0.00    +0.007 A 
ATOM      9  C   UNL     1      -5.029  11.334  16.714  0.00  0.00    -0.008 A 
ATOM     10  C   UNL     1      -4.319  11.746  17.868  0.00  0.00    +0.011 A 
ATOM     11  C   UNL     1      -4.961  11.967  19.099  0.00  0.00    +0.028 A 
BRANCH   9  12
ATOM     12  C   UNL     1      -4.214  11.023  15.494  0.00  0.00    +0.004 A 
ATOM     13  C   UNL     1      -3.947  11.957  14.537  0.00  0.00    +0.026 A 
ATOM     14  C   UNL     1      -4.484  13.323  14.590  0.00  0.00    +0.016 A 
ATOM     15  C   UNL     1      -4.366  14.163  13.551  0.00  0.00    +0.051 A 
ATOM     16  C   UNL     1      -3.653  13.747  12.320  0.00  0.00    +0.183 A 
ATOM     17  O   UNL     1      -3.594  14.483  11.338  0.00  0.00    -0.288 OA
ATOM     18  C   UNL     1      -2.953  12.448  12.345  0.00  0.00    +0.097 A 
ATOM     19  C   UNL     1      -3.067  11.631  13.399  0.00  0.00    +0.140 A 
ATOM     20  O   UNL     1      -2.281  10.489  13.435  0.00  0.00    -0.455 OA
ATOM     21  C   UNL     1      -2.566   9.527  14.367  0.00  0.00    +0.140 A 
ATOM     22  C   UNL     1      -1.807   8.358  14.301  0.00  0.00    +0.092 A 
ATOM     23  C   UNL     1      -2.081   7.320  15.178  0.00  0.00    +0.120 A 
ATOM     24  C   UNL     1      -3.152   7.406  16.061  0.00  0.00    +0.046 A 
ATOM     25  C   UNL     1      -3.895   8.588  16.124  0.00  0.00    +0.016 A 
ATOM     26  C   UNL     1      -3.570   9.690  15.319  0.00  0.00    +0.026 A 
BRANCH  23  27
ATOM     27  O   UNL     1      -1.269   6.225  15.156  0.00  0.00    -0.507 OA
ATOM     28  H   UNL     1      -1.775   5.492  14.766  0.00  0.00    +0.292 HD
ENDBRANCH  23  27
ENDBRANCH   9  12
BRANCH   8  29
ATOM     29  C   UNL     1      -7.314  10.641  15.699  0.00  0.00    +0.072 C 
ATOM     30  O   UNL     1      -7.478   9.378  15.672  0.00  0.00    -0.545 OA
ATOM     31  O   UNL     1      -7.764  11.459  14.845  0.00  0.00    -0.545 OA
ENDBRANCH   8  29
ENDBRANCH   4   6
BRANCH   2  32
ATOM     32  C   UNL     1      -7.538  12.300  24.016  0.00  0.00    +0.292 C 
BRANCH  32  33
ATOM     33  O   UNL     1      -8.399  11.320  24.602  0.00  0.00    -0.444 OA
BRANCH  33  34
ATOM     34  C   UNL     1      -8.324  11.410  26.027  0.00  0.00    +0.401 C 
ATOM     35  O   UNL     1      -8.680  10.445  26.708  0.00  0.00    -0.226 OA
ATOM     36  N   UNL     1      -7.863  12.552  26.538  0.00  0.00    -0.279 N 
ATOM     37  H   UNL     1      -7.586  13.284  25.898  0.00  0.00    +0.152 HD
BRANCH  36  38
ATOM     38  C   UNL     1      -7.733  12.807  27.978  0.00  0.00    +0.141 C 
BRANCH  38  39
ATOM     39  C   UNL     1      -6.297  13.143  28.369  0.00  0.00    +0.163 C 
BRANCH  39  40
ATOM     40  O   UNL     1      -6.291  14.076  29.462  0.00  0.00    -0.388 OA
ATOM     41  H   UNL     1      -6.059  14.949  29.137  0.00  0.00    +0.210 HD
ENDBRANCH  39  40
BRANCH  39  42
ATOM     42  C   UNL     1      -5.552  11.851  28.744  0.00  0.00    +0.175 C 
BRANCH  42  43
ATOM     43  C   UNL     1      -4.365  11.576  27.809  0.00  0.00    +0.176 C 
ATOM     44  O   UNL     1      -4.897  11.201  26.509  0.00  0.00    -0.332 OA
ATOM     45  C   UNL     1      -3.903  11.002  25.450  0.00  0.00    +0.277 C 
ATOM     46  C   UNL     1      -2.836   9.972  25.896  0.00  0.00    +0.110 C 
ATOM     47  C   UNL     1      -2.263  10.312  27.288  0.00  0.00    +0.143 C 
ATOM     48  C   UNL     1      -3.384  10.500  28.311  0.00  0.00    +0.133 C 
BRANCH  48  49
ATOM     49  N   UNL     1      -2.830  10.909  29.612  0.00  0.00    -0.308 N 
ATOM     50  H   UNL     1      -2.388  11.815  29.673  0.00  0.00    +0.149 HD
ATOM     51  C   UNL     1      -2.874  10.160  30.717  0.00  0.00    +0.210 C 
ATOM     52  C   UNL     1      -3.531   8.773  30.585  0.00  0.00    +0.109 C 
ATOM     53  O   UNL     1      -2.415  10.534  31.797  0.00  0.00    -0.276 OA
ENDBRANCH  48  49
BRANCH  45  54
ATOM     54  C   UNL     1      -3.214  12.334  25.089  0.00  0.00    +0.414 C 
ATOM     55  O   UNL     1      -3.888  13.327  24.816  0.00  0.00    -0.240 OA
ATOM     56  O   UNL     1      -1.985  12.417  25.072  0.00  0.00    -0.240 OA
ENDBRANCH  45  54
BRANCH  47  57
ATOM     57  O   UNL     1      -1.400   9.261  27.724  0.00  0.00    -0.390 OA
ATOM     58  H   UNL     1      -1.517   9.119  28.666  0.00  0.00    +0.210 HD
ENDBRANCH  47  57
BRANCH  45  59
ATOM     59  O   UNL     1      -4.588  10.475  24.284  0.00  0.00    -0.343 OA
ATOM     60  C   UNL     1      -3.719  10.034  23.211  0.00  0.00    +0.198 C 
ENDBRANCH  45  59
ENDBRANCH  42  43
BRANCH  42  61
ATOM     61  O   UNL     1      -6.461  10.732  28.734  0.00  0.00    -0.387 OA
ATOM     62  H   UNL     1      -6.826  10.624  27.853  0.00  0.00    +0.210 HD
ENDBRANCH  42  61
ENDBRANCH  39  42
ENDBRANCH  38  39
ENDBRANCH  36  38
ENDBRANCH  33  34
ENDBRANCH  32  33
ENDBRANCH   2  32
TORSDOF 17
