REMARK VINA RESULT:    -4.223      0.000      0.000
REMARK INTER + INTRA:         -11.787
REMARK INTER:                  -8.060
REMARK INTRA:                  -3.728
REMARK UNBOUND:                -4.108
REMARK  Name = lig_assembled_53.pdb
REMARK  18 active torsions:
REMARK  status: ('A' for Active; 'I' for Inactive)
REMARK    1  A    between atoms: _2  and  _9
REMARK    2  A    between atoms: _4  and  _16
REMARK    3  A    between atoms: _5  and  _9
REMARK    4  A    between atoms: _5  and  _10
REMARK    5  A    between atoms: _6  and  _7
REMARK    6  A    between atoms: _6  and  _16
REMARK    7  A    between atoms: _12  and  _32
REMARK    8  A    between atoms: _14  and  _20
REMARK    9  A    between atoms: _15  and  _19
REMARK   10  A    between atoms: _19  and  _20
REMARK   11  A    between atoms: _22  and  _23
REMARK   12  A    between atoms: _24  and  _25
REMARK   13  A    between atoms: _26  and  _28
REMARK   14  A    between atoms: _28  and  _29
REMARK   15  A    between atoms: _28  and  _30
REMARK   16  A    between atoms: _30  and  _31
REMARK   17  A    between atoms: _30  and  _32
REMARK   18  A    between atoms: _33  and  _35
REMARK                            x       y       z     vdW  Elec       q    Type
REMARK                         _______ _______ _______ _____ _____    ______ ____
ROOT
ATOM      1  C   UNL     1      -3.652  12.042  26.486  0.00  0.00    +0.175 C 
ENDROOT
BRANCH   1   2
ATOM      2  C   UNL     1      -3.433  10.823  27.393  0.00  0.00    +0.176 C 
ATOM      3  O   UNL     1      -4.050   9.672  26.752  0.00  0.00    -0.332 OA
ATOM      4  C   UNL     1      -3.849   8.387  27.428  0.00  0.00    +0.277 C 
ATOM      5  C   UNL     1      -4.311   8.474  28.904  0.00  0.00    +0.110 C 
ATOM      6  C   UNL     1      -3.706   9.701  29.618  0.00  0.00    +0.143 C 
ATOM      7  C   UNL     1      -3.971  10.982  28.828  0.00  0.00    +0.133 C 
BRANCH   7   8
ATOM      8  N   UNL     1      -3.316  12.131  29.473  0.00  0.00    -0.308 N 
ATOM      9  H   UNL     1      -2.306  12.138  29.511  0.00  0.00    +0.149 HD
ATOM     10  C   UNL     1      -3.968  13.164  30.012  0.00  0.00    +0.210 C 
ATOM     11  C   UNL     1      -5.507  13.111  29.960  0.00  0.00    +0.109 C 
ATOM     12  O   UNL     1      -3.393  14.120  30.533  0.00  0.00    -0.276 OA
ENDBRANCH   7   8
BRANCH   4  13
ATOM     13  C   UNL     1      -2.365   7.967  27.376  0.00  0.00    +0.414 C 
ATOM     14  O   UNL     1      -1.679   8.235  26.390  0.00  0.00    -0.240 OA
ATOM     15  O   UNL     1      -1.854   7.362  28.319  0.00  0.00    -0.240 OA
ENDBRANCH   4  13
BRANCH   4  16
ATOM     16  O   UNL     1      -4.661   7.393  26.752  0.00  0.00    -0.343 OA
ATOM     17  C   UNL     1      -6.075   7.436  27.074  0.00  0.00    +0.198 C 
ENDBRANCH   4  16
BRANCH   6  18
ATOM     18  O   UNL     1      -4.274   9.827  30.923  0.00  0.00    -0.390 OA
ATOM     19  H   UNL     1      -5.157  10.197  30.853  0.00  0.00    +0.210 HD
ENDBRANCH   6  18
ENDBRANCH   1   2
BRANCH   1  20
ATOM     20  O   UNL     1      -5.008  12.517  26.610  0.00  0.00    -0.387 OA
ATOM     21  H   UNL     1      -5.572  11.800  26.908  0.00  0.00    +0.210 HD
ENDBRANCH   1  20
BRANCH   1  22
ATOM     22  C   UNL     1      -3.331  11.733  25.013  0.00  0.00    +0.163 C 
BRANCH  22  23
ATOM     23  O   UNL     1      -2.255  10.787  24.910  0.00  0.00    -0.388 OA
ATOM     24  H   UNL     1      -1.744  10.793  25.722  0.00  0.00    +0.210 HD
ENDBRANCH  22  23
BRANCH  22  25
ATOM     25  C   UNL     1      -2.962  13.025  24.291  0.00  0.00    +0.141 C 
BRANCH  25  28
ATOM     26  C   UNL     1      -4.909  13.619  22.890  0.00  0.00    +0.401 C 
ATOM     27  O   UNL     1      -5.604  13.976  23.843  0.00  0.00    -0.226 OA
ATOM     28  N   UNL     1      -3.664  13.154  23.008  0.00  0.00    -0.279 N 
ATOM     29  H   UNL     1      -3.177  12.876  22.168  0.00  0.00    +0.152 HD
BRANCH  26  30
ATOM     30  O   UNL     1      -5.450  13.693  21.569  0.00  0.00    -0.444 OA
BRANCH  30  31
ATOM     31  C   UNL     1      -6.458  12.691  21.408  0.00  0.00    +0.292 C 
BRANCH  31  33
ATOM     32  N   UNL     1      -4.711  11.005  20.913  0.00  0.00    -0.131 NA
ATOM     33  C   UNL     1      -5.874  11.344  21.551  0.00  0.00    +0.120 A 
ATOM     34  C   UNL     1      -6.322  10.261  22.274  0.00  0.00    +0.137 A 
ATOM     35  N   UNL     1      -5.428   9.275  21.985  0.00  0.00    -0.241 N 
ATOM     36  N   UNL     1      -4.434   9.742  21.203  0.00  0.00    -0.065 NA
BRANCH  35  37
ATOM     37  C   UNL     1      -5.320   7.927  22.503  0.00  0.00    +0.265 C 
BRANCH  37  38
ATOM     38  C   UNL     1      -3.963   7.546  23.031  0.00  0.00    +0.326 C 
ATOM     39  O   UNL     1      -3.244   6.648  22.618  0.00  0.00    -0.249 OA
BRANCH  38  40
ATOM     40  O   UNL     1      -3.577   8.319  24.080  0.00  0.00    -0.479 OA
ATOM     41  H   UNL     1      -4.018   8.133  24.931  0.00  0.00    +0.295 HD
ENDBRANCH  38  40
ENDBRANCH  37  38
ENDBRANCH  35  37
ENDBRANCH  31  33
ENDBRANCH  30  31
ENDBRANCH  26  30
ENDBRANCH  25  28
ENDBRANCH  22  25
ENDBRANCH   1  22
TORSDOF 16
