REMARK VINA RESULT:    -5.313      0.000      0.000
REMARK INTER + INTRA:         -11.689
REMARK INTER:                  -9.546
REMARK INTRA:                  -2.143
REMARK UNBOUND:                -2.494
REMARK  Name = lig_assembled_56.pdb
REMARK  16 active torsions:
REMARK  status: ('A' for Active; 'I' for Inactive)
REMARK    1  A    between atoms: _2  and  _10
REMARK    2  A    between atoms: _5  and  _18
REMARK    3  A    between atoms: _7  and  _8
REMARK    4  A    between atoms: _7  and  _18
REMARK    5  A    between atoms: _14  and  _34
REMARK    6  A    between atoms: _16  and  _22
REMARK    7  A    between atoms: _17  and  _21
REMARK    8  A    between atoms: _21  and  _22
REMARK    9  A    between atoms: _24  and  _25
REMARK   10  A    between atoms: _26  and  _27
REMARK   11  A    between atoms: _28  and  _30
REMARK   12  A    between atoms: _30  and  _31
REMARK   13  A    between atoms: _30  and  _32
REMARK   14  A    between atoms: _32  and  _33
REMARK   15  A    between atoms: _32  and  _34
REMARK   16  A    between atoms: _35  and  _37
REMARK                            x       y       z     vdW  Elec       q    Type
REMARK                         _______ _______ _______ _____ _____    ______ ____
ROOT
ATOM      1  C   UNL     1      -3.280  11.750  25.083  0.00  0.00    +0.163 C 
ENDROOT
BRANCH   1   2
ATOM      2  O   UNL     1      -2.165  10.843  25.035  0.00  0.00    -0.388 OA
ATOM      3  H   UNL     1      -2.336  10.095  25.611  0.00  0.00    +0.210 HD
ENDBRANCH   1   2
BRANCH   1   4
ATOM      4  C   UNL     1      -2.933  13.043  24.352  0.00  0.00    +0.141 C 
BRANCH   4   7
ATOM      5  C   UNL     1      -4.892  13.618  22.960  0.00  0.00    +0.401 C 
ATOM      6  O   UNL     1      -5.581  13.985  23.915  0.00  0.00    -0.226 OA
ATOM      7  N   UNL     1      -3.646  13.157  23.074  0.00  0.00    -0.279 N 
ATOM      8  H   UNL     1      -3.165  12.870  22.233  0.00  0.00    +0.152 HD
BRANCH   5   9
ATOM      9  O   UNL     1      -5.444  13.676  21.643  0.00  0.00    -0.444 OA
BRANCH   9  10
ATOM     10  C   UNL     1      -5.903  12.377  21.258  0.00  0.00    +0.292 C 
BRANCH  10  12
ATOM     11  N   UNL     1      -6.868  12.265  18.983  0.00  0.00    -0.131 NA
ATOM     12  C   UNL     1      -5.777  12.200  19.800  0.00  0.00    +0.121 A 
ATOM     13  C   UNL     1      -4.658  11.962  19.034  0.00  0.00    +0.143 A 
ATOM     14  N   UNL     1      -5.118  11.907  17.739  0.00  0.00    -0.220 N 
ATOM     15  N   UNL     1      -6.462  12.083  17.735  0.00  0.00    -0.060 NA
BRANCH  14  16
ATOM     16  C   UNL     1      -4.385  11.714  16.543  0.00  0.00    +0.070 A 
ATOM     17  C   UNL     1      -4.180  12.767  15.647  0.00  0.00    +0.047 A 
ATOM     18  C   UNL     1      -3.467  12.504  14.488  0.00  0.00    +0.113 A 
ATOM     19  N   UNL     1      -2.958  11.294  14.175  0.00  0.00    -0.263 NA
ATOM     20  C   UNL     1      -3.167  10.296  15.059  0.00  0.00    +0.113 A 
ATOM     21  C   UNL     1      -3.864  10.452  16.244  0.00  0.00    +0.047 A 
ENDBRANCH  14  16
ENDBRANCH  10  12
ENDBRANCH   9  10
ENDBRANCH   5   9
ENDBRANCH   4   7
ENDBRANCH   1   4
BRANCH   1  22
ATOM     22  C   UNL     1      -3.666  12.069  26.537  0.00  0.00    +0.175 C 
BRANCH  22  23
ATOM     23  C   UNL     1      -3.414  10.881  27.477  0.00  0.00    +0.176 C 
ATOM     24  O   UNL     1      -4.042   9.707  26.891  0.00  0.00    -0.332 OA
ATOM     25  C   UNL     1      -3.814   8.445  27.602  0.00  0.00    +0.277 C 
ATOM     26  C   UNL     1      -4.234   8.577  29.087  0.00  0.00    +0.110 C 
ATOM     27  C   UNL     1      -3.616   9.829  29.744  0.00  0.00    +0.143 C 
ATOM     28  C   UNL     1      -3.911  11.083  28.920  0.00  0.00    +0.133 C 
BRANCH  28  29
ATOM     29  N   UNL     1      -3.244  12.255  29.509  0.00  0.00    -0.308 N 
ATOM     30  H   UNL     1      -2.234  12.268  29.518  0.00  0.00    +0.149 HD
ATOM     31  C   UNL     1      -3.887  13.303  30.033  0.00  0.00    +0.210 C 
ATOM     32  C   UNL     1      -5.426  13.241  30.028  0.00  0.00    +0.109 C 
ATOM     33  O   UNL     1      -3.302  14.278  30.506  0.00  0.00    -0.276 OA
ENDBRANCH  28  29
BRANCH  25  34
ATOM     34  C   UNL     1      -2.330   8.031  27.520  0.00  0.00    +0.414 C 
ATOM     35  O   UNL     1      -1.683   8.244  26.496  0.00  0.00    -0.240 OA
ATOM     36  O   UNL     1      -1.781   7.485  28.478  0.00  0.00    -0.240 OA
ENDBRANCH  25  34
BRANCH  27  37
ATOM     37  O   UNL     1      -4.146   9.995  31.059  0.00  0.00    -0.390 OA
ATOM     38  H   UNL     1      -4.135  10.925  31.295  0.00  0.00    +0.210 HD
ENDBRANCH  27  37
BRANCH  25  39
ATOM     39  O   UNL     1      -4.640   7.426  26.983  0.00  0.00    -0.343 OA
ATOM     40  C   UNL     1      -5.290   7.829  25.751  0.00  0.00    +0.198 C 
ENDBRANCH  25  39
ENDBRANCH  22  23
BRANCH  22  41
ATOM     41  O   UNL     1      -5.048  12.472  26.607  0.00  0.00    -0.387 OA
ATOM     42  H   UNL     1      -5.427  12.472  25.724  0.00  0.00    +0.210 HD
ENDBRANCH  22  41
ENDBRANCH   1  22
TORSDOF 14
