REMARK VINA RESULT:    -5.531      0.000      0.000
REMARK INTER + INTRA:         -14.104
REMARK INTER:                 -10.581
REMARK INTRA:                  -3.523
REMARK UNBOUND:                -3.885
REMARK  Name = lig_assembled_79.pdb
REMARK  20 active torsions:
REMARK  status: ('A' for Active; 'I' for Inactive)
REMARK    1  A    between atoms: _2  and  _10
REMARK    2  A    between atoms: _5  and  _26
REMARK    3  A    between atoms: _7  and  _8
REMARK    4  A    between atoms: _7  and  _26
REMARK    5  A    between atoms: _10  and  _11
REMARK    6  A    between atoms: _10  and  _12
REMARK    7  A    between atoms: _10  and  _13
REMARK    8  A    between atoms: _13  and  _14
REMARK    9  A    between atoms: _22  and  _42
REMARK   10  A    between atoms: _24  and  _30
REMARK   11  A    between atoms: _25  and  _29
REMARK   12  A    between atoms: _29  and  _30
REMARK   13  A    between atoms: _32  and  _33
REMARK   14  A    between atoms: _34  and  _35
REMARK   15  A    between atoms: _36  and  _38
REMARK   16  A    between atoms: _38  and  _39
REMARK   17  A    between atoms: _38  and  _40
REMARK   18  A    between atoms: _40  and  _41
REMARK   19  A    between atoms: _40  and  _42
REMARK   20  A    between atoms: _43  and  _45
REMARK                            x       y       z     vdW  Elec       q    Type
REMARK                         _______ _______ _______ _____ _____    ______ ____
ROOT
ATOM      1  C   UNL     1      -1.854   9.264  27.274  0.00  0.00    +0.401 C 
ATOM      2  O   UNL     1      -1.872   8.043  27.100  0.00  0.00    -0.226 OA
ATOM      3  N   UNL     1      -2.160   9.857  28.428  0.00  0.00    -0.279 N 
ATOM      4  H   UNL     1      -2.106  10.865  28.476  0.00  0.00    +0.152 HD
ENDROOT
BRANCH   3   5
ATOM      5  C   UNL     1      -2.570   9.128  29.635  0.00  0.00    +0.141 C 
BRANCH   5   6
ATOM      6  C   UNL     1      -3.165  10.059  30.687  0.00  0.00    +0.163 C 
BRANCH   6   7
ATOM      7  O   UNL     1      -2.127  10.857  31.280  0.00  0.00    -0.388 OA
ATOM      8  H   UNL     1      -1.274  10.579  30.939  0.00  0.00    +0.210 HD
ENDBRANCH   6   7
BRANCH   6   9
ATOM      9  C   UNL     1      -4.240  10.947  30.038  0.00  0.00    +0.175 C 
BRANCH   9  10
ATOM     10  C   UNL     1      -4.191  12.390  30.562  0.00  0.00    +0.176 C 
ATOM     11  O   UNL     1      -4.455  12.355  31.992  0.00  0.00    -0.332 OA
ATOM     12  C   UNL     1      -4.344  13.641  32.688  0.00  0.00    +0.277 C 
ATOM     13  C   UNL     1      -5.249  14.701  32.014  0.00  0.00    +0.110 C 
ATOM     14  C   UNL     1      -5.027  14.752  30.488  0.00  0.00    +0.143 C 
ATOM     15  C   UNL     1      -5.163  13.361  29.867  0.00  0.00    +0.133 C 
BRANCH  15  16
ATOM     16  N   UNL     1      -4.864  13.409  28.427  0.00  0.00    -0.308 N 
ATOM     17  H   UNL     1      -3.930  13.675  28.148  0.00  0.00    +0.149 HD
ATOM     18  C   UNL     1      -5.746  13.123  27.466  0.00  0.00    +0.210 C 
ATOM     19  C   UNL     1      -7.168  12.747  27.923  0.00  0.00    +0.109 C 
ATOM     20  O   UNL     1      -5.463  13.157  26.267  0.00  0.00    -0.276 OA
ENDBRANCH  15  16
BRANCH  12  21
ATOM     21  C   UNL     1      -2.883  14.137  32.691  0.00  0.00    +0.414 C 
ATOM     22  O   UNL     1      -2.637  15.341  32.625  0.00  0.00    -0.240 OA
ATOM     23  O   UNL     1      -1.951  13.335  32.760  0.00  0.00    -0.240 OA
ENDBRANCH  12  21
BRANCH  14  24
ATOM     24  O   UNL     1      -5.984  15.629  29.891  0.00  0.00    -0.390 OA
ATOM     25  H   UNL     1      -5.624  15.990  29.078  0.00  0.00    +0.210 HD
ENDBRANCH  14  24
BRANCH  12  26
ATOM     26  O   UNL     1      -4.798  13.453  34.053  0.00  0.00    -0.343 OA
ATOM     27  C   UNL     1      -6.177  13.025  34.186  0.00  0.00    +0.198 C 
ENDBRANCH  12  26
ENDBRANCH   9  10
BRANCH   9  28
ATOM     28  O   UNL     1      -5.549  10.383  30.258  0.00  0.00    -0.387 OA
ATOM     29  H   UNL     1      -6.163  10.738  29.611  0.00  0.00    +0.210 HD
ENDBRANCH   9  28
ENDBRANCH   6   9
ENDBRANCH   5   6
ENDBRANCH   3   5
BRANCH   1  30
ATOM     30  O   UNL     1      -1.482  10.115  26.187  0.00  0.00    -0.444 OA
BRANCH  30  31
ATOM     31  C   UNL     1      -2.476  11.128  26.011  0.00  0.00    +0.292 C 
BRANCH  31  33
ATOM     32  N   UNL     1      -3.426   9.943  24.067  0.00  0.00    -0.131 NA
ATOM     33  C   UNL     1      -2.984  11.105  24.627  0.00  0.00    +0.120 A 
ATOM     34  C   UNL     1      -3.101  12.123  23.707  0.00  0.00    +0.138 A 
ATOM     35  N   UNL     1      -3.709  11.542  22.628  0.00  0.00    -0.238 N 
ATOM     36  N   UNL     1      -3.824  10.206  22.834  0.00  0.00    -0.064 NA
BRANCH  35  37
ATOM     37  C   UNL     1      -4.045  12.092  21.282  0.00  0.00    +0.122 C 
ATOM     38  C   UNL     1      -4.003  10.900  20.297  0.00  0.00    +0.044 C 
ATOM     39  C   UNL     1      -2.985  13.181  21.023  0.00  0.00    +0.044 C 
BRANCH  37  40
ATOM     40  C   UNL     1      -5.458  12.705  21.204  0.00  0.00    +0.192 C 
ATOM     41  O   UNL     1      -6.177  12.490  20.222  0.00  0.00    -0.289 OA
BRANCH  40  42
ATOM     42  C   UNL     1      -6.013  13.587  22.271  0.00  0.00    +0.045 A 
ATOM     43  C   UNL     1      -6.938  13.080  23.177  0.00  0.00    +0.095 A 
ATOM     44  N   UNL     1      -7.326  14.062  24.037  0.00  0.00    -0.360 N 
ATOM     45  H   UNL     1      -7.998  13.954  24.784  0.00  0.00    +0.165 HD
ATOM     46  C   UNL     1      -6.678  15.232  23.735  0.00  0.00    +0.047 A 
ATOM     47  C   UNL     1      -6.789  16.484  24.357  0.00  0.00    +0.026 A 
ATOM     48  C   UNL     1      -6.023  17.538  23.860  0.00  0.00    +0.002 A 
ATOM     49  C   UNL     1      -5.175  17.343  22.782  0.00  0.00    +0.001 A 
ATOM     50  C   UNL     1      -5.077  16.085  22.176  0.00  0.00    +0.011 A 
ATOM     51  C   UNL     1      -5.839  14.982  22.640  0.00  0.00    +0.010 A 
ENDBRANCH  40  42
ENDBRANCH  37  40
ENDBRANCH  35  37
ENDBRANCH  31  33
ENDBRANCH  30  31
ENDBRANCH   1  30
TORSDOF 16
