REMARK VINA RESULT:    -5.212      0.000      0.000
REMARK INTER + INTRA:         -12.085
REMARK INTER:                 -10.303
REMARK INTRA:                  -1.783
REMARK UNBOUND:                -2.759
REMARK  Name = lig_assembled_38.pdb
REMARK  17 active torsions:
REMARK  status: ('A' for Active; 'I' for Inactive)
REMARK    1  A    between atoms: _2  and  _9
REMARK    2  A    between atoms: _4  and  _19
REMARK    3  A    between atoms: _6  and  _7
REMARK    4  A    between atoms: _6  and  _19
REMARK    5  A    between atoms: _9  and  _10
REMARK    6  A    between atoms: _15  and  _35
REMARK    7  A    between atoms: _17  and  _23
REMARK    8  A    between atoms: _18  and  _22
REMARK    9  A    between atoms: _22  and  _23
REMARK   10  A    between atoms: _25  and  _26
REMARK   11  A    between atoms: _27  and  _28
REMARK   12  A    between atoms: _29  and  _31
REMARK   13  A    between atoms: _31  and  _32
REMARK   14  A    between atoms: _31  and  _33
REMARK   15  A    between atoms: _33  and  _34
REMARK   16  A    between atoms: _33  and  _35
REMARK   17  A    between atoms: _36  and  _38
REMARK                            x       y       z     vdW  Elec       q    Type
REMARK                         _______ _______ _______ _____ _____    ______ ____
ROOT
ATOM      1  C   UNL     1      -5.311  11.973  27.213  0.00  0.00    +0.163 C 
ENDROOT
BRANCH   1   2
ATOM      2  O   UNL     1      -5.897  10.725  26.809  0.00  0.00    -0.388 OA
ATOM      3  H   UNL     1      -5.649  10.038  27.433  0.00  0.00    +0.210 HD
ENDBRANCH   1   2
BRANCH   1   4
ATOM      4  C   UNL     1      -3.918  12.115  26.609  0.00  0.00    +0.141 C 
BRANCH   4   7
ATOM      5  C   UNL     1      -2.851  10.852  24.773  0.00  0.00    +0.401 C 
ATOM      6  O   UNL     1      -1.859  10.541  25.437  0.00  0.00    -0.226 OA
ATOM      7  N   UNL     1      -3.859  11.590  25.239  0.00  0.00    -0.279 N 
ATOM      8  H   UNL     1      -4.625  11.801  24.615  0.00  0.00    +0.152 HD
BRANCH   5   9
ATOM      9  O   UNL     1      -2.946  10.408  23.417  0.00  0.00    -0.444 OA
BRANCH   9  10
ATOM     10  C   UNL     1      -3.157  11.532  22.560  0.00  0.00    +0.292 C 
BRANCH  10  12
ATOM     11  N   UNL     1      -4.215   9.815  21.121  0.00  0.00    -0.131 NA
ATOM     12  C   UNL     1      -3.780  11.103  21.292  0.00  0.00    +0.120 A 
ATOM     13  C   UNL     1      -4.063  11.828  20.156  0.00  0.00    +0.137 A 
ATOM     14  N   UNL     1      -4.720  10.940  19.353  0.00  0.00    -0.247 N 
ATOM     15  N   UNL     1      -4.796   9.728  19.933  0.00  0.00    -0.065 NA
BRANCH  14  16
ATOM     16  C   UNL     1      -5.490  11.230  18.157  0.00  0.00    +0.180 C 
BRANCH  16  17
ATOM     17  C   UNL     1      -4.657  11.271  16.900  0.00  0.00    -0.025 A 
ATOM     18  C   UNL     1      -3.982  10.127  16.445  0.00  0.00    +0.005 A 
ATOM     19  C   UNL     1      -3.286  10.147  15.232  0.00  0.00    +0.001 A 
ATOM     20  C   UNL     1      -3.255  11.308  14.461  0.00  0.00    +0.015 A 
ATOM     21  C   UNL     1      -3.912  12.448  14.911  0.00  0.00    +0.018 A 
ATOM     22 BR   UNL     1      -3.881  14.023  13.864  0.00  0.00    -0.050 Br
ATOM     23  C   UNL     1      -4.611  12.438  16.120  0.00  0.00    +0.020 A 
ENDBRANCH  16  17
ENDBRANCH  14  16
ENDBRANCH  10  12
ENDBRANCH   9  10
ENDBRANCH   5   9
ENDBRANCH   4   7
ENDBRANCH   1   4
BRANCH   1  24
ATOM     24  C   UNL     1      -5.220  12.069  28.745  0.00  0.00    +0.175 C 
BRANCH  24  25
ATOM     25  C   UNL     1      -4.174  11.103  29.323  0.00  0.00    +0.176 C 
ATOM     26  O   UNL     1      -4.795   9.794  29.448  0.00  0.00    -0.332 OA
ATOM     27  C   UNL     1      -3.910   8.712  29.888  0.00  0.00    +0.277 C 
ATOM     28  C   UNL     1      -3.213   9.090  31.218  0.00  0.00    +0.110 C 
ATOM     29  C   UNL     1      -2.565  10.488  31.144  0.00  0.00    +0.143 C 
ATOM     30  C   UNL     1      -3.574  11.536  30.673  0.00  0.00    +0.133 C 
BRANCH  30  31
ATOM     31  N   UNL     1      -2.923  12.848  30.524  0.00  0.00    -0.308 N 
ATOM     32  H   UNL     1      -2.193  12.935  29.831  0.00  0.00    +0.149 HD
ATOM     33  C   UNL     1      -3.234  13.929  31.243  0.00  0.00    +0.210 C 
ATOM     34  C   UNL     1      -4.333  13.756  32.308  0.00  0.00    +0.109 C 
ATOM     35  O   UNL     1      -2.682  15.018  31.086  0.00  0.00    -0.276 OA
ENDBRANCH  30  31
BRANCH  27  36
ATOM     36  C   UNL     1      -2.843   8.408  28.815  0.00  0.00    +0.414 C 
ATOM     37  O   UNL     1      -1.778   7.880  29.132  0.00  0.00    -0.240 OA
ATOM     38  O   UNL     1      -3.047   8.691  27.634  0.00  0.00    -0.240 OA
ENDBRANCH  27  36
BRANCH  27  39
ATOM     39  O   UNL     1      -4.722   7.532  30.116  0.00  0.00    -0.343 OA
ATOM     40  C   UNL     1      -4.405   6.794  31.323  0.00  0.00    +0.198 C 
ENDBRANCH  27  39
BRANCH  29  41
ATOM     41  O   UNL     1      -2.069  10.858  32.431  0.00  0.00    -0.390 OA
ATOM     42  H   UNL     1      -1.452  10.191  32.741  0.00  0.00    +0.210 HD
ENDBRANCH  29  41
ENDBRANCH  24  25
BRANCH  24  43
ATOM     43  O   UNL     1      -6.510  11.815  29.337  0.00  0.00    -0.387 OA
ATOM     44  H   UNL     1      -6.917  12.648  29.586  0.00  0.00    +0.210 HD
ENDBRANCH  24  43
ENDBRANCH   1  24
TORSDOF 15
