REMARK VINA RESULT:    -5.189      0.000      0.000
REMARK INTER + INTRA:         -13.308
REMARK INTER:                  -9.130
REMARK INTRA:                  -4.178
REMARK UNBOUND:                -3.114
REMARK  Name = lig_assembled_10.pdb
REMARK  21 active torsions:
REMARK  status: ('A' for Active; 'I' for Inactive)
REMARK    1  A    between atoms: _2  and  _9
REMARK    2  A    between atoms: _4  and  _20
REMARK    3  A    between atoms: _5  and  _9
REMARK    4  A    between atoms: _5  and  _12
REMARK    5  A    between atoms: _6  and  _7
REMARK    6  A    between atoms: _6  and  _20
REMARK    7  A    between atoms: _9  and  _10
REMARK    8  A    between atoms: _10  and  _11
REMARK    9  A    between atoms: _11  and  _14
REMARK   10  A    between atoms: _16  and  _36
REMARK   11  A    between atoms: _18  and  _24
REMARK   12  A    between atoms: _19  and  _23
REMARK   13  A    between atoms: _23  and  _24
REMARK   14  A    between atoms: _26  and  _27
REMARK   15  A    between atoms: _28  and  _29
REMARK   16  A    between atoms: _30  and  _32
REMARK   17  A    between atoms: _32  and  _33
REMARK   18  A    between atoms: _32  and  _34
REMARK   19  A    between atoms: _34  and  _35
REMARK   20  A    between atoms: _34  and  _36
REMARK   21  A    between atoms: _37  and  _39
REMARK                            x       y       z     vdW  Elec       q    Type
REMARK                         _______ _______ _______ _____ _____    ______ ____
ROOT
ATOM      1  C   UNL     1      -3.190  11.618  25.345  0.00  0.00    +0.163 C 
ENDROOT
BRANCH   1   2
ATOM      2  O   UNL     1      -2.097  10.685  25.359  0.00  0.00    -0.388 OA
ATOM      3  H   UNL     1      -1.756  10.605  26.253  0.00  0.00    +0.210 HD
ENDBRANCH   1   2
BRANCH   1   4
ATOM      4  C   UNL     1      -3.660  11.937  26.775  0.00  0.00    +0.175 C 
BRANCH   4   5
ATOM      5  C   UNL     1      -3.369  10.786  27.749  0.00  0.00    +0.176 C 
ATOM      6  O   UNL     1      -3.994   9.584  27.221  0.00  0.00    -0.332 OA
ATOM      7  C   UNL     1      -3.732   8.351  27.970  0.00  0.00    +0.277 C 
ATOM      8  C   UNL     1      -4.117   8.530  29.459  0.00  0.00    +0.110 C 
ATOM      9  C   UNL     1      -3.500   9.813  30.056  0.00  0.00    +0.143 C 
ATOM     10  C   UNL     1      -3.833  11.033  29.196  0.00  0.00    +0.133 C 
BRANCH  10  11
ATOM     11  N   UNL     1      -3.169  12.234  29.727  0.00  0.00    -0.308 N 
ATOM     12  H   UNL     1      -2.158  12.246  29.744  0.00  0.00    +0.149 HD
ATOM     13  C   UNL     1      -3.813  13.309  30.188  0.00  0.00    +0.210 C 
ATOM     14  C   UNL     1      -5.352  13.250  30.173  0.00  0.00    +0.109 C 
ATOM     15  O   UNL     1      -3.230  14.307  30.613  0.00  0.00    -0.276 OA
ENDBRANCH  10  11
BRANCH   7  16
ATOM     16  C   UNL     1      -2.244   7.954  27.866  0.00  0.00    +0.414 C 
ATOM     17  O   UNL     1      -1.634   7.570  28.863  0.00  0.00    -0.240 OA
ATOM     18  O   UNL     1      -1.655   8.018  26.786  0.00  0.00    -0.240 OA
ENDBRANCH   7  16
BRANCH   7  19
ATOM     19  O   UNL     1      -4.558   7.300  27.407  0.00  0.00    -0.343 OA
ATOM     20  C   UNL     1      -4.411   6.002  28.037  0.00  0.00    +0.198 C 
ENDBRANCH   7  19
BRANCH   9  21
ATOM     21  O   UNL     1      -4.001  10.018  31.378  0.00  0.00    -0.390 OA
ATOM     22  H   UNL     1      -3.367   9.683  32.016  0.00  0.00    +0.210 HD
ENDBRANCH   9  21
ENDBRANCH   4   5
BRANCH   4  23
ATOM     23  O   UNL     1      -5.068  12.245  26.777  0.00  0.00    -0.387 OA
ATOM     24  H   UNL     1      -5.369  12.364  27.682  0.00  0.00    +0.210 HD
ENDBRANCH   4  23
ENDBRANCH   1   4
BRANCH   1  25
ATOM     25  C   UNL     1      -2.766  12.907  24.649  0.00  0.00    +0.141 C 
BRANCH  25  28
ATOM     26  C   UNL     1      -3.691  13.362  22.403  0.00  0.00    +0.401 C 
ATOM     27  O   UNL     1      -4.609  14.071  22.821  0.00  0.00    -0.226 OA
ATOM     28  N   UNL     1      -2.788  12.773  23.187  0.00  0.00    -0.279 N 
ATOM     29  H   UNL     1      -2.078  12.201  22.751  0.00  0.00    +0.152 HD
BRANCH  26  30
ATOM     30  O   UNL     1      -3.571  13.140  20.995  0.00  0.00    -0.444 OA
BRANCH  30  31
ATOM     31  C   UNL     1      -4.453  12.086  20.601  0.00  0.00    +0.292 C 
BRANCH  31  33
ATOM     32  N   UNL     1      -3.143  10.229  21.585  0.00  0.00    -0.131 NA
ATOM     33  C   UNL     1      -4.313  10.935  21.512  0.00  0.00    +0.120 A 
ATOM     34  C   UNL     1      -5.223  10.392  22.391  0.00  0.00    +0.138 A 
ATOM     35  N   UNL     1      -4.537   9.386  23.002  0.00  0.00    -0.237 N 
ATOM     36  N   UNL     1      -3.293   9.278  22.494  0.00  0.00    -0.065 NA
BRANCH  35  37
ATOM     37  C   UNL     1      -4.931   8.470  24.060  0.00  0.00    +0.227 C 
BRANCH  37  38
ATOM     38  C   UNL     1      -4.276   7.108  23.988  0.00  0.00    +0.330 C 
ATOM     39  O   UNL     1      -4.746   6.202  23.309  0.00  0.00    -0.249 OA
BRANCH  38  40
ATOM     40  O   UNL     1      -3.123   6.935  24.669  0.00  0.00    -0.479 OA
ATOM     41  H   UNL     1      -2.842   5.999  24.838  0.00  0.00    +0.295 HD
ENDBRANCH  38  40
ENDBRANCH  37  38
BRANCH  37  42
ATOM     42  C   UNL     1      -6.447   8.378  24.283  0.00  0.00    +0.158 C 
BRANCH  42  43
ATOM     43  C   UNL     1      -6.880   9.091  25.533  0.00  0.00    +0.307 C 
ATOM     44  O   UNL     1      -7.005  10.307  25.612  0.00  0.00    -0.251 OA
BRANCH  43  45
ATOM     45  O   UNL     1      -7.198   8.262  26.545  0.00  0.00    -0.481 OA
ATOM     46  H   UNL     1      -6.824   7.362  26.479  0.00  0.00    +0.295 HD
ENDBRANCH  43  45
ENDBRANCH  42  43
ENDBRANCH  37  42
ENDBRANCH  35  37
ENDBRANCH  31  33
ENDBRANCH  30  31
ENDBRANCH  26  30
ENDBRANCH  25  28
ENDBRANCH   1  25
TORSDOF 19
