REMARK VINA RESULT:    -2.527      5.461     13.876
REMARK INTER + INTRA:          -7.908
REMARK INTER:                  -2.106
REMARK INTRA:                  -5.802
REMARK UNBOUND:                -5.085
REMARK SMILES CC(C)(N)C(=O)O
REMARK SMILES IDX 1 1 2 2 3 3 4 4 5 7 6 8 7 9
REMARK H PARENT 4 5 4 6 7 10
REMARK Flexibility Score: inf
ROOT
ATOM      1  C   UNL     1      37.413  39.791   7.474  1.00  0.00     0.040 C 
ATOM      2  C   UNL     1      36.211  39.922   6.560  1.00  0.00     0.109 C 
ATOM      3  C   UNL     1      34.919  39.875   7.388  1.00  0.00     0.040 C 
ENDROOT
BRANCH   2   4
ATOM      4  N   UNL     1      36.191  41.202   5.874  1.00  0.00    -0.316 NA
ATOM      5  H   UNL     1      36.996  41.798   6.104  1.00  0.00     0.119 HD
ATOM      6  H   UNL     1      36.047  41.015   4.875  1.00  0.00     0.119 HD
ENDBRANCH   2   4
BRANCH   2   7
ATOM      7  C   UNL     1      36.244  38.791   5.594  1.00  0.00     0.323 C 
ATOM      8  O   UNL     1      36.940  38.897   4.557  1.00  0.00    -0.250 OA
BRANCH   7   9
ATOM      9  O   UNL     1      35.539  37.614   5.784  1.00  0.00    -0.480 OA
ATOM     10  H   UNL     1      34.514  37.628   5.698  1.00  0.00     0.296 HD
ENDBRANCH   7   9
ENDBRANCH   2   7
TORSDOF 3
BEGIN_RES LYS A 135
REMARK  4 active torsions:
REMARK  status: ('A' for Active; 'I' for Inactive)
REMARK    1  A    between atoms: CA   and  CB  
REMARK    2  A    between atoms: CB   and  CG  
REMARK    3  A    between atoms: CG   and  CD  
REMARK    4  A    between atoms: CD   and  CE  
ROOT
ATOM      1  CA  LYS A 135      33.193  34.663   9.290  1.00 25.02     0.186 C 
ENDROOT
BRANCH   1   2
ATOM      2  CB  LYS A 135      32.060  35.360  10.034  1.00 26.63     0.034 C 
BRANCH   2   3
ATOM      3  CG  LYS A 135      30.812  35.533   9.207  1.00 29.45     0.005 C 
BRANCH   3   4
ATOM      4  CD  LYS A 135      30.172  34.185   8.914  1.00 32.00     0.041 C 
BRANCH   4   5
ATOM      5  CE  LYS A 135      28.685  34.345   8.660  1.00 34.25     0.338 C 
ATOM      6  NZ  LYS A 135      27.884  33.635   9.695  1.00 35.99     0.618 N 
ENDBRANCH   4   5
ENDBRANCH   3   4
ENDBRANCH   2   3
ENDBRANCH   1   2
END_RES LYS A 135
BEGIN_RES ARG A 124
REMARK  4 active torsions:
REMARK  status: ('A' for Active; 'I' for Inactive)
REMARK    5  A    between atoms: CA   and  CB  
REMARK    6  A    between atoms: CB   and  CG  
REMARK    7  A    between atoms: CG   and  CD  
REMARK    8  A    between atoms: CD   and  NE  
REMARK       I    between atoms: NE   and  CZ  
ROOT
ATOM      7  CA  ARG A 124      31.045  26.515   9.594  1.00 17.84     0.186 C 
ENDROOT
BRANCH   7   8
ATOM      8  CB  ARG A 124      29.529  26.705   9.647  1.00 16.18     0.036 C 
BRANCH   8   9
ATOM      9  CG  ARG A 124      28.910  26.829  11.085  1.00 16.22     0.029 C 
BRANCH   9  10
ATOM     10  CD  ARG A 124      27.563  26.084  11.225  1.00 15.09     0.145 C 
BRANCH  10  11
ATOM     11  NE  ARG A 124      26.403  26.979  11.433  1.00 16.98    -0.083 NA
ATOM     12  CZ  ARG A 124      26.007  27.448  12.611  1.00 18.21     0.782 C 
ATOM     13  NH1 ARG A 124      26.656  27.145  13.728  1.00 21.11     0.063 N 
ATOM     14  NH2 ARG A 124      24.958  28.254  12.682  1.00 21.25     0.063 N 
ENDBRANCH  10  11
ENDBRANCH   9  10
ENDBRANCH   8   9
ENDBRANCH   7   8
END_RES ARG A 124
BEGIN_RES ASN A 133
REMARK  2 active torsions:
REMARK  status: ('A' for Active; 'I' for Inactive)
REMARK    9  A    between atoms: CA   and  CB  
REMARK   10  A    between atoms: CB   and  CG  
ROOT
ATOM     15  CA  ASN A 133      31.225  30.257  11.749  1.00 18.15     0.196 C 
ENDROOT
BRANCH  15  16
ATOM     16  CB  ASN A 133      30.092  31.240  11.460  1.00 18.27     0.126 C 
BRANCH  16  17
ATOM     17  CG  ASN A 133      28.733  30.615  11.532  1.00 18.94     0.276 C 
ATOM     18  OD1 ASN A 133      28.348  29.826  10.667  1.00 18.09    -0.269 OA
ATOM     19  ND2 ASN A 133      27.984  30.966  12.576  1.00 18.93    -0.107 N 
ENDBRANCH  16  17
ENDBRANCH  15  16
END_RES ASN A 133
BEGIN_RES LYS A 131
REMARK  4 active torsions:
REMARK  status: ('A' for Active; 'I' for Inactive)
REMARK   11  A    between atoms: CA   and  CB  
REMARK   12  A    between atoms: CB   and  CG  
REMARK   13  A    between atoms: CG   and  CD  
REMARK   14  A    between atoms: CD   and  CE  
ROOT
ATOM     20  CA  LYS A 131      29.867  25.555  16.977  1.00 20.52     0.186 C 
ENDROOT
BRANCH  20  21
ATOM     21  CB  LYS A 131      28.345  25.722  17.026  1.00 20.94     0.034 C 
BRANCH  21  22
ATOM     22  CG  LYS A 131      27.600  24.407  16.854  1.00 22.96     0.005 C 
BRANCH  22  23
ATOM     23  CD  LYS A 131      26.160  24.513  17.270  1.00 24.33     0.041 C 
BRANCH  23  24
ATOM     24  CE  LYS A 131      25.832  23.399  18.259  1.00 26.91     0.338 C 
ATOM     25  NZ  LYS A 131      24.986  22.366  17.616  1.00 27.40     0.618 N 
ENDBRANCH  23  24
ENDBRANCH  22  23
ENDBRANCH  21  22
ENDBRANCH  20  21
END_RES LYS A 131
