REMARK VINA RESULT:    -3.478      7.489     14.381
REMARK INTER + INTRA:         -10.038
REMARK INTER:                  -4.162
REMARK INTRA:                  -5.875
REMARK UNBOUND:                -5.848
REMARK SMILES NCOCc1ccccc1
REMARK SMILES IDX 3 1 2 2 1 3 4 6 5 7 6 8 10 9 7 10 9 11 8 12
REMARK H PARENT 1 4 1 5
REMARK Flexibility Score: inf
ROOT
ATOM      1  O   UNL     1      33.993  19.181  21.305  1.00  0.00    -0.362 OA
ENDROOT
BRANCH   1   2
ATOM      2  C   UNL     1      33.109  18.173  21.597  1.00  0.00     0.242 C 
BRANCH   2   3
ATOM      3  N   UNL     1      31.750  18.652  21.819  1.00  0.00    -0.309 NA
ATOM      4  H   UNL     1      31.712  19.387  22.546  1.00  0.00     0.121 HD
ATOM      5  H   UNL     1      31.445  19.048  20.882  1.00  0.00     0.121 HD
ENDBRANCH   2   3
ENDBRANCH   1   2
BRANCH   1   6
ATOM      6  C   UNL     1      34.903  19.429  22.329  1.00  0.00     0.197 C 
BRANCH   6   7
ATOM      7  C   UNL     1      36.248  18.913  21.963  1.00  0.00    -0.022 A 
ATOM      8  C   UNL     1      36.688  17.643  22.270  1.00  0.00     0.006 A 
ATOM      9  C   UNL     1      37.119  19.734  21.276  1.00  0.00     0.006 A 
ATOM     10  C   UNL     1      37.941  17.183  21.920  1.00  0.00     0.000 A 
ATOM     11  C   UNL     1      38.379  19.305  20.911  1.00  0.00     0.000 A 
ATOM     12  C   UNL     1      38.790  18.029  21.234  1.00  0.00     0.000 A 
ENDBRANCH   6   7
ENDBRANCH   1   6
TORSDOF 4
BEGIN_RES LYS A 135
REMARK  4 active torsions:
REMARK  status: ('A' for Active; 'I' for Inactive)
REMARK    1  A    between atoms: CA   and  CB  
REMARK    2  A    between atoms: CB   and  CG  
REMARK    3  A    between atoms: CG   and  CD  
REMARK    4  A    between atoms: CD   and  CE  
ROOT
ATOM      1  CA  LYS A 135      33.193  34.663   9.290  1.00 25.02     0.186 C 
ENDROOT
BRANCH   1   2
ATOM      2  CB  LYS A 135      32.060  35.360  10.034  1.00 26.63     0.034 C 
BRANCH   2   3
ATOM      3  CG  LYS A 135      30.799  35.495   9.221  1.00 29.45     0.005 C 
BRANCH   3   4
ATOM      4  CD  LYS A 135      30.135  34.140   9.031  1.00 32.00     0.041 C 
BRANCH   4   5
ATOM      5  CE  LYS A 135      28.665  34.309   8.697  1.00 34.25     0.338 C 
ATOM      6  NZ  LYS A 135      27.804  33.617   9.695  1.00 35.99     0.618 N 
ENDBRANCH   4   5
ENDBRANCH   3   4
ENDBRANCH   2   3
ENDBRANCH   1   2
END_RES LYS A 135
BEGIN_RES ARG A 124
REMARK  4 active torsions:
REMARK  status: ('A' for Active; 'I' for Inactive)
REMARK    5  A    between atoms: CA   and  CB  
REMARK    6  A    between atoms: CB   and  CG  
REMARK    7  A    between atoms: CG   and  CD  
REMARK    8  A    between atoms: CD   and  NE  
REMARK       I    between atoms: NE   and  CZ  
ROOT
ATOM      7  CA  ARG A 124      31.045  26.515   9.594  1.00 17.84     0.186 C 
ENDROOT
BRANCH   7   8
ATOM      8  CB  ARG A 124      29.529  26.705   9.647  1.00 16.18     0.036 C 
BRANCH   8   9
ATOM      9  CG  ARG A 124      28.897  26.724  11.085  1.00 16.22     0.029 C 
BRANCH   9  10
ATOM     10  CD  ARG A 124      27.488  26.090  11.129  1.00 15.09     0.145 C 
BRANCH  10  11
ATOM     11  NE  ARG A 124      26.405  27.058  11.411  1.00 16.98    -0.083 NA
ATOM     12  CZ  ARG A 124      26.073  27.495  12.621  1.00 18.21     0.782 C 
ATOM     13  NH1 ARG A 124      26.723  27.087  13.705  1.00 21.11     0.063 N 
ATOM     14  NH2 ARG A 124      25.091  28.373  12.760  1.00 21.25     0.063 N 
ENDBRANCH  10  11
ENDBRANCH   9  10
ENDBRANCH   8   9
ENDBRANCH   7   8
END_RES ARG A 124
BEGIN_RES ASN A 133
REMARK  2 active torsions:
REMARK  status: ('A' for Active; 'I' for Inactive)
REMARK    9  A    between atoms: CA   and  CB  
REMARK   10  A    between atoms: CB   and  CG  
ROOT
ATOM     15  CA  ASN A 133      31.225  30.257  11.749  1.00 18.15     0.196 C 
ENDROOT
BRANCH  15  16
ATOM     16  CB  ASN A 133      30.092  31.240  11.460  1.00 18.27     0.126 C 
BRANCH  16  17
ATOM     17  CG  ASN A 133      28.737  30.604  11.485  1.00 18.94     0.276 C 
ATOM     18  OD1 ASN A 133      28.401  29.783  10.629  1.00 18.09    -0.269 OA
ATOM     19  ND2 ASN A 133      27.933  30.984  12.477  1.00 18.93    -0.107 N 
ENDBRANCH  16  17
ENDBRANCH  15  16
END_RES ASN A 133
BEGIN_RES LYS A 131
REMARK  4 active torsions:
REMARK  status: ('A' for Active; 'I' for Inactive)
REMARK   11  A    between atoms: CA   and  CB  
REMARK   12  A    between atoms: CB   and  CG  
REMARK   13  A    between atoms: CG   and  CD  
REMARK   14  A    between atoms: CD   and  CE  
ROOT
ATOM     20  CA  LYS A 131      29.867  25.555  16.977  1.00 20.52     0.186 C 
ENDROOT
BRANCH  20  21
ATOM     21  CB  LYS A 131      28.345  25.722  17.026  1.00 20.94     0.034 C 
BRANCH  21  22
ATOM     22  CG  LYS A 131      27.601  24.406  16.858  1.00 22.96     0.005 C 
BRANCH  22  23
ATOM     23  CD  LYS A 131      26.150  24.524  17.235  1.00 24.33     0.041 C 
BRANCH  23  24
ATOM     24  CE  LYS A 131      26.026  24.644  18.750  1.00 26.91     0.338 C 
ATOM     25  NZ  LYS A 131      25.567  23.362  19.336  1.00 27.40     0.618 N 
ENDBRANCH  23  24
ENDBRANCH  22  23
ENDBRANCH  21  22
ENDBRANCH  20  21
END_RES LYS A 131
