REMARK VINA RESULT:    -3.191      4.700      7.646
REMARK INTER + INTRA:          -9.053
REMARK INTER:                  -5.253
REMARK INTRA:                  -3.800
REMARK UNBOUND:                -5.395
REMARK SMILES N#Cc1cccc(CN)c1
REMARK SMILES IDX 7 1 6 2 5 3 4 4 3 5 10 6 8 7 9 8 2 11 1 12
REMARK H PARENT 9 9 9 10
REMARK Flexibility Score: inf
ROOT
ATOM      1  C   UNL     1      29.363  34.764   8.191  1.00  0.00    -0.033 A 
ATOM      2  C   UNL     1      29.145  35.331   6.952  1.00  0.00     0.005 A 
ATOM      3  C   UNL     1      27.918  35.852   6.582  1.00  0.00     0.002 A 
ATOM      4  C   UNL     1      26.872  35.795   7.497  1.00  0.00     0.019 A 
ATOM      5  C   UNL     1      27.044  35.240   8.737  1.00  0.00     0.052 A 
ATOM      6  C   UNL     1      28.298  34.725   9.077  1.00  0.00     0.024 A 
ENDROOT
BRANCH   1   7
ATOM      7  C   UNL     1      30.681  34.218   8.555  1.00  0.00     0.113 C 
BRANCH   7   8
ATOM      8  N   UNL     1      30.661  33.435   9.771  1.00  0.00    -0.326 NA
ATOM      9  H   UNL     1      30.732  34.123  10.569  1.00  0.00     0.119 HD
ATOM     10  H   UNL     1      31.506  32.793   9.766  1.00  0.00     0.119 HD
ENDBRANCH   7   8
ENDBRANCH   1   7
BRANCH   5  11
ATOM     11  C   UNL     1      25.979  35.167   9.708  1.00  0.00     0.099 C 
ATOM     12  N   UNL     1      25.124  35.127  10.475  1.00  0.00    -0.192 NA
ENDBRANCH   5  11
TORSDOF 3
BEGIN_RES LYS A 135
REMARK  4 active torsions:
REMARK  status: ('A' for Active; 'I' for Inactive)
REMARK    1  A    between atoms: CA   and  CB  
REMARK    2  A    between atoms: CB   and  CG  
REMARK    3  A    between atoms: CG   and  CD  
REMARK    4  A    between atoms: CD   and  CE  
ROOT
ATOM      1  CA  LYS A 135      33.193  34.663   9.290  1.00 25.02     0.186 C 
ENDROOT
BRANCH   1   2
ATOM      2  CB  LYS A 135      32.060  35.360  10.034  1.00 26.63     0.034 C 
BRANCH   2   3
ATOM      3  CG  LYS A 135      32.527  36.187  11.204  1.00 29.45     0.005 C 
BRANCH   3   4
ATOM      4  CD  LYS A 135      31.887  37.567  11.175  1.00 32.00     0.041 C 
BRANCH   4   5
ATOM      5  CE  LYS A 135      30.976  37.706   9.970  1.00 34.25     0.338 C 
ATOM      6  NZ  LYS A 135      29.563  37.918  10.389  1.00 35.99     0.618 N 
ENDBRANCH   4   5
ENDBRANCH   3   4
ENDBRANCH   2   3
ENDBRANCH   1   2
END_RES LYS A 135
BEGIN_RES ARG A 124
REMARK  4 active torsions:
REMARK  status: ('A' for Active; 'I' for Inactive)
REMARK    5  A    between atoms: CA   and  CB  
REMARK    6  A    between atoms: CB   and  CG  
REMARK    7  A    between atoms: CG   and  CD  
REMARK    8  A    between atoms: CD   and  NE  
REMARK       I    between atoms: NE   and  CZ  
ROOT
ATOM      7  CA  ARG A 124      31.045  26.515   9.594  1.00 17.84     0.186 C 
ENDROOT
BRANCH   7   8
ATOM      8  CB  ARG A 124      29.529  26.705   9.647  1.00 16.18     0.036 C 
BRANCH   8   9
ATOM      9  CG  ARG A 124      29.033  28.194   9.702  1.00 16.22     0.029 C 
BRANCH   9  10
ATOM     10  CD  ARG A 124      27.864  28.401  10.691  1.00 15.09     0.145 C 
BRANCH  10  11
ATOM     11  NE  ARG A 124      28.047  27.711  11.987  1.00 16.98    -0.083 NA
ATOM     12  CZ  ARG A 124      27.061  27.260  12.754  1.00 18.21     0.782 C 
ATOM     13  NH1 ARG A 124      25.790  27.391  12.393  1.00 21.11     0.063 N 
ATOM     14  NH2 ARG A 124      27.338  26.644  13.893  1.00 21.25     0.063 N 
ENDBRANCH  10  11
ENDBRANCH   9  10
ENDBRANCH   8   9
ENDBRANCH   7   8
END_RES ARG A 124
BEGIN_RES ASN A 133
REMARK  2 active torsions:
REMARK  status: ('A' for Active; 'I' for Inactive)
REMARK    9  A    between atoms: CA   and  CB  
REMARK   10  A    between atoms: CB   and  CG  
ROOT
ATOM     15  CA  ASN A 133      31.225  30.257  11.749  1.00 18.15     0.196 C 
ENDROOT
BRANCH  15  16
ATOM     16  CB  ASN A 133      30.092  31.240  11.460  1.00 18.27     0.126 C 
BRANCH  16  17
ATOM     17  CG  ASN A 133      29.294  31.597  12.676  1.00 18.94     0.276 C 
ATOM     18  OD1 ASN A 133      28.420  30.844  13.109  1.00 18.09    -0.269 OA
ATOM     19  ND2 ASN A 133      29.589  32.765  13.244  1.00 18.93    -0.107 N 
ENDBRANCH  16  17
ENDBRANCH  15  16
END_RES ASN A 133
BEGIN_RES LYS A 131
REMARK  4 active torsions:
REMARK  status: ('A' for Active; 'I' for Inactive)
REMARK   11  A    between atoms: CA   and  CB  
REMARK   12  A    between atoms: CB   and  CG  
REMARK   13  A    between atoms: CG   and  CD  
REMARK   14  A    between atoms: CD   and  CE  
ROOT
ATOM     20  CA  LYS A 131      29.867  25.555  16.977  1.00 20.52     0.186 C 
ENDROOT
BRANCH  20  21
ATOM     21  CB  LYS A 131      28.345  25.722  17.026  1.00 20.94     0.034 C 
BRANCH  21  22
ATOM     22  CG  LYS A 131      27.600  24.407  16.855  1.00 22.96     0.005 C 
BRANCH  22  23
ATOM     23  CD  LYS A 131      26.640  24.149  17.982  1.00 24.33     0.041 C 
BRANCH  23  24
ATOM     24  CE  LYS A 131      25.736  22.974  17.622  1.00 26.91     0.338 C 
ATOM     25  NZ  LYS A 131      24.900  22.588  18.783  1.00 27.40     0.618 N 
ENDBRANCH  23  24
ENDBRANCH  22  23
ENDBRANCH  21  22
ENDBRANCH  20  21
END_RES LYS A 131
