REMARK VINA RESULT:    -3.591      1.500      1.809
REMARK INTER + INTRA:          -9.438
REMARK INTER:                  -3.815
REMARK INTRA:                  -5.623
REMARK UNBOUND:                -5.217
REMARK SMILES NCCC(=O)O
REMARK SMILES IDX 3 1 2 2 1 3 4 6 5 7 6 8
REMARK H PARENT 1 4 1 5 6 9
REMARK Flexibility Score: inf
ROOT
ATOM      1  C   UNL     1      37.669  33.694  13.666  1.00  0.00     0.137 C 
ENDROOT
BRANCH   1   2
ATOM      2  C   UNL     1      38.985  34.255  13.200  1.00  0.00     0.089 C 
BRANCH   2   3
ATOM      3  N   UNL     1      39.729  33.200  12.568  1.00  0.00    -0.330 NA
ATOM      4  H   UNL     1      40.695  33.440  12.314  1.00  0.00     0.118 HD
ATOM      5  H   UNL     1      39.576  32.267  12.958  1.00  0.00     0.118 HD
ENDBRANCH   2   3
ENDBRANCH   1   2
BRANCH   1   6
ATOM      6  C   UNL     1      36.688  33.588  12.565  1.00  0.00     0.304 C 
ATOM      7  O   UNL     1      37.089  33.459  11.386  1.00  0.00    -0.252 OA
BRANCH   6   8
ATOM      8  O   UNL     1      35.323  33.627  12.781  1.00  0.00    -0.481 OA
ATOM      9  H   UNL     1      34.812  34.340  12.234  1.00  0.00     0.296 HD
ENDBRANCH   6   8
ENDBRANCH   1   6
TORSDOF 4
BEGIN_RES LYS A 135
REMARK  4 active torsions:
REMARK  status: ('A' for Active; 'I' for Inactive)
REMARK    1  A    between atoms: CA   and  CB  
REMARK    2  A    between atoms: CB   and  CG  
REMARK    3  A    between atoms: CG   and  CD  
REMARK    4  A    between atoms: CD   and  CE  
ROOT
ATOM      1  CA  LYS A 135      33.193  34.663   9.290  1.00 25.02     0.186 C 
ENDROOT
BRANCH   1   2
ATOM      2  CB  LYS A 135      32.060  35.360  10.034  1.00 26.63     0.034 C 
BRANCH   2   3
ATOM      3  CG  LYS A 135      30.815  35.539   9.204  1.00 29.45     0.005 C 
BRANCH   3   4
ATOM      4  CD  LYS A 135      30.184  34.193   8.886  1.00 32.00     0.041 C 
BRANCH   4   5
ATOM      5  CE  LYS A 135      28.697  34.349   8.631  1.00 34.25     0.338 C 
ATOM      6  NZ  LYS A 135      27.898  33.647   9.674  1.00 35.99     0.618 N 
ENDBRANCH   4   5
ENDBRANCH   3   4
ENDBRANCH   2   3
ENDBRANCH   1   2
END_RES LYS A 135
BEGIN_RES ARG A 124
REMARK  4 active torsions:
REMARK  status: ('A' for Active; 'I' for Inactive)
REMARK    5  A    between atoms: CA   and  CB  
REMARK    6  A    between atoms: CB   and  CG  
REMARK    7  A    between atoms: CG   and  CD  
REMARK    8  A    between atoms: CD   and  NE  
REMARK       I    between atoms: NE   and  CZ  
ROOT
ATOM      7  CA  ARG A 124      31.045  26.515   9.594  1.00 17.84     0.186 C 
ENDROOT
BRANCH   7   8
ATOM      8  CB  ARG A 124      29.529  26.705   9.647  1.00 16.18     0.036 C 
BRANCH   8   9
ATOM      9  CG  ARG A 124      28.783  25.905  10.774  1.00 16.22     0.029 C 
BRANCH   9  10
ATOM     10  CD  ARG A 124      27.394  26.494  11.110  1.00 15.09     0.145 C 
BRANCH  10  11
ATOM     11  NE  ARG A 124      27.236  26.882  12.529  1.00 16.98    -0.083 NA
ATOM     12  CZ  ARG A 124      26.129  27.390  13.059  1.00 18.21     0.782 C 
ATOM     13  NH1 ARG A 124      25.038  27.581  12.327  1.00 21.11     0.063 N 
ATOM     14  NH2 ARG A 124      26.092  27.693  14.347  1.00 21.25     0.063 N 
ENDBRANCH  10  11
ENDBRANCH   9  10
ENDBRANCH   8   9
ENDBRANCH   7   8
END_RES ARG A 124
BEGIN_RES ASN A 133
REMARK  2 active torsions:
REMARK  status: ('A' for Active; 'I' for Inactive)
REMARK    9  A    between atoms: CA   and  CB  
REMARK   10  A    between atoms: CB   and  CG  
ROOT
ATOM     15  CA  ASN A 133      31.225  30.257  11.749  1.00 18.15     0.196 C 
ENDROOT
BRANCH  15  16
ATOM     16  CB  ASN A 133      30.092  31.240  11.460  1.00 18.27     0.126 C 
BRANCH  16  17
ATOM     17  CG  ASN A 133      28.733  30.618  11.544  1.00 18.94     0.276 C 
ATOM     18  OD1 ASN A 133      28.405  29.696  10.794  1.00 18.09    -0.269 OA
ATOM     19  ND2 ASN A 133      27.917  31.122  12.469  1.00 18.93    -0.107 N 
ENDBRANCH  16  17
ENDBRANCH  15  16
END_RES ASN A 133
BEGIN_RES LYS A 131
REMARK  4 active torsions:
REMARK  status: ('A' for Active; 'I' for Inactive)
REMARK   11  A    between atoms: CA   and  CB  
REMARK   12  A    between atoms: CB   and  CG  
REMARK   13  A    between atoms: CG   and  CD  
REMARK   14  A    between atoms: CD   and  CE  
ROOT
ATOM     20  CA  LYS A 131      29.867  25.555  16.977  1.00 20.52     0.186 C 
ENDROOT
BRANCH  20  21
ATOM     21  CB  LYS A 131      28.345  25.722  17.026  1.00 20.94     0.034 C 
BRANCH  21  22
ATOM     22  CG  LYS A 131      27.600  24.407  16.855  1.00 22.96     0.005 C 
BRANCH  22  23
ATOM     23  CD  LYS A 131      26.141  24.533  17.195  1.00 24.33     0.041 C 
BRANCH  23  24
ATOM     24  CE  LYS A 131      25.631  23.207  17.750  1.00 26.91     0.338 C 
ATOM     25  NZ  LYS A 131      25.574  23.252  19.231  1.00 27.40     0.618 N 
ENDBRANCH  23  24
ENDBRANCH  22  23
ENDBRANCH  21  22
ENDBRANCH  20  21
END_RES LYS A 131
