REMARK VINA RESULT:    -4.440      0.000      0.000
REMARK INTER + INTRA:          -9.601
REMARK INTER:                  -4.968
REMARK INTRA:                  -4.633
REMARK UNBOUND:                -5.032
REMARK SMILES Nc1cccc(Cl)c1
REMARK SMILES IDX 2 1 3 2 4 3 5 4 6 5 7 6 8 7 1 8
REMARK H PARENT 1 9 1 10
REMARK Flexibility Score: inf
ROOT
ATOM      1  C   UNL     1      29.665  34.400   8.440  1.00  0.00     0.033 A 
ATOM      2  C   UNL     1      28.683  33.904   9.296  1.00  0.00     0.025 A 
ATOM      3  C   UNL     1      27.354  34.197   9.084  1.00  0.00     0.004 A 
ATOM      4  C   UNL     1      26.930  34.982   8.033  1.00  0.00     0.020 A 
ATOM      5  C   UNL     1      27.898  35.474   7.184  1.00  0.00     0.043 A 
ATOM      6  Cl  UNL     1      27.467  36.477   5.823  1.00  0.00    -0.084 Cl
ATOM      7  C   UNL     1      29.247  35.188   7.384  1.00  0.00     0.046 A 
ENDROOT
BRANCH   1   8
ATOM      8  N   UNL     1      31.034  34.111   8.642  1.00  0.00    -0.399 N 
ATOM      9  H   UNL     1      31.548  33.542   7.936  1.00  0.00     0.156 HD
ATOM     10  H   UNL     1      31.576  34.438   9.470  1.00  0.00     0.156 HD
ENDBRANCH   1   8
TORSDOF 1
BEGIN_RES LYS A 135
REMARK  4 active torsions:
REMARK  status: ('A' for Active; 'I' for Inactive)
REMARK    1  A    between atoms: CA   and  CB  
REMARK    2  A    between atoms: CB   and  CG  
REMARK    3  A    between atoms: CG   and  CD  
REMARK    4  A    between atoms: CD   and  CE  
ROOT
ATOM      1  CA  LYS A 135      33.193  34.663   9.290  1.00 25.02     0.186 C 
ENDROOT
BRANCH   1   2
ATOM      2  CB  LYS A 135      32.060  35.360  10.034  1.00 26.63     0.034 C 
BRANCH   2   3
ATOM      3  CG  LYS A 135      32.528  36.197  11.196  1.00 29.45     0.005 C 
BRANCH   3   4
ATOM      4  CD  LYS A 135      32.046  35.606  12.512  1.00 32.00     0.041 C 
BRANCH   4   5
ATOM      5  CE  LYS A 135      30.663  35.005  12.351  1.00 34.25     0.338 C 
ATOM      6  NZ  LYS A 135      30.316  34.138  13.511  1.00 35.99     0.618 N 
ENDBRANCH   4   5
ENDBRANCH   3   4
ENDBRANCH   2   3
ENDBRANCH   1   2
END_RES LYS A 135
BEGIN_RES ARG A 124
REMARK  4 active torsions:
REMARK  status: ('A' for Active; 'I' for Inactive)
REMARK    5  A    between atoms: CA   and  CB  
REMARK    6  A    between atoms: CB   and  CG  
REMARK    7  A    between atoms: CG   and  CD  
REMARK    8  A    between atoms: CD   and  NE  
REMARK       I    between atoms: NE   and  CZ  
ROOT
ATOM      7  CA  ARG A 124      31.045  26.515   9.594  1.00 17.84     0.186 C 
ENDROOT
BRANCH   7   8
ATOM      8  CB  ARG A 124      29.529  26.705   9.647  1.00 16.18     0.036 C 
BRANCH   8   9
ATOM      9  CG  ARG A 124      28.905  26.791  11.086  1.00 16.22     0.029 C 
BRANCH   9  10
ATOM     10  CD  ARG A 124      27.541  26.071  11.192  1.00 15.09     0.145 C 
BRANCH  10  11
ATOM     11  NE  ARG A 124      26.399  26.984  11.413  1.00 16.98    -0.083 NA
ATOM     12  CZ  ARG A 124      26.020  27.457  12.595  1.00 18.21     0.782 C 
ATOM     13  NH1 ARG A 124      26.675  27.140  13.706  1.00 21.11     0.063 N 
ATOM     14  NH2 ARG A 124      24.986  28.280  12.678  1.00 21.25     0.063 N 
ENDBRANCH  10  11
ENDBRANCH   9  10
ENDBRANCH   8   9
ENDBRANCH   7   8
END_RES ARG A 124
BEGIN_RES ASN A 133
REMARK  2 active torsions:
REMARK  status: ('A' for Active; 'I' for Inactive)
REMARK    9  A    between atoms: CA   and  CB  
REMARK   10  A    between atoms: CB   and  CG  
ROOT
ATOM     15  CA  ASN A 133      31.225  30.257  11.749  1.00 18.15     0.196 C 
ENDROOT
BRANCH  15  16
ATOM     16  CB  ASN A 133      30.092  31.240  11.460  1.00 18.27     0.126 C 
BRANCH  16  17
ATOM     17  CG  ASN A 133      28.732  30.625  11.573  1.00 18.94     0.276 C 
ATOM     18  OD1 ASN A 133      28.334  29.800  10.748  1.00 18.09    -0.269 OA
ATOM     19  ND2 ASN A 133      27.995  31.026  12.608  1.00 18.93    -0.107 N 
ENDBRANCH  16  17
ENDBRANCH  15  16
END_RES ASN A 133
BEGIN_RES LYS A 131
REMARK  4 active torsions:
REMARK  status: ('A' for Active; 'I' for Inactive)
REMARK   11  A    between atoms: CA   and  CB  
REMARK   12  A    between atoms: CB   and  CG  
REMARK   13  A    between atoms: CG   and  CD  
REMARK   14  A    between atoms: CD   and  CE  
ROOT
ATOM     20  CA  LYS A 131      29.867  25.555  16.977  1.00 20.52     0.186 C 
ENDROOT
BRANCH  20  21
ATOM     21  CB  LYS A 131      28.345  25.722  17.026  1.00 20.94     0.034 C 
BRANCH  21  22
ATOM     22  CG  LYS A 131      27.599  24.439  16.694  1.00 22.96     0.005 C 
BRANCH  22  23
ATOM     23  CD  LYS A 131      26.925  23.847  17.900  1.00 24.33     0.041 C 
BRANCH  23  24
ATOM     24  CE  LYS A 131      25.542  23.335  17.511  1.00 26.91     0.338 C 
ATOM     25  NZ  LYS A 131      24.745  24.417  16.886  1.00 27.40     0.618 N 
ENDBRANCH  23  24
ENDBRANCH  22  23
ENDBRANCH  21  22
ENDBRANCH  20  21
END_RES LYS A 131
