REMARK VINA RESULT:    -4.171      4.943     10.721
REMARK INTER + INTRA:         -10.164
REMARK INTER:                  -3.937
REMARK INTRA:                  -6.227
REMARK UNBOUND:                -5.627
REMARK SMILES CC(=O)c1ccccc1N
REMARK SMILES IDX 4 1 5 2 6 3 7 4 8 5 9 6 2 7 1 8 3 9 10 10
REMARK H PARENT 10 11 10 12
REMARK Flexibility Score: inf
ROOT
ATOM      1  C   UNL     1      31.850  33.980  16.035  1.00  0.00     0.040 A 
ATOM      2  C   UNL     1      31.969  34.683  17.218  1.00  0.00     0.014 A 
ATOM      3  C   UNL     1      31.494  34.172  18.409  1.00  0.00     0.001 A 
ATOM      4  C   UNL     1      30.881  32.943  18.477  1.00  0.00     0.002 A 
ATOM      5  C   UNL     1      30.754  32.226  17.303  1.00  0.00     0.026 A 
ATOM      6  C   UNL     1      31.240  32.755  16.103  1.00  0.00     0.042 A 
ENDROOT
BRANCH   1   7
ATOM      7  C   UNL     1      32.341  34.500  14.790  1.00  0.00     0.161 C 
ATOM      8  C   UNL     1      33.757  34.813  14.508  1.00  0.00     0.093 C 
ATOM      9  O   UNL     1      31.505  34.716  13.846  1.00  0.00    -0.294 OA
ENDBRANCH   1   7
BRANCH   6  10
ATOM     10  N   UNL     1      31.105  32.014  14.904  1.00  0.00    -0.398 N 
ATOM     11  H   UNL     1      30.178  31.738  14.510  1.00  0.00     0.156 HD
ATOM     12  H   UNL     1      31.936  31.692  14.332  1.00  0.00     0.156 HD
ENDBRANCH   6  10
TORSDOF 2
BEGIN_RES LYS A 135
REMARK  4 active torsions:
REMARK  status: ('A' for Active; 'I' for Inactive)
REMARK    1  A    between atoms: CA   and  CB  
REMARK    2  A    between atoms: CB   and  CG  
REMARK    3  A    between atoms: CG   and  CD  
REMARK    4  A    between atoms: CD   and  CE  
ROOT
ATOM      1  CA  LYS A 135      33.193  34.663   9.290  1.00 25.02     0.186 C 
ENDROOT
BRANCH   1   2
ATOM      2  CB  LYS A 135      32.060  35.360  10.034  1.00 26.63     0.034 C 
BRANCH   2   3
ATOM      3  CG  LYS A 135      30.703  34.764   9.761  1.00 29.45     0.005 C 
BRANCH   3   4
ATOM      4  CD  LYS A 135      30.483  34.593   8.266  1.00 32.00     0.041 C 
BRANCH   4   5
ATOM      5  CE  LYS A 135      29.032  34.854   7.908  1.00 34.25     0.338 C 
ATOM      6  NZ  LYS A 135      28.922  35.602   6.625  1.00 35.99     0.618 N 
ENDBRANCH   4   5
ENDBRANCH   3   4
ENDBRANCH   2   3
ENDBRANCH   1   2
END_RES LYS A 135
BEGIN_RES ARG A 124
REMARK  4 active torsions:
REMARK  status: ('A' for Active; 'I' for Inactive)
REMARK    5  A    between atoms: CA   and  CB  
REMARK    6  A    between atoms: CB   and  CG  
REMARK    7  A    between atoms: CG   and  CD  
REMARK    8  A    between atoms: CD   and  NE  
REMARK       I    between atoms: NE   and  CZ  
ROOT
ATOM      7  CA  ARG A 124      31.045  26.515   9.594  1.00 17.84     0.186 C 
ENDROOT
BRANCH   7   8
ATOM      8  CB  ARG A 124      29.529  26.705   9.647  1.00 16.18     0.036 C 
BRANCH   8   9
ATOM      9  CG  ARG A 124      28.911  26.835  11.085  1.00 16.22     0.029 C 
BRANCH   9  10
ATOM     10  CD  ARG A 124      27.560  26.097  11.226  1.00 15.09     0.145 C 
BRANCH  10  11
ATOM     11  NE  ARG A 124      26.406  26.997  11.438  1.00 16.98    -0.083 NA
ATOM     12  CZ  ARG A 124      26.013  27.466  12.617  1.00 18.21     0.782 C 
ATOM     13  NH1 ARG A 124      26.663  27.158  13.733  1.00 21.11     0.063 N 
ATOM     14  NH2 ARG A 124      24.970  28.278  12.692  1.00 21.25     0.063 N 
ENDBRANCH  10  11
ENDBRANCH   9  10
ENDBRANCH   8   9
ENDBRANCH   7   8
END_RES ARG A 124
BEGIN_RES ASN A 133
REMARK  2 active torsions:
REMARK  status: ('A' for Active; 'I' for Inactive)
REMARK    9  A    between atoms: CA   and  CB  
REMARK   10  A    between atoms: CB   and  CG  
ROOT
ATOM     15  CA  ASN A 133      31.225  30.257  11.749  1.00 18.15     0.196 C 
ENDROOT
BRANCH  15  16
ATOM     16  CB  ASN A 133      30.092  31.240  11.460  1.00 18.27     0.126 C 
BRANCH  16  17
ATOM     17  CG  ASN A 133      28.731  30.627  11.580  1.00 18.94     0.276 C 
ATOM     18  OD1 ASN A 133      28.314  29.829  10.738  1.00 18.09    -0.269 OA
ATOM     19  ND2 ASN A 133      28.016  30.998  12.642  1.00 18.93    -0.107 N 
ENDBRANCH  16  17
ENDBRANCH  15  16
END_RES ASN A 133
BEGIN_RES LYS A 131
REMARK  4 active torsions:
REMARK  status: ('A' for Active; 'I' for Inactive)
REMARK   11  A    between atoms: CA   and  CB  
REMARK   12  A    between atoms: CB   and  CG  
REMARK   13  A    between atoms: CG   and  CD  
REMARK   14  A    between atoms: CD   and  CE  
ROOT
ATOM     20  CA  LYS A 131      29.867  25.555  16.977  1.00 20.52     0.186 C 
ENDROOT
BRANCH  20  21
ATOM     21  CB  LYS A 131      28.345  25.722  17.026  1.00 20.94     0.034 C 
BRANCH  21  22
ATOM     22  CG  LYS A 131      27.599  24.446  16.669  1.00 22.96     0.005 C 
BRANCH  22  23
ATOM     23  CD  LYS A 131      26.979  23.796  17.875  1.00 24.33     0.041 C 
BRANCH  23  24
ATOM     24  CE  LYS A 131      25.600  23.256  17.510  1.00 26.91     0.338 C 
ATOM     25  NZ  LYS A 131      24.758  24.332  16.934  1.00 27.40     0.618 N 
ENDBRANCH  23  24
ENDBRANCH  22  23
ENDBRANCH  21  22
ENDBRANCH  20  21
END_RES LYS A 131
