REMARK VINA RESULT:    -3.097      0.000      0.000
REMARK INTER + INTRA:         -10.681
REMARK INTER:                  -4.374
REMARK INTRA:                  -6.307
REMARK UNBOUND:                -6.407
REMARK SMILES CCOC(CCN)OCC
REMARK SMILES IDX 5 1 4 2 3 3 2 4 1 5 8 6 9 7 10 8 6 9 7 10
REMARK H PARENT 7 11 7 12
REMARK Flexibility Score: inf
ROOT
ATOM      1  C   UNL     1      37.998  33.123  12.872  1.00  0.00     0.077 C 
ENDROOT
BRANCH   1   2
ATOM      2  C   UNL     1      38.443  34.267  13.728  1.00  0.00     0.251 C 
BRANCH   2   3
ATOM      3  O   UNL     1      39.815  34.295  13.889  1.00  0.00    -0.353 OA
BRANCH   3   4
ATOM      4  C   UNL     1      40.507  34.794  12.821  1.00  0.00     0.160 C 
ATOM      5  C   UNL     1      40.090  36.260  12.660  1.00  0.00     0.035 C 
ENDBRANCH   3   4
ENDBRANCH   2   3
BRANCH   2   6
ATOM      6  O   UNL     1      37.768  34.244  14.944  1.00  0.00    -0.353 OA
BRANCH   6   7
ATOM      7  C   UNL     1      37.842  35.460  15.567  1.00  0.00     0.160 C 
ATOM      8  C   UNL     1      36.608  35.796  16.371  1.00  0.00     0.035 C 
ENDBRANCH   6   7
ENDBRANCH   2   6
ENDBRANCH   1   2
BRANCH   1   9
ATOM      9  C   UNL     1      36.790  33.447  12.031  1.00  0.00     0.083 C 
BRANCH   9  10
ATOM     10  N   UNL     1      35.589  33.613  12.804  1.00  0.00    -0.330 NA
ATOM     11  H   UNL     1      35.313  34.622  12.885  1.00  0.00     0.118 HD
ATOM     12  H   UNL     1      34.799  33.042  12.464  1.00  0.00     0.118 HD
ENDBRANCH   9  10
ENDBRANCH   1   9
TORSDOF 7
BEGIN_RES LYS A 135
REMARK  4 active torsions:
REMARK  status: ('A' for Active; 'I' for Inactive)
REMARK    1  A    between atoms: CA   and  CB  
REMARK    2  A    between atoms: CB   and  CG  
REMARK    3  A    between atoms: CG   and  CD  
REMARK    4  A    between atoms: CD   and  CE  
ROOT
ATOM      1  CA  LYS A 135      33.193  34.663   9.290  1.00 25.02     0.186 C 
ENDROOT
BRANCH   1   2
ATOM      2  CB  LYS A 135      32.060  35.360  10.034  1.00 26.63     0.034 C 
BRANCH   2   3
ATOM      3  CG  LYS A 135      30.705  34.757   9.769  1.00 29.45     0.005 C 
BRANCH   3   4
ATOM      4  CD  LYS A 135      30.481  34.574   8.276  1.00 32.00     0.041 C 
BRANCH   4   5
ATOM      5  CE  LYS A 135      29.035  34.857   7.916  1.00 34.25     0.338 C 
ATOM      6  NZ  LYS A 135      28.937  35.572   6.613  1.00 35.99     0.618 N 
ENDBRANCH   4   5
ENDBRANCH   3   4
ENDBRANCH   2   3
ENDBRANCH   1   2
END_RES LYS A 135
BEGIN_RES ARG A 124
REMARK  4 active torsions:
REMARK  status: ('A' for Active; 'I' for Inactive)
REMARK    5  A    between atoms: CA   and  CB  
REMARK    6  A    between atoms: CB   and  CG  
REMARK    7  A    between atoms: CG   and  CD  
REMARK    8  A    between atoms: CD   and  NE  
REMARK       I    between atoms: NE   and  CZ  
ROOT
ATOM      7  CA  ARG A 124      31.045  26.515   9.594  1.00 17.84     0.186 C 
ENDROOT
BRANCH   7   8
ATOM      8  CB  ARG A 124      29.529  26.705   9.647  1.00 16.18     0.036 C 
BRANCH   8   9
ATOM      9  CG  ARG A 124      28.899  26.740  11.085  1.00 16.22     0.029 C 
BRANCH   9  10
ATOM     10  CD  ARG A 124      27.511  26.063  11.149  1.00 15.09     0.145 C 
BRANCH  10  11
ATOM     11  NE  ARG A 124      26.396  27.005  11.390  1.00 16.98    -0.083 NA
ATOM     12  CZ  ARG A 124      26.029  27.459  12.584  1.00 18.21     0.782 C 
ATOM     13  NH1 ARG A 124      26.670  27.094  13.687  1.00 21.11     0.063 N 
ATOM     14  NH2 ARG A 124      25.021  28.311  12.685  1.00 21.25     0.063 N 
ENDBRANCH  10  11
ENDBRANCH   9  10
ENDBRANCH   8   9
ENDBRANCH   7   8
END_RES ARG A 124
BEGIN_RES ASN A 133
REMARK  2 active torsions:
REMARK  status: ('A' for Active; 'I' for Inactive)
REMARK    9  A    between atoms: CA   and  CB  
REMARK   10  A    between atoms: CB   and  CG  
ROOT
ATOM     15  CA  ASN A 133      31.225  30.257  11.749  1.00 18.15     0.196 C 
ENDROOT
BRANCH  15  16
ATOM     16  CB  ASN A 133      30.092  31.240  11.460  1.00 18.27     0.126 C 
BRANCH  16  17
ATOM     17  CG  ASN A 133      28.734  30.613  11.526  1.00 18.94     0.276 C 
ATOM     18  OD1 ASN A 133      28.357  29.815  10.666  1.00 18.09    -0.269 OA
ATOM     19  ND2 ASN A 133      27.975  30.975  12.560  1.00 18.93    -0.107 N 
ENDBRANCH  16  17
ENDBRANCH  15  16
END_RES ASN A 133
BEGIN_RES LYS A 131
REMARK  4 active torsions:
REMARK  status: ('A' for Active; 'I' for Inactive)
REMARK   11  A    between atoms: CA   and  CB  
REMARK   12  A    between atoms: CB   and  CG  
REMARK   13  A    between atoms: CG   and  CD  
REMARK   14  A    between atoms: CD   and  CE  
ROOT
ATOM     20  CA  LYS A 131      29.867  25.555  16.977  1.00 20.52     0.186 C 
ENDROOT
BRANCH  20  21
ATOM     21  CB  LYS A 131      28.345  25.722  17.026  1.00 20.94     0.034 C 
BRANCH  21  22
ATOM     22  CG  LYS A 131      27.602  24.400  16.912  1.00 22.96     0.005 C 
BRANCH  22  23
ATOM     23  CD  LYS A 131      26.139  24.543  17.231  1.00 24.33     0.041 C 
BRANCH  23  24
ATOM     24  CE  LYS A 131      25.949  24.585  18.744  1.00 26.91     0.338 C 
ATOM     25  NZ  LYS A 131      25.594  23.241  19.259  1.00 27.40     0.618 N 
ENDBRANCH  23  24
ENDBRANCH  22  23
ENDBRANCH  21  22
ENDBRANCH  20  21
END_RES LYS A 131
