REMARK VINA RESULT:    -3.196      3.719      7.160
REMARK INTER + INTRA:          -9.806
REMARK INTER:                  -5.372
REMARK INTRA:                  -4.434
REMARK UNBOUND:                -6.144
REMARK SMILES CC(C)(N)C(=O)c1c[nH]c2ccccc12
REMARK SMILES IDX 1 1 2 2 3 3 4 4 5 7 6 8 7 9 8 10 15 11 9 12 10 13 14 14
REMARK SMILES IDX 11 16 13 17 12 18
REMARK H PARENT 4 5 4 6 9 15
REMARK Flexibility Score: inf
ROOT
ATOM      1  C   UNL     1      29.185  40.858   6.410  1.00  0.00     0.036 C 
ATOM      2  C   UNL     1      29.221  39.366   6.436  1.00  0.00     0.074 C 
ATOM      3  C   UNL     1      29.429  38.951   7.899  1.00  0.00     0.036 C 
ENDROOT
BRANCH   2   4
ATOM      4  N   UNL     1      30.353  38.894   5.674  1.00  0.00    -0.319 NA
ATOM      5  H   UNL     1      30.256  37.904   5.365  1.00  0.00     0.119 HD
ATOM      6  H   UNL     1      30.539  39.480   4.834  1.00  0.00     0.119 HD
ENDBRANCH   2   4
BRANCH   2   7
ATOM      7  C   UNL     1      27.952  38.744   5.993  1.00  0.00     0.184 C 
ATOM      8  O   UNL     1      27.735  38.662   4.753  1.00  0.00    -0.292 OA
BRANCH   7   9
ATOM      9  C   UNL     1      26.962  38.234   6.916  1.00  0.00     0.045 A 
ATOM     10  C   UNL     1      25.920  38.956   7.452  1.00  0.00     0.095 A 
ATOM     11  C   UNL     1      26.836  36.963   7.453  1.00  0.00     0.010 A 
ATOM     12  N   UNL     1      25.188  38.152   8.283  1.00  0.00    -0.360 N 
ATOM     13  C   UNL     1      25.740  36.940   8.287  1.00  0.00     0.046 A 
ATOM     14  C   UNL     1      27.589  35.803   7.287  1.00  0.00     0.011 A 
ATOM     15  H   UNL     1      24.335  38.487   8.811  1.00  0.00     0.166 HD
ATOM     16  C   UNL     1      25.427  35.775   8.928  1.00  0.00     0.027 A 
ATOM     17  C   UNL     1      27.252  34.634   7.947  1.00  0.00     0.001 A 
ATOM     18  C   UNL     1      26.158  34.613   8.780  1.00  0.00     0.002 A 
ENDBRANCH   7   9
ENDBRANCH   2   7
TORSDOF 3
BEGIN_RES LYS A 135
REMARK  4 active torsions:
REMARK  status: ('A' for Active; 'I' for Inactive)
REMARK    1  A    between atoms: CA   and  CB  
REMARK    2  A    between atoms: CB   and  CG  
REMARK    3  A    between atoms: CG   and  CD  
REMARK    4  A    between atoms: CD   and  CE  
ROOT
ATOM      1  CA  LYS A 135      33.193  34.663   9.290  1.00 25.02     0.186 C 
ENDROOT
BRANCH   1   2
ATOM      2  CB  LYS A 135      32.060  35.360  10.034  1.00 26.63     0.034 C 
BRANCH   2   3
ATOM      3  CG  LYS A 135      30.693  35.037   9.489  1.00 29.45     0.005 C 
BRANCH   3   4
ATOM      4  CD  LYS A 135      29.661  35.016  10.605  1.00 32.00     0.041 C 
BRANCH   4   5
ATOM      5  CE  LYS A 135      28.997  36.373  10.743  1.00 34.25     0.338 C 
ATOM      6  NZ  LYS A 135      27.808  36.300  11.637  1.00 35.99     0.618 N 
ENDBRANCH   4   5
ENDBRANCH   3   4
ENDBRANCH   2   3
ENDBRANCH   1   2
END_RES LYS A 135
BEGIN_RES ARG A 124
REMARK  4 active torsions:
REMARK  status: ('A' for Active; 'I' for Inactive)
REMARK    5  A    between atoms: CA   and  CB  
REMARK    6  A    between atoms: CB   and  CG  
REMARK    7  A    between atoms: CG   and  CD  
REMARK    8  A    between atoms: CD   and  NE  
REMARK       I    between atoms: NE   and  CZ  
ROOT
ATOM      7  CA  ARG A 124      31.045  26.515   9.594  1.00 17.84     0.186 C 
ENDROOT
BRANCH   7   8
ATOM      8  CB  ARG A 124      29.529  26.705   9.647  1.00 16.18     0.036 C 
BRANCH   8   9
ATOM      9  CG  ARG A 124      29.005  27.673  10.767  1.00 16.22     0.029 C 
BRANCH   9  10
ATOM     10  CD  ARG A 124      28.409  26.921  11.979  1.00 15.09     0.145 C 
BRANCH  10  11
ATOM     11  NE  ARG A 124      26.936  27.014  12.076  1.00 16.98    -0.083 NA
ATOM     12  CZ  ARG A 124      26.265  27.348  13.173  1.00 18.21     0.782 C 
ATOM     13  NH1 ARG A 124      26.896  27.647  14.303  1.00 21.11     0.063 N 
ATOM     14  NH2 ARG A 124      24.943  27.412  13.146  1.00 21.25     0.063 N 
ENDBRANCH  10  11
ENDBRANCH   9  10
ENDBRANCH   8   9
ENDBRANCH   7   8
END_RES ARG A 124
BEGIN_RES ASN A 133
REMARK  2 active torsions:
REMARK  status: ('A' for Active; 'I' for Inactive)
REMARK    9  A    between atoms: CA   and  CB  
REMARK   10  A    between atoms: CB   and  CG  
ROOT
ATOM     15  CA  ASN A 133      31.225  30.257  11.749  1.00 18.15     0.196 C 
ENDROOT
BRANCH  15  16
ATOM     16  CB  ASN A 133      30.092  31.240  11.460  1.00 18.27     0.126 C 
BRANCH  16  17
ATOM     17  CG  ASN A 133      29.134  31.390  12.601  1.00 18.94     0.276 C 
ATOM     18  OD1 ASN A 133      29.346  32.193  13.511  1.00 18.09    -0.269 OA
ATOM     19  ND2 ASN A 133      28.056  30.608  12.563  1.00 18.93    -0.107 N 
ENDBRANCH  16  17
ENDBRANCH  15  16
END_RES ASN A 133
BEGIN_RES LYS A 131
REMARK  4 active torsions:
REMARK  status: ('A' for Active; 'I' for Inactive)
REMARK   11  A    between atoms: CA   and  CB  
REMARK   12  A    between atoms: CB   and  CG  
REMARK   13  A    between atoms: CG   and  CD  
REMARK   14  A    between atoms: CD   and  CE  
ROOT
ATOM     20  CA  LYS A 131      29.867  25.555  16.977  1.00 20.52     0.186 C 
ENDROOT
BRANCH  20  21
ATOM     21  CB  LYS A 131      28.345  25.722  17.026  1.00 20.94     0.034 C 
BRANCH  21  22
ATOM     22  CG  LYS A 131      27.599  24.420  16.778  1.00 22.96     0.005 C 
BRANCH  22  23
ATOM     23  CD  LYS A 131      26.363  24.305  17.625  1.00 24.33     0.041 C 
BRANCH  23  24
ATOM     24  CE  LYS A 131      25.594  25.621  17.585  1.00 26.91     0.338 C 
ATOM     25  NZ  LYS A 131      24.723  25.677  16.387  1.00 27.40     0.618 N 
ENDBRANCH  23  24
ENDBRANCH  22  23
ENDBRANCH  21  22
ENDBRANCH  20  21
END_RES LYS A 131
