REMARK VINA RESULT:    -3.297      5.510      6.511
REMARK INTER + INTRA:          -9.820
REMARK INTER:                  -4.036
REMARK INTRA:                  -5.784
REMARK UNBOUND:                -5.848
REMARK SMILES NCOCc1ccccc1
REMARK SMILES IDX 3 1 2 2 1 3 4 6 5 7 6 8 10 9 7 10 9 11 8 12
REMARK H PARENT 1 4 1 5
REMARK Flexibility Score: inf
ROOT
ATOM      1  O   UNL     1      38.091  37.380   4.351  1.00  0.00    -0.362 OA
ENDROOT
BRANCH   1   2
ATOM      2  C   UNL     1      39.358  37.083   3.917  1.00  0.00     0.242 C 
BRANCH   2   3
ATOM      3  N   UNL     1      39.516  35.688   3.526  1.00  0.00    -0.309 NA
ATOM      4  H   UNL     1      39.910  35.113   4.291  1.00  0.00     0.121 HD
ATOM      5  H   UNL     1      38.534  35.359   3.290  1.00  0.00     0.121 HD
ENDBRANCH   2   3
ENDBRANCH   1   2
BRANCH   1   6
ATOM      6  C   UNL     1      37.179  37.545   3.311  1.00  0.00     0.197 C 
BRANCH   6   7
ATOM      7  C   UNL     1      35.998  38.319   3.777  1.00  0.00    -0.022 A 
ATOM      8  C   UNL     1      35.168  39.024   2.932  1.00  0.00     0.006 A 
ATOM      9  C   UNL     1      35.698  38.344   5.124  1.00  0.00     0.006 A 
ATOM     10  C   UNL     1      34.075  39.737   3.385  1.00  0.00     0.000 A 
ATOM     11  C   UNL     1      34.614  39.046   5.609  1.00  0.00     0.000 A 
ATOM     12  C   UNL     1      33.802  39.743   4.739  1.00  0.00     0.000 A 
ENDBRANCH   6   7
ENDBRANCH   1   6
TORSDOF 4
BEGIN_RES LYS A 135
REMARK  4 active torsions:
REMARK  status: ('A' for Active; 'I' for Inactive)
REMARK    1  A    between atoms: CA   and  CB  
REMARK    2  A    between atoms: CB   and  CG  
REMARK    3  A    between atoms: CG   and  CD  
REMARK    4  A    between atoms: CD   and  CE  
ROOT
ATOM      1  CA  LYS A 135      33.193  34.663   9.290  1.00 25.02     0.186 C 
ENDROOT
BRANCH   1   2
ATOM      2  CB  LYS A 135      32.060  35.360  10.034  1.00 26.63     0.034 C 
BRANCH   2   3
ATOM      3  CG  LYS A 135      30.695  34.814   9.702  1.00 29.45     0.005 C 
BRANCH   3   4
ATOM      4  CD  LYS A 135      30.601  34.466   8.224  1.00 32.00     0.041 C 
BRANCH   4   5
ATOM      5  CE  LYS A 135      29.346  35.062   7.616  1.00 34.25     0.338 C 
ATOM      6  NZ  LYS A 135      28.133  34.647   8.376  1.00 35.99     0.618 N 
ENDBRANCH   4   5
ENDBRANCH   3   4
ENDBRANCH   2   3
ENDBRANCH   1   2
END_RES LYS A 135
BEGIN_RES ARG A 124
REMARK  4 active torsions:
REMARK  status: ('A' for Active; 'I' for Inactive)
REMARK    5  A    between atoms: CA   and  CB  
REMARK    6  A    between atoms: CB   and  CG  
REMARK    7  A    between atoms: CG   and  CD  
REMARK    8  A    between atoms: CD   and  NE  
REMARK       I    between atoms: NE   and  CZ  
ROOT
ATOM      7  CA  ARG A 124      31.045  26.515   9.594  1.00 17.84     0.186 C 
ENDROOT
BRANCH   7   8
ATOM      8  CB  ARG A 124      29.529  26.705   9.647  1.00 16.18     0.036 C 
BRANCH   8   9
ATOM      9  CG  ARG A 124      28.913  26.850  11.084  1.00 16.22     0.029 C 
BRANCH   9  10
ATOM     10  CD  ARG A 124      27.571  26.098  11.241  1.00 15.09     0.145 C 
BRANCH  10  11
ATOM     11  NE  ARG A 124      26.407  26.987  11.448  1.00 16.98    -0.083 NA
ATOM     12  CZ  ARG A 124      26.011  27.459  12.625  1.00 18.21     0.782 C 
ATOM     13  NH1 ARG A 124      26.665  27.164  13.742  1.00 21.11     0.063 N 
ATOM     14  NH2 ARG A 124      24.959  28.259  12.696  1.00 21.25     0.063 N 
ENDBRANCH  10  11
ENDBRANCH   9  10
ENDBRANCH   8   9
ENDBRANCH   7   8
END_RES ARG A 124
BEGIN_RES ASN A 133
REMARK  2 active torsions:
REMARK  status: ('A' for Active; 'I' for Inactive)
REMARK    9  A    between atoms: CA   and  CB  
REMARK   10  A    between atoms: CB   and  CG  
ROOT
ATOM     15  CA  ASN A 133      31.225  30.257  11.749  1.00 18.15     0.196 C 
ENDROOT
BRANCH  15  16
ATOM     16  CB  ASN A 133      30.092  31.240  11.460  1.00 18.27     0.126 C 
BRANCH  16  17
ATOM     17  CG  ASN A 133      28.735  30.609  11.508  1.00 18.94     0.276 C 
ATOM     18  OD1 ASN A 133      28.342  29.870  10.603  1.00 18.09    -0.269 OA
ATOM     19  ND2 ASN A 133      27.995  30.900  12.578  1.00 18.93    -0.107 N 
ENDBRANCH  16  17
ENDBRANCH  15  16
END_RES ASN A 133
BEGIN_RES LYS A 131
REMARK  4 active torsions:
REMARK  status: ('A' for Active; 'I' for Inactive)
REMARK   11  A    between atoms: CA   and  CB  
REMARK   12  A    between atoms: CB   and  CG  
REMARK   13  A    between atoms: CG   and  CD  
REMARK   14  A    between atoms: CD   and  CE  
ROOT
ATOM     20  CA  LYS A 131      29.867  25.555  16.977  1.00 20.52     0.186 C 
ENDROOT
BRANCH  20  21
ATOM     21  CB  LYS A 131      28.345  25.722  17.026  1.00 20.94     0.034 C 
BRANCH  21  22
ATOM     22  CG  LYS A 131      27.600  24.411  16.829  1.00 22.96     0.005 C 
BRANCH  22  23
ATOM     23  CD  LYS A 131      26.140  24.532  17.169  1.00 24.33     0.041 C 
BRANCH  23  24
ATOM     24  CE  LYS A 131      25.600  23.169  17.588  1.00 26.91     0.338 C 
ATOM     25  NZ  LYS A 131      24.138  23.238  17.818  1.00 27.40     0.618 N 
ENDBRANCH  23  24
ENDBRANCH  22  23
ENDBRANCH  21  22
ENDBRANCH  20  21
END_RES LYS A 131
