REMARK VINA RESULT:    -4.909      2.889      4.091
REMARK INTER + INTRA:         -10.969
REMARK INTER:                  -4.936
REMARK INTRA:                  -6.033
REMARK UNBOUND:                -5.056
REMARK SMILES Nc1ccc(S(=O)(=O)Nc2nccs2)cc1
REMARK SMILES IDX 6 1 7 2 8 3 5 4 2 5 3 6 16 7 4 8 15 9 1 10 9 13 10 15 11 16
REMARK SMILES IDX 14 17 12 18 13 19
REMARK H PARENT 1 11 1 12 9 14
REMARK Flexibility Score: inf
ROOT
ATOM      1  S   UNL     1      29.345  31.236  18.779  1.00  0.00     0.263 S 
ATOM      2  O   UNL     1      28.174  32.098  19.208  1.00  0.00    -0.201 OA
ATOM      3  O   UNL     1      30.232  31.054  19.991  1.00  0.00    -0.201 OA
ENDROOT
BRANCH   1   4
ATOM      4  C   UNL     1      30.284  32.019  17.541  1.00  0.00     0.088 A 
ATOM      5  C   UNL     1      31.824  33.375  15.613  1.00  0.00     0.031 A 
ATOM      6  C   UNL     1      31.261  32.143  15.352  1.00  0.00     0.027 A 
ATOM      7  C   UNL     1      31.593  33.912  16.869  1.00  0.00     0.027 A 
ATOM      8  C   UNL     1      30.504  31.476  16.302  1.00  0.00     0.024 A 
ATOM      9  C   UNL     1      30.838  33.248  17.819  1.00  0.00     0.024 A 
BRANCH   5  10
ATOM     10  N   UNL     1      32.606  34.074  14.645  1.00  0.00    -0.399 N 
ATOM     11  H   UNL     1      33.054  34.970  14.918  1.00  0.00     0.156 HD
ATOM     12  H   UNL     1      32.756  33.740  13.677  1.00  0.00     0.156 HD
ENDBRANCH   5  10
ENDBRANCH   1   4
BRANCH   1  13
ATOM     13  N   UNL     1      28.800  29.684  18.294  1.00  0.00    -0.255 N 
ATOM     14  H   UNL     1      29.265  28.796  18.544  1.00  0.00     0.182 HD
BRANCH  13  15
ATOM     15  C   UNL     1      27.611  29.669  17.486  1.00  0.00     0.196 A 
ATOM     16  N   UNL     1      27.152  30.216  16.597  1.00  0.00    -0.228 NA
ATOM     17  S   UNL     1      26.256  28.400  17.871  1.00  0.00    -0.105 S 
ATOM     18  C   UNL     1      25.981  30.021  15.990  1.00  0.00     0.125 A 
ATOM     19  C   UNL     1      25.251  29.057  16.490  1.00  0.00     0.089 A 
ENDBRANCH  13  15
ENDBRANCH   1  13
TORSDOF 4
BEGIN_RES LYS A 135
REMARK  4 active torsions:
REMARK  status: ('A' for Active; 'I' for Inactive)
REMARK    1  A    between atoms: CA   and  CB  
REMARK    2  A    between atoms: CB   and  CG  
REMARK    3  A    between atoms: CG   and  CD  
REMARK    4  A    between atoms: CD   and  CE  
ROOT
ATOM      1  CA  LYS A 135      33.193  34.663   9.290  1.00 25.02     0.186 C 
ENDROOT
BRANCH   1   2
ATOM      2  CB  LYS A 135      32.060  35.360  10.034  1.00 26.63     0.034 C 
BRANCH   2   3
ATOM      3  CG  LYS A 135      30.747  34.623   9.960  1.00 29.45     0.005 C 
BRANCH   3   4
ATOM      4  CD  LYS A 135      30.345  34.389   8.512  1.00 32.00     0.041 C 
BRANCH   4   5
ATOM      5  CE  LYS A 135      28.846  34.548   8.343  1.00 34.25     0.338 C 
ATOM      6  NZ  LYS A 135      28.105  33.800   9.395  1.00 35.99     0.618 N 
ENDBRANCH   4   5
ENDBRANCH   3   4
ENDBRANCH   2   3
ENDBRANCH   1   2
END_RES LYS A 135
BEGIN_RES ARG A 124
REMARK  4 active torsions:
REMARK  status: ('A' for Active; 'I' for Inactive)
REMARK    5  A    between atoms: CA   and  CB  
REMARK    6  A    between atoms: CB   and  CG  
REMARK    7  A    between atoms: CG   and  CD  
REMARK    8  A    between atoms: CD   and  NE  
REMARK       I    between atoms: NE   and  CZ  
ROOT
ATOM      7  CA  ARG A 124      31.045  26.515   9.594  1.00 17.84     0.186 C 
ENDROOT
BRANCH   7   8
ATOM      8  CB  ARG A 124      29.529  26.705   9.647  1.00 16.18     0.036 C 
BRANCH   8   9
ATOM      9  CG  ARG A 124      28.913  26.852  11.084  1.00 16.22     0.029 C 
BRANCH   9  10
ATOM     10  CD  ARG A 124      27.536  26.164  11.220  1.00 15.09     0.145 C 
BRANCH  10  11
ATOM     11  NE  ARG A 124      26.420  27.102  11.472  1.00 16.98    -0.083 NA
ATOM     12  CZ  ARG A 124      26.039  27.525  12.672  1.00 18.21     0.782 C 
ATOM     13  NH1 ARG A 124      26.665  27.129  13.774  1.00 21.11     0.063 N 
ATOM     14  NH2 ARG A 124      25.031  28.376  12.784  1.00 21.25     0.063 N 
ENDBRANCH  10  11
ENDBRANCH   9  10
ENDBRANCH   8   9
ENDBRANCH   7   8
END_RES ARG A 124
BEGIN_RES ASN A 133
REMARK  2 active torsions:
REMARK  status: ('A' for Active; 'I' for Inactive)
REMARK    9  A    between atoms: CA   and  CB  
REMARK   10  A    between atoms: CB   and  CG  
ROOT
ATOM     15  CA  ASN A 133      31.225  30.257  11.749  1.00 18.15     0.196 C 
ENDROOT
BRANCH  15  16
ATOM     16  CB  ASN A 133      30.092  31.240  11.460  1.00 18.27     0.126 C 
BRANCH  16  17
ATOM     17  CG  ASN A 133      28.733  30.618  11.546  1.00 18.94     0.276 C 
ATOM     18  OD1 ASN A 133      28.292  29.919  10.631  1.00 18.09    -0.269 OA
ATOM     19  ND2 ASN A 133      28.046  30.870  12.659  1.00 18.93    -0.107 N 
ENDBRANCH  16  17
ENDBRANCH  15  16
END_RES ASN A 133
BEGIN_RES LYS A 131
REMARK  4 active torsions:
REMARK  status: ('A' for Active; 'I' for Inactive)
REMARK   11  A    between atoms: CA   and  CB  
REMARK   12  A    between atoms: CB   and  CG  
REMARK   13  A    between atoms: CG   and  CD  
REMARK   14  A    between atoms: CD   and  CE  
ROOT
ATOM     20  CA  LYS A 131      29.867  25.555  16.977  1.00 20.52     0.186 C 
ENDROOT
BRANCH  20  21
ATOM     21  CB  LYS A 131      28.345  25.722  17.026  1.00 20.94     0.034 C 
BRANCH  21  22
ATOM     22  CG  LYS A 131      27.601  24.402  16.892  1.00 22.96     0.005 C 
BRANCH  22  23
ATOM     23  CD  LYS A 131      26.572  24.220  17.973  1.00 24.33     0.041 C 
BRANCH  23  24
ATOM     24  CE  LYS A 131      25.216  23.926  17.340  1.00 26.91     0.338 C 
ATOM     25  NZ  LYS A 131      24.640  25.158  16.750  1.00 27.40     0.618 N 
ENDBRANCH  23  24
ENDBRANCH  22  23
ENDBRANCH  21  22
ENDBRANCH  20  21
END_RES LYS A 131
