REMARK VINA RESULT:    -2.806      6.798      7.256
REMARK INTER + INTRA:          -9.109
REMARK INTER:                  -3.689
REMARK INTRA:                  -5.420
REMARK UNBOUND:                -6.057
REMARK SMILES NC(=O)c1ccccc1N
REMARK SMILES IDX 4 1 5 2 6 3 7 4 8 5 9 6 2 7 1 8 3 11 10 12
REMARK H PARENT 1 9 1 10 10 13 10 14
REMARK Flexibility Score: inf
ROOT
ATOM      1  C   UNL     1      35.897  20.728  22.542  1.00  0.00     0.062 A 
ATOM      2  C   UNL     1      35.242  19.694  23.149  1.00  0.00     0.016 A 
ATOM      3  C   UNL     1      34.699  19.801  24.423  1.00  0.00     0.001 A 
ATOM      4  C   UNL     1      34.821  21.000  25.114  1.00  0.00     0.002 A 
ATOM      5  C   UNL     1      35.479  22.035  24.500  1.00  0.00     0.026 A 
ATOM      6  C   UNL     1      36.022  21.922  23.222  1.00  0.00     0.044 A 
ENDROOT
BRANCH   1   7
ATOM      7  C   UNL     1      36.464  20.594  21.193  1.00  0.00     0.250 C 
ATOM      8  N   UNL     1      37.733  20.004  21.008  1.00  0.00    -0.366 N 
ATOM      9  H   UNL     1      38.099  19.259  21.624  1.00  0.00     0.159 HD
ATOM     10  H   UNL     1      38.313  20.337  20.218  1.00  0.00     0.159 HD
ATOM     11  O   UNL     1      35.821  21.004  20.205  1.00  0.00    -0.269 OA
ENDBRANCH   1   7
BRANCH   6  12
ATOM     12  N   UNL     1      36.691  23.020  22.634  1.00  0.00    -0.398 N 
ATOM     13  H   UNL     1      36.300  23.446  21.782  1.00  0.00     0.156 HD
ATOM     14  H   UNL     1      37.554  23.376  23.060  1.00  0.00     0.156 HD
ENDBRANCH   6  12
TORSDOF 2
BEGIN_RES LYS A 135
REMARK  4 active torsions:
REMARK  status: ('A' for Active; 'I' for Inactive)
REMARK    1  A    between atoms: CA   and  CB  
REMARK    2  A    between atoms: CB   and  CG  
REMARK    3  A    between atoms: CG   and  CD  
REMARK    4  A    between atoms: CD   and  CE  
ROOT
ATOM      1  CA  LYS A 135      33.193  34.663   9.290  1.00 25.02     0.186 C 
ENDROOT
BRANCH   1   2
ATOM      2  CB  LYS A 135      32.060  35.360  10.034  1.00 26.63     0.034 C 
BRANCH   2   3
ATOM      3  CG  LYS A 135      30.832  35.583   9.189  1.00 29.45     0.005 C 
BRANCH   3   4
ATOM      4  CD  LYS A 135      30.286  34.260   8.676  1.00 32.00     0.041 C 
BRANCH   4   5
ATOM      5  CE  LYS A 135      28.784  34.190   8.878  1.00 34.25     0.338 C 
ATOM      6  NZ  LYS A 135      28.066  34.980   7.840  1.00 35.99     0.618 N 
ENDBRANCH   4   5
ENDBRANCH   3   4
ENDBRANCH   2   3
ENDBRANCH   1   2
END_RES LYS A 135
BEGIN_RES ARG A 124
REMARK  4 active torsions:
REMARK  status: ('A' for Active; 'I' for Inactive)
REMARK    5  A    between atoms: CA   and  CB  
REMARK    6  A    between atoms: CB   and  CG  
REMARK    7  A    between atoms: CG   and  CD  
REMARK    8  A    between atoms: CD   and  NE  
REMARK       I    between atoms: NE   and  CZ  
ROOT
ATOM      7  CA  ARG A 124      31.045  26.515   9.594  1.00 17.84     0.186 C 
ENDROOT
BRANCH   7   8
ATOM      8  CB  ARG A 124      29.529  26.705   9.647  1.00 16.18     0.036 C 
BRANCH   8   9
ATOM      9  CG  ARG A 124      28.760  25.754  10.632  1.00 16.22     0.029 C 
BRANCH   9  10
ATOM     10  CD  ARG A 124      28.508  26.399  12.015  1.00 15.09     0.145 C 
BRANCH  10  11
ATOM     11  NE  ARG A 124      27.087  26.715  12.278  1.00 16.98    -0.083 NA
ATOM     12  CZ  ARG A 124      26.650  27.476  13.275  1.00 18.21     0.782 C 
ATOM     13  NH1 ARG A 124      27.492  28.039  14.133  1.00 21.11     0.063 N 
ATOM     14  NH2 ARG A 124      25.353  27.704  13.413  1.00 21.25     0.063 N 
ENDBRANCH  10  11
ENDBRANCH   9  10
ENDBRANCH   8   9
ENDBRANCH   7   8
END_RES ARG A 124
BEGIN_RES ASN A 133
REMARK  2 active torsions:
REMARK  status: ('A' for Active; 'I' for Inactive)
REMARK    9  A    between atoms: CA   and  CB  
REMARK   10  A    between atoms: CB   and  CG  
ROOT
ATOM     15  CA  ASN A 133      31.225  30.257  11.749  1.00 18.15     0.196 C 
ENDROOT
BRANCH  15  16
ATOM     16  CB  ASN A 133      30.092  31.240  11.460  1.00 18.27     0.126 C 
BRANCH  16  17
ATOM     17  CG  ASN A 133      28.731  30.652  11.670  1.00 18.94     0.276 C 
ATOM     18  OD1 ASN A 133      27.988  31.065  12.563  1.00 18.09    -0.269 OA
ATOM     19  ND2 ASN A 133      28.387  29.668  10.840  1.00 18.93    -0.107 N 
ENDBRANCH  16  17
ENDBRANCH  15  16
END_RES ASN A 133
BEGIN_RES LYS A 131
REMARK  4 active torsions:
REMARK  status: ('A' for Active; 'I' for Inactive)
REMARK   11  A    between atoms: CA   and  CB  
REMARK   12  A    between atoms: CB   and  CG  
REMARK   13  A    between atoms: CG   and  CD  
REMARK   14  A    between atoms: CD   and  CE  
ROOT
ATOM     20  CA  LYS A 131      29.867  25.555  16.977  1.00 20.52     0.186 C 
ENDROOT
BRANCH  20  21
ATOM     21  CB  LYS A 131      28.345  25.722  17.026  1.00 20.94     0.034 C 
BRANCH  21  22
ATOM     22  CG  LYS A 131      27.601  24.401  16.906  1.00 22.96     0.005 C 
BRANCH  22  23
ATOM     23  CD  LYS A 131      26.135  24.546  17.206  1.00 24.33     0.041 C 
BRANCH  23  24
ATOM     24  CE  LYS A 131      25.598  25.800  16.523  1.00 26.91     0.338 C 
ATOM     25  NZ  LYS A 131      24.189  26.041  16.915  1.00 27.40     0.618 N 
ENDBRANCH  23  24
ENDBRANCH  22  23
ENDBRANCH  21  22
ENDBRANCH  20  21
END_RES LYS A 131
