REMARK VINA RESULT:    -4.009      9.272     16.736
REMARK INTER + INTRA:         -10.924
REMARK INTER:                  -5.020
REMARK INTRA:                  -5.904
REMARK UNBOUND:                -5.860
REMARK SMILES C[C@H](CN)CN1CCN(c2ccc(Cl)cc2)CC1
REMARK SMILES IDX 1 1 2 2 3 3 4 4 5 7 6 8 7 9 18 10 8 11 17 12 9 13 10 14
REMARK SMILES IDX 11 15 16 16 12 17 15 18 13 19 14 20
REMARK H PARENT 4 5 4 6
REMARK Flexibility Score: inf
ROOT
ATOM      1  C   UNL     1      39.667  35.157  12.599  1.00  0.00     0.010 C 
ATOM      2  C   UNL     1      38.979  34.337  13.655  1.00  0.00     0.013 C 
ENDROOT
BRANCH   2   3
ATOM      3  C   UNL     1      38.106  33.340  12.919  1.00  0.00     0.082 C 
BRANCH   3   4
ATOM      4  N   UNL     1      38.855  32.340  12.209  1.00  0.00    -0.330 NA
ATOM      5  H   UNL     1      38.412  31.395  12.210  1.00  0.00     0.118 HD
ATOM      6  H   UNL     1      39.864  32.324  12.421  1.00  0.00     0.118 HD
ENDBRANCH   3   4
ENDBRANCH   2   3
BRANCH   2   7
ATOM      7  C   UNL     1      38.234  35.098  14.689  1.00  0.00     0.089 C 
BRANCH   7   8
ATOM      8  N   UNL     1      38.936  35.606  15.799  1.00  0.00    -0.300 NA
ATOM      9  C   UNL     1      38.242  36.311  16.805  1.00  0.00     0.106 C 
ATOM     10  C   UNL     1      39.672  34.530  16.419  1.00  0.00     0.106 C 
ATOM     11  C   UNL     1      37.328  35.397  17.628  1.00  0.00     0.132 C 
ATOM     12  C   UNL     1      39.594  34.478  17.910  1.00  0.00     0.132 C 
ATOM     13  N   UNL     1      38.232  34.540  18.389  1.00  0.00    -0.369 N 
BRANCH  13  14
ATOM     14  C   UNL     1      37.751  33.824  19.530  1.00  0.00     0.037 A 
ATOM     15  C   UNL     1      38.431  32.667  19.893  1.00  0.00     0.027 A 
ATOM     16  C   UNL     1      36.675  34.224  20.261  1.00  0.00     0.027 A 
ATOM     17  C   UNL     1      38.022  31.930  20.980  1.00  0.00     0.022 A 
ATOM     18  C   UNL     1      36.250  33.496  21.358  1.00  0.00     0.022 A 
ATOM     19  C   UNL     1      36.932  32.358  21.702  1.00  0.00     0.041 A 
ATOM     20  Cl  UNL     1      36.363  31.454  23.106  1.00  0.00    -0.084 Cl
ENDBRANCH  13  14
ENDBRANCH   7   8
ENDBRANCH   2   7
TORSDOF 5
BEGIN_RES LYS A 135
REMARK  4 active torsions:
REMARK  status: ('A' for Active; 'I' for Inactive)
REMARK    1  A    between atoms: CA   and  CB  
REMARK    2  A    between atoms: CB   and  CG  
REMARK    3  A    between atoms: CG   and  CD  
REMARK    4  A    between atoms: CD   and  CE  
ROOT
ATOM      1  CA  LYS A 135      33.193  34.663   9.290  1.00 25.02     0.186 C 
ENDROOT
BRANCH   1   2
ATOM      2  CB  LYS A 135      32.060  35.360  10.034  1.00 26.63     0.034 C 
BRANCH   2   3
ATOM      3  CG  LYS A 135      30.804  35.511   9.215  1.00 29.45     0.005 C 
BRANCH   3   4
ATOM      4  CD  LYS A 135      30.241  34.149   8.840  1.00 32.00     0.041 C 
BRANCH   4   5
ATOM      5  CE  LYS A 135      28.733  34.134   9.004  1.00 34.25     0.338 C 
ATOM      6  NZ  LYS A 135      28.066  34.883   7.904  1.00 35.99     0.618 N 
ENDBRANCH   4   5
ENDBRANCH   3   4
ENDBRANCH   2   3
ENDBRANCH   1   2
END_RES LYS A 135
BEGIN_RES ARG A 124
REMARK  4 active torsions:
REMARK  status: ('A' for Active; 'I' for Inactive)
REMARK    5  A    between atoms: CA   and  CB  
REMARK    6  A    between atoms: CB   and  CG  
REMARK    7  A    between atoms: CG   and  CD  
REMARK    8  A    between atoms: CD   and  NE  
REMARK       I    between atoms: NE   and  CZ  
ROOT
ATOM      7  CA  ARG A 124      31.045  26.515   9.594  1.00 17.84     0.186 C 
ENDROOT
BRANCH   7   8
ATOM      8  CB  ARG A 124      29.529  26.705   9.647  1.00 16.18     0.036 C 
BRANCH   8   9
ATOM      9  CG  ARG A 124      28.880  26.590  11.073  1.00 16.22     0.029 C 
BRANCH   9  10
ATOM     10  CD  ARG A 124      27.439  26.032  11.033  1.00 15.09     0.145 C 
BRANCH  10  11
ATOM     11  NE  ARG A 124      26.399  27.036  11.346  1.00 16.98    -0.083 NA
ATOM     12  CZ  ARG A 124      26.122  27.489  12.564  1.00 18.21     0.782 C 
ATOM     13  NH1 ARG A 124      26.794  27.064  13.627  1.00 21.11     0.063 N 
ATOM     14  NH2 ARG A 124      25.175  28.400  12.731  1.00 21.25     0.063 N 
ENDBRANCH  10  11
ENDBRANCH   9  10
ENDBRANCH   8   9
ENDBRANCH   7   8
END_RES ARG A 124
BEGIN_RES ASN A 133
REMARK  2 active torsions:
REMARK  status: ('A' for Active; 'I' for Inactive)
REMARK    9  A    between atoms: CA   and  CB  
REMARK   10  A    between atoms: CB   and  CG  
ROOT
ATOM     15  CA  ASN A 133      31.225  30.257  11.749  1.00 18.15     0.196 C 
ENDROOT
BRANCH  15  16
ATOM     16  CB  ASN A 133      30.092  31.240  11.460  1.00 18.27     0.126 C 
BRANCH  16  17
ATOM     17  CG  ASN A 133      28.734  30.611  11.514  1.00 18.94     0.276 C 
ATOM     18  OD1 ASN A 133      28.399  29.746  10.703  1.00 18.09    -0.269 OA
ATOM     19  ND2 ASN A 133      27.929  31.046  12.483  1.00 18.93    -0.107 N 
ENDBRANCH  16  17
ENDBRANCH  15  16
END_RES ASN A 133
BEGIN_RES LYS A 131
REMARK  4 active torsions:
REMARK  status: ('A' for Active; 'I' for Inactive)
REMARK   11  A    between atoms: CA   and  CB  
REMARK   12  A    between atoms: CB   and  CG  
REMARK   13  A    between atoms: CG   and  CD  
REMARK   14  A    between atoms: CD   and  CE  
ROOT
ATOM     20  CA  LYS A 131      29.867  25.555  16.977  1.00 20.52     0.186 C 
ENDROOT
BRANCH  20  21
ATOM     21  CB  LYS A 131      28.345  25.722  17.026  1.00 20.94     0.034 C 
BRANCH  21  22
ATOM     22  CG  LYS A 131      27.600  24.414  16.808  1.00 22.96     0.005 C 
BRANCH  22  23
ATOM     23  CD  LYS A 131      26.199  24.463  17.353  1.00 24.33     0.041 C 
BRANCH  23  24
ATOM     24  CE  LYS A 131      25.479  25.687  16.798  1.00 26.91     0.338 C 
ATOM     25  NZ  LYS A 131      24.132  25.317  16.303  1.00 27.40     0.618 N 
ENDBRANCH  23  24
ENDBRANCH  22  23
ENDBRANCH  21  22
ENDBRANCH  20  21
END_RES LYS A 131
