REMARK VINA RESULT:    -4.231      6.892      7.582
REMARK INTER + INTRA:         -10.071
REMARK INTER:                  -4.296
REMARK INTRA:                  -5.775
REMARK UNBOUND:                -5.346
REMARK SMILES Nc1ccc(S(N)(=O)=O)cc1
REMARK SMILES IDX 5 1 4 2 3 3 2 4 11 5 10 6 6 7 8 8 9 9 7 10 1 13
REMARK H PARENT 7 11 7 12 1 14 1 15
REMARK Flexibility Score: inf
ROOT
ATOM      1  C   UNL     1      25.344  17.801  15.083  1.00  0.00     0.082 A 
ATOM      2  C   UNL     1      26.514  18.516  15.241  1.00  0.00     0.024 A 
ATOM      3  C   UNL     1      27.620  17.950  15.843  1.00  0.00     0.027 A 
ATOM      4  C   UNL     1      27.621  16.655  16.315  1.00  0.00     0.031 A 
ATOM      5  C   UNL     1      26.446  15.952  16.150  1.00  0.00     0.027 A 
ATOM      6  C   UNL     1      25.330  16.502  15.551  1.00  0.00     0.024 A 
ENDROOT
BRANCH   1   7
ATOM      7  S   UNL     1      23.943  18.522  14.320  1.00  0.00     0.238 S 
ATOM      8  O   UNL     1      22.843  17.497  14.124  1.00  0.00    -0.207 OA
ATOM      9  O   UNL     1      23.340  19.597  15.204  1.00  0.00    -0.207 OA
BRANCH   7  10
ATOM     10  N   UNL     1      24.291  19.206  12.803  1.00  0.00    -0.225 NA
ATOM     11  H   UNL     1      25.246  18.900  12.458  1.00  0.00     0.137 HD
ATOM     12  H   UNL     1      24.345  20.248  12.852  1.00  0.00     0.137 HD
ENDBRANCH   7  10
ENDBRANCH   1   7
BRANCH   4  13
ATOM     13  N   UNL     1      28.772  16.082  16.934  1.00  0.00    -0.399 N 
ATOM     14  H   UNL     1      29.708  16.546  16.929  1.00  0.00     0.156 HD
ATOM     15  H   UNL     1      28.704  15.175  17.414  1.00  0.00     0.156 HD
ENDBRANCH   4  13
TORSDOF 3
BEGIN_RES LYS A 135
REMARK  4 active torsions:
REMARK  status: ('A' for Active; 'I' for Inactive)
REMARK    1  A    between atoms: CA   and  CB  
REMARK    2  A    between atoms: CB   and  CG  
REMARK    3  A    between atoms: CG   and  CD  
REMARK    4  A    between atoms: CD   and  CE  
ROOT
ATOM      1  CA  LYS A 135      33.193  34.663   9.290  1.00 25.02     0.186 C 
ENDROOT
BRANCH   1   2
ATOM      2  CB  LYS A 135      32.060  35.360  10.034  1.00 26.63     0.034 C 
BRANCH   2   3
ATOM      3  CG  LYS A 135      30.696  34.811   9.706  1.00 29.45     0.005 C 
BRANCH   3   4
ATOM      4  CD  LYS A 135      30.590  34.486   8.223  1.00 32.00     0.041 C 
BRANCH   4   5
ATOM      5  CE  LYS A 135      29.360  35.137   7.622  1.00 34.25     0.338 C 
ATOM      6  NZ  LYS A 135      28.117  34.642   8.276  1.00 35.99     0.618 N 
ENDBRANCH   4   5
ENDBRANCH   3   4
ENDBRANCH   2   3
ENDBRANCH   1   2
END_RES LYS A 135
BEGIN_RES ARG A 124
REMARK  4 active torsions:
REMARK  status: ('A' for Active; 'I' for Inactive)
REMARK    5  A    between atoms: CA   and  CB  
REMARK    6  A    between atoms: CB   and  CG  
REMARK    7  A    between atoms: CG   and  CD  
REMARK    8  A    between atoms: CD   and  NE  
REMARK       I    between atoms: NE   and  CZ  
ROOT
ATOM      7  CA  ARG A 124      31.045  26.515   9.594  1.00 17.84     0.186 C 
ENDROOT
BRANCH   7   8
ATOM      8  CB  ARG A 124      29.529  26.705   9.647  1.00 16.18     0.036 C 
BRANCH   8   9
ATOM      9  CG  ARG A 124      28.899  26.739  11.085  1.00 16.22     0.029 C 
BRANCH   9  10
ATOM     10  CD  ARG A 124      27.514  26.056  11.150  1.00 15.09     0.145 C 
BRANCH  10  11
ATOM     11  NE  ARG A 124      26.397  26.991  11.406  1.00 16.98    -0.083 NA
ATOM     12  CZ  ARG A 124      26.067  27.472  12.600  1.00 18.21     0.782 C 
ATOM     13  NH1 ARG A 124      26.751  27.144  13.690  1.00 21.11     0.063 N 
ATOM     14  NH2 ARG A 124      25.052  28.315  12.716  1.00 21.25     0.063 N 
ENDBRANCH  10  11
ENDBRANCH   9  10
ENDBRANCH   8   9
ENDBRANCH   7   8
END_RES ARG A 124
BEGIN_RES ASN A 133
REMARK  2 active torsions:
REMARK  status: ('A' for Active; 'I' for Inactive)
REMARK    9  A    between atoms: CA   and  CB  
REMARK   10  A    between atoms: CB   and  CG  
ROOT
ATOM     15  CA  ASN A 133      31.225  30.257  11.749  1.00 18.15     0.196 C 
ENDROOT
BRANCH  15  16
ATOM     16  CB  ASN A 133      30.092  31.240  11.460  1.00 18.27     0.126 C 
BRANCH  16  17
ATOM     17  CG  ASN A 133      28.732  30.621  11.558  1.00 18.94     0.276 C 
ATOM     18  OD1 ASN A 133      28.341  29.804  10.722  1.00 18.09    -0.269 OA
ATOM     19  ND2 ASN A 133      27.987  31.010  12.592  1.00 18.93    -0.107 N 
ENDBRANCH  16  17
ENDBRANCH  15  16
END_RES ASN A 133
BEGIN_RES LYS A 131
REMARK  4 active torsions:
REMARK  status: ('A' for Active; 'I' for Inactive)
REMARK   11  A    between atoms: CA   and  CB  
REMARK   12  A    between atoms: CB   and  CG  
REMARK   13  A    between atoms: CG   and  CD  
REMARK   14  A    between atoms: CD   and  CE  
ROOT
ATOM     20  CA  LYS A 131      29.867  25.555  16.977  1.00 20.52     0.186 C 
ENDROOT
BRANCH  20  21
ATOM     21  CB  LYS A 131      28.345  25.722  17.026  1.00 20.94     0.034 C 
BRANCH  21  22
ATOM     22  CG  LYS A 131      27.601  24.405  16.871  1.00 22.96     0.005 C 
BRANCH  22  23
ATOM     23  CD  LYS A 131      26.148  24.528  17.239  1.00 24.33     0.041 C 
BRANCH  23  24
ATOM     24  CE  LYS A 131      25.689  25.967  17.023  1.00 26.91     0.338 C 
ATOM     25  NZ  LYS A 131      24.498  26.005  16.143  1.00 27.40     0.618 N 
ENDBRANCH  23  24
ENDBRANCH  22  23
ENDBRANCH  21  22
ENDBRANCH  20  21
END_RES LYS A 131
