REMARK VINA RESULT:    -3.892      5.606      5.977
REMARK INTER + INTRA:          -9.430
REMARK INTER:                  -3.626
REMARK INTRA:                  -5.804
REMARK UNBOUND:                -5.311
REMARK SMILES Cc1nc(N)nc(N)n1
REMARK SMILES IDX 1 1 2 2 3 3 4 4 6 5 7 6 9 7 5 8 8 11
REMARK H PARENT 5 9 5 10 8 12 8 13
REMARK Flexibility Score: inf
ROOT
ATOM      1  C   UNL     1      35.912  20.575  20.543  1.00  0.00     0.090 C 
ATOM      2  C   UNL     1      35.237  19.560  21.395  1.00  0.00     0.133 A 
ATOM      3  N   UNL     1      33.913  19.403  21.253  1.00  0.00    -0.198 NA
ATOM      4  C   UNL     1      33.187  18.529  21.955  1.00  0.00     0.225 A 
ATOM      5  N   UNL     1      33.831  17.765  22.856  1.00  0.00    -0.177 NA
ATOM      6  C   UNL     1      35.172  17.898  23.025  1.00  0.00     0.225 A 
ATOM      7  N   UNL     1      35.879  18.798  22.294  1.00  0.00    -0.198 NA
ENDROOT
BRANCH   4   8
ATOM      8  N   UNL     1      31.789  18.455  21.715  1.00  0.00    -0.368 N 
ATOM      9  H   UNL     1      31.463  17.876  20.908  1.00  0.00     0.159 HD
ATOM     10  H   UNL     1      31.125  18.971  22.335  1.00  0.00     0.159 HD
ENDBRANCH   4   8
BRANCH   6  11
ATOM     11  N   UNL     1      35.790  17.066  23.989  1.00  0.00    -0.368 N 
ATOM     12  H   UNL     1      35.384  16.997  24.940  1.00  0.00     0.159 HD
ATOM     13  H   UNL     1      36.639  16.535  23.733  1.00  0.00     0.159 HD
ENDBRANCH   6  11
TORSDOF 2
BEGIN_RES LYS A 135
REMARK  4 active torsions:
REMARK  status: ('A' for Active; 'I' for Inactive)
REMARK    1  A    between atoms: CA   and  CB  
REMARK    2  A    between atoms: CB   and  CG  
REMARK    3  A    between atoms: CG   and  CD  
REMARK    4  A    between atoms: CD   and  CE  
ROOT
ATOM      1  CA  LYS A 135      33.193  34.663   9.290  1.00 25.02     0.186 C 
ENDROOT
BRANCH   1   2
ATOM      2  CB  LYS A 135      32.060  35.360  10.034  1.00 26.63     0.034 C 
BRANCH   2   3
ATOM      3  CG  LYS A 135      30.698  34.793   9.726  1.00 29.45     0.005 C 
BRANCH   3   4
ATOM      4  CD  LYS A 135      30.565  34.494   8.240  1.00 32.00     0.041 C 
BRANCH   4   5
ATOM      5  CE  LYS A 135      29.195  34.903   7.735  1.00 34.25     0.338 C 
ATOM      6  NZ  LYS A 135      28.119  34.392   8.629  1.00 35.99     0.618 N 
ENDBRANCH   4   5
ENDBRANCH   3   4
ENDBRANCH   2   3
ENDBRANCH   1   2
END_RES LYS A 135
BEGIN_RES ARG A 124
REMARK  4 active torsions:
REMARK  status: ('A' for Active; 'I' for Inactive)
REMARK    5  A    between atoms: CA   and  CB  
REMARK    6  A    between atoms: CB   and  CG  
REMARK    7  A    between atoms: CG   and  CD  
REMARK    8  A    between atoms: CD   and  NE  
REMARK       I    between atoms: NE   and  CZ  
ROOT
ATOM      7  CA  ARG A 124      31.045  26.515   9.594  1.00 17.84     0.186 C 
ENDROOT
BRANCH   7   8
ATOM      8  CB  ARG A 124      29.529  26.705   9.647  1.00 16.18     0.036 C 
BRANCH   8   9
ATOM      9  CG  ARG A 124      28.912  26.844  11.085  1.00 16.22     0.029 C 
BRANCH   9  10
ATOM     10  CD  ARG A 124      27.553  26.122  11.227  1.00 15.09     0.145 C 
BRANCH  10  11
ATOM     11  NE  ARG A 124      26.409  27.036  11.438  1.00 16.98    -0.083 NA
ATOM     12  CZ  ARG A 124      26.004  27.486  12.621  1.00 18.21     0.782 C 
ATOM     13  NH1 ARG A 124      26.630  27.144  13.740  1.00 21.11     0.063 N 
ATOM     14  NH2 ARG A 124      24.972  28.312  12.695  1.00 21.25     0.063 N 
ENDBRANCH  10  11
ENDBRANCH   9  10
ENDBRANCH   8   9
ENDBRANCH   7   8
END_RES ARG A 124
BEGIN_RES ASN A 133
REMARK  2 active torsions:
REMARK  status: ('A' for Active; 'I' for Inactive)
REMARK    9  A    between atoms: CA   and  CB  
REMARK   10  A    between atoms: CB   and  CG  
ROOT
ATOM     15  CA  ASN A 133      31.225  30.257  11.749  1.00 18.15     0.196 C 
ENDROOT
BRANCH  15  16
ATOM     16  CB  ASN A 133      30.092  31.240  11.460  1.00 18.27     0.126 C 
BRANCH  16  17
ATOM     17  CG  ASN A 133      28.735  30.610  11.513  1.00 18.94     0.276 C 
ATOM     18  OD1 ASN A 133      28.355  29.836  10.633  1.00 18.09    -0.269 OA
ATOM     19  ND2 ASN A 133      27.979  30.942  12.560  1.00 18.93    -0.107 N 
ENDBRANCH  16  17
ENDBRANCH  15  16
END_RES ASN A 133
BEGIN_RES LYS A 131
REMARK  4 active torsions:
REMARK  status: ('A' for Active; 'I' for Inactive)
REMARK   11  A    between atoms: CA   and  CB  
REMARK   12  A    between atoms: CB   and  CG  
REMARK   13  A    between atoms: CG   and  CD  
REMARK   14  A    between atoms: CD   and  CE  
ROOT
ATOM     20  CA  LYS A 131      29.867  25.555  16.977  1.00 20.52     0.186 C 
ENDROOT
BRANCH  20  21
ATOM     21  CB  LYS A 131      28.345  25.722  17.026  1.00 20.94     0.034 C 
BRANCH  21  22
ATOM     22  CG  LYS A 131      27.601  24.405  16.868  1.00 22.96     0.005 C 
BRANCH  22  23
ATOM     23  CD  LYS A 131      26.600  24.184  17.967  1.00 24.33     0.041 C 
BRANCH  23  24
ATOM     24  CE  LYS A 131      25.228  23.910  17.360  1.00 26.91     0.338 C 
ATOM     25  NZ  LYS A 131      24.698  25.128  16.703  1.00 27.40     0.618 N 
ENDBRANCH  23  24
ENDBRANCH  22  23
ENDBRANCH  21  22
ENDBRANCH  20  21
END_RES LYS A 131
