REMARK VINA RESULT:    -2.803      5.788     12.918
REMARK INTER + INTRA:          -8.608
REMARK INTER:                  -3.213
REMARK INTRA:                  -5.395
REMARK UNBOUND:                -5.395
REMARK SMILES N#Cc1cccc(CN)c1
REMARK SMILES IDX 7 1 6 2 5 3 4 4 3 5 10 6 8 7 9 8 2 11 1 12
REMARK H PARENT 9 9 9 10
REMARK Flexibility Score: inf
ROOT
ATOM      1  C   UNL     1      26.523  16.931  17.170  1.00  0.00    -0.033 A 
ATOM      2  C   UNL     1      26.178  16.308  18.352  1.00  0.00     0.005 A 
ATOM      3  C   UNL     1      25.276  16.860  19.245  1.00  0.00     0.002 A 
ATOM      4  C   UNL     1      24.703  18.088  18.931  1.00  0.00     0.019 A 
ATOM      5  C   UNL     1      25.018  18.741  17.769  1.00  0.00     0.052 A 
ATOM      6  C   UNL     1      25.932  18.153  16.891  1.00  0.00     0.024 A 
ENDROOT
BRANCH   1   7
ATOM      7  C   UNL     1      27.487  16.318  16.241  1.00  0.00     0.113 C 
BRANCH   7   8
ATOM      8  N   UNL     1      28.788  16.093  16.830  1.00  0.00    -0.326 NA
ATOM      9  H   UNL     1      28.614  15.748  17.813  1.00  0.00     0.119 HD
ATOM     10  H   UNL     1      29.306  17.019  16.856  1.00  0.00     0.119 HD
ENDBRANCH   7   8
ENDBRANCH   1   7
BRANCH   5  11
ATOM     11  C   UNL     1      24.439  20.015  17.416  1.00  0.00     0.099 C 
ATOM     12  N   UNL     1      23.989  21.031  17.118  1.00  0.00    -0.192 NA
ENDBRANCH   5  11
TORSDOF 3
BEGIN_RES LYS A 135
REMARK  4 active torsions:
REMARK  status: ('A' for Active; 'I' for Inactive)
REMARK    1  A    between atoms: CA   and  CB  
REMARK    2  A    between atoms: CB   and  CG  
REMARK    3  A    between atoms: CG   and  CD  
REMARK    4  A    between atoms: CD   and  CE  
ROOT
ATOM      1  CA  LYS A 135      33.193  34.663   9.290  1.00 25.02     0.186 C 
ENDROOT
BRANCH   1   2
ATOM      2  CB  LYS A 135      32.060  35.360  10.034  1.00 26.63     0.034 C 
BRANCH   2   3
ATOM      3  CG  LYS A 135      30.701  34.775   9.747  1.00 29.45     0.005 C 
BRANCH   3   4
ATOM      4  CD  LYS A 135      30.543  34.490   8.262  1.00 32.00     0.041 C 
BRANCH   4   5
ATOM      5  CE  LYS A 135      29.159  34.891   7.787  1.00 34.25     0.338 C 
ATOM      6  NZ  LYS A 135      28.795  36.248   8.280  1.00 35.99     0.618 N 
ENDBRANCH   4   5
ENDBRANCH   3   4
ENDBRANCH   2   3
ENDBRANCH   1   2
END_RES LYS A 135
BEGIN_RES ARG A 124
REMARK  4 active torsions:
REMARK  status: ('A' for Active; 'I' for Inactive)
REMARK    5  A    between atoms: CA   and  CB  
REMARK    6  A    between atoms: CB   and  CG  
REMARK    7  A    between atoms: CG   and  CD  
REMARK    8  A    between atoms: CD   and  NE  
REMARK       I    between atoms: NE   and  CZ  
ROOT
ATOM      7  CA  ARG A 124      31.045  26.515   9.594  1.00 17.84     0.186 C 
ENDROOT
BRANCH   7   8
ATOM      8  CB  ARG A 124      29.529  26.705   9.647  1.00 16.18     0.036 C 
BRANCH   8   9
ATOM      9  CG  ARG A 124      28.771  25.822  10.701  1.00 16.22     0.029 C 
BRANCH   9  10
ATOM     10  CD  ARG A 124      28.602  26.529  12.066  1.00 15.09     0.145 C 
BRANCH  10  11
ATOM     11  NE  ARG A 124      27.197  26.843  12.407  1.00 16.98    -0.083 NA
ATOM     12  CZ  ARG A 124      26.812  27.552  13.463  1.00 18.21     0.782 C 
ATOM     13  NH1 ARG A 124      27.697  28.060  14.313  1.00 21.11     0.063 N 
ATOM     14  NH2 ARG A 124      25.525  27.785  13.669  1.00 21.25     0.063 N 
ENDBRANCH  10  11
ENDBRANCH   9  10
ENDBRANCH   8   9
ENDBRANCH   7   8
END_RES ARG A 124
BEGIN_RES ASN A 133
REMARK  2 active torsions:
REMARK  status: ('A' for Active; 'I' for Inactive)
REMARK    9  A    between atoms: CA   and  CB  
REMARK   10  A    between atoms: CB   and  CG  
ROOT
ATOM     15  CA  ASN A 133      31.225  30.257  11.749  1.00 18.15     0.196 C 
ENDROOT
BRANCH  15  16
ATOM     16  CB  ASN A 133      30.092  31.240  11.460  1.00 18.27     0.126 C 
BRANCH  16  17
ATOM     17  CG  ASN A 133      28.734  30.613  11.523  1.00 18.94     0.276 C 
ATOM     18  OD1 ASN A 133      28.416  29.701  10.757  1.00 18.09    -0.269 OA
ATOM     19  ND2 ASN A 133      27.908  31.102  12.448  1.00 18.93    -0.107 N 
ENDBRANCH  16  17
ENDBRANCH  15  16
END_RES ASN A 133
BEGIN_RES LYS A 131
REMARK  4 active torsions:
REMARK  status: ('A' for Active; 'I' for Inactive)
REMARK   11  A    between atoms: CA   and  CB  
REMARK   12  A    between atoms: CB   and  CG  
REMARK   13  A    between atoms: CG   and  CD  
REMARK   14  A    between atoms: CD   and  CE  
ROOT
ATOM     20  CA  LYS A 131      29.867  25.555  16.977  1.00 20.52     0.186 C 
ENDROOT
BRANCH  20  21
ATOM     21  CB  LYS A 131      28.345  25.722  17.026  1.00 20.94     0.034 C 
BRANCH  21  22
ATOM     22  CG  LYS A 131      27.599  24.433  16.716  1.00 22.96     0.005 C 
BRANCH  22  23
ATOM     23  CD  LYS A 131      26.990  23.821  17.947  1.00 24.33     0.041 C 
BRANCH  23  24
ATOM     24  CE  LYS A 131      26.051  24.828  18.605  1.00 26.91     0.338 C 
ATOM     25  NZ  LYS A 131      24.639  24.490  18.310  1.00 27.40     0.618 N 
ENDBRANCH  23  24
ENDBRANCH  22  23
ENDBRANCH  21  22
ENDBRANCH  20  21
END_RES LYS A 131
