REMARK VINA RESULT:    -2.421      4.350      5.630
REMARK INTER + INTRA:          -7.565
REMARK INTER:                  -2.186
REMARK INTRA:                  -5.379
REMARK UNBOUND:                -4.861
REMARK SMILES NCC(=O)O
REMARK SMILES IDX 2 1 1 2 3 5 4 6 5 7
REMARK H PARENT 1 3 1 4 5 8
REMARK Flexibility Score: inf
ROOT
ATOM      1  C   UNL     1      27.759  30.067  16.301  1.00  0.00     0.201 C 
ENDROOT
BRANCH   1   2
ATOM      2  N   UNL     1      28.739  29.617  15.345  1.00  0.00    -0.321 NA
ATOM      3  H   UNL     1      29.426  30.372  15.167  1.00  0.00     0.119 HD
ATOM      4  H   UNL     1      28.324  29.209  14.494  1.00  0.00     0.119 HD
ENDBRANCH   1   2
BRANCH   1   5
ATOM      5  C   UNL     1      26.391  30.058  15.735  1.00  0.00     0.317 C 
ATOM      6  O   UNL     1      25.558  29.237  16.203  1.00  0.00    -0.251 OA
BRANCH   5   7
ATOM      7  O   UNL     1      26.047  30.932  14.721  1.00  0.00    -0.480 OA
ATOM      8  H   UNL     1      26.567  30.965  13.835  1.00  0.00     0.296 HD
ENDBRANCH   5   7
ENDBRANCH   1   5
TORSDOF 3
BEGIN_RES LYS A 135
REMARK  4 active torsions:
REMARK  status: ('A' for Active; 'I' for Inactive)
REMARK    1  A    between atoms: CA   and  CB  
REMARK    2  A    between atoms: CB   and  CG  
REMARK    3  A    between atoms: CG   and  CD  
REMARK    4  A    between atoms: CD   and  CE  
ROOT
ATOM      1  CA  LYS A 135      33.193  34.663   9.290  1.00 25.02     0.186 C 
ENDROOT
BRANCH   1   2
ATOM      2  CB  LYS A 135      32.060  35.360  10.034  1.00 26.63     0.034 C 
BRANCH   2   3
ATOM      3  CG  LYS A 135      30.808  35.521   9.211  1.00 29.45     0.005 C 
BRANCH   3   4
ATOM      4  CD  LYS A 135      30.175  34.167   8.927  1.00 32.00     0.041 C 
BRANCH   4   5
ATOM      5  CE  LYS A 135      28.689  34.319   8.661  1.00 34.25     0.338 C 
ATOM      6  NZ  LYS A 135      27.884  33.623   9.702  1.00 35.99     0.618 N 
ENDBRANCH   4   5
ENDBRANCH   3   4
ENDBRANCH   2   3
ENDBRANCH   1   2
END_RES LYS A 135
BEGIN_RES ARG A 124
REMARK  4 active torsions:
REMARK  status: ('A' for Active; 'I' for Inactive)
REMARK    5  A    between atoms: CA   and  CB  
REMARK    6  A    between atoms: CB   and  CG  
REMARK    7  A    between atoms: CG   and  CD  
REMARK    8  A    between atoms: CD   and  NE  
REMARK       I    between atoms: NE   and  CZ  
ROOT
ATOM      7  CA  ARG A 124      31.045  26.515   9.594  1.00 17.84     0.186 C 
ENDROOT
BRANCH   7   8
ATOM      8  CB  ARG A 124      29.529  26.705   9.647  1.00 16.18     0.036 C 
BRANCH   8   9
ATOM      9  CG  ARG A 124      28.899  26.737  11.085  1.00 16.22     0.029 C 
BRANCH   9  10
ATOM     10  CD  ARG A 124      27.524  26.033  11.154  1.00 15.09     0.145 C 
BRANCH  10  11
ATOM     11  NE  ARG A 124      26.394  26.951  11.413  1.00 16.98    -0.083 NA
ATOM     12  CZ  ARG A 124      26.054  27.419  12.609  1.00 18.21     0.782 C 
ATOM     13  NH1 ARG A 124      26.740  27.093  13.698  1.00 21.11     0.063 N 
ATOM     14  NH2 ARG A 124      25.028  28.247  12.728  1.00 21.25     0.063 N 
ENDBRANCH  10  11
ENDBRANCH   9  10
ENDBRANCH   8   9
ENDBRANCH   7   8
END_RES ARG A 124
BEGIN_RES ASN A 133
REMARK  2 active torsions:
REMARK  status: ('A' for Active; 'I' for Inactive)
REMARK    9  A    between atoms: CA   and  CB  
REMARK   10  A    between atoms: CB   and  CG  
ROOT
ATOM     15  CA  ASN A 133      31.225  30.257  11.749  1.00 18.15     0.196 C 
ENDROOT
BRANCH  15  16
ATOM     16  CB  ASN A 133      30.092  31.240  11.460  1.00 18.27     0.126 C 
BRANCH  16  17
ATOM     17  CG  ASN A 133      28.732  30.664  11.706  1.00 18.94     0.276 C 
ATOM     18  OD1 ASN A 133      28.072  30.985  12.696  1.00 18.09    -0.269 OA
ATOM     19  ND2 ASN A 133      28.294  29.795  10.796  1.00 18.93    -0.107 N 
ENDBRANCH  16  17
ENDBRANCH  15  16
END_RES ASN A 133
BEGIN_RES LYS A 131
REMARK  4 active torsions:
REMARK  status: ('A' for Active; 'I' for Inactive)
REMARK   11  A    between atoms: CA   and  CB  
REMARK   12  A    between atoms: CB   and  CG  
REMARK   13  A    between atoms: CG   and  CD  
REMARK   14  A    between atoms: CD   and  CE  
ROOT
ATOM     20  CA  LYS A 131      29.867  25.555  16.977  1.00 20.52     0.186 C 
ENDROOT
BRANCH  20  21
ATOM     21  CB  LYS A 131      28.345  25.722  17.026  1.00 20.94     0.034 C 
BRANCH  21  22
ATOM     22  CG  LYS A 131      27.600  24.411  16.824  1.00 22.96     0.005 C 
BRANCH  22  23
ATOM     23  CD  LYS A 131      26.236  24.432  17.457  1.00 24.33     0.041 C 
BRANCH  23  24
ATOM     24  CE  LYS A 131      25.384  25.510  16.796  1.00 26.91     0.338 C 
ATOM     25  NZ  LYS A 131      24.691  26.325  17.821  1.00 27.40     0.618 N 
ENDBRANCH  23  24
ENDBRANCH  22  23
ENDBRANCH  21  22
ENDBRANCH  20  21
END_RES LYS A 131
