REMARK VINA RESULT:    -4.238      0.000      0.000
REMARK INTER + INTRA:         -10.458
REMARK INTER:                  -4.211
REMARK INTRA:                  -6.247
REMARK UNBOUND:                -5.849
REMARK SMILES CN(C)C(=O)c1ccc(Cl)cc1N
REMARK SMILES IDX 6 1 7 2 8 3 9 4 10 5 11 6 12 7 4 8 1 9 2 10 3 11 5 12 13 13
REMARK H PARENT 13 14 13 15
REMARK Flexibility Score: inf
ROOT
ATOM      1  C   UNL     1      30.182  31.985  17.791  1.00  0.00     0.063 A 
ATOM      2  C   UNL     1      30.837  33.129  18.142  1.00  0.00     0.017 A 
ATOM      3  C   UNL     1      31.633  33.889  17.261  1.00  0.00     0.021 A 
ATOM      4  C   UNL     1      31.754  33.450  15.977  1.00  0.00     0.043 A 
ATOM      5  Cl  UNL     1      32.741  34.379  14.853  1.00  0.00    -0.084 Cl
ATOM      6  C   UNL     1      31.111  32.299  15.572  1.00  0.00     0.046 A 
ATOM      7  C   UNL     1      30.353  31.586  16.436  1.00  0.00     0.046 A 
ENDROOT
BRANCH   1   8
ATOM      8  C   UNL     1      29.364  31.182  18.652  1.00  0.00     0.255 C 
ATOM      9  C   UNL     1      31.041  30.054  20.156  1.00  0.00     0.146 C 
ATOM     10  N   UNL     1      29.720  30.339  19.682  1.00  0.00    -0.345 N 
ATOM     11  C   UNL     1      28.599  29.636  20.396  1.00  0.00     0.146 C 
ATOM     12  O   UNL     1      28.080  31.248  18.440  1.00  0.00    -0.269 OA
ENDBRANCH   1   8
BRANCH   7  13
ATOM     13  N   UNL     1      29.706  30.408  15.995  1.00  0.00    -0.398 N 
ATOM     14  H   UNL     1      28.775  30.499  15.527  1.00  0.00     0.156 HD
ATOM     15  H   UNL     1      30.103  29.441  16.107  1.00  0.00     0.156 HD
ENDBRANCH   7  13
TORSDOF 2
BEGIN_RES LYS A 135
REMARK  4 active torsions:
REMARK  status: ('A' for Active; 'I' for Inactive)
REMARK    1  A    between atoms: CA   and  CB  
REMARK    2  A    between atoms: CB   and  CG  
REMARK    3  A    between atoms: CG   and  CD  
REMARK    4  A    between atoms: CD   and  CE  
ROOT
ATOM      1  CA  LYS A 135      33.193  34.663   9.290  1.00 25.02     0.186 C 
ENDROOT
BRANCH   1   2
ATOM      2  CB  LYS A 135      32.060  35.360  10.034  1.00 26.63     0.034 C 
BRANCH   2   3
ATOM      3  CG  LYS A 135      30.706  34.750   9.778  1.00 29.45     0.005 C 
BRANCH   3   4
ATOM      4  CD  LYS A 135      30.476  34.562   8.286  1.00 32.00     0.041 C 
BRANCH   4   5
ATOM      5  CE  LYS A 135      29.025  34.830   7.933  1.00 34.25     0.338 C 
ATOM      6  NZ  LYS A 135      28.914  35.561   6.640  1.00 35.99     0.618 N 
ENDBRANCH   4   5
ENDBRANCH   3   4
ENDBRANCH   2   3
ENDBRANCH   1   2
END_RES LYS A 135
BEGIN_RES ARG A 124
REMARK  4 active torsions:
REMARK  status: ('A' for Active; 'I' for Inactive)
REMARK    5  A    between atoms: CA   and  CB  
REMARK    6  A    between atoms: CB   and  CG  
REMARK    7  A    between atoms: CG   and  CD  
REMARK    8  A    between atoms: CD   and  NE  
REMARK       I    between atoms: NE   and  CZ  
ROOT
ATOM      7  CA  ARG A 124      31.045  26.515   9.594  1.00 17.84     0.186 C 
ENDROOT
BRANCH   7   8
ATOM      8  CB  ARG A 124      29.529  26.705   9.647  1.00 16.18     0.036 C 
BRANCH   8   9
ATOM      9  CG  ARG A 124      28.907  26.802  11.086  1.00 16.22     0.029 C 
BRANCH   9  10
ATOM     10  CD  ARG A 124      27.547  26.076  11.202  1.00 15.09     0.145 C 
BRANCH  10  11
ATOM     11  NE  ARG A 124      26.400  26.985  11.418  1.00 16.98    -0.083 NA
ATOM     12  CZ  ARG A 124      26.021  27.462  12.599  1.00 18.21     0.782 C 
ATOM     13  NH1 ARG A 124      26.678  27.155  13.711  1.00 21.11     0.063 N 
ATOM     14  NH2 ARG A 124      24.983  28.280  12.678  1.00 21.25     0.063 N 
ENDBRANCH  10  11
ENDBRANCH   9  10
ENDBRANCH   8   9
ENDBRANCH   7   8
END_RES ARG A 124
BEGIN_RES ASN A 133
REMARK  2 active torsions:
REMARK  status: ('A' for Active; 'I' for Inactive)
REMARK    9  A    between atoms: CA   and  CB  
REMARK   10  A    between atoms: CB   and  CG  
ROOT
ATOM     15  CA  ASN A 133      31.225  30.257  11.749  1.00 18.15     0.196 C 
ENDROOT
BRANCH  15  16
ATOM     16  CB  ASN A 133      30.092  31.240  11.460  1.00 18.27     0.126 C 
BRANCH  16  17
ATOM     17  CG  ASN A 133      28.731  30.632  11.601  1.00 18.94     0.276 C 
ATOM     18  OD1 ASN A 133      28.305  29.823  10.775  1.00 18.09    -0.269 OA
ATOM     19  ND2 ASN A 133      28.025  31.022  12.662  1.00 18.93    -0.107 N 
ENDBRANCH  16  17
ENDBRANCH  15  16
END_RES ASN A 133
BEGIN_RES LYS A 131
REMARK  4 active torsions:
REMARK  status: ('A' for Active; 'I' for Inactive)
REMARK   11  A    between atoms: CA   and  CB  
REMARK   12  A    between atoms: CB   and  CG  
REMARK   13  A    between atoms: CG   and  CD  
REMARK   14  A    between atoms: CD   and  CE  
ROOT
ATOM     20  CA  LYS A 131      29.867  25.555  16.977  1.00 20.52     0.186 C 
ENDROOT
BRANCH  20  21
ATOM     21  CB  LYS A 131      28.345  25.722  17.026  1.00 20.94     0.034 C 
BRANCH  21  22
ATOM     22  CG  LYS A 131      27.600  24.413  16.813  1.00 22.96     0.005 C 
BRANCH  22  23
ATOM     23  CD  LYS A 131      26.746  24.049  17.996  1.00 24.33     0.041 C 
BRANCH  23  24
ATOM     24  CE  LYS A 131      25.746  22.972  17.589  1.00 26.91     0.338 C 
ATOM     25  NZ  LYS A 131      24.486  23.589  17.109  1.00 27.40     0.618 N 
ENDBRANCH  23  24
ENDBRANCH  22  23
ENDBRANCH  21  22
ENDBRANCH  20  21
END_RES LYS A 131
