REMARK VINA RESULT:    -4.031      4.919      7.356
REMARK INTER + INTRA:          -9.315
REMARK INTER:                  -4.942
REMARK INTRA:                  -4.373
REMARK UNBOUND:                -5.166
REMARK SMILES Nc1ccc2c(c1)OCO2
REMARK SMILES IDX 2 1 3 2 4 3 5 4 6 5 7 6 8 7 9 8 10 9 1 10
REMARK H PARENT 1 11 1 12
REMARK Flexibility Score: inf
ROOT
ATOM      1  C   UNL     1      27.690  35.927   6.688  1.00  0.00     0.035 A 
ATOM      2  C   UNL     1      26.778  35.471   7.617  1.00  0.00     0.029 A 
ATOM      3  C   UNL     1      27.151  34.724   8.714  1.00  0.00     0.053 A 
ATOM      4  C   UNL     1      28.478  34.407   8.913  1.00  0.00     0.165 A 
ATOM      5  C   UNL     1      29.413  34.847   8.003  1.00  0.00     0.167 A 
ATOM      6  C   UNL     1      29.014  35.601   6.902  1.00  0.00     0.076 A 
ATOM      7  O   UNL     1      30.658  34.399   8.428  1.00  0.00    -0.454 OA
ATOM      8  C   UNL     1      30.503  33.439   9.443  1.00  0.00     0.468 C 
ATOM      9  O   UNL     1      29.183  33.695   9.876  1.00  0.00    -0.454 OA
ENDROOT
BRANCH   1  10
ATOM     10  N   UNL     1      27.314  36.698   5.554  1.00  0.00    -0.399 N 
ATOM     11  H   UNL     1      26.730  36.349   4.769  1.00  0.00     0.156 HD
ATOM     12  H   UNL     1      27.643  37.686   5.494  1.00  0.00     0.156 HD
ENDBRANCH   1  10
TORSDOF 1
BEGIN_RES LYS A 135
REMARK  4 active torsions:
REMARK  status: ('A' for Active; 'I' for Inactive)
REMARK    1  A    between atoms: CA   and  CB  
REMARK    2  A    between atoms: CB   and  CG  
REMARK    3  A    between atoms: CG   and  CD  
REMARK    4  A    between atoms: CD   and  CE  
ROOT
ATOM      1  CA  LYS A 135      33.193  34.663   9.290  1.00 25.02     0.186 C 
ENDROOT
BRANCH   1   2
ATOM      2  CB  LYS A 135      32.060  35.360  10.034  1.00 26.63     0.034 C 
BRANCH   2   3
ATOM      3  CG  LYS A 135      32.533  36.261  11.145  1.00 29.45     0.005 C 
BRANCH   3   4
ATOM      4  CD  LYS A 135      32.084  35.729  12.497  1.00 32.00     0.041 C 
BRANCH   4   5
ATOM      5  CE  LYS A 135      30.574  35.598  12.542  1.00 34.25     0.338 C 
ATOM      6  NZ  LYS A 135      30.165  34.324  13.196  1.00 35.99     0.618 N 
ENDBRANCH   4   5
ENDBRANCH   3   4
ENDBRANCH   2   3
ENDBRANCH   1   2
END_RES LYS A 135
BEGIN_RES ARG A 124
REMARK  4 active torsions:
REMARK  status: ('A' for Active; 'I' for Inactive)
REMARK    5  A    between atoms: CA   and  CB  
REMARK    6  A    between atoms: CB   and  CG  
REMARK    7  A    between atoms: CG   and  CD  
REMARK    8  A    between atoms: CD   and  NE  
REMARK       I    between atoms: NE   and  CZ  
ROOT
ATOM      7  CA  ARG A 124      31.045  26.515   9.594  1.00 17.84     0.186 C 
ENDROOT
BRANCH   7   8
ATOM      8  CB  ARG A 124      29.529  26.705   9.647  1.00 16.18     0.036 C 
BRANCH   8   9
ATOM      9  CG  ARG A 124      28.899  26.741  11.085  1.00 16.22     0.029 C 
BRANCH   9  10
ATOM     10  CD  ARG A 124      27.497  26.094  11.143  1.00 15.09     0.145 C 
BRANCH  10  11
ATOM     11  NE  ARG A 124      26.403  27.056  11.399  1.00 16.98    -0.083 NA
ATOM     12  CZ  ARG A 124      26.059  27.514  12.597  1.00 18.21     0.782 C 
ATOM     13  NH1 ARG A 124      26.705  27.134  13.693  1.00 21.11     0.063 N 
ATOM     14  NH2 ARG A 124      25.068  28.385  12.713  1.00 21.25     0.063 N 
ENDBRANCH  10  11
ENDBRANCH   9  10
ENDBRANCH   8   9
ENDBRANCH   7   8
END_RES ARG A 124
BEGIN_RES ASN A 133
REMARK  2 active torsions:
REMARK  status: ('A' for Active; 'I' for Inactive)
REMARK    9  A    between atoms: CA   and  CB  
REMARK   10  A    between atoms: CB   and  CG  
ROOT
ATOM     15  CA  ASN A 133      31.225  30.257  11.749  1.00 18.15     0.196 C 
ENDROOT
BRANCH  15  16
ATOM     16  CB  ASN A 133      30.092  31.240  11.460  1.00 18.27     0.126 C 
BRANCH  16  17
ATOM     17  CG  ASN A 133      28.738  30.602  11.472  1.00 18.94     0.276 C 
ATOM     18  OD1 ASN A 133      28.399  29.806  10.594  1.00 18.09    -0.269 OA
ATOM     19  ND2 ASN A 133      27.938  30.950  12.479  1.00 18.93    -0.107 N 
ENDBRANCH  16  17
ENDBRANCH  15  16
END_RES ASN A 133
BEGIN_RES LYS A 131
REMARK  4 active torsions:
REMARK  status: ('A' for Active; 'I' for Inactive)
REMARK   11  A    between atoms: CA   and  CB  
REMARK   12  A    between atoms: CB   and  CG  
REMARK   13  A    between atoms: CG   and  CD  
REMARK   14  A    between atoms: CD   and  CE  
ROOT
ATOM     20  CA  LYS A 131      29.867  25.555  16.977  1.00 20.52     0.186 C 
ENDROOT
BRANCH  20  21
ATOM     21  CB  LYS A 131      28.345  25.722  17.026  1.00 20.94     0.034 C 
BRANCH  21  22
ATOM     22  CG  LYS A 131      27.600  24.408  16.849  1.00 22.96     0.005 C 
BRANCH  22  23
ATOM     23  CD  LYS A 131      26.156  24.516  17.252  1.00 24.33     0.041 C 
BRANCH  23  24
ATOM     24  CE  LYS A 131      25.613  23.129  17.580  1.00 26.91     0.338 C 
ATOM     25  NZ  LYS A 131      24.200  23.009  17.148  1.00 27.40     0.618 N 
ENDBRANCH  23  24
ENDBRANCH  22  23
ENDBRANCH  21  22
ENDBRANCH  20  21
END_RES LYS A 131
