REMARK VINA RESULT:    -2.363      4.482     12.244
REMARK INTER + INTRA:          -7.382
REMARK INTER:                  -1.782
REMARK INTRA:                  -5.600
REMARK UNBOUND:                -4.950
REMARK SMILES CN1CCC(N)CC1
REMARK SMILES IDX 1 1 2 2 3 3 4 4 5 5 7 6 8 7 6 8
REMARK H PARENT 6 9 6 10
REMARK Flexibility Score: inf
ROOT
ATOM      1  C   UNL     1      21.702  38.480  11.842  1.00  0.00     0.105 C 
ATOM      2  N   UNL     1      21.865  37.599  10.735  1.00  0.00    -0.306 NA
ATOM      3  C   UNL     1      20.689  37.406   9.939  1.00  0.00     0.086 C 
ATOM      4  C   UNL     1      21.044  37.810   8.508  1.00  0.00     0.034 C 
ATOM      5  C   UNL     1      22.026  36.736   8.021  1.00  0.00     0.053 C 
ATOM      6  C   UNL     1      23.201  36.697   8.959  1.00  0.00     0.034 C 
ATOM      7  C   UNL     1      23.064  37.811   9.981  1.00  0.00     0.086 C 
ENDROOT
BRANCH   5   8
ATOM      8  N   UNL     1      22.379  36.954   6.653  1.00  0.00    -0.328 NA
ATOM      9  H   UNL     1      22.576  36.045   6.202  1.00  0.00     0.119 HD
ATOM     10  H   UNL     1      23.108  37.677   6.517  1.00  0.00     0.119 HD
ENDBRANCH   5   8
TORSDOF 1
BEGIN_RES LYS A 135
REMARK  4 active torsions:
REMARK  status: ('A' for Active; 'I' for Inactive)
REMARK    1  A    between atoms: CA   and  CB  
REMARK    2  A    between atoms: CB   and  CG  
REMARK    3  A    between atoms: CG   and  CD  
REMARK    4  A    between atoms: CD   and  CE  
ROOT
ATOM      1  CA  LYS A 135      33.193  34.663   9.290  1.00 25.02     0.186 C 
ENDROOT
BRANCH   1   2
ATOM      2  CB  LYS A 135      32.060  35.360  10.034  1.00 26.63     0.034 C 
BRANCH   2   3
ATOM      3  CG  LYS A 135      30.811  35.528   9.208  1.00 29.45     0.005 C 
BRANCH   3   4
ATOM      4  CD  LYS A 135      30.235  34.173   8.825  1.00 32.00     0.041 C 
BRANCH   4   5
ATOM      5  CE  LYS A 135      28.722  34.188   8.934  1.00 34.25     0.338 C 
ATOM      6  NZ  LYS A 135      28.286  34.213  10.358  1.00 35.99     0.618 N 
ENDBRANCH   4   5
ENDBRANCH   3   4
ENDBRANCH   2   3
ENDBRANCH   1   2
END_RES LYS A 135
BEGIN_RES ARG A 124
REMARK  4 active torsions:
REMARK  status: ('A' for Active; 'I' for Inactive)
REMARK    5  A    between atoms: CA   and  CB  
REMARK    6  A    between atoms: CB   and  CG  
REMARK    7  A    between atoms: CG   and  CD  
REMARK    8  A    between atoms: CD   and  NE  
REMARK       I    between atoms: NE   and  CZ  
ROOT
ATOM      7  CA  ARG A 124      31.045  26.515   9.594  1.00 17.84     0.186 C 
ENDROOT
BRANCH   7   8
ATOM      8  CB  ARG A 124      29.529  26.705   9.647  1.00 16.18     0.036 C 
BRANCH   8   9
ATOM      9  CG  ARG A 124      28.907  26.800  11.086  1.00 16.22     0.029 C 
BRANCH   9  10
ATOM     10  CD  ARG A 124      27.543  26.080  11.199  1.00 15.09     0.145 C 
BRANCH  10  11
ATOM     11  NE  ARG A 124      26.401  26.994  11.421  1.00 16.98    -0.083 NA
ATOM     12  CZ  ARG A 124      26.022  27.463  12.604  1.00 18.21     0.782 C 
ATOM     13  NH1 ARG A 124      26.675  27.142  13.715  1.00 21.11     0.063 N 
ATOM     14  NH2 ARG A 124      24.988  28.286  12.689  1.00 21.25     0.063 N 
ENDBRANCH  10  11
ENDBRANCH   9  10
ENDBRANCH   8   9
ENDBRANCH   7   8
END_RES ARG A 124
BEGIN_RES ASN A 133
REMARK  2 active torsions:
REMARK  status: ('A' for Active; 'I' for Inactive)
REMARK    9  A    between atoms: CA   and  CB  
REMARK   10  A    between atoms: CB   and  CG  
ROOT
ATOM     15  CA  ASN A 133      31.225  30.257  11.749  1.00 18.15     0.196 C 
ENDROOT
BRANCH  15  16
ATOM     16  CB  ASN A 133      30.092  31.240  11.460  1.00 18.27     0.126 C 
BRANCH  16  17
ATOM     17  CG  ASN A 133      28.734  30.613  11.526  1.00 18.94     0.276 C 
ATOM     18  OD1 ASN A 133      28.357  29.813  10.668  1.00 18.09    -0.269 OA
ATOM     19  ND2 ASN A 133      27.974  30.977  12.559  1.00 18.93    -0.107 N 
ENDBRANCH  16  17
ENDBRANCH  15  16
END_RES ASN A 133
BEGIN_RES LYS A 131
REMARK  4 active torsions:
REMARK  status: ('A' for Active; 'I' for Inactive)
REMARK   11  A    between atoms: CA   and  CB  
REMARK   12  A    between atoms: CB   and  CG  
REMARK   13  A    between atoms: CG   and  CD  
REMARK   14  A    between atoms: CD   and  CE  
ROOT
ATOM     20  CA  LYS A 131      29.867  25.555  16.977  1.00 20.52     0.186 C 
ENDROOT
BRANCH  20  21
ATOM     21  CB  LYS A 131      28.345  25.722  17.026  1.00 20.94     0.034 C 
BRANCH  21  22
ATOM     22  CG  LYS A 131      27.599  24.428  16.737  1.00 22.96     0.005 C 
BRANCH  22  23
ATOM     23  CD  LYS A 131      26.939  23.869  17.967  1.00 24.33     0.041 C 
BRANCH  23  24
ATOM     24  CE  LYS A 131      25.658  24.646  18.255  1.00 26.91     0.338 C 
ATOM     25  NZ  LYS A 131      25.718  25.264  19.601  1.00 27.40     0.618 N 
ENDBRANCH  23  24
ENDBRANCH  22  23
ENDBRANCH  21  22
ENDBRANCH  20  21
END_RES LYS A 131
