REMARK VINA RESULT:    -1.910      4.619      4.929
REMARK INTER + INTRA:          -7.628
REMARK INTER:                  -2.667
REMARK INTRA:                  -4.961
REMARK UNBOUND:                -5.495
REMARK SMILES CC(C)(N)CO
REMARK SMILES IDX 2 1 1 2 3 3 4 4 5 7 6 8
REMARK H PARENT 4 5 4 6 6 9
REMARK Flexibility Score: inf
ROOT
ATOM      1  C   UNL     1      32.739  18.339  22.907  1.00  0.00     0.033 C 
ATOM      2  C   UNL     1      33.369  19.603  23.461  1.00  0.00     0.030 C 
ATOM      3  C   UNL     1      33.781  17.419  22.303  1.00  0.00     0.030 C 
ENDROOT
BRANCH   1   4
ATOM      4  N   UNL     1      31.814  18.707  21.895  1.00  0.00    -0.324 NA
ATOM      5  H   UNL     1      31.129  17.998  21.622  1.00  0.00     0.119 HD
ATOM      6  H   UNL     1      32.339  19.080  21.049  1.00  0.00     0.119 HD
ENDBRANCH   1   4
BRANCH   1   7
ATOM      7  C   UNL     1      32.092  17.539  24.031  1.00  0.00     0.177 C 
BRANCH   7   8
ATOM      8  O   UNL     1      30.729  17.388  23.849  1.00  0.00    -0.394 OA
ATOM      9  H   UNL     1      30.241  18.221  24.074  1.00  0.00     0.210 HD
ENDBRANCH   7   8
ENDBRANCH   1   7
TORSDOF 3
BEGIN_RES LYS A 135
REMARK  4 active torsions:
REMARK  status: ('A' for Active; 'I' for Inactive)
REMARK    1  A    between atoms: CA   and  CB  
REMARK    2  A    between atoms: CB   and  CG  
REMARK    3  A    between atoms: CG   and  CD  
REMARK    4  A    between atoms: CD   and  CE  
ROOT
ATOM      1  CA  LYS A 135      33.193  34.663   9.290  1.00 25.02     0.186 C 
ENDROOT
BRANCH   1   2
ATOM      2  CB  LYS A 135      32.060  35.360  10.034  1.00 26.63     0.034 C 
BRANCH   2   3
ATOM      3  CG  LYS A 135      30.695  34.820   9.695  1.00 29.45     0.005 C 
BRANCH   3   4
ATOM      4  CD  LYS A 135      30.604  34.483   8.214  1.00 32.00     0.041 C 
BRANCH   4   5
ATOM      5  CE  LYS A 135      29.358  35.096   7.604  1.00 34.25     0.338 C 
ATOM      6  NZ  LYS A 135      29.259  36.546   7.927  1.00 35.99     0.618 N 
ENDBRANCH   4   5
ENDBRANCH   3   4
ENDBRANCH   2   3
ENDBRANCH   1   2
END_RES LYS A 135
BEGIN_RES ARG A 124
REMARK  4 active torsions:
REMARK  status: ('A' for Active; 'I' for Inactive)
REMARK    5  A    between atoms: CA   and  CB  
REMARK    6  A    between atoms: CB   and  CG  
REMARK    7  A    between atoms: CG   and  CD  
REMARK    8  A    between atoms: CD   and  NE  
REMARK       I    between atoms: NE   and  CZ  
ROOT
ATOM      7  CA  ARG A 124      31.045  26.515   9.594  1.00 17.84     0.186 C 
ENDROOT
BRANCH   7   8
ATOM      8  CB  ARG A 124      29.529  26.705   9.647  1.00 16.18     0.036 C 
BRANCH   8   9
ATOM      9  CG  ARG A 124      28.975  27.387  10.949  1.00 16.22     0.029 C 
BRANCH   9  10
ATOM     10  CD  ARG A 124      27.577  26.866  11.351  1.00 15.09     0.145 C 
BRANCH  10  11
ATOM     11  NE  ARG A 124      27.312  26.924  12.805  1.00 16.98    -0.083 NA
ATOM     12  CZ  ARG A 124      26.190  27.374  13.357  1.00 18.21     0.782 C 
ATOM     13  NH1 ARG A 124      25.182  27.809  12.611  1.00 21.11     0.063 N 
ATOM     14  NH2 ARG A 124      26.054  27.371  14.674  1.00 21.25     0.063 N 
ENDBRANCH  10  11
ENDBRANCH   9  10
ENDBRANCH   8   9
ENDBRANCH   7   8
END_RES ARG A 124
BEGIN_RES ASN A 133
REMARK  2 active torsions:
REMARK  status: ('A' for Active; 'I' for Inactive)
REMARK    9  A    between atoms: CA   and  CB  
REMARK   10  A    between atoms: CB   and  CG  
ROOT
ATOM     15  CA  ASN A 133      31.225  30.257  11.749  1.00 18.15     0.196 C 
ENDROOT
BRANCH  15  16
ATOM     16  CB  ASN A 133      30.092  31.240  11.460  1.00 18.27     0.126 C 
BRANCH  16  17
ATOM     17  CG  ASN A 133      29.044  31.266  12.530  1.00 18.94     0.276 C 
ATOM     18  OD1 ASN A 133      29.160  31.992  13.519  1.00 18.09    -0.269 OA
ATOM     19  ND2 ASN A 133      27.998  30.463  12.341  1.00 18.93    -0.107 N 
ENDBRANCH  16  17
ENDBRANCH  15  16
END_RES ASN A 133
BEGIN_RES LYS A 131
REMARK  4 active torsions:
REMARK  status: ('A' for Active; 'I' for Inactive)
REMARK   11  A    between atoms: CA   and  CB  
REMARK   12  A    between atoms: CB   and  CG  
REMARK   13  A    between atoms: CG   and  CD  
REMARK   14  A    between atoms: CD   and  CE  
ROOT
ATOM     20  CA  LYS A 131      29.867  25.555  16.977  1.00 20.52     0.186 C 
ENDROOT
BRANCH  20  21
ATOM     21  CB  LYS A 131      28.345  25.722  17.026  1.00 20.94     0.034 C 
BRANCH  21  22
ATOM     22  CG  LYS A 131      27.600  24.410  16.833  1.00 22.96     0.005 C 
BRANCH  22  23
ATOM     23  CD  LYS A 131      26.154  24.516  17.230  1.00 24.33     0.041 C 
BRANCH  23  24
ATOM     24  CE  LYS A 131      26.039  25.306  18.529  1.00 26.91     0.338 C 
ATOM     25  NZ  LYS A 131      25.529  24.441  19.619  1.00 27.40     0.618 N 
ENDBRANCH  23  24
ENDBRANCH  22  23
ENDBRANCH  21  22
ENDBRANCH  20  21
END_RES LYS A 131
