REMARK VINA RESULT:    -1.349      5.444     11.792
REMARK INTER + INTRA:          -7.270
REMARK INTER:                  -2.023
REMARK INTRA:                  -5.247
REMARK UNBOUND:                -5.881
REMARK SMILES NC1CCCC1
REMARK SMILES IDX 2 1 3 2 4 3 5 4 6 5 1 6
REMARK H PARENT 1 7 1 8
REMARK Flexibility Score: inf
ROOT
ATOM      1  C   UNL     1      16.558  30.038   6.836  1.00  0.00     0.050 C 
ATOM      2  C   UNL     1      16.099  30.483   8.222  1.00  0.00     0.018 C 
ATOM      3  C   UNL     1      17.098  29.673   9.064  1.00  0.00     0.002 C 
ATOM      4  C   UNL     1      16.778  28.286   8.499  1.00  0.00     0.002 C 
ATOM      5  C   UNL     1      16.837  28.554   7.016  1.00  0.00     0.018 C 
ENDROOT
BRANCH   1   6
ATOM      6  N   UNL     1      17.816  30.760   6.594  1.00  0.00    -0.328 NA
ATOM      7  H   UNL     1      18.539  30.242   7.165  1.00  0.00     0.119 HD
ATOM      8  H   UNL     1      17.779  31.725   7.003  1.00  0.00     0.119 HD
ENDBRANCH   1   6
TORSDOF 1
BEGIN_RES LYS A 135
REMARK  4 active torsions:
REMARK  status: ('A' for Active; 'I' for Inactive)
REMARK    1  A    between atoms: CA   and  CB  
REMARK    2  A    between atoms: CB   and  CG  
REMARK    3  A    between atoms: CG   and  CD  
REMARK    4  A    between atoms: CD   and  CE  
ROOT
ATOM      1  CA  LYS A 135      33.193  34.663   9.290  1.00 25.02     0.186 C 
ENDROOT
BRANCH   1   2
ATOM      2  CB  LYS A 135      32.060  35.360  10.034  1.00 26.63     0.034 C 
BRANCH   2   3
ATOM      3  CG  LYS A 135      30.695  34.819   9.696  1.00 29.45     0.005 C 
BRANCH   3   4
ATOM      4  CD  LYS A 135      30.604  34.476   8.217  1.00 32.00     0.041 C 
BRANCH   4   5
ATOM      5  CE  LYS A 135      29.313  35.010   7.625  1.00 34.25     0.338 C 
ATOM      6  NZ  LYS A 135      28.204  34.952   8.617  1.00 35.99     0.618 N 
ENDBRANCH   4   5
ENDBRANCH   3   4
ENDBRANCH   2   3
ENDBRANCH   1   2
END_RES LYS A 135
BEGIN_RES ARG A 124
REMARK  4 active torsions:
REMARK  status: ('A' for Active; 'I' for Inactive)
REMARK    5  A    between atoms: CA   and  CB  
REMARK    6  A    between atoms: CB   and  CG  
REMARK    7  A    between atoms: CG   and  CD  
REMARK    8  A    between atoms: CD   and  NE  
REMARK       I    between atoms: NE   and  CZ  
ROOT
ATOM      7  CA  ARG A 124      31.045  26.515   9.594  1.00 17.84     0.186 C 
ENDROOT
BRANCH   7   8
ATOM      8  CB  ARG A 124      29.529  26.705   9.647  1.00 16.18     0.036 C 
BRANCH   8   9
ATOM      9  CG  ARG A 124      28.749  25.693  10.560  1.00 16.22     0.029 C 
BRANCH   9  10
ATOM     10  CD  ARG A 124      27.618  26.365  11.371  1.00 15.09     0.145 C 
BRANCH  10  11
ATOM     11  NE  ARG A 124      28.070  26.966  12.644  1.00 16.98    -0.083 NA
ATOM     12  CZ  ARG A 124      27.324  27.737  13.428  1.00 18.21     0.782 C 
ATOM     13  NH1 ARG A 124      26.065  28.024  13.118  1.00 21.11     0.063 N 
ATOM     14  NH2 ARG A 124      27.826  28.216  14.556  1.00 21.25     0.063 N 
ENDBRANCH  10  11
ENDBRANCH   9  10
ENDBRANCH   8   9
ENDBRANCH   7   8
END_RES ARG A 124
BEGIN_RES ASN A 133
REMARK  2 active torsions:
REMARK  status: ('A' for Active; 'I' for Inactive)
REMARK    9  A    between atoms: CA   and  CB  
REMARK   10  A    between atoms: CB   and  CG  
ROOT
ATOM     15  CA  ASN A 133      31.225  30.257  11.749  1.00 18.15     0.196 C 
ENDROOT
BRANCH  15  16
ATOM     16  CB  ASN A 133      30.092  31.240  11.460  1.00 18.27     0.126 C 
BRANCH  16  17
ATOM     17  CG  ASN A 133      28.738  30.601  11.467  1.00 18.94     0.276 C 
ATOM     18  OD1 ASN A 133      28.469  29.667  10.709  1.00 18.09    -0.269 OA
ATOM     19  ND2 ASN A 133      27.860  31.105  12.333  1.00 18.93    -0.107 N 
ENDBRANCH  16  17
ENDBRANCH  15  16
END_RES ASN A 133
BEGIN_RES LYS A 131
REMARK  4 active torsions:
REMARK  status: ('A' for Active; 'I' for Inactive)
REMARK   11  A    between atoms: CA   and  CB  
REMARK   12  A    between atoms: CB   and  CG  
REMARK   13  A    between atoms: CG   and  CD  
REMARK   14  A    between atoms: CD   and  CE  
ROOT
ATOM     20  CA  LYS A 131      29.867  25.555  16.977  1.00 20.52     0.186 C 
ENDROOT
BRANCH  20  21
ATOM     21  CB  LYS A 131      28.345  25.722  17.026  1.00 20.94     0.034 C 
BRANCH  21  22
ATOM     22  CG  LYS A 131      27.601  24.405  16.872  1.00 22.96     0.005 C 
BRANCH  22  23
ATOM     23  CD  LYS A 131      26.143  24.534  17.217  1.00 24.33     0.041 C 
BRANCH  23  24
ATOM     24  CE  LYS A 131      25.579  23.160  17.565  1.00 26.91     0.338 C 
ATOM     25  NZ  LYS A 131      24.316  23.296  18.329  1.00 27.40     0.618 N 
ENDBRANCH  23  24
ENDBRANCH  22  23
ENDBRANCH  21  22
ENDBRANCH  20  21
END_RES LYS A 131
