REMARK VINA RESULT:    -3.359      7.385      8.041
REMARK INTER + INTRA:          -9.097
REMARK INTER:                  -3.678
REMARK INTRA:                  -5.419
REMARK UNBOUND:                -5.346
REMARK SMILES Nc1ccc(S(N)(=O)=O)cc1
REMARK SMILES IDX 5 1 4 2 3 3 2 4 11 5 10 6 6 7 8 8 9 9 7 10 1 13
REMARK H PARENT 7 11 7 12 1 14 1 15
REMARK Flexibility Score: inf
ROOT
ATOM      1  C   UNL     1      24.602  18.341  15.606  1.00  0.00     0.082 A 
ATOM      2  C   UNL     1      25.641  17.589  16.113  1.00  0.00     0.024 A 
ATOM      3  C   UNL     1      25.851  17.487  17.474  1.00  0.00     0.027 A 
ATOM      4  C   UNL     1      25.044  18.123  18.394  1.00  0.00     0.031 A 
ATOM      5  C   UNL     1      24.009  18.871  17.873  1.00  0.00     0.027 A 
ATOM      6  C   UNL     1      23.785  18.983  16.515  1.00  0.00     0.024 A 
ENDROOT
BRANCH   1   7
ATOM      7  S   UNL     1      24.339  18.467  13.880  1.00  0.00     0.238 S 
ATOM      8  O   UNL     1      24.028  17.112  13.276  1.00  0.00    -0.207 OA
ATOM      9  O   UNL     1      23.128  19.331  13.580  1.00  0.00    -0.207 OA
BRANCH   7  10
ATOM     10  N   UNL     1      25.677  19.111  13.049  1.00  0.00    -0.225 NA
ATOM     11  H   UNL     1      25.534  20.140  12.839  1.00  0.00     0.137 HD
ATOM     12  H   UNL     1      25.804  18.661  12.115  1.00  0.00     0.137 HD
ENDBRANCH   7  10
ENDBRANCH   1   7
BRANCH   4  13
ATOM     13  N   UNL     1      25.272  18.009  19.797  1.00  0.00    -0.399 N 
ATOM     14  H   UNL     1      25.542  18.821  20.396  1.00  0.00     0.156 HD
ATOM     15  H   UNL     1      25.171  17.099  20.266  1.00  0.00     0.156 HD
ENDBRANCH   4  13
TORSDOF 3
BEGIN_RES LYS A 135
REMARK  4 active torsions:
REMARK  status: ('A' for Active; 'I' for Inactive)
REMARK    1  A    between atoms: CA   and  CB  
REMARK    2  A    between atoms: CB   and  CG  
REMARK    3  A    between atoms: CG   and  CD  
REMARK    4  A    between atoms: CD   and  CE  
ROOT
ATOM      1  CA  LYS A 135      33.193  34.663   9.290  1.00 25.02     0.186 C 
ENDROOT
BRANCH   1   2
ATOM      2  CB  LYS A 135      32.060  35.360  10.034  1.00 26.63     0.034 C 
BRANCH   2   3
ATOM      3  CG  LYS A 135      30.825  35.564   9.196  1.00 29.45     0.005 C 
BRANCH   3   4
ATOM      4  CD  LYS A 135      30.096  34.246   8.984  1.00 32.00     0.041 C 
BRANCH   4   5
ATOM      5  CE  LYS A 135      28.746  34.482   8.333  1.00 34.25     0.338 C 
ATOM      6  NZ  LYS A 135      28.872  35.369   7.143  1.00 35.99     0.618 N 
ENDBRANCH   4   5
ENDBRANCH   3   4
ENDBRANCH   2   3
ENDBRANCH   1   2
END_RES LYS A 135
BEGIN_RES ARG A 124
REMARK  4 active torsions:
REMARK  status: ('A' for Active; 'I' for Inactive)
REMARK    5  A    between atoms: CA   and  CB  
REMARK    6  A    between atoms: CB   and  CG  
REMARK    7  A    between atoms: CG   and  CD  
REMARK    8  A    between atoms: CD   and  NE  
REMARK       I    between atoms: NE   and  CZ  
ROOT
ATOM      7  CA  ARG A 124      31.045  26.515   9.594  1.00 17.84     0.186 C 
ENDROOT
BRANCH   7   8
ATOM      8  CB  ARG A 124      29.529  26.705   9.647  1.00 16.18     0.036 C 
BRANCH   8   9
ATOM      9  CG  ARG A 124      28.971  27.346  10.968  1.00 16.22     0.029 C 
BRANCH   9  10
ATOM     10  CD  ARG A 124      28.415  26.296  11.956  1.00 15.09     0.145 C 
BRANCH  10  11
ATOM     11  NE  ARG A 124      27.983  26.863  13.252  1.00 16.98    -0.083 NA
ATOM     12  CZ  ARG A 124      26.755  27.289  13.524  1.00 18.21     0.782 C 
ATOM     13  NH1 ARG A 124      25.785  27.221  12.621  1.00 21.11     0.063 N 
ATOM     14  NH2 ARG A 124      26.473  27.771  14.725  1.00 21.25     0.063 N 
ENDBRANCH  10  11
ENDBRANCH   9  10
ENDBRANCH   8   9
ENDBRANCH   7   8
END_RES ARG A 124
BEGIN_RES ASN A 133
REMARK  2 active torsions:
REMARK  status: ('A' for Active; 'I' for Inactive)
REMARK    9  A    between atoms: CA   and  CB  
REMARK   10  A    between atoms: CB   and  CG  
ROOT
ATOM     15  CA  ASN A 133      31.225  30.257  11.749  1.00 18.15     0.196 C 
ENDROOT
BRANCH  15  16
ATOM     16  CB  ASN A 133      30.092  31.240  11.460  1.00 18.27     0.126 C 
BRANCH  16  17
ATOM     17  CG  ASN A 133      29.034  31.251  12.519  1.00 18.94     0.276 C 
ATOM     18  OD1 ASN A 133      29.142  31.959  13.522  1.00 18.09    -0.269 OA
ATOM     19  ND2 ASN A 133      27.987  30.455  12.305  1.00 18.93    -0.107 N 
ENDBRANCH  16  17
ENDBRANCH  15  16
END_RES ASN A 133
BEGIN_RES LYS A 131
REMARK  4 active torsions:
REMARK  status: ('A' for Active; 'I' for Inactive)
REMARK   11  A    between atoms: CA   and  CB  
REMARK   12  A    between atoms: CB   and  CG  
REMARK   13  A    between atoms: CG   and  CD  
REMARK   14  A    between atoms: CD   and  CE  
ROOT
ATOM     20  CA  LYS A 131      29.867  25.555  16.977  1.00 20.52     0.186 C 
ENDROOT
BRANCH  20  21
ATOM     21  CB  LYS A 131      28.345  25.722  17.026  1.00 20.94     0.034 C 
BRANCH  21  22
ATOM     22  CG  LYS A 131      27.601  24.406  16.862  1.00 22.96     0.005 C 
BRANCH  22  23
ATOM     23  CD  LYS A 131      26.146  24.529  17.222  1.00 24.33     0.041 C 
BRANCH  23  24
ATOM     24  CE  LYS A 131      25.789  23.474  18.265  1.00 26.91     0.338 C 
ATOM     25  NZ  LYS A 131      25.084  22.336  17.630  1.00 27.40     0.618 N 
ENDBRANCH  23  24
ENDBRANCH  22  23
ENDBRANCH  21  22
ENDBRANCH  20  21
END_RES LYS A 131
