REMARK VINA RESULT:    -4.056      2.146      2.466
REMARK INTER + INTRA:         -10.309
REMARK INTER:                  -4.916
REMARK INTRA:                  -5.392
REMARK UNBOUND:                -5.541
REMARK SMILES NCC(O)c1ccccc1
REMARK SMILES IDX 2 1 1 2 3 5 4 6 5 8 6 9 10 10 7 11 9 12 8 13
REMARK H PARENT 1 3 1 4 4 7
REMARK Flexibility Score: inf
ROOT
ATOM      1  C   UNL     1      36.914  33.408  12.213  1.00  0.00     0.114 C 
ENDROOT
BRANCH   1   2
ATOM      2  N   UNL     1      37.236  33.437  10.821  1.00  0.00    -0.328 NA
ATOM      3  H   UNL     1      36.782  32.637  10.353  1.00  0.00     0.118 HD
ATOM      4  H   UNL     1      38.269  33.337  10.646  1.00  0.00     0.118 HD
ENDBRANCH   1   2
BRANCH   1   5
ATOM      5  C   UNL     1      38.134  33.164  13.086  1.00  0.00     0.158 C 
BRANCH   5   6
ATOM      6  O   UNL     1      39.194  32.660  12.368  1.00  0.00    -0.387 OA
ATOM      7  H   UNL     1      38.876  31.809  11.936  1.00  0.00     0.211 HD
ENDBRANCH   5   6
BRANCH   5   8
ATOM      8  C   UNL     1      38.564  34.454  13.699  1.00  0.00    -0.018 A 
ATOM      9  C   UNL     1      39.491  35.286  13.105  1.00  0.00     0.006 A 
ATOM     10  C   UNL     1      38.031  34.858  14.907  1.00  0.00     0.006 A 
ATOM     11  C   UNL     1      39.862  36.474  13.707  1.00  0.00     0.000 A 
ATOM     12  C   UNL     1      38.403  36.046  15.506  1.00  0.00     0.000 A 
ATOM     13  C   UNL     1      39.329  36.876  14.914  1.00  0.00     0.000 A 
ENDBRANCH   5   8
ENDBRANCH   1   5
TORSDOF 4
BEGIN_RES LYS A 135
REMARK  4 active torsions:
REMARK  status: ('A' for Active; 'I' for Inactive)
REMARK    1  A    between atoms: CA   and  CB  
REMARK    2  A    between atoms: CB   and  CG  
REMARK    3  A    between atoms: CG   and  CD  
REMARK    4  A    between atoms: CD   and  CE  
ROOT
ATOM      1  CA  LYS A 135      33.193  34.663   9.290  1.00 25.02     0.186 C 
ENDROOT
BRANCH   1   2
ATOM      2  CB  LYS A 135      32.060  35.360  10.034  1.00 26.63     0.034 C 
BRANCH   2   3
ATOM      3  CG  LYS A 135      30.799  35.495   9.221  1.00 29.45     0.005 C 
BRANCH   3   4
ATOM      4  CD  LYS A 135      30.177  34.131   8.963  1.00 32.00     0.041 C 
BRANCH   4   5
ATOM      5  CE  LYS A 135      28.689  34.265   8.701  1.00 34.25     0.338 C 
ATOM      6  NZ  LYS A 135      27.893  33.613   9.777  1.00 35.99     0.618 N 
ENDBRANCH   4   5
ENDBRANCH   3   4
ENDBRANCH   2   3
ENDBRANCH   1   2
END_RES LYS A 135
BEGIN_RES ARG A 124
REMARK  4 active torsions:
REMARK  status: ('A' for Active; 'I' for Inactive)
REMARK    5  A    between atoms: CA   and  CB  
REMARK    6  A    between atoms: CB   and  CG  
REMARK    7  A    between atoms: CG   and  CD  
REMARK    8  A    between atoms: CD   and  NE  
REMARK       I    between atoms: NE   and  CZ  
ROOT
ATOM      7  CA  ARG A 124      31.045  26.515   9.594  1.00 17.84     0.186 C 
ENDROOT
BRANCH   7   8
ATOM      8  CB  ARG A 124      29.529  26.705   9.647  1.00 16.18     0.036 C 
BRANCH   8   9
ATOM      9  CG  ARG A 124      29.027  27.930  10.492  1.00 16.22     0.029 C 
BRANCH   9  10
ATOM     10  CD  ARG A 124      28.321  27.508  11.801  1.00 15.09     0.145 C 
BRANCH  10  11
ATOM     11  NE  ARG A 124      27.379  28.520  12.326  1.00 16.98    -0.083 NA
ATOM     12  CZ  ARG A 124      26.072  28.336  12.476  1.00 18.21     0.782 C 
ATOM     13  NH1 ARG A 124      25.497  27.181  12.165  1.00 21.11     0.063 N 
ATOM     14  NH2 ARG A 124      25.320  29.309  12.967  1.00 21.25     0.063 N 
ENDBRANCH  10  11
ENDBRANCH   9  10
ENDBRANCH   8   9
ENDBRANCH   7   8
END_RES ARG A 124
BEGIN_RES ASN A 133
REMARK  2 active torsions:
REMARK  status: ('A' for Active; 'I' for Inactive)
REMARK    9  A    between atoms: CA   and  CB  
REMARK   10  A    between atoms: CB   and  CG  
ROOT
ATOM     15  CA  ASN A 133      31.225  30.257  11.749  1.00 18.15     0.196 C 
ENDROOT
BRANCH  15  16
ATOM     16  CB  ASN A 133      30.092  31.240  11.460  1.00 18.27     0.126 C 
BRANCH  16  17
ATOM     17  CG  ASN A 133      29.494  31.834  12.698  1.00 18.94     0.276 C 
ATOM     18  OD1 ASN A 133      28.693  31.201  13.387  1.00 18.09    -0.269 OA
ATOM     19  ND2 ASN A 133      29.882  33.075  12.994  1.00 18.93    -0.107 N 
ENDBRANCH  16  17
ENDBRANCH  15  16
END_RES ASN A 133
BEGIN_RES LYS A 131
REMARK  4 active torsions:
REMARK  status: ('A' for Active; 'I' for Inactive)
REMARK   11  A    between atoms: CA   and  CB  
REMARK   12  A    between atoms: CB   and  CG  
REMARK   13  A    between atoms: CG   and  CD  
REMARK   14  A    between atoms: CD   and  CE  
ROOT
ATOM     20  CA  LYS A 131      29.867  25.555  16.977  1.00 20.52     0.186 C 
ENDROOT
BRANCH  20  21
ATOM     21  CB  LYS A 131      28.345  25.722  17.026  1.00 20.94     0.034 C 
BRANCH  21  22
ATOM     22  CG  LYS A 131      27.724  25.884  15.647  1.00 22.96     0.005 C 
BRANCH  22  23
ATOM     23  CD  LYS A 131      26.505  26.765  15.675  1.00 24.33     0.041 C 
BRANCH  23  24
ATOM     24  CE  LYS A 131      26.792  28.004  16.516  1.00 26.91     0.338 C 
ATOM     25  NZ  LYS A 131      27.635  28.960  15.761  1.00 27.40     0.618 N 
ENDBRANCH  23  24
ENDBRANCH  22  23
ENDBRANCH  21  22
ENDBRANCH  20  21
END_RES LYS A 131
