REMARK VINA RESULT:    -4.698      5.710      8.029
REMARK INTER + INTRA:          -9.443
REMARK INTER:                  -5.934
REMARK INTRA:                  -3.509
REMARK UNBOUND:                -3.509
REMARK SMILES C[C@H](N)C(=O)OCc1ccccc1
REMARK SMILES IDX 4 1 5 2 2 3 1 4 3 5 6 8 7 9 8 10 9 11 13 12 10 13 12 14
REMARK SMILES IDX 11 15
REMARK H PARENT 3 6 3 7
REMARK Flexibility Score: inf
ROOT
ATOM      1  C   UNL     1      29.516  34.737  12.945  1.00  0.00     0.322 C 
ATOM      2  O   UNL     1      30.642  34.331  13.285  1.00  0.00    -0.250 OA
ENDROOT
BRANCH   1   3
ATOM      3  C   UNL     1      28.474  34.954  13.962  1.00  0.00     0.159 C 
ATOM      4  C   UNL     1      28.661  36.359  14.508  1.00  0.00     0.037 C 
BRANCH   3   5
ATOM      5  N   UNL     1      28.571  33.955  14.982  1.00  0.00    -0.319 NA
ATOM      6  H   UNL     1      29.344  34.126  15.647  1.00  0.00     0.119 HD
ATOM      7  H   UNL     1      28.624  32.998  14.529  1.00  0.00     0.119 HD
ENDBRANCH   3   5
ENDBRANCH   1   3
BRANCH   1   8
ATOM      8  O   UNL     1      29.259  34.981  11.613  1.00  0.00    -0.460 OA
BRANCH   8   9
ATOM      9  C   UNL     1      29.698  34.080  10.611  1.00  0.00     0.268 C 
BRANCH   9  10
ATOM     10  C   UNL     1      29.049  34.503   9.342  1.00  0.00    -0.011 A 
ATOM     11  C   UNL     1      29.762  34.961   8.251  1.00  0.00     0.007 A 
ATOM     12  C   UNL     1      27.676  34.431   9.265  1.00  0.00     0.007 A 
ATOM     13  C   UNL     1      29.152  35.351   7.079  1.00  0.00     0.000 A 
ATOM     14  C   UNL     1      27.038  34.818   8.097  1.00  0.00     0.000 A 
ATOM     15  C   UNL     1      27.767  35.271   7.018  1.00  0.00     0.000 A 
ENDBRANCH   9  10
ENDBRANCH   8   9
ENDBRANCH   1   8
TORSDOF 5
BEGIN_RES LYS A 135
REMARK  4 active torsions:
REMARK  status: ('A' for Active; 'I' for Inactive)
REMARK    1  A    between atoms: CA   and  CB  
REMARK    2  A    between atoms: CB   and  CG  
REMARK    3  A    between atoms: CG   and  CD  
REMARK    4  A    between atoms: CD   and  CE  
ROOT
ATOM      1  CA  LYS A 135      33.193  34.663   9.290  1.00 25.02     0.186 C 
ENDROOT
BRANCH   1   2
ATOM      2  CB  LYS A 135      32.060  35.360  10.034  1.00 26.63     0.034 C 
BRANCH   2   3
ATOM      3  CG  LYS A 135      32.527  36.192  11.200  1.00 29.45     0.005 C 
BRANCH   3   4
ATOM      4  CD  LYS A 135      31.767  37.507  11.260  1.00 32.00     0.041 C 
BRANCH   4   5
ATOM      5  CE  LYS A 135      31.296  37.914   9.877  1.00 34.25     0.338 C 
ATOM      6  NZ  LYS A 135      32.069  39.080   9.368  1.00 35.99     0.618 N 
ENDBRANCH   4   5
ENDBRANCH   3   4
ENDBRANCH   2   3
ENDBRANCH   1   2
END_RES LYS A 135
BEGIN_RES ARG A 124
REMARK  4 active torsions:
REMARK  status: ('A' for Active; 'I' for Inactive)
REMARK    5  A    between atoms: CA   and  CB  
REMARK    6  A    between atoms: CB   and  CG  
REMARK    7  A    between atoms: CG   and  CD  
REMARK    8  A    between atoms: CD   and  NE  
REMARK       I    between atoms: NE   and  CZ  
ROOT
ATOM      7  CA  ARG A 124      31.045  26.515   9.594  1.00 17.84     0.186 C 
ENDROOT
BRANCH   7   8
ATOM      8  CB  ARG A 124      29.529  26.705   9.647  1.00 16.18     0.036 C 
BRANCH   8   9
ATOM      9  CG  ARG A 124      29.031  27.978  10.421  1.00 16.22     0.029 C 
BRANCH   9  10
ATOM     10  CD  ARG A 124      27.635  27.786  11.056  1.00 15.09     0.145 C 
BRANCH  10  11
ATOM     11  NE  ARG A 124      27.515  28.352  12.418  1.00 16.98    -0.083 NA
ATOM     12  CZ  ARG A 124      27.759  27.687  13.542  1.00 18.21     0.782 C 
ATOM     13  NH1 ARG A 124      28.156  26.420  13.522  1.00 21.11     0.063 N 
ATOM     14  NH2 ARG A 124      27.630  28.295  14.711  1.00 21.25     0.063 N 
ENDBRANCH  10  11
ENDBRANCH   9  10
ENDBRANCH   8   9
ENDBRANCH   7   8
END_RES ARG A 124
BEGIN_RES ASN A 133
REMARK  2 active torsions:
REMARK  status: ('A' for Active; 'I' for Inactive)
REMARK    9  A    between atoms: CA   and  CB  
REMARK   10  A    between atoms: CB   and  CG  
ROOT
ATOM     15  CA  ASN A 133      31.225  30.257  11.749  1.00 18.15     0.196 C 
ENDROOT
BRANCH  15  16
ATOM     16  CB  ASN A 133      30.092  31.240  11.460  1.00 18.27     0.126 C 
BRANCH  16  17
ATOM     17  CG  ASN A 133      29.066  31.297  12.549  1.00 18.94     0.276 C 
ATOM     18  OD1 ASN A 133      29.393  31.258  13.737  1.00 18.09    -0.269 OA
ATOM     19  ND2 ASN A 133      27.798  31.389  12.150  1.00 18.93    -0.107 N 
ENDBRANCH  16  17
ENDBRANCH  15  16
END_RES ASN A 133
BEGIN_RES LYS A 131
REMARK  4 active torsions:
REMARK  status: ('A' for Active; 'I' for Inactive)
REMARK   11  A    between atoms: CA   and  CB  
REMARK   12  A    between atoms: CB   and  CG  
REMARK   13  A    between atoms: CG   and  CD  
REMARK   14  A    between atoms: CD   and  CE  
ROOT
ATOM     20  CA  LYS A 131      29.867  25.555  16.977  1.00 20.52     0.186 C 
ENDROOT
BRANCH  20  21
ATOM     21  CB  LYS A 131      28.345  25.722  17.026  1.00 20.94     0.034 C 
BRANCH  21  22
ATOM     22  CG  LYS A 131      27.599  24.419  16.779  1.00 22.96     0.005 C 
BRANCH  22  23
ATOM     23  CD  LYS A 131      26.859  23.950  18.001  1.00 24.33     0.041 C 
BRANCH  23  24
ATOM     24  CE  LYS A 131      25.517  24.670  18.090  1.00 26.91     0.338 C 
ATOM     25  NZ  LYS A 131      24.666  24.328  16.926  1.00 27.40     0.618 N 
ENDBRANCH  23  24
ENDBRANCH  22  23
ENDBRANCH  21  22
ENDBRANCH  20  21
END_RES LYS A 131
