REMARK VINA RESULT:    -2.394      3.693      4.399
REMARK INTER + INTRA:          -9.710
REMARK INTER:                  -3.670
REMARK INTRA:                  -6.040
REMARK UNBOUND:                -6.407
REMARK SMILES CCOC(CCN)OCC
REMARK SMILES IDX 5 1 4 2 3 3 2 4 1 5 8 6 9 7 10 8 6 9 7 10
REMARK H PARENT 7 11 7 12
REMARK Flexibility Score: inf
ROOT
ATOM      1  C   UNL     1      31.865  33.987  16.348  1.00  0.00     0.077 C 
ENDROOT
BRANCH   1   2
ATOM      2  C   UNL     1      31.784  35.103  15.354  1.00  0.00     0.251 C 
BRANCH   2   3
ATOM      3  O   UNL     1      32.061  34.678  14.069  1.00  0.00    -0.353 OA
BRANCH   3   4
ATOM      4  C   UNL     1      31.444  35.397  13.082  1.00  0.00     0.160 C 
ATOM      5  C   UNL     1      30.105  34.710  12.796  1.00  0.00     0.035 C 
ENDBRANCH   3   4
ENDBRANCH   2   3
BRANCH   2   6
ATOM      6  O   UNL     1      32.601  36.156  15.751  1.00  0.00    -0.353 OA
BRANCH   6   7
ATOM      7  C   UNL     1      33.892  35.735  15.921  1.00  0.00     0.160 C 
ATOM      8  C   UNL     1      34.629  36.488  17.004  1.00  0.00     0.035 C 
ENDBRANCH   6   7
ENDBRANCH   2   6
ENDBRANCH   1   2
BRANCH   1   9
ATOM      9  C   UNL     1      30.921  32.852  16.044  1.00  0.00     0.083 C 
BRANCH   9  10
ATOM     10  N   UNL     1      31.374  32.010  14.970  1.00  0.00    -0.330 NA
ATOM     11  H   UNL     1      30.684  31.980  14.180  1.00  0.00     0.118 HD
ATOM     12  H   UNL     1      32.316  32.256  14.626  1.00  0.00     0.118 HD
ENDBRANCH   9  10
ENDBRANCH   1   9
TORSDOF 7
BEGIN_RES LYS A 135
REMARK  4 active torsions:
REMARK  status: ('A' for Active; 'I' for Inactive)
REMARK    1  A    between atoms: CA   and  CB  
REMARK    2  A    between atoms: CB   and  CG  
REMARK    3  A    between atoms: CG   and  CD  
REMARK    4  A    between atoms: CD   and  CE  
ROOT
ATOM      1  CA  LYS A 135      33.193  34.663   9.290  1.00 25.02     0.186 C 
ENDROOT
BRANCH   1   2
ATOM      2  CB  LYS A 135      32.060  35.360  10.034  1.00 26.63     0.034 C 
BRANCH   2   3
ATOM      3  CG  LYS A 135      30.808  35.521   9.211  1.00 29.45     0.005 C 
BRANCH   3   4
ATOM      4  CD  LYS A 135      30.170  34.168   8.934  1.00 32.00     0.041 C 
BRANCH   4   5
ATOM      5  CE  LYS A 135      28.677  34.318   8.714  1.00 34.25     0.338 C 
ATOM      6  NZ  LYS A 135      27.906  33.601   9.768  1.00 35.99     0.618 N 
ENDBRANCH   4   5
ENDBRANCH   3   4
ENDBRANCH   2   3
ENDBRANCH   1   2
END_RES LYS A 135
BEGIN_RES ARG A 124
REMARK  4 active torsions:
REMARK  status: ('A' for Active; 'I' for Inactive)
REMARK    5  A    between atoms: CA   and  CB  
REMARK    6  A    between atoms: CB   and  CG  
REMARK    7  A    between atoms: CG   and  CD  
REMARK    8  A    between atoms: CD   and  NE  
REMARK       I    between atoms: NE   and  CZ  
ROOT
ATOM      7  CA  ARG A 124      31.045  26.515   9.594  1.00 17.84     0.186 C 
ENDROOT
BRANCH   7   8
ATOM      8  CB  ARG A 124      29.529  26.705   9.647  1.00 16.18     0.036 C 
BRANCH   8   9
ATOM      9  CG  ARG A 124      28.969  27.327  10.976  1.00 16.22     0.029 C 
BRANCH   9  10
ATOM     10  CD  ARG A 124      28.416  26.261  11.950  1.00 15.09     0.145 C 
BRANCH  10  11
ATOM     11  NE  ARG A 124      27.972  26.812  13.250  1.00 16.98    -0.083 NA
ATOM     12  CZ  ARG A 124      26.748  27.259  13.507  1.00 18.21     0.782 C 
ATOM     13  NH1 ARG A 124      25.794  27.231  12.584  1.00 21.11     0.063 N 
ATOM     14  NH2 ARG A 124      26.454  27.723  14.712  1.00 21.25     0.063 N 
ENDBRANCH  10  11
ENDBRANCH   9  10
ENDBRANCH   8   9
ENDBRANCH   7   8
END_RES ARG A 124
BEGIN_RES ASN A 133
REMARK  2 active torsions:
REMARK  status: ('A' for Active; 'I' for Inactive)
REMARK    9  A    between atoms: CA   and  CB  
REMARK   10  A    between atoms: CB   and  CG  
ROOT
ATOM     15  CA  ASN A 133      31.225  30.257  11.749  1.00 18.15     0.196 C 
ENDROOT
BRANCH  15  16
ATOM     16  CB  ASN A 133      30.092  31.240  11.460  1.00 18.27     0.126 C 
BRANCH  16  17
ATOM     17  CG  ASN A 133      28.888  31.026  12.324  1.00 18.94     0.276 C 
ATOM     18  OD1 ASN A 133      28.811  31.529  13.447  1.00 18.09    -0.269 OA
ATOM     19  ND2 ASN A 133      27.925  30.266  11.804  1.00 18.93    -0.107 N 
ENDBRANCH  16  17
ENDBRANCH  15  16
END_RES ASN A 133
BEGIN_RES LYS A 131
REMARK  4 active torsions:
REMARK  status: ('A' for Active; 'I' for Inactive)
REMARK   11  A    between atoms: CA   and  CB  
REMARK   12  A    between atoms: CB   and  CG  
REMARK   13  A    between atoms: CG   and  CD  
REMARK   14  A    between atoms: CD   and  CE  
ROOT
ATOM     20  CA  LYS A 131      29.867  25.555  16.977  1.00 20.52     0.186 C 
ENDROOT
BRANCH  20  21
ATOM     21  CB  LYS A 131      28.345  25.722  17.026  1.00 20.94     0.034 C 
BRANCH  21  22
ATOM     22  CG  LYS A 131      27.600  24.407  16.852  1.00 22.96     0.005 C 
BRANCH  22  23
ATOM     23  CD  LYS A 131      26.149  24.524  17.228  1.00 24.33     0.041 C 
BRANCH  23  24
ATOM     24  CE  LYS A 131      25.939  23.963  18.630  1.00 26.91     0.338 C 
ATOM     25  NZ  LYS A 131      25.669  25.058  19.592  1.00 27.40     0.618 N 
ENDBRANCH  23  24
ENDBRANCH  22  23
ENDBRANCH  21  22
ENDBRANCH  20  21
END_RES LYS A 131
