REMARK VINA RESULT:    -3.772      2.736      4.475
REMARK INTER + INTRA:         -11.308
REMARK INTER:                  -4.932
REMARK INTRA:                  -6.376
REMARK UNBOUND:                -6.213
REMARK SMILES CCOCCc1c(N)nc(N)nc1-c1ccccc1
REMARK SMILES IDX 4 1 3 2 2 3 1 4 5 5 6 6 7 7 13 8 9 9 12 10 10 11 8 12 14 15
REMARK SMILES IDX 15 16 19 17 16 18 18 19 17 20 11 21
REMARK H PARENT 8 13 8 14 11 22 11 23
REMARK Flexibility Score: inf
ROOT
ATOM      1  C   UNL     1      34.950  36.032  16.188  1.00  0.00     0.165 C 
ENDROOT
BRANCH   1   2
ATOM      2  O   UNL     1      33.928  36.348  17.026  1.00  0.00    -0.381 OA
BRANCH   2   3
ATOM      3  C   UNL     1      32.920  35.419  17.085  1.00  0.00     0.156 C 
ATOM      4  C   UNL     1      32.568  34.815  15.749  1.00  0.00     0.035 C 
ENDBRANCH   2   3
ENDBRANCH   1   2
BRANCH   1   5
ATOM      5  C   UNL     1      36.301  36.417  16.659  1.00  0.00     0.070 C 
BRANCH   5   6
ATOM      6  C   UNL     1      37.050  35.431  17.423  1.00  0.00     0.023 A 
ATOM      7  C   UNL     1      36.904  35.323  18.804  1.00  0.00     0.132 A 
ATOM      8  C   UNL     1      37.964  34.610  16.831  1.00  0.00     0.081 A 
ATOM      9  N   UNL     1      37.625  34.458  19.506  1.00  0.00    -0.196 NA
ATOM     10  N   UNL     1      38.683  33.733  17.599  1.00  0.00    -0.213 NA
ATOM     11  C   UNL     1      38.534  33.640  18.922  1.00  0.00     0.222 A 
BRANCH   7  12
ATOM     12  N   UNL     1      35.967  36.167  19.421  1.00  0.00    -0.383 N 
ATOM     13  H   UNL     1      35.109  35.771  19.851  1.00  0.00     0.158 HD
ATOM     14  H   UNL     1      36.116  37.184  19.454  1.00  0.00     0.158 HD
ENDBRANCH   7  12
BRANCH   8  15
ATOM     15  C   UNL     1      38.333  34.607  15.420  1.00  0.00     0.001 A 
ATOM     16  C   UNL     1      39.373  35.456  14.998  1.00  0.00     0.010 A 
ATOM     17  C   UNL     1      37.767  33.823  14.462  1.00  0.00     0.010 A 
ATOM     18  C   UNL     1      39.804  35.502  13.693  1.00  0.00     0.001 A 
ATOM     19  C   UNL     1      38.213  33.877  13.134  1.00  0.00     0.001 A 
ATOM     20  C   UNL     1      39.227  34.707  12.727  1.00  0.00     0.000 A 
ENDBRANCH   8  15
BRANCH  11  21
ATOM     21  N   UNL     1      39.295  32.718  19.699  1.00  0.00    -0.368 N 
ATOM     22  H   UNL     1      39.211  32.718  20.723  1.00  0.00     0.159 HD
ATOM     23  H   UNL     1      39.919  32.062  19.208  1.00  0.00     0.159 HD
ENDBRANCH  11  21
ENDBRANCH   5   6
ENDBRANCH   1   5
TORSDOF 7
BEGIN_RES LYS A 135
REMARK  4 active torsions:
REMARK  status: ('A' for Active; 'I' for Inactive)
REMARK    1  A    between atoms: CA   and  CB  
REMARK    2  A    between atoms: CB   and  CG  
REMARK    3  A    between atoms: CG   and  CD  
REMARK    4  A    between atoms: CD   and  CE  
ROOT
ATOM      1  CA  LYS A 135      33.193  34.663   9.290  1.00 25.02     0.186 C 
ENDROOT
BRANCH   1   2
ATOM      2  CB  LYS A 135      32.060  35.360  10.034  1.00 26.63     0.034 C 
BRANCH   2   3
ATOM      3  CG  LYS A 135      30.708  34.739   9.792  1.00 29.45     0.005 C 
BRANCH   3   4
ATOM      4  CD  LYS A 135      30.472  34.532   8.304  1.00 32.00     0.041 C 
BRANCH   4   5
ATOM      5  CE  LYS A 135      29.019  34.791   7.954  1.00 34.25     0.338 C 
ATOM      6  NZ  LYS A 135      28.898  35.486   6.643  1.00 35.99     0.618 N 
ENDBRANCH   4   5
ENDBRANCH   3   4
ENDBRANCH   2   3
ENDBRANCH   1   2
END_RES LYS A 135
BEGIN_RES ARG A 124
REMARK  4 active torsions:
REMARK  status: ('A' for Active; 'I' for Inactive)
REMARK    5  A    between atoms: CA   and  CB  
REMARK    6  A    between atoms: CB   and  CG  
REMARK    7  A    between atoms: CG   and  CD  
REMARK    8  A    between atoms: CD   and  NE  
REMARK       I    between atoms: NE   and  CZ  
ROOT
ATOM      7  CA  ARG A 124      31.045  26.515   9.594  1.00 17.84     0.186 C 
ENDROOT
BRANCH   7   8
ATOM      8  CB  ARG A 124      29.529  26.705   9.647  1.00 16.18     0.036 C 
BRANCH   8   9
ATOM      9  CG  ARG A 124      28.776  25.856  10.733  1.00 16.22     0.029 C 
BRANCH   9  10
ATOM     10  CD  ARG A 124      28.445  26.668  12.006  1.00 15.09     0.145 C 
BRANCH  10  11
ATOM     11  NE  ARG A 124      27.012  27.011  12.141  1.00 16.98    -0.083 NA
ATOM     12  CZ  ARG A 124      26.467  27.589  13.206  1.00 18.21     0.782 C 
ATOM     13  NH1 ARG A 124      27.199  27.924  14.261  1.00 21.11     0.063 N 
ATOM     14  NH2 ARG A 124      25.171  27.863  13.218  1.00 21.25     0.063 N 
ENDBRANCH  10  11
ENDBRANCH   9  10
ENDBRANCH   8   9
ENDBRANCH   7   8
END_RES ARG A 124
BEGIN_RES ASN A 133
REMARK  2 active torsions:
REMARK  status: ('A' for Active; 'I' for Inactive)
REMARK    9  A    between atoms: CA   and  CB  
REMARK   10  A    between atoms: CB   and  CG  
ROOT
ATOM     15  CA  ASN A 133      31.225  30.257  11.749  1.00 18.15     0.196 C 
ENDROOT
BRANCH  15  16
ATOM     16  CB  ASN A 133      30.092  31.240  11.460  1.00 18.27     0.126 C 
BRANCH  16  17
ATOM     17  CG  ASN A 133      28.738  30.601  11.466  1.00 18.94     0.276 C 
ATOM     18  OD1 ASN A 133      28.413  29.786  10.600  1.00 18.09    -0.269 OA
ATOM     19  ND2 ASN A 133      27.924  30.969  12.455  1.00 18.93    -0.107 N 
ENDBRANCH  16  17
ENDBRANCH  15  16
END_RES ASN A 133
BEGIN_RES LYS A 131
REMARK  4 active torsions:
REMARK  status: ('A' for Active; 'I' for Inactive)
REMARK   11  A    between atoms: CA   and  CB  
REMARK   12  A    between atoms: CB   and  CG  
REMARK   13  A    between atoms: CG   and  CD  
REMARK   14  A    between atoms: CD   and  CE  
ROOT
ATOM     20  CA  LYS A 131      29.867  25.555  16.977  1.00 20.52     0.186 C 
ENDROOT
BRANCH  20  21
ATOM     21  CB  LYS A 131      28.345  25.722  17.026  1.00 20.94     0.034 C 
BRANCH  21  22
ATOM     22  CG  LYS A 131      27.601  24.402  16.892  1.00 22.96     0.005 C 
BRANCH  22  23
ATOM     23  CD  LYS A 131      26.139  24.541  17.213  1.00 24.33     0.041 C 
BRANCH  23  24
ATOM     24  CE  LYS A 131      25.714  25.995  17.034  1.00 26.91     0.338 C 
ATOM     25  NZ  LYS A 131      24.530  26.085  16.148  1.00 27.40     0.618 N 
ENDBRANCH  23  24
ENDBRANCH  22  23
ENDBRANCH  21  22
ENDBRANCH  20  21
END_RES LYS A 131
