REMARK VINA RESULT:    -3.186      8.825     12.807
REMARK INTER + INTRA:          -8.904
REMARK INTER:                  -3.776
REMARK INTRA:                  -5.128
REMARK UNBOUND:                -5.346
REMARK SMILES Nc1ccc(S(N)(=O)=O)cc1
REMARK SMILES IDX 5 1 4 2 3 3 2 4 11 5 10 6 6 7 8 8 9 9 7 10 1 13
REMARK H PARENT 7 11 7 12 1 14 1 15
REMARK Flexibility Score: inf
ROOT
ATOM      1  C   UNL     1      21.191  30.437  12.549  1.00  0.00     0.082 A 
ATOM      2  C   UNL     1      21.927  29.272  12.472  1.00  0.00     0.024 A 
ATOM      3  C   UNL     1      23.293  29.277  12.665  1.00  0.00     0.027 A 
ATOM      4  C   UNL     1      23.995  30.432  12.942  1.00  0.00     0.031 A 
ATOM      5  C   UNL     1      23.247  31.589  13.016  1.00  0.00     0.027 A 
ATOM      6  C   UNL     1      21.880  31.601  12.826  1.00  0.00     0.024 A 
ENDROOT
BRANCH   1   7
ATOM      7  S   UNL     1      19.458  30.427  12.304  1.00  0.00     0.238 S 
ATOM      8  O   UNL     1      18.995  31.709  11.641  1.00  0.00    -0.207 OA
ATOM      9  O   UNL     1      19.053  29.313  11.357  1.00  0.00    -0.207 OA
BRANCH   7  10
ATOM     10  N   UNL     1      18.583  30.246  13.752  1.00  0.00    -0.225 NA
ATOM     11  H   UNL     1      18.336  31.190  14.166  1.00  0.00     0.137 HD
ATOM     12  H   UNL     1      19.150  29.769  14.489  1.00  0.00     0.137 HD
ENDBRANCH   7  10
ENDBRANCH   1   7
BRANCH   4  13
ATOM     13  N   UNL     1      25.408  30.423  13.139  1.00  0.00    -0.399 N 
ATOM     14  H   UNL     1      25.876  30.950  13.909  1.00  0.00     0.156 HD
ATOM     15  H   UNL     1      26.015  29.880  12.510  1.00  0.00     0.156 HD
ENDBRANCH   4  13
TORSDOF 3
BEGIN_RES LYS A 135
REMARK  4 active torsions:
REMARK  status: ('A' for Active; 'I' for Inactive)
REMARK    1  A    between atoms: CA   and  CB  
REMARK    2  A    between atoms: CB   and  CG  
REMARK    3  A    between atoms: CG   and  CD  
REMARK    4  A    between atoms: CD   and  CE  
ROOT
ATOM      1  CA  LYS A 135      33.193  34.663   9.290  1.00 25.02     0.186 C 
ENDROOT
BRANCH   1   2
ATOM      2  CB  LYS A 135      32.060  35.360  10.034  1.00 26.63     0.034 C 
BRANCH   2   3
ATOM      3  CG  LYS A 135      30.718  34.701   9.842  1.00 29.45     0.005 C 
BRANCH   3   4
ATOM      4  CD  LYS A 135      30.136  35.056   8.483  1.00 32.00     0.041 C 
BRANCH   4   5
ATOM      5  CE  LYS A 135      28.736  34.490   8.339  1.00 34.25     0.338 C 
ATOM      6  NZ  LYS A 135      28.299  33.815   9.592  1.00 35.99     0.618 N 
ENDBRANCH   4   5
ENDBRANCH   3   4
ENDBRANCH   2   3
ENDBRANCH   1   2
END_RES LYS A 135
BEGIN_RES ARG A 124
REMARK  4 active torsions:
REMARK  status: ('A' for Active; 'I' for Inactive)
REMARK    5  A    between atoms: CA   and  CB  
REMARK    6  A    between atoms: CB   and  CG  
REMARK    7  A    between atoms: CG   and  CD  
REMARK    8  A    between atoms: CD   and  NE  
REMARK       I    between atoms: NE   and  CZ  
ROOT
ATOM      7  CA  ARG A 124      31.045  26.515   9.594  1.00 17.84     0.186 C 
ENDROOT
BRANCH   7   8
ATOM      8  CB  ARG A 124      29.529  26.705   9.647  1.00 16.18     0.036 C 
BRANCH   8   9
ATOM      9  CG  ARG A 124      29.035  28.042  10.307  1.00 16.22     0.029 C 
BRANCH   9  10
ATOM     10  CD  ARG A 124      27.665  27.895  11.008  1.00 15.09     0.145 C 
BRANCH  10  11
ATOM     11  NE  ARG A 124      27.638  28.432  12.386  1.00 16.98    -0.083 NA
ATOM     12  CZ  ARG A 124      27.845  27.715  13.485  1.00 18.21     0.782 C 
ATOM     13  NH1 ARG A 124      28.114  26.417  13.422  1.00 21.11     0.063 N 
ATOM     14  NH2 ARG A 124      27.808  28.300  14.672  1.00 21.25     0.063 N 
ENDBRANCH  10  11
ENDBRANCH   9  10
ENDBRANCH   8   9
ENDBRANCH   7   8
END_RES ARG A 124
BEGIN_RES ASN A 133
REMARK  2 active torsions:
REMARK  status: ('A' for Active; 'I' for Inactive)
REMARK    9  A    between atoms: CA   and  CB  
REMARK   10  A    between atoms: CB   and  CG  
ROOT
ATOM     15  CA  ASN A 133      31.225  30.257  11.749  1.00 18.15     0.196 C 
ENDROOT
BRANCH  15  16
ATOM     16  CB  ASN A 133      30.092  31.240  11.460  1.00 18.27     0.126 C 
BRANCH  16  17
ATOM     17  CG  ASN A 133      29.455  31.789  12.699  1.00 18.94     0.276 C 
ATOM     18  OD1 ASN A 133      28.504  31.216  13.235  1.00 18.09    -0.269 OA
ATOM     19  ND2 ASN A 133      29.977  32.920  13.170  1.00 18.93    -0.107 N 
ENDBRANCH  16  17
ENDBRANCH  15  16
END_RES ASN A 133
BEGIN_RES LYS A 131
REMARK  4 active torsions:
REMARK  status: ('A' for Active; 'I' for Inactive)
REMARK   11  A    between atoms: CA   and  CB  
REMARK   12  A    between atoms: CB   and  CG  
REMARK   13  A    between atoms: CG   and  CD  
REMARK   14  A    between atoms: CD   and  CE  
ROOT
ATOM     20  CA  LYS A 131      29.867  25.555  16.977  1.00 20.52     0.186 C 
ENDROOT
BRANCH  20  21
ATOM     21  CB  LYS A 131      28.345  25.722  17.026  1.00 20.94     0.034 C 
BRANCH  21  22
ATOM     22  CG  LYS A 131      27.601  24.402  16.895  1.00 22.96     0.005 C 
BRANCH  22  23
ATOM     23  CD  LYS A 131      26.525  24.253  17.935  1.00 24.33     0.041 C 
BRANCH  23  24
ATOM     24  CE  LYS A 131      25.178  24.054  17.247  1.00 26.91     0.338 C 
ATOM     25  NZ  LYS A 131      24.578  25.363  16.894  1.00 27.40     0.618 N 
ENDBRANCH  23  24
ENDBRANCH  22  23
ENDBRANCH  21  22
ENDBRANCH  20  21
END_RES LYS A 131
