REMARK VINA RESULT:    -3.378      3.263      6.295
REMARK INTER + INTRA:          -9.437
REMARK INTER:                  -4.018
REMARK INTRA:                  -5.419
REMARK UNBOUND:                -5.466
REMARK SMILES NCc1ccc(CN)cc1
REMARK SMILES IDX 3 1 4 2 5 3 6 4 9 5 10 6 2 7 1 8 7 11 8 12
REMARK H PARENT 1 9 1 10 8 13 8 14
REMARK Flexibility Score: inf
ROOT
ATOM      1  C   UNL     1      23.458  30.550  12.967  1.00  0.00    -0.034 A 
ATOM      2  C   UNL     1      22.610  31.659  12.952  1.00  0.00     0.005 A 
ATOM      3  C   UNL     1      21.304  31.496  12.583  1.00  0.00     0.005 A 
ATOM      4  C   UNL     1      20.832  30.250  12.232  1.00  0.00    -0.034 A 
ATOM      5  C   UNL     1      21.682  29.144  12.248  1.00  0.00     0.005 A 
ATOM      6  C   UNL     1      23.013  29.291  12.621  1.00  0.00     0.005 A 
ENDROOT
BRANCH   1   7
ATOM      7  C   UNL     1      24.881  30.679  13.360  1.00  0.00     0.113 C 
BRANCH   7   8
ATOM      8  N   UNL     1      25.412  31.992  13.093  1.00  0.00    -0.326 NA
ATOM      9  H   UNL     1      25.706  32.517  13.916  1.00  0.00     0.119 HD
ATOM     10  H   UNL     1      24.902  32.501  12.370  1.00  0.00     0.119 HD
ENDBRANCH   7   8
ENDBRANCH   1   7
BRANCH   4  11
ATOM     11  C   UNL     1      19.410  30.134  11.842  1.00  0.00     0.113 C 
BRANCH  11  12
ATOM     12  N   UNL     1      19.052  28.782  11.509  1.00  0.00    -0.326 NA
ATOM     13  H   UNL     1      18.776  28.269  12.351  1.00  0.00     0.119 HD
ATOM     14  H   UNL     1      19.856  28.363  10.984  1.00  0.00     0.119 HD
ENDBRANCH  11  12
ENDBRANCH   4  11
TORSDOF 4
BEGIN_RES LYS A 135
REMARK  4 active torsions:
REMARK  status: ('A' for Active; 'I' for Inactive)
REMARK    1  A    between atoms: CA   and  CB  
REMARK    2  A    between atoms: CB   and  CG  
REMARK    3  A    between atoms: CG   and  CD  
REMARK    4  A    between atoms: CD   and  CE  
ROOT
ATOM      1  CA  LYS A 135      33.193  34.663   9.290  1.00 25.02     0.186 C 
ENDROOT
BRANCH   1   2
ATOM      2  CB  LYS A 135      32.060  35.360  10.034  1.00 26.63     0.034 C 
BRANCH   2   3
ATOM      3  CG  LYS A 135      30.710  34.733   9.800  1.00 29.45     0.005 C 
BRANCH   3   4
ATOM      4  CD  LYS A 135      30.467  34.522   8.313  1.00 32.00     0.041 C 
BRANCH   4   5
ATOM      5  CE  LYS A 135      29.021  34.815   7.963  1.00 34.25     0.338 C 
ATOM      6  NZ  LYS A 135      28.920  35.552   6.673  1.00 35.99     0.618 N 
ENDBRANCH   4   5
ENDBRANCH   3   4
ENDBRANCH   2   3
ENDBRANCH   1   2
END_RES LYS A 135
BEGIN_RES ARG A 124
REMARK  4 active torsions:
REMARK  status: ('A' for Active; 'I' for Inactive)
REMARK    5  A    between atoms: CA   and  CB  
REMARK    6  A    between atoms: CB   and  CG  
REMARK    7  A    between atoms: CG   and  CD  
REMARK    8  A    between atoms: CD   and  NE  
REMARK       I    between atoms: NE   and  CZ  
ROOT
ATOM      7  CA  ARG A 124      31.045  26.515   9.594  1.00 17.84     0.186 C 
ENDROOT
BRANCH   7   8
ATOM      8  CB  ARG A 124      29.529  26.705   9.647  1.00 16.18     0.036 C 
BRANCH   8   9
ATOM      9  CG  ARG A 124      28.974  27.378  10.953  1.00 16.22     0.029 C 
BRANCH   9  10
ATOM     10  CD  ARG A 124      28.481  26.349  11.996  1.00 15.09     0.145 C 
BRANCH  10  11
ATOM     11  NE  ARG A 124      28.071  26.951  13.283  1.00 16.98    -0.083 NA
ATOM     12  CZ  ARG A 124      26.835  27.333  13.583  1.00 18.21     0.782 C 
ATOM     13  NH1 ARG A 124      25.837  27.185  12.720  1.00 21.11     0.063 N 
ATOM     14  NH2 ARG A 124      26.574  27.852  14.773  1.00 21.25     0.063 N 
ENDBRANCH  10  11
ENDBRANCH   9  10
ENDBRANCH   8   9
ENDBRANCH   7   8
END_RES ARG A 124
BEGIN_RES ASN A 133
REMARK  2 active torsions:
REMARK  status: ('A' for Active; 'I' for Inactive)
REMARK    9  A    between atoms: CA   and  CB  
REMARK   10  A    between atoms: CB   and  CG  
ROOT
ATOM     15  CA  ASN A 133      31.225  30.257  11.749  1.00 18.15     0.196 C 
ENDROOT
BRANCH  15  16
ATOM     16  CB  ASN A 133      30.092  31.240  11.460  1.00 18.27     0.126 C 
BRANCH  16  17
ATOM     17  CG  ASN A 133      28.959  31.140  12.434  1.00 18.94     0.276 C 
ATOM     18  OD1 ASN A 133      28.071  30.298  12.295  1.00 18.09    -0.269 OA
ATOM     19  ND2 ASN A 133      28.979  32.012  13.442  1.00 18.93    -0.107 N 
ENDBRANCH  16  17
ENDBRANCH  15  16
END_RES ASN A 133
BEGIN_RES LYS A 131
REMARK  4 active torsions:
REMARK  status: ('A' for Active; 'I' for Inactive)
REMARK   11  A    between atoms: CA   and  CB  
REMARK   12  A    between atoms: CB   and  CG  
REMARK   13  A    between atoms: CG   and  CD  
REMARK   14  A    between atoms: CD   and  CE  
ROOT
ATOM     20  CA  LYS A 131      29.867  25.555  16.977  1.00 20.52     0.186 C 
ENDROOT
BRANCH  20  21
ATOM     21  CB  LYS A 131      28.345  25.722  17.026  1.00 20.94     0.034 C 
BRANCH  21  22
ATOM     22  CG  LYS A 131      27.600  24.409  16.840  1.00 22.96     0.005 C 
BRANCH  22  23
ATOM     23  CD  LYS A 131      26.406  24.301  17.747  1.00 24.33     0.041 C 
BRANCH  23  24
ATOM     24  CE  LYS A 131      26.404  25.471  18.726  1.00 26.91     0.338 C 
ATOM     25  NZ  LYS A 131      25.089  26.156  18.713  1.00 27.40     0.618 N 
ENDBRANCH  23  24
ENDBRANCH  22  23
ENDBRANCH  21  22
ENDBRANCH  20  21
END_RES LYS A 131
