REMARK VINA RESULT:    -2.854      6.227      9.091
REMARK INTER + INTRA:          -8.177
REMARK INTER:                  -3.018
REMARK INTRA:                  -5.159
REMARK UNBOUND:                -4.739
REMARK SMILES CS(=O)(=O)NCCN
REMARK SMILES IDX 6 1 5 2 2 4 1 5 3 6 4 7 7 8 8 9
REMARK H PARENT 5 3 8 10 8 11
REMARK Flexibility Score: inf
ROOT
ATOM      1  C   UNL     1      30.691  31.530  16.210  1.00  0.00     0.113 C 
ENDROOT
BRANCH   1   2
ATOM      2  N   UNL     1      31.150  32.161  14.991  1.00  0.00    -0.214 NA
ATOM      3  H   UNL     1      31.983  31.695  14.592  1.00  0.00     0.141 HD
BRANCH   2   4
ATOM      4  S   UNL     1      31.605  33.788  15.442  1.00  0.00     0.208 S 
ATOM      5  C   UNL     1      30.297  34.915  15.035  1.00  0.00     0.176 C 
ATOM      6  O   UNL     1      31.809  33.781  16.918  1.00  0.00    -0.213 OA
ATOM      7  O   UNL     1      32.884  34.182  14.786  1.00  0.00    -0.213 OA
ENDBRANCH   2   4
ENDBRANCH   1   2
BRANCH   1   8
ATOM      8  C   UNL     1      29.353  30.838  16.029  1.00  0.00     0.094 C 
BRANCH   8   9
ATOM      9  N   UNL     1      28.478  31.798  15.419  1.00  0.00    -0.329 NA
ATOM     10  H   UNL     1      27.653  31.399  14.962  1.00  0.00     0.118 HD
ATOM     11  H   UNL     1      28.318  32.645  15.976  1.00  0.00     0.118 HD
ENDBRANCH   8   9
ENDBRANCH   1   8
TORSDOF 4
BEGIN_RES LYS A 135
REMARK  4 active torsions:
REMARK  status: ('A' for Active; 'I' for Inactive)
REMARK    1  A    between atoms: CA   and  CB  
REMARK    2  A    between atoms: CB   and  CG  
REMARK    3  A    between atoms: CG   and  CD  
REMARK    4  A    between atoms: CD   and  CE  
ROOT
ATOM      1  CA  LYS A 135      33.193  34.663   9.290  1.00 25.02     0.186 C 
ENDROOT
BRANCH   1   2
ATOM      2  CB  LYS A 135      32.060  35.360  10.034  1.00 26.63     0.034 C 
BRANCH   2   3
ATOM      3  CG  LYS A 135      30.712  34.725   9.811  1.00 29.45     0.005 C 
BRANCH   3   4
ATOM      4  CD  LYS A 135      30.449  34.533   8.325  1.00 32.00     0.041 C 
BRANCH   4   5
ATOM      5  CE  LYS A 135      28.974  34.711   8.018  1.00 34.25     0.338 C 
ATOM      6  NZ  LYS A 135      28.128  34.105   9.083  1.00 35.99     0.618 N 
ENDBRANCH   4   5
ENDBRANCH   3   4
ENDBRANCH   2   3
ENDBRANCH   1   2
END_RES LYS A 135
BEGIN_RES ARG A 124
REMARK  4 active torsions:
REMARK  status: ('A' for Active; 'I' for Inactive)
REMARK    5  A    between atoms: CA   and  CB  
REMARK    6  A    between atoms: CB   and  CG  
REMARK    7  A    between atoms: CG   and  CD  
REMARK    8  A    between atoms: CD   and  NE  
REMARK       I    between atoms: NE   and  CZ  
ROOT
ATOM      7  CA  ARG A 124      31.045  26.515   9.594  1.00 17.84     0.186 C 
ENDROOT
BRANCH   7   8
ATOM      8  CB  ARG A 124      29.529  26.705   9.647  1.00 16.18     0.036 C 
BRANCH   8   9
ATOM      9  CG  ARG A 124      28.775  25.850  10.728  1.00 16.22     0.029 C 
BRANCH   9  10
ATOM     10  CD  ARG A 124      27.393  26.436  11.099  1.00 15.09     0.145 C 
BRANCH  10  11
ATOM     11  NE  ARG A 124      27.233  26.720  12.542  1.00 16.98    -0.083 NA
ATOM     12  CZ  ARG A 124      26.162  27.283  13.091  1.00 18.21     0.782 C 
ATOM     13  NH1 ARG A 124      25.112  27.632  12.356  1.00 21.11     0.063 N 
ATOM     14  NH2 ARG A 124      26.117  27.483  14.399  1.00 21.25     0.063 N 
ENDBRANCH  10  11
ENDBRANCH   9  10
ENDBRANCH   8   9
ENDBRANCH   7   8
END_RES ARG A 124
BEGIN_RES ASN A 133
REMARK  2 active torsions:
REMARK  status: ('A' for Active; 'I' for Inactive)
REMARK    9  A    between atoms: CA   and  CB  
REMARK   10  A    between atoms: CB   and  CG  
ROOT
ATOM     15  CA  ASN A 133      31.225  30.257  11.749  1.00 18.15     0.196 C 
ENDROOT
BRANCH  15  16
ATOM     16  CB  ASN A 133      30.092  31.240  11.460  1.00 18.27     0.126 C 
BRANCH  16  17
ATOM     17  CG  ASN A 133      28.732  30.663  11.702  1.00 18.94     0.276 C 
ATOM     18  OD1 ASN A 133      28.007  31.093  12.601  1.00 18.09    -0.269 OA
ATOM     19  ND2 ASN A 133      28.368  29.668  10.894  1.00 18.93    -0.107 N 
ENDBRANCH  16  17
ENDBRANCH  15  16
END_RES ASN A 133
BEGIN_RES LYS A 131
REMARK  4 active torsions:
REMARK  status: ('A' for Active; 'I' for Inactive)
REMARK   11  A    between atoms: CA   and  CB  
REMARK   12  A    between atoms: CB   and  CG  
REMARK   13  A    between atoms: CG   and  CD  
REMARK   14  A    between atoms: CD   and  CE  
ROOT
ATOM     20  CA  LYS A 131      29.867  25.555  16.977  1.00 20.52     0.186 C 
ENDROOT
BRANCH  20  21
ATOM     21  CB  LYS A 131      28.345  25.722  17.026  1.00 20.94     0.034 C 
BRANCH  21  22
ATOM     22  CG  LYS A 131      27.601  24.405  16.865  1.00 22.96     0.005 C 
BRANCH  22  23
ATOM     23  CD  LYS A 131      26.161  24.514  17.284  1.00 24.33     0.041 C 
BRANCH  23  24
ATOM     24  CE  LYS A 131      25.986  23.898  18.668  1.00 26.91     0.338 C 
ATOM     25  NZ  LYS A 131      25.583  24.933  19.650  1.00 27.40     0.618 N 
ENDBRANCH  23  24
ENDBRANCH  22  23
ENDBRANCH  21  22
ENDBRANCH  20  21
END_RES LYS A 131
