REMARK VINA RESULT:    -4.790      3.131      5.694
REMARK INTER + INTRA:         -10.745
REMARK INTER:                  -4.802
REMARK INTRA:                  -5.942
REMARK UNBOUND:                -4.555
REMARK SMILES NCC(O)CCc1ccccc1
REMARK SMILES IDX 5 1 3 2 2 3 1 4 4 7 6 9 7 10 8 11 12 12 9 13 11 14 10 15
REMARK H PARENT 1 5 1 6 4 8
REMARK Flexibility Score: inf
ROOT
ATOM      1  C   UNL     1      32.239  35.919  14.537  1.00  0.00     0.038 C 
ENDROOT
BRANCH   1   2
ATOM      2  C   UNL     1      31.820  35.866  13.099  1.00  0.00     0.128 C 
BRANCH   2   3
ATOM      3  C   UNL     1      31.838  37.195  12.415  1.00  0.00     0.109 C 
BRANCH   3   4
ATOM      4  N   UNL     1      30.473  37.570  12.107  1.00  0.00    -0.328 NA
ATOM      5  H   UNL     1      30.236  38.536  12.343  1.00  0.00     0.118 HD
ATOM      6  H   UNL     1      30.165  37.257  11.160  1.00  0.00     0.118 HD
ENDBRANCH   3   4
ENDBRANCH   2   3
BRANCH   2   7
ATOM      7  O   UNL     1      32.755  35.049  12.435  1.00  0.00    -0.392 OA
ATOM      8  H   UNL     1      32.711  35.258  11.465  1.00  0.00     0.211 HD
ENDBRANCH   2   7
ENDBRANCH   1   2
BRANCH   1   9
ATOM      9  C   UNL     1      32.961  34.668  14.983  1.00  0.00     0.038 C 
BRANCH   9  10
ATOM     10  C   UNL     1      32.081  33.807  15.813  1.00  0.00    -0.048 A 
ATOM     11  C   UNL     1      31.534  32.629  15.321  1.00  0.00     0.004 A 
ATOM     12  C   UNL     1      31.761  34.136  17.124  1.00  0.00     0.004 A 
ATOM     13  C   UNL     1      30.720  31.834  16.092  1.00  0.00     0.000 A 
ATOM     14  C   UNL     1      30.949  33.351  17.908  1.00  0.00     0.000 A 
ATOM     15  C   UNL     1      30.424  32.188  17.382  1.00  0.00     0.000 A 
ENDBRANCH   9  10
ENDBRANCH   1   9
TORSDOF 6
BEGIN_RES LYS A 135
REMARK  4 active torsions:
REMARK  status: ('A' for Active; 'I' for Inactive)
REMARK    1  A    between atoms: CA   and  CB  
REMARK    2  A    between atoms: CB   and  CG  
REMARK    3  A    between atoms: CG   and  CD  
REMARK    4  A    between atoms: CD   and  CE  
ROOT
ATOM      1  CA  LYS A 135      33.193  34.663   9.290  1.00 25.02     0.186 C 
ENDROOT
BRANCH   1   2
ATOM      2  CB  LYS A 135      32.060  35.360  10.034  1.00 26.63     0.034 C 
BRANCH   2   3
ATOM      3  CG  LYS A 135      30.694  34.827   9.687  1.00 29.45     0.005 C 
BRANCH   3   4
ATOM      4  CD  LYS A 135      30.593  34.537   8.198  1.00 32.00     0.041 C 
BRANCH   4   5
ATOM      5  CE  LYS A 135      29.271  35.035   7.646  1.00 34.25     0.338 C 
ATOM      6  NZ  LYS A 135      28.678  36.075   8.532  1.00 35.99     0.618 N 
ENDBRANCH   4   5
ENDBRANCH   3   4
ENDBRANCH   2   3
ENDBRANCH   1   2
END_RES LYS A 135
BEGIN_RES ARG A 124
REMARK  4 active torsions:
REMARK  status: ('A' for Active; 'I' for Inactive)
REMARK    5  A    between atoms: CA   and  CB  
REMARK    6  A    between atoms: CB   and  CG  
REMARK    7  A    between atoms: CG   and  CD  
REMARK    8  A    between atoms: CD   and  NE  
REMARK       I    between atoms: NE   and  CZ  
ROOT
ATOM      7  CA  ARG A 124      31.045  26.515   9.594  1.00 17.84     0.186 C 
ENDROOT
BRANCH   7   8
ATOM      8  CB  ARG A 124      29.529  26.705   9.647  1.00 16.18     0.036 C 
BRANCH   8   9
ATOM      9  CG  ARG A 124      28.906  26.799  11.086  1.00 16.22     0.029 C 
BRANCH   9  10
ATOM     10  CD  ARG A 124      27.515  26.132  11.182  1.00 15.09     0.145 C 
BRANCH  10  11
ATOM     11  NE  ARG A 124      26.411  27.084  11.429  1.00 16.98    -0.083 NA
ATOM     12  CZ  ARG A 124      26.040  27.525  12.626  1.00 18.21     0.782 C 
ATOM     13  NH1 ARG A 124      26.668  27.137  13.729  1.00 21.11     0.063 N 
ATOM     14  NH2 ARG A 124      25.042  28.389  12.733  1.00 21.25     0.063 N 
ENDBRANCH  10  11
ENDBRANCH   9  10
ENDBRANCH   8   9
ENDBRANCH   7   8
END_RES ARG A 124
BEGIN_RES ASN A 133
REMARK  2 active torsions:
REMARK  status: ('A' for Active; 'I' for Inactive)
REMARK    9  A    between atoms: CA   and  CB  
REMARK   10  A    between atoms: CB   and  CG  
ROOT
ATOM     15  CA  ASN A 133      31.225  30.257  11.749  1.00 18.15     0.196 C 
ENDROOT
BRANCH  15  16
ATOM     16  CB  ASN A 133      30.092  31.240  11.460  1.00 18.27     0.126 C 
BRANCH  16  17
ATOM     17  CG  ASN A 133      28.741  30.595  11.434  1.00 18.94     0.276 C 
ATOM     18  OD1 ASN A 133      28.407  29.849  10.512  1.00 18.09    -0.269 OA
ATOM     19  ND2 ASN A 133      27.939  30.880  12.460  1.00 18.93    -0.107 N 
ENDBRANCH  16  17
ENDBRANCH  15  16
END_RES ASN A 133
BEGIN_RES LYS A 131
REMARK  4 active torsions:
REMARK  status: ('A' for Active; 'I' for Inactive)
REMARK   11  A    between atoms: CA   and  CB  
REMARK   12  A    between atoms: CB   and  CG  
REMARK   13  A    between atoms: CG   and  CD  
REMARK   14  A    between atoms: CD   and  CE  
ROOT
ATOM     20  CA  LYS A 131      29.867  25.555  16.977  1.00 20.52     0.186 C 
ENDROOT
BRANCH  20  21
ATOM     21  CB  LYS A 131      28.345  25.722  17.026  1.00 20.94     0.034 C 
BRANCH  21  22
ATOM     22  CG  LYS A 131      27.600  24.411  16.824  1.00 22.96     0.005 C 
BRANCH  22  23
ATOM     23  CD  LYS A 131      26.681  24.099  17.972  1.00 24.33     0.041 C 
BRANCH  23  24
ATOM     24  CE  LYS A 131      25.738  22.968  17.577  1.00 26.91     0.338 C 
ATOM     25  NZ  LYS A 131      24.445  23.513  17.101  1.00 27.40     0.618 N 
ENDBRANCH  23  24
ENDBRANCH  22  23
ENDBRANCH  21  22
ENDBRANCH  20  21
END_RES LYS A 131
