REMARK VINA RESULT:    -3.011      4.810      9.312
REMARK INTER + INTRA:          -8.239
REMARK INTER:                  -2.574
REMARK INTRA:                  -5.665
REMARK UNBOUND:                -4.875
REMARK SMILES C[C@H](N)C(=O)O
REMARK SMILES IDX 1 1 2 2 3 3 4 6 5 7 6 8
REMARK H PARENT 3 4 3 5 6 9
REMARK Flexibility Score: inf
ROOT
ATOM      1  C   UNL     1      22.027  35.743   8.935  1.00  0.00     0.037 C 
ATOM      2  C   UNL     1      21.035  35.927   7.816  1.00  0.00     0.158 C 
ENDROOT
BRANCH   2   3
ATOM      3  N   UNL     1      20.624  37.304   7.718  1.00  0.00    -0.319 NA
ATOM      4  H   UNL     1      20.539  37.611   6.716  1.00  0.00     0.119 HD
ATOM      5  H   UNL     1      21.225  37.923   8.274  1.00  0.00     0.119 HD
ENDBRANCH   2   3
BRANCH   2   6
ATOM      6  C   UNL     1      19.877  35.049   7.900  1.00  0.00     0.320 C 
ATOM      7  O   UNL     1      19.471  34.691   9.037  1.00  0.00    -0.251 OA
BRANCH   6   8
ATOM      8  O   UNL     1      19.166  34.560   6.815  1.00  0.00    -0.480 OA
ATOM      9  H   UNL     1      19.469  33.701   6.372  1.00  0.00     0.296 HD
ENDBRANCH   6   8
ENDBRANCH   2   6
TORSDOF 3
BEGIN_RES LYS A 135
REMARK  4 active torsions:
REMARK  status: ('A' for Active; 'I' for Inactive)
REMARK    1  A    between atoms: CA   and  CB  
REMARK    2  A    between atoms: CB   and  CG  
REMARK    3  A    between atoms: CG   and  CD  
REMARK    4  A    between atoms: CD   and  CE  
ROOT
ATOM      1  CA  LYS A 135      33.193  34.663   9.290  1.00 25.02     0.186 C 
ENDROOT
BRANCH   1   2
ATOM      2  CB  LYS A 135      32.060  35.360  10.034  1.00 26.63     0.034 C 
BRANCH   2   3
ATOM      3  CG  LYS A 135      30.833  35.584   9.189  1.00 29.45     0.005 C 
BRANCH   3   4
ATOM      4  CD  LYS A 135      30.164  34.260   8.852  1.00 32.00     0.041 C 
BRANCH   4   5
ATOM      5  CE  LYS A 135      28.757  34.491   8.335  1.00 34.25     0.338 C 
ATOM      6  NZ  LYS A 135      28.766  35.348   7.118  1.00 35.99     0.618 N 
ENDBRANCH   4   5
ENDBRANCH   3   4
ENDBRANCH   2   3
ENDBRANCH   1   2
END_RES LYS A 135
BEGIN_RES ARG A 124
REMARK  4 active torsions:
REMARK  status: ('A' for Active; 'I' for Inactive)
REMARK    5  A    between atoms: CA   and  CB  
REMARK    6  A    between atoms: CB   and  CG  
REMARK    7  A    between atoms: CG   and  CD  
REMARK    8  A    between atoms: CD   and  NE  
REMARK       I    between atoms: NE   and  CZ  
ROOT
ATOM      7  CA  ARG A 124      31.045  26.515   9.594  1.00 17.84     0.186 C 
ENDROOT
BRANCH   7   8
ATOM      8  CB  ARG A 124      29.529  26.705   9.647  1.00 16.18     0.036 C 
BRANCH   8   9
ATOM      9  CG  ARG A 124      28.911  26.838  11.085  1.00 16.22     0.029 C 
BRANCH   9  10
ATOM     10  CD  ARG A 124      27.558  26.104  11.227  1.00 15.09     0.145 C 
BRANCH  10  11
ATOM     11  NE  ARG A 124      26.405  27.008  11.430  1.00 16.98    -0.083 NA
ATOM     12  CZ  ARG A 124      25.995  27.463  12.608  1.00 18.21     0.782 C 
ATOM     13  NH1 ARG A 124      26.623  27.136  13.731  1.00 21.11     0.063 N 
ATOM     14  NH2 ARG A 124      24.954  28.280  12.676  1.00 21.25     0.063 N 
ENDBRANCH  10  11
ENDBRANCH   9  10
ENDBRANCH   8   9
ENDBRANCH   7   8
END_RES ARG A 124
BEGIN_RES ASN A 133
REMARK  2 active torsions:
REMARK  status: ('A' for Active; 'I' for Inactive)
REMARK    9  A    between atoms: CA   and  CB  
REMARK   10  A    between atoms: CB   and  CG  
ROOT
ATOM     15  CA  ASN A 133      31.225  30.257  11.749  1.00 18.15     0.196 C 
ENDROOT
BRANCH  15  16
ATOM     16  CB  ASN A 133      30.092  31.240  11.460  1.00 18.27     0.126 C 
BRANCH  16  17
ATOM     17  CG  ASN A 133      28.735  30.608  11.501  1.00 18.94     0.276 C 
ATOM     18  OD1 ASN A 133      28.343  29.878  10.588  1.00 18.09    -0.269 OA
ATOM     19  ND2 ASN A 133      27.995  30.886  12.574  1.00 18.93    -0.107 N 
ENDBRANCH  16  17
ENDBRANCH  15  16
END_RES ASN A 133
BEGIN_RES LYS A 131
REMARK  4 active torsions:
REMARK  status: ('A' for Active; 'I' for Inactive)
REMARK   11  A    between atoms: CA   and  CB  
REMARK   12  A    between atoms: CB   and  CG  
REMARK   13  A    between atoms: CG   and  CD  
REMARK   14  A    between atoms: CD   and  CE  
ROOT
ATOM     20  CA  LYS A 131      29.867  25.555  16.977  1.00 20.52     0.186 C 
ENDROOT
BRANCH  20  21
ATOM     21  CB  LYS A 131      28.345  25.722  17.026  1.00 20.94     0.034 C 
BRANCH  21  22
ATOM     22  CG  LYS A 131      27.600  24.407  16.850  1.00 22.96     0.005 C 
BRANCH  22  23
ATOM     23  CD  LYS A 131      26.155  24.518  17.248  1.00 24.33     0.041 C 
BRANCH  23  24
ATOM     24  CE  LYS A 131      25.970  23.961  18.656  1.00 26.91     0.338 C 
ATOM     25  NZ  LYS A 131      25.655  25.052  19.608  1.00 27.40     0.618 N 
ENDBRANCH  23  24
ENDBRANCH  22  23
ENDBRANCH  21  22
ENDBRANCH  20  21
END_RES LYS A 131
