REMARK VINA RESULT:    -2.986      4.049      4.448
REMARK INTER + INTRA:          -8.839
REMARK INTER:                  -3.112
REMARK INTRA:                  -5.728
REMARK UNBOUND:                -5.591
REMARK SMILES COc1ccc(N)cc1
REMARK SMILES IDX 3 1 4 2 5 3 6 4 8 5 9 6 2 7 1 8 7 9
REMARK H PARENT 7 10 7 11
REMARK Flexibility Score: inf
ROOT
ATOM      1  C   UNL     1      31.197  34.975  13.789  1.00  0.00     0.119 A 
ATOM      2  C   UNL     1      30.117  34.163  13.523  1.00  0.00     0.048 A 
ATOM      3  C   UNL     1      29.972  32.998  14.246  1.00  0.00     0.029 A 
ATOM      4  C   UNL     1      30.864  32.615  15.222  1.00  0.00     0.032 A 
ATOM      5  C   UNL     1      31.933  33.469  15.450  1.00  0.00     0.029 A 
ATOM      6  C   UNL     1      32.116  34.640  14.754  1.00  0.00     0.048 A 
ENDROOT
BRANCH   1   7
ATOM      7  O   UNL     1      31.323  36.133  13.057  1.00  0.00    -0.497 OA
ATOM      8  C   UNL     1      32.501  36.406  12.342  1.00  0.00     0.278 C 
ENDBRANCH   1   7
BRANCH   4   9
ATOM      9  N   UNL     1      30.684  31.411  15.945  1.00  0.00    -0.399 N 
ATOM     10  H   UNL     1      29.934  30.739  15.693  1.00  0.00     0.156 HD
ATOM     11  H   UNL     1      31.315  31.202  16.739  1.00  0.00     0.156 HD
ENDBRANCH   4   9
TORSDOF 2
BEGIN_RES LYS A 135
REMARK  4 active torsions:
REMARK  status: ('A' for Active; 'I' for Inactive)
REMARK    1  A    between atoms: CA   and  CB  
REMARK    2  A    between atoms: CB   and  CG  
REMARK    3  A    between atoms: CG   and  CD  
REMARK    4  A    between atoms: CD   and  CE  
ROOT
ATOM      1  CA  LYS A 135      33.193  34.663   9.290  1.00 25.02     0.186 C 
ENDROOT
BRANCH   1   2
ATOM      2  CB  LYS A 135      32.060  35.360  10.034  1.00 26.63     0.034 C 
BRANCH   2   3
ATOM      3  CG  LYS A 135      30.701  34.779   9.742  1.00 29.45     0.005 C 
BRANCH   3   4
ATOM      4  CD  LYS A 135      30.537  34.517   8.253  1.00 32.00     0.041 C 
BRANCH   4   5
ATOM      5  CE  LYS A 135      29.144  34.901   7.794  1.00 34.25     0.338 C 
ATOM      6  NZ  LYS A 135      29.061  36.356   7.490  1.00 35.99     0.618 N 
ENDBRANCH   4   5
ENDBRANCH   3   4
ENDBRANCH   2   3
ENDBRANCH   1   2
END_RES LYS A 135
BEGIN_RES ARG A 124
REMARK  4 active torsions:
REMARK  status: ('A' for Active; 'I' for Inactive)
REMARK    5  A    between atoms: CA   and  CB  
REMARK    6  A    between atoms: CB   and  CG  
REMARK    7  A    between atoms: CG   and  CD  
REMARK    8  A    between atoms: CD   and  NE  
REMARK       I    between atoms: NE   and  CZ  
ROOT
ATOM      7  CA  ARG A 124      31.045  26.515   9.594  1.00 17.84     0.186 C 
ENDROOT
BRANCH   7   8
ATOM      8  CB  ARG A 124      29.529  26.705   9.647  1.00 16.18     0.036 C 
BRANCH   8   9
ATOM      9  CG  ARG A 124      28.912  26.842  11.085  1.00 16.22     0.029 C 
BRANCH   9  10
ATOM     10  CD  ARG A 124      27.565  26.098  11.233  1.00 15.09     0.145 C 
BRANCH  10  11
ATOM     11  NE  ARG A 124      26.406  26.995  11.440  1.00 16.98    -0.083 NA
ATOM     12  CZ  ARG A 124      26.007  27.461  12.618  1.00 18.21     0.782 C 
ATOM     13  NH1 ARG A 124      26.653  27.154  13.736  1.00 21.11     0.063 N 
ATOM     14  NH2 ARG A 124      24.960  28.269  12.689  1.00 21.25     0.063 N 
ENDBRANCH  10  11
ENDBRANCH   9  10
ENDBRANCH   8   9
ENDBRANCH   7   8
END_RES ARG A 124
BEGIN_RES ASN A 133
REMARK  2 active torsions:
REMARK  status: ('A' for Active; 'I' for Inactive)
REMARK    9  A    between atoms: CA   and  CB  
REMARK   10  A    between atoms: CB   and  CG  
ROOT
ATOM     15  CA  ASN A 133      31.225  30.257  11.749  1.00 18.15     0.196 C 
ENDROOT
BRANCH  15  16
ATOM     16  CB  ASN A 133      30.092  31.240  11.460  1.00 18.27     0.126 C 
BRANCH  16  17
ATOM     17  CG  ASN A 133      28.744  30.590  11.403  1.00 18.94     0.276 C 
ATOM     18  OD1 ASN A 133      28.414  29.887  10.446  1.00 18.09    -0.269 OA
ATOM     19  ND2 ASN A 133      27.942  30.821  12.441  1.00 18.93    -0.107 N 
ENDBRANCH  16  17
ENDBRANCH  15  16
END_RES ASN A 133
BEGIN_RES LYS A 131
REMARK  4 active torsions:
REMARK  status: ('A' for Active; 'I' for Inactive)
REMARK   11  A    between atoms: CA   and  CB  
REMARK   12  A    between atoms: CB   and  CG  
REMARK   13  A    between atoms: CG   and  CD  
REMARK   14  A    between atoms: CD   and  CE  
ROOT
ATOM     20  CA  LYS A 131      29.867  25.555  16.977  1.00 20.52     0.186 C 
ENDROOT
BRANCH  20  21
ATOM     21  CB  LYS A 131      28.345  25.722  17.026  1.00 20.94     0.034 C 
BRANCH  21  22
ATOM     22  CG  LYS A 131      27.599  24.422  16.765  1.00 22.96     0.005 C 
BRANCH  22  23
ATOM     23  CD  LYS A 131      26.790  23.985  17.954  1.00 24.33     0.041 C 
BRANCH  23  24
ATOM     24  CE  LYS A 131      25.351  23.720  17.521  1.00 26.91     0.338 C 
ATOM     25  NZ  LYS A 131      25.061  22.267  17.550  1.00 27.40     0.618 N 
ENDBRANCH  23  24
ENDBRANCH  22  23
ENDBRANCH  21  22
ENDBRANCH  20  21
END_RES LYS A 131
