REMARK VINA RESULT:    -2.637      5.115      8.178
REMARK INTER + INTRA:          -8.459
REMARK INTER:                  -3.892
REMARK INTRA:                  -4.567
REMARK UNBOUND:                -5.591
REMARK SMILES COc1ccc(N)cc1
REMARK SMILES IDX 3 1 4 2 5 3 6 4 8 5 9 6 2 7 1 8 7 9
REMARK H PARENT 7 10 7 11
REMARK Flexibility Score: inf
ROOT
ATOM      1  C   UNL     1      25.679  36.261   8.518  1.00  0.00     0.119 A 
ATOM      2  C   UNL     1      26.365  35.069   8.600  1.00  0.00     0.048 A 
ATOM      3  C   UNL     1      27.485  34.896   7.815  1.00  0.00     0.029 A 
ATOM      4  C   UNL     1      27.944  35.866   6.953  1.00  0.00     0.032 A 
ATOM      5  C   UNL     1      27.216  37.046   6.909  1.00  0.00     0.029 A 
ATOM      6  C   UNL     1      26.094  37.262   7.674  1.00  0.00     0.048 A 
ENDROOT
BRANCH   1   7
ATOM      7  O   UNL     1      24.563  36.413   9.310  1.00  0.00    -0.497 OA
ATOM      8  C   UNL     1      23.508  35.488   9.248  1.00  0.00     0.278 C 
ENDBRANCH   1   7
BRANCH   4   9
ATOM      9  N   UNL     1      29.099  35.654   6.162  1.00  0.00    -0.399 N 
ATOM     10  H   UNL     1      29.956  35.228   6.564  1.00  0.00     0.156 HD
ATOM     11  H   UNL     1      29.082  35.930   5.164  1.00  0.00     0.156 HD
ENDBRANCH   4   9
TORSDOF 2
BEGIN_RES LYS A 135
REMARK  4 active torsions:
REMARK  status: ('A' for Active; 'I' for Inactive)
REMARK    1  A    between atoms: CA   and  CB  
REMARK    2  A    between atoms: CB   and  CG  
REMARK    3  A    between atoms: CG   and  CD  
REMARK    4  A    between atoms: CD   and  CE  
ROOT
ATOM      1  CA  LYS A 135      33.193  34.663   9.290  1.00 25.02     0.186 C 
ENDROOT
BRANCH   1   2
ATOM      2  CB  LYS A 135      32.060  35.360  10.034  1.00 26.63     0.034 C 
BRANCH   2   3
ATOM      3  CG  LYS A 135      30.688  34.940   9.573  1.00 29.45     0.005 C 
BRANCH   3   4
ATOM      4  CD  LYS A 135      29.715  34.910  10.741  1.00 32.00     0.041 C 
BRANCH   4   5
ATOM      5  CE  LYS A 135      30.462  34.990  12.059  1.00 34.25     0.338 C 
ATOM      6  NZ  LYS A 135      29.725  35.831  13.043  1.00 35.99     0.618 N 
ENDBRANCH   4   5
ENDBRANCH   3   4
ENDBRANCH   2   3
ENDBRANCH   1   2
END_RES LYS A 135
BEGIN_RES ARG A 124
REMARK  4 active torsions:
REMARK  status: ('A' for Active; 'I' for Inactive)
REMARK    5  A    between atoms: CA   and  CB  
REMARK    6  A    between atoms: CB   and  CG  
REMARK    7  A    between atoms: CG   and  CD  
REMARK    8  A    between atoms: CD   and  NE  
REMARK       I    between atoms: NE   and  CZ  
ROOT
ATOM      7  CA  ARG A 124      31.045  26.515   9.594  1.00 17.84     0.186 C 
ENDROOT
BRANCH   7   8
ATOM      8  CB  ARG A 124      29.529  26.705   9.647  1.00 16.18     0.036 C 
BRANCH   8   9
ATOM      9  CG  ARG A 124      29.022  27.867  10.574  1.00 16.22     0.029 C 
BRANCH   9  10
ATOM     10  CD  ARG A 124      28.377  27.353  11.882  1.00 15.09     0.145 C 
BRANCH  10  11
ATOM     11  NE  ARG A 124      26.902  27.465  11.905  1.00 16.98    -0.083 NA
ATOM     12  CZ  ARG A 124      26.160  27.492  13.006  1.00 18.21     0.782 C 
ATOM     13  NH1 ARG A 124      26.711  27.431  14.212  1.00 21.11     0.063 N 
ATOM     14  NH2 ARG A 124      24.844  27.607  12.913  1.00 21.25     0.063 N 
ENDBRANCH  10  11
ENDBRANCH   9  10
ENDBRANCH   8   9
ENDBRANCH   7   8
END_RES ARG A 124
BEGIN_RES ASN A 133
REMARK  2 active torsions:
REMARK  status: ('A' for Active; 'I' for Inactive)
REMARK    9  A    between atoms: CA   and  CB  
REMARK   10  A    between atoms: CB   and  CG  
ROOT
ATOM     15  CA  ASN A 133      31.225  30.257  11.749  1.00 18.15     0.196 C 
ENDROOT
BRANCH  15  16
ATOM     16  CB  ASN A 133      30.092  31.240  11.460  1.00 18.27     0.126 C 
BRANCH  16  17
ATOM     17  CG  ASN A 133      29.154  31.417  12.613  1.00 18.94     0.276 C 
ATOM     18  OD1 ASN A 133      29.471  32.088  13.597  1.00 18.09    -0.269 OA
ATOM     19  ND2 ASN A 133      27.974  30.807  12.504  1.00 18.93    -0.107 N 
ENDBRANCH  16  17
ENDBRANCH  15  16
END_RES ASN A 133
BEGIN_RES LYS A 131
REMARK  4 active torsions:
REMARK  status: ('A' for Active; 'I' for Inactive)
REMARK   11  A    between atoms: CA   and  CB  
REMARK   12  A    between atoms: CB   and  CG  
REMARK   13  A    between atoms: CG   and  CD  
REMARK   14  A    between atoms: CD   and  CE  
ROOT
ATOM     20  CA  LYS A 131      29.867  25.555  16.977  1.00 20.52     0.186 C 
ENDROOT
BRANCH  20  21
ATOM     21  CB  LYS A 131      28.345  25.722  17.026  1.00 20.94     0.034 C 
BRANCH  21  22
ATOM     22  CG  LYS A 131      27.600  24.408  16.843  1.00 22.96     0.005 C 
BRANCH  22  23
ATOM     23  CD  LYS A 131      26.246  24.430  17.495  1.00 24.33     0.041 C 
BRANCH  23  24
ATOM     24  CE  LYS A 131      25.600  25.795  17.282  1.00 26.91     0.338 C 
ATOM     25  NZ  LYS A 131      24.463  25.690  16.337  1.00 27.40     0.618 N 
ENDBRANCH  23  24
ENDBRANCH  22  23
ENDBRANCH  21  22
ENDBRANCH  20  21
END_RES LYS A 131
