REMARK VINA RESULT:   -10.046      7.165     15.121
REMARK INTER + INTRA:          -7.848
REMARK INTER:                  -3.630
REMARK INTRA:                  -4.218
REMARK UNBOUND:                 4.840
REMARK SMILES NC1CCc2ccccc2NC1=O
REMARK SMILES IDX 11 1 12 2 13 3 2 5 1 6 3 9 10 11 5 12 9 13 6 14 8 15 7 16
REMARK SMILES IDX 4 17
REMARK H PARENT 11 4 1 7 1 8
REMARK Flexibility Score: 90.00
ROOT
ATOM      1  N   UNL     1      26.183  18.614  16.483  1.00  0.00    -0.324 N 
ATOM      2  C   UNL     1      27.131  17.623  16.108  1.00  0.00     0.241 C 
ATOM      3  O   UNL     1      28.057  18.062  15.380  1.00  0.00    -0.273 OA
ATOM      4  H   UNL     1      26.139  19.511  15.982  1.00  0.00     0.170 HD
ENDROOT
BRANCH   2   5
ATOM      5  C   UNL     1      27.248  16.183  16.399  1.00  0.00     0.141 C 
BRANCH   5   6
ATOM      6  N   UNL     1      28.579  15.799  16.829  1.00  0.00    -0.320 NA
ATOM      7  H   UNL     1      28.559  15.605  17.856  1.00  0.00     0.119 HD
ATOM      8  H   UNL     1      29.200  16.628  16.610  1.00  0.00     0.119 HD
ENDBRANCH   5   6
BRANCH   5   9
ATOM      9  C   UNL     1      26.205  15.681  17.353  1.00  0.00     0.033 CG0
ATOM     10  G   UNL     1      26.198  16.389  18.666  1.00  0.00     0.000 G0
ENDBRANCH   5   9
ENDBRANCH   2   5
BRANCH   1  11
ATOM     11  C   UNL     1      25.238  18.454  17.558  1.00  0.00     0.044 A 
ATOM     12  C   UNL     1      25.179  17.497  18.552  1.00  0.00    -0.024 A 
ATOM     13  C   UNL     1      24.256  19.421  17.569  1.00  0.00     0.026 A 
ATOM     14  C   UNL     1      24.208  17.474  19.519  1.00  0.00     0.006 A 
ATOM     15  C   UNL     1      23.250  19.453  18.515  1.00  0.00     0.002 A 
ATOM     16  C   UNL     1      23.249  18.462  19.485  1.00  0.00     0.000 A 
BRANCH  12  17
ATOM     17  C   UNL     1      26.175  16.374  18.680  1.00  0.00     0.040 CG0
ATOM     18  G   UNL     1      26.217  15.676  17.363  1.00  0.00     0.000 G0
ENDBRANCH  12  17
ENDBRANCH   1  11
TORSDOF 1
BEGIN_RES LYS A 135
REMARK  4 active torsions:
REMARK  status: ('A' for Active; 'I' for Inactive)
REMARK    1  A    between atoms: CA   and  CB  
REMARK    2  A    between atoms: CB   and  CG  
REMARK    3  A    between atoms: CG   and  CD  
REMARK    4  A    between atoms: CD   and  CE  
ROOT
ATOM      1  CA  LYS A 135      33.193  34.663   9.290  1.00 25.02     0.186 C 
ENDROOT
BRANCH   1   2
ATOM      2  CB  LYS A 135      32.060  35.360  10.034  1.00 26.63     0.034 C 
BRANCH   2   3
ATOM      3  CG  LYS A 135      30.739  34.642   9.929  1.00 29.45     0.005 C 
BRANCH   3   4
ATOM      4  CD  LYS A 135      30.409  34.335   8.476  1.00 32.00     0.041 C 
BRANCH   4   5
ATOM      5  CE  LYS A 135      28.938  34.578   8.201  1.00 34.25     0.338 C 
ATOM      6  NZ  LYS A 135      28.752  35.428   6.993  1.00 35.99     0.618 N 
ENDBRANCH   4   5
ENDBRANCH   3   4
ENDBRANCH   2   3
ENDBRANCH   1   2
END_RES LYS A 135
BEGIN_RES ARG A 124
REMARK  4 active torsions:
REMARK  status: ('A' for Active; 'I' for Inactive)
REMARK    5  A    between atoms: CA   and  CB  
REMARK    6  A    between atoms: CB   and  CG  
REMARK    7  A    between atoms: CG   and  CD  
REMARK    8  A    between atoms: CD   and  NE  
REMARK       I    between atoms: NE   and  CZ  
ROOT
ATOM      7  CA  ARG A 124      31.045  26.515   9.594  1.00 17.84     0.186 C 
ENDROOT
BRANCH   7   8
ATOM      8  CB  ARG A 124      29.529  26.705   9.647  1.00 16.18     0.036 C 
BRANCH   8   9
ATOM      9  CG  ARG A 124      28.905  26.787  11.086  1.00 16.22     0.029 C 
BRANCH   9  10
ATOM     10  CD  ARG A 124      27.523  26.101  11.181  1.00 15.09     0.145 C 
BRANCH  10  11
ATOM     11  NE  ARG A 124      26.404  27.039  11.414  1.00 16.98    -0.083 NA
ATOM     12  CZ  ARG A 124      26.015  27.476  12.607  1.00 18.21     0.782 C 
ATOM     13  NH1 ARG A 124      26.636  27.097  13.717  1.00 21.11     0.063 N 
ATOM     14  NH2 ARG A 124      25.005  28.327  12.702  1.00 21.25     0.063 N 
ENDBRANCH  10  11
ENDBRANCH   9  10
ENDBRANCH   8   9
ENDBRANCH   7   8
END_RES ARG A 124
BEGIN_RES ASN A 133
REMARK  2 active torsions:
REMARK  status: ('A' for Active; 'I' for Inactive)
REMARK    9  A    between atoms: CA   and  CB  
REMARK   10  A    between atoms: CB   and  CG  
ROOT
ATOM     15  CA  ASN A 133      31.225  30.257  11.749  1.00 18.15     0.196 C 
ENDROOT
BRANCH  15  16
ATOM     16  CB  ASN A 133      30.092  31.240  11.460  1.00 18.27     0.126 C 
BRANCH  16  17
ATOM     17  CG  ASN A 133      28.732  30.625  11.576  1.00 18.94     0.276 C 
ATOM     18  OD1 ASN A 133      28.331  29.802  10.752  1.00 18.09    -0.269 OA
ATOM     19  ND2 ASN A 133      27.998  31.026  12.614  1.00 18.93    -0.107 N 
ENDBRANCH  16  17
ENDBRANCH  15  16
END_RES ASN A 133
BEGIN_RES LYS A 131
REMARK  4 active torsions:
REMARK  status: ('A' for Active; 'I' for Inactive)
REMARK   11  A    between atoms: CA   and  CB  
REMARK   12  A    between atoms: CB   and  CG  
REMARK   13  A    between atoms: CG   and  CD  
REMARK   14  A    between atoms: CD   and  CE  
ROOT
ATOM     20  CA  LYS A 131      29.867  25.555  16.977  1.00 20.52     0.186 C 
ENDROOT
BRANCH  20  21
ATOM     21  CB  LYS A 131      28.345  25.722  17.026  1.00 20.94     0.034 C 
BRANCH  21  22
ATOM     22  CG  LYS A 131      27.600  24.411  16.829  1.00 22.96     0.005 C 
BRANCH  22  23
ATOM     23  CD  LYS A 131      26.259  24.413  17.509  1.00 24.33     0.041 C 
BRANCH  23  24
ATOM     24  CE  LYS A 131      25.343  25.423  16.825  1.00 26.91     0.338 C 
ATOM     25  NZ  LYS A 131      24.682  26.288  17.830  1.00 27.40     0.618 N 
ENDBRANCH  23  24
ENDBRANCH  22  23
ENDBRANCH  21  22
ENDBRANCH  20  21
END_RES LYS A 131
