REMARK VINA RESULT:    -3.575      3.537     13.789
REMARK INTER + INTRA:          -9.438
REMARK INTER:                  -3.605
REMARK INTRA:                  -5.834
REMARK UNBOUND:                -4.713
REMARK SMILES CC[N+](C)(CC)CCCN
REMARK SMILES IDX 7 1 3 2 4 3 2 4 1 5 5 6 6 7 8 8 9 9 10 10
REMARK H PARENT 10 11 10 12
REMARK Flexibility Score: inf
ROOT
ATOM      1  C   UNL     1      28.868  38.541   7.827  1.00  0.00     0.265 C 
ENDROOT
BRANCH   1   2
ATOM      2  N   UNL     1      27.946  38.035   6.830  1.00  0.00    -0.326 N 
ATOM      3  C   UNL     1      26.735  38.862   6.923  1.00  0.00     0.334 C 
BRANCH   2   4
ATOM      4  C   UNL     1      28.440  38.150   5.488  1.00  0.00     0.260 C 
ATOM      5  C   UNL     1      27.635  39.004   4.583  1.00  0.00     0.071 C 
ENDBRANCH   2   4
BRANCH   2   6
ATOM      6  C   UNL     1      27.567  36.708   7.212  1.00  0.00     0.260 C 
ATOM      7  C   UNL     1      28.206  35.670   6.323  1.00  0.00     0.071 C 
ENDBRANCH   2   6
ENDBRANCH   1   2
BRANCH   1   8
ATOM      8  C   UNL     1      30.164  39.010   7.207  1.00  0.00     0.076 C 
BRANCH   8   9
ATOM      9  C   UNL     1      31.292  39.071   8.179  1.00  0.00     0.083 C 
BRANCH   9  10
ATOM     10  N   UNL     1      32.594  39.059   7.544  1.00  0.00    -0.330 NA
ATOM     11  H   UNL     1      32.910  38.059   7.524  1.00  0.00     0.118 HD
ATOM     12  H   UNL     1      33.248  39.554   8.191  1.00  0.00     0.118 HD
ENDBRANCH   9  10
ENDBRANCH   8   9
ENDBRANCH   1   8
TORSDOF 6
BEGIN_RES LYS A 135
REMARK  4 active torsions:
REMARK  status: ('A' for Active; 'I' for Inactive)
REMARK    1  A    between atoms: CA   and  CB  
REMARK    2  A    between atoms: CB   and  CG  
REMARK    3  A    between atoms: CG   and  CD  
REMARK    4  A    between atoms: CD   and  CE  
ROOT
ATOM      1  CA  LYS A 135      33.193  34.663   9.290  1.00 25.02     0.186 C 
ENDROOT
BRANCH   1   2
ATOM      2  CB  LYS A 135      32.060  35.360  10.034  1.00 26.63     0.034 C 
BRANCH   2   3
ATOM      3  CG  LYS A 135      30.803  35.508   9.216  1.00 29.45     0.005 C 
BRANCH   3   4
ATOM      4  CD  LYS A 135      30.001  34.216   9.226  1.00 32.00     0.041 C 
BRANCH   4   5
ATOM      5  CE  LYS A 135      28.764  34.364  10.091  1.00 34.25     0.338 C 
ATOM      6  NZ  LYS A 135      27.577  33.744   9.441  1.00 35.99     0.618 N 
ENDBRANCH   4   5
ENDBRANCH   3   4
ENDBRANCH   2   3
ENDBRANCH   1   2
END_RES LYS A 135
BEGIN_RES ARG A 124
REMARK  4 active torsions:
REMARK  status: ('A' for Active; 'I' for Inactive)
REMARK    5  A    between atoms: CA   and  CB  
REMARK    6  A    between atoms: CB   and  CG  
REMARK    7  A    between atoms: CG   and  CD  
REMARK    8  A    between atoms: CD   and  NE  
REMARK       I    between atoms: NE   and  CZ  
ROOT
ATOM      7  CA  ARG A 124      31.045  26.515   9.594  1.00 17.84     0.186 C 
ENDROOT
BRANCH   7   8
ATOM      8  CB  ARG A 124      29.529  26.705   9.647  1.00 16.18     0.036 C 
BRANCH   8   9
ATOM      9  CG  ARG A 124      28.916  26.877  11.083  1.00 16.22     0.029 C 
BRANCH   9  10
ATOM     10  CD  ARG A 124      27.580  26.119  11.260  1.00 15.09     0.145 C 
BRANCH  10  11
ATOM     11  NE  ARG A 124      26.409  27.005  11.436  1.00 16.98    -0.083 NA
ATOM     12  CZ  ARG A 124      25.982  27.477  12.602  1.00 18.21     0.782 C 
ATOM     13  NH1 ARG A 124      26.609  27.187  13.735  1.00 21.11     0.063 N 
ATOM     14  NH2 ARG A 124      24.925  28.274  12.645  1.00 21.25     0.063 N 
ENDBRANCH  10  11
ENDBRANCH   9  10
ENDBRANCH   8   9
ENDBRANCH   7   8
END_RES ARG A 124
BEGIN_RES ASN A 133
REMARK  2 active torsions:
REMARK  status: ('A' for Active; 'I' for Inactive)
REMARK    9  A    between atoms: CA   and  CB  
REMARK   10  A    between atoms: CB   and  CG  
ROOT
ATOM     15  CA  ASN A 133      31.225  30.257  11.749  1.00 18.15     0.196 C 
ENDROOT
BRANCH  15  16
ATOM     16  CB  ASN A 133      30.092  31.240  11.460  1.00 18.27     0.126 C 
BRANCH  16  17
ATOM     17  CG  ASN A 133      28.744  30.591  11.409  1.00 18.94     0.276 C 
ATOM     18  OD1 ASN A 133      28.411  29.885  10.456  1.00 18.09    -0.269 OA
ATOM     19  ND2 ASN A 133      27.944  30.827  12.448  1.00 18.93    -0.107 N 
ENDBRANCH  16  17
ENDBRANCH  15  16
END_RES ASN A 133
BEGIN_RES LYS A 131
REMARK  4 active torsions:
REMARK  status: ('A' for Active; 'I' for Inactive)
REMARK   11  A    between atoms: CA   and  CB  
REMARK   12  A    between atoms: CB   and  CG  
REMARK   13  A    between atoms: CG   and  CD  
REMARK   14  A    between atoms: CD   and  CE  
ROOT
ATOM     20  CA  LYS A 131      29.867  25.555  16.977  1.00 20.52     0.186 C 
ENDROOT
BRANCH  20  21
ATOM     21  CB  LYS A 131      28.345  25.722  17.026  1.00 20.94     0.034 C 
BRANCH  21  22
ATOM     22  CG  LYS A 131      27.600  24.409  16.839  1.00 22.96     0.005 C 
BRANCH  22  23
ATOM     23  CD  LYS A 131      26.626  24.147  17.954  1.00 24.33     0.041 C 
BRANCH  23  24
ATOM     24  CE  LYS A 131      25.733  22.968  17.582  1.00 26.91     0.338 C 
ATOM     25  NZ  LYS A 131      24.398  23.445  17.149  1.00 27.40     0.618 N 
ENDBRANCH  23  24
ENDBRANCH  22  23
ENDBRANCH  21  22
ENDBRANCH  20  21
END_RES LYS A 131
