REMARK VINA RESULT:    -2.937      5.137      9.311
REMARK INTER + INTRA:          -9.252
REMARK INTER:                  -3.661
REMARK INTRA:                  -5.590
REMARK UNBOUND:                -6.057
REMARK SMILES NC(=O)c1ccccc1N
REMARK SMILES IDX 4 1 5 2 6 3 7 4 8 5 9 6 2 7 1 8 3 11 10 12
REMARK H PARENT 1 9 1 10 10 13 10 14
REMARK Flexibility Score: inf
ROOT
ATOM      1  C   UNL     1      23.662  31.308  13.121  1.00  0.00     0.062 A 
ATOM      2  C   UNL     1      24.127  30.028  13.011  1.00  0.00     0.016 A 
ATOM      3  C   UNL     1      23.320  28.975  12.603  1.00  0.00     0.001 A 
ATOM      4  C   UNL     1      21.988  29.221  12.293  1.00  0.00     0.002 A 
ATOM      5  C   UNL     1      21.527  30.508  12.404  1.00  0.00     0.026 A 
ATOM      6  C   UNL     1      22.340  31.561  12.814  1.00  0.00     0.044 A 
ENDROOT
BRANCH   1   7
ATOM      7  C   UNL     1      24.533  32.410  13.555  1.00  0.00     0.250 C 
ATOM      8  N   UNL     1      25.629  32.808  12.759  1.00  0.00    -0.366 N 
ATOM      9  H   UNL     1      25.625  32.741  11.728  1.00  0.00     0.159 HD
ATOM     10  H   UNL     1      26.466  33.182  13.238  1.00  0.00     0.159 HD
ATOM     11  O   UNL     1      24.303  32.997  14.633  1.00  0.00    -0.269 OA
ENDBRANCH   1   7
BRANCH   6  12
ATOM     12  N   UNL     1      21.814  32.869  12.912  1.00  0.00    -0.398 N 
ATOM     13  H   UNL     1      20.859  32.999  13.275  1.00  0.00     0.156 HD
ATOM     14  H   UNL     1      22.387  33.669  12.621  1.00  0.00     0.156 HD
ENDBRANCH   6  12
TORSDOF 2
BEGIN_RES LYS A 135
REMARK  4 active torsions:
REMARK  status: ('A' for Active; 'I' for Inactive)
REMARK    1  A    between atoms: CA   and  CB  
REMARK    2  A    between atoms: CB   and  CG  
REMARK    3  A    between atoms: CG   and  CD  
REMARK    4  A    between atoms: CD   and  CE  
ROOT
ATOM      1  CA  LYS A 135      33.193  34.663   9.290  1.00 25.02     0.186 C 
ENDROOT
BRANCH   1   2
ATOM      2  CB  LYS A 135      32.060  35.360  10.034  1.00 26.63     0.034 C 
BRANCH   2   3
ATOM      3  CG  LYS A 135      30.694  34.828   9.686  1.00 29.45     0.005 C 
BRANCH   3   4
ATOM      4  CD  LYS A 135      30.589  34.553   8.194  1.00 32.00     0.041 C 
BRANCH   4   5
ATOM      5  CE  LYS A 135      29.218  34.942   7.675  1.00 34.25     0.338 C 
ATOM      6  NZ  LYS A 135      28.141  34.406   8.551  1.00 35.99     0.618 N 
ENDBRANCH   4   5
ENDBRANCH   3   4
ENDBRANCH   2   3
ENDBRANCH   1   2
END_RES LYS A 135
BEGIN_RES ARG A 124
REMARK  4 active torsions:
REMARK  status: ('A' for Active; 'I' for Inactive)
REMARK    5  A    between atoms: CA   and  CB  
REMARK    6  A    between atoms: CB   and  CG  
REMARK    7  A    between atoms: CG   and  CD  
REMARK    8  A    between atoms: CD   and  NE  
REMARK       I    between atoms: NE   and  CZ  
ROOT
ATOM      7  CA  ARG A 124      31.045  26.515   9.594  1.00 17.84     0.186 C 
ENDROOT
BRANCH   7   8
ATOM      8  CB  ARG A 124      29.529  26.705   9.647  1.00 16.18     0.036 C 
BRANCH   8   9
ATOM      9  CG  ARG A 124      28.783  25.903  10.773  1.00 16.22     0.029 C 
BRANCH   9  10
ATOM     10  CD  ARG A 124      28.741  26.660  12.121  1.00 15.09     0.145 C 
BRANCH  10  11
ATOM     11  NE  ARG A 124      27.443  26.559  12.823  1.00 16.98    -0.083 NA
ATOM     12  CZ  ARG A 124      27.086  27.296  13.869  1.00 18.21     0.782 C 
ATOM     13  NH1 ARG A 124      27.896  28.221  14.370  1.00 21.11     0.063 N 
ATOM     14  NH2 ARG A 124      25.892  27.131  14.416  1.00 21.25     0.063 N 
ENDBRANCH  10  11
ENDBRANCH   9  10
ENDBRANCH   8   9
ENDBRANCH   7   8
END_RES ARG A 124
BEGIN_RES ASN A 133
REMARK  2 active torsions:
REMARK  status: ('A' for Active; 'I' for Inactive)
REMARK    9  A    between atoms: CA   and  CB  
REMARK   10  A    between atoms: CB   and  CG  
ROOT
ATOM     15  CA  ASN A 133      31.225  30.257  11.749  1.00 18.15     0.196 C 
ENDROOT
BRANCH  15  16
ATOM     16  CB  ASN A 133      30.092  31.240  11.460  1.00 18.27     0.126 C 
BRANCH  16  17
ATOM     17  CG  ASN A 133      28.733  30.674  11.733  1.00 18.94     0.276 C 
ATOM     18  OD1 ASN A 133      28.033  31.108  12.650  1.00 18.09    -0.269 OA
ATOM     19  ND2 ASN A 133      28.342  29.684  10.931  1.00 18.93    -0.107 N 
ENDBRANCH  16  17
ENDBRANCH  15  16
END_RES ASN A 133
BEGIN_RES LYS A 131
REMARK  4 active torsions:
REMARK  status: ('A' for Active; 'I' for Inactive)
REMARK   11  A    between atoms: CA   and  CB  
REMARK   12  A    between atoms: CB   and  CG  
REMARK   13  A    between atoms: CG   and  CD  
REMARK   14  A    between atoms: CD   and  CE  
ROOT
ATOM     20  CA  LYS A 131      29.867  25.555  16.977  1.00 20.52     0.186 C 
ENDROOT
BRANCH  20  21
ATOM     21  CB  LYS A 131      28.345  25.722  17.026  1.00 20.94     0.034 C 
BRANCH  21  22
ATOM     22  CG  LYS A 131      27.601  24.405  16.867  1.00 22.96     0.005 C 
BRANCH  22  23
ATOM     23  CD  LYS A 131      26.148  24.528  17.235  1.00 24.33     0.041 C 
BRANCH  23  24
ATOM     24  CE  LYS A 131      25.996  24.426  18.750  1.00 26.91     0.338 C 
ATOM     25  NZ  LYS A 131      25.446  23.103  19.129  1.00 27.40     0.618 N 
ENDBRANCH  23  24
ENDBRANCH  22  23
ENDBRANCH  21  22
ENDBRANCH  20  21
END_RES LYS A 131
