REMARK VINA RESULT:    -2.602      5.690      7.417
REMARK INTER + INTRA:          -8.037
REMARK INTER:                  -2.466
REMARK INTRA:                  -5.571
REMARK UNBOUND:                -5.358
REMARK SMILES Nc1ccccc1
REMARK SMILES IDX 3 1 4 2 5 3 6 4 7 5 2 6 1 7
REMARK H PARENT 1 8 1 9
REMARK Flexibility Score: inf
ROOT
ATOM      1  C   UNL     1      17.187  30.283   7.348  1.00  0.00     0.025 A 
ATOM      2  C   UNL     1      17.130  30.684   8.667  1.00  0.00     0.002 A 
ATOM      3  C   UNL     1      16.948  29.766   9.675  1.00  0.00     0.000 A 
ATOM      4  C   UNL     1      16.824  28.429   9.324  1.00  0.00     0.002 A 
ATOM      5  C   UNL     1      16.881  28.029   8.010  1.00  0.00     0.025 A 
ATOM      6  C   UNL     1      17.065  28.948   6.988  1.00  0.00     0.031 A 
ENDROOT
BRANCH   6   7
ATOM      7  N   UNL     1      17.122  28.527   5.632  1.00  0.00    -0.399 N 
ATOM      8  H   UNL     1      16.429  28.793   4.904  1.00  0.00     0.156 HD
ATOM      9  H   UNL     1      17.908  27.909   5.336  1.00  0.00     0.156 HD
ENDBRANCH   6   7
TORSDOF 1
BEGIN_RES LYS A 135
REMARK  4 active torsions:
REMARK  status: ('A' for Active; 'I' for Inactive)
REMARK    1  A    between atoms: CA   and  CB  
REMARK    2  A    between atoms: CB   and  CG  
REMARK    3  A    between atoms: CG   and  CD  
REMARK    4  A    between atoms: CD   and  CE  
ROOT
ATOM      1  CA  LYS A 135      33.193  34.663   9.290  1.00 25.02     0.186 C 
ENDROOT
BRANCH   1   2
ATOM      2  CB  LYS A 135      32.060  35.360  10.034  1.00 26.63     0.034 C 
BRANCH   2   3
ATOM      3  CG  LYS A 135      30.699  34.791   9.728  1.00 29.45     0.005 C 
BRANCH   3   4
ATOM      4  CD  LYS A 135      30.560  34.500   8.242  1.00 32.00     0.041 C 
BRANCH   4   5
ATOM      5  CE  LYS A 135      29.197  34.934   7.739  1.00 34.25     0.338 C 
ATOM      6  NZ  LYS A 135      28.111  34.410   8.613  1.00 35.99     0.618 N 
ENDBRANCH   4   5
ENDBRANCH   3   4
ENDBRANCH   2   3
ENDBRANCH   1   2
END_RES LYS A 135
BEGIN_RES ARG A 124
REMARK  4 active torsions:
REMARK  status: ('A' for Active; 'I' for Inactive)
REMARK    5  A    between atoms: CA   and  CB  
REMARK    6  A    between atoms: CB   and  CG  
REMARK    7  A    between atoms: CG   and  CD  
REMARK    8  A    between atoms: CD   and  NE  
REMARK       I    between atoms: NE   and  CZ  
ROOT
ATOM      7  CA  ARG A 124      31.045  26.515   9.594  1.00 17.84     0.186 C 
ENDROOT
BRANCH   7   8
ATOM      8  CB  ARG A 124      29.529  26.705   9.647  1.00 16.18     0.036 C 
BRANCH   8   9
ATOM      9  CG  ARG A 124      28.967  27.312  10.982  1.00 16.22     0.029 C 
BRANCH   9  10
ATOM     10  CD  ARG A 124      28.389  26.239  11.932  1.00 15.09     0.145 C 
BRANCH  10  11
ATOM     11  NE  ARG A 124      27.931  26.775  13.233  1.00 16.98    -0.083 NA
ATOM     12  CZ  ARG A 124      26.710  27.241  13.476  1.00 18.21     0.782 C 
ATOM     13  NH1 ARG A 124      25.774  27.246  12.535  1.00 21.11     0.063 N 
ATOM     14  NH2 ARG A 124      26.402  27.689  14.683  1.00 21.25     0.063 N 
ENDBRANCH  10  11
ENDBRANCH   9  10
ENDBRANCH   8   9
ENDBRANCH   7   8
END_RES ARG A 124
BEGIN_RES ASN A 133
REMARK  2 active torsions:
REMARK  status: ('A' for Active; 'I' for Inactive)
REMARK    9  A    between atoms: CA   and  CB  
REMARK   10  A    between atoms: CB   and  CG  
ROOT
ATOM     15  CA  ASN A 133      31.225  30.257  11.749  1.00 18.15     0.196 C 
ENDROOT
BRANCH  15  16
ATOM     16  CB  ASN A 133      30.092  31.240  11.460  1.00 18.27     0.126 C 
BRANCH  16  17
ATOM     17  CG  ASN A 133      28.811  30.886  12.150  1.00 18.94     0.276 C 
ATOM     18  OD1 ASN A 133      28.048  30.037  11.683  1.00 18.09    -0.269 OA
ATOM     19  ND2 ASN A 133      28.558  31.542  13.282  1.00 18.93    -0.107 N 
ENDBRANCH  16  17
ENDBRANCH  15  16
END_RES ASN A 133
BEGIN_RES LYS A 131
REMARK  4 active torsions:
REMARK  status: ('A' for Active; 'I' for Inactive)
REMARK   11  A    between atoms: CA   and  CB  
REMARK   12  A    between atoms: CB   and  CG  
REMARK   13  A    between atoms: CG   and  CD  
REMARK   14  A    between atoms: CD   and  CE  
ROOT
ATOM     20  CA  LYS A 131      29.867  25.555  16.977  1.00 20.52     0.186 C 
ENDROOT
BRANCH  20  21
ATOM     21  CB  LYS A 131      28.345  25.722  17.026  1.00 20.94     0.034 C 
BRANCH  21  22
ATOM     22  CG  LYS A 131      27.599  24.422  16.766  1.00 22.96     0.005 C 
BRANCH  22  23
ATOM     23  CD  LYS A 131      26.787  23.988  17.954  1.00 24.33     0.041 C 
BRANCH  23  24
ATOM     24  CE  LYS A 131      25.351  23.715  17.517  1.00 26.91     0.338 C 
ATOM     25  NZ  LYS A 131      25.067  22.261  17.545  1.00 27.40     0.618 N 
ENDBRANCH  23  24
ENDBRANCH  22  23
ENDBRANCH  21  22
ENDBRANCH  20  21
END_RES LYS A 131
