REMARK VINA RESULT:    -3.587      6.964     14.331
REMARK INTER + INTRA:         -10.195
REMARK INTER:                  -5.134
REMARK INTRA:                  -5.061
REMARK UNBOUND:                -5.664
REMARK SMILES NCCNC(=O)NCc1ccco1
REMARK SMILES IDX 7 1 5 2 6 3 4 4 8 7 9 8 10 9 13 10 11 11 12 12 3 13 2 14
REMARK SMILES IDX 1 15
REMARK H PARENT 7 5 4 6 1 16 1 17
REMARK Flexibility Score: inf
ROOT
ATOM      1  N   UNL     1      29.385  37.231   6.951  1.00  0.00    -0.331 N 
ATOM      2  C   UNL     1      30.017  38.348   7.590  1.00  0.00     0.315 C 
ATOM      3  O   UNL     1      29.367  39.386   7.863  1.00  0.00    -0.249 OA
ATOM      4  N   UNL     1      31.392  38.317   7.931  1.00  0.00    -0.337 N 
ATOM      5  H   UNL     1      29.915  36.369   6.721  1.00  0.00     0.165 HD
ATOM      6  H   UNL     1      31.957  37.453   7.708  1.00  0.00     0.165 HD
ENDROOT
BRANCH   1   7
ATOM      7  C   UNL     1      27.978  37.308   6.621  1.00  0.00     0.193 C 
BRANCH   7   8
ATOM      8  C   UNL     1      27.241  36.338   7.488  1.00  0.00     0.122 A 
ATOM      9  C   UNL     1      27.483  34.990   7.618  1.00  0.00     0.047 A 
ATOM     10  O   UNL     1      26.230  36.606   8.277  1.00  0.00    -0.467 OA
ATOM     11  C   UNL     1      26.566  34.502   8.517  1.00  0.00     0.042 A 
ATOM     12  C   UNL     1      25.794  35.565   8.907  1.00  0.00     0.195 A 
ENDBRANCH   7   8
ENDBRANCH   1   7
BRANCH   4  13
ATOM     13  C   UNL     1      32.026  39.421   8.568  1.00  0.00     0.132 C 
BRANCH  13  14
ATOM     14  C   UNL     1      33.088  40.106   7.737  1.00  0.00     0.099 C 
BRANCH  14  15
ATOM     15  N   UNL     1      33.489  39.124   6.716  1.00  0.00    -0.329 NA
ATOM     16  H   UNL     1      33.062  38.222   6.997  1.00  0.00     0.118 HD
ATOM     17  H   UNL     1      32.991  39.419   5.833  1.00  0.00     0.118 HD
ENDBRANCH  14  15
ENDBRANCH  13  14
ENDBRANCH   4  13
TORSDOF 5
BEGIN_RES LYS A 135
REMARK  4 active torsions:
REMARK  status: ('A' for Active; 'I' for Inactive)
REMARK    1  A    between atoms: CA   and  CB  
REMARK    2  A    between atoms: CB   and  CG  
REMARK    3  A    between atoms: CG   and  CD  
REMARK    4  A    between atoms: CD   and  CE  
ROOT
ATOM      1  CA  LYS A 135      33.193  34.663   9.290  1.00 25.02     0.186 C 
ENDROOT
BRANCH   1   2
ATOM      2  CB  LYS A 135      32.060  35.360  10.034  1.00 26.63     0.034 C 
BRANCH   2   3
ATOM      3  CG  LYS A 135      30.691  35.014   9.508  1.00 29.45     0.005 C 
BRANCH   3   4
ATOM      4  CD  LYS A 135      29.714  34.801  10.654  1.00 32.00     0.041 C 
BRANCH   4   5
ATOM      5  CE  LYS A 135      30.427  34.904  11.988  1.00 34.25     0.338 C 
ATOM      6  NZ  LYS A 135      29.721  35.844  12.903  1.00 35.99     0.618 N 
ENDBRANCH   4   5
ENDBRANCH   3   4
ENDBRANCH   2   3
ENDBRANCH   1   2
END_RES LYS A 135
BEGIN_RES ARG A 124
REMARK  4 active torsions:
REMARK  status: ('A' for Active; 'I' for Inactive)
REMARK    5  A    between atoms: CA   and  CB  
REMARK    6  A    between atoms: CB   and  CG  
REMARK    7  A    between atoms: CG   and  CD  
REMARK    8  A    between atoms: CD   and  NE  
REMARK       I    between atoms: NE   and  CZ  
ROOT
ATOM      7  CA  ARG A 124      31.045  26.515   9.594  1.00 17.84     0.186 C 
ENDROOT
BRANCH   7   8
ATOM      8  CB  ARG A 124      29.529  26.705   9.647  1.00 16.18     0.036 C 
BRANCH   8   9
ATOM      9  CG  ARG A 124      28.974  27.375  10.955  1.00 16.22     0.029 C 
BRANCH   9  10
ATOM     10  CD  ARG A 124      28.418  26.347  11.966  1.00 15.09     0.145 C 
BRANCH  10  11
ATOM     11  NE  ARG A 124      28.024  26.938  13.264  1.00 16.98    -0.083 NA
ATOM     12  CZ  ARG A 124      26.795  27.337  13.575  1.00 18.21     0.782 C 
ATOM     13  NH1 ARG A 124      25.792  27.218  12.714  1.00 21.11     0.063 N 
ATOM     14  NH2 ARG A 124      26.549  27.843  14.774  1.00 21.25     0.063 N 
ENDBRANCH  10  11
ENDBRANCH   9  10
ENDBRANCH   8   9
ENDBRANCH   7   8
END_RES ARG A 124
BEGIN_RES ASN A 133
REMARK  2 active torsions:
REMARK  status: ('A' for Active; 'I' for Inactive)
REMARK    9  A    between atoms: CA   and  CB  
REMARK   10  A    between atoms: CB   and  CG  
ROOT
ATOM     15  CA  ASN A 133      31.225  30.257  11.749  1.00 18.15     0.196 C 
ENDROOT
BRANCH  15  16
ATOM     16  CB  ASN A 133      30.092  31.240  11.460  1.00 18.27     0.126 C 
BRANCH  16  17
ATOM     17  CG  ASN A 133      29.044  31.265  12.529  1.00 18.94     0.276 C 
ATOM     18  OD1 ASN A 133      29.177  31.961  13.537  1.00 18.09    -0.269 OA
ATOM     19  ND2 ASN A 133      27.977  30.495  12.318  1.00 18.93    -0.107 N 
ENDBRANCH  16  17
ENDBRANCH  15  16
END_RES ASN A 133
BEGIN_RES LYS A 131
REMARK  4 active torsions:
REMARK  status: ('A' for Active; 'I' for Inactive)
REMARK   11  A    between atoms: CA   and  CB  
REMARK   12  A    between atoms: CB   and  CG  
REMARK   13  A    between atoms: CG   and  CD  
REMARK   14  A    between atoms: CD   and  CE  
ROOT
ATOM     20  CA  LYS A 131      29.867  25.555  16.977  1.00 20.52     0.186 C 
ENDROOT
BRANCH  20  21
ATOM     21  CB  LYS A 131      28.345  25.722  17.026  1.00 20.94     0.034 C 
BRANCH  21  22
ATOM     22  CG  LYS A 131      27.599  24.436  16.707  1.00 22.96     0.005 C 
BRANCH  22  23
ATOM     23  CD  LYS A 131      26.922  23.857  17.919  1.00 24.33     0.041 C 
BRANCH  23  24
ATOM     24  CE  LYS A 131      26.216  24.970  18.687  1.00 26.91     0.338 C 
ATOM     25  NZ  LYS A 131      25.439  24.408  19.817  1.00 27.40     0.618 N 
ENDBRANCH  23  24
ENDBRANCH  22  23
ENDBRANCH  21  22
ENDBRANCH  20  21
END_RES LYS A 131
