REMARK VINA RESULT:    -2.881      5.820     11.895
REMARK INTER + INTRA:          -9.789
REMARK INTER:                  -5.301
REMARK INTRA:                  -4.488
REMARK UNBOUND:                -5.981
REMARK SMILES N[C@@H](CCC(=O)O)C(=O)O
REMARK SMILES IDX 3 1 4 2 5 3 6 4 7 5 2 7 1 8 8 11 9 12 10 13
REMARK H PARENT 7 6 1 9 1 10 10 14
REMARK Flexibility Score: inf
ROOT
ATOM      1  C   UNL     1      28.731  35.713   8.068  1.00  0.00     0.042 C 
ENDROOT
BRANCH   1   2
ATOM      2  C   UNL     1      28.731  35.587   6.584  1.00  0.00     0.125 C 
BRANCH   2   3
ATOM      3  C   UNL     1      28.399  36.881   5.963  1.00  0.00     0.303 C 
ATOM      4  O   UNL     1      29.139  37.862   6.149  1.00  0.00    -0.252 OA
BRANCH   3   5
ATOM      5  O   UNL     1      27.279  37.010   5.180  1.00  0.00    -0.481 OA
ATOM      6  H   UNL     1      26.622  36.250   4.996  1.00  0.00     0.296 HD
ENDBRANCH   3   5
ENDBRANCH   2   3
ENDBRANCH   1   2
BRANCH   1   7
ATOM      7  C   UNL     1      29.939  35.115   8.726  1.00  0.00     0.162 C 
BRANCH   7   8
ATOM      8  N   UNL     1      30.910  34.778   7.676  1.00  0.00    -0.318 NA
ATOM      9  H   UNL     1      30.414  34.766   6.741  1.00  0.00     0.119 HD
ATOM     10  H   UNL     1      31.700  35.475   7.686  1.00  0.00     0.119 HD
ENDBRANCH   7   8
BRANCH   7  11
ATOM     11  C   UNL     1      29.685  33.906   9.511  1.00  0.00     0.320 C 
ATOM     12  O   UNL     1      28.522  33.489   9.708  1.00  0.00    -0.251 OA
BRANCH  11  13
ATOM     13  O   UNL     1      30.732  33.192  10.058  1.00  0.00    -0.480 OA
ATOM     14  H   UNL     1      30.597  32.539  10.845  1.00  0.00     0.296 HD
ENDBRANCH  11  13
ENDBRANCH   7  11
ENDBRANCH   1   7
TORSDOF 7
BEGIN_RES LYS A 135
REMARK  4 active torsions:
REMARK  status: ('A' for Active; 'I' for Inactive)
REMARK    1  A    between atoms: CA   and  CB  
REMARK    2  A    between atoms: CB   and  CG  
REMARK    3  A    between atoms: CG   and  CD  
REMARK    4  A    between atoms: CD   and  CE  
ROOT
ATOM      1  CA  LYS A 135      33.193  34.663   9.290  1.00 25.02     0.186 C 
ENDROOT
BRANCH   1   2
ATOM      2  CB  LYS A 135      32.060  35.360  10.034  1.00 26.63     0.034 C 
BRANCH   2   3
ATOM      3  CG  LYS A 135      32.510  36.079  11.279  1.00 29.45     0.005 C 
BRANCH   3   4
ATOM      4  CD  LYS A 135      31.790  37.412  11.419  1.00 32.00     0.041 C 
BRANCH   4   5
ATOM      5  CE  LYS A 135      31.715  38.119  10.080  1.00 34.25     0.338 C 
ATOM      6  NZ  LYS A 135      30.336  38.612   9.810  1.00 35.99     0.618 N 
ENDBRANCH   4   5
ENDBRANCH   3   4
ENDBRANCH   2   3
ENDBRANCH   1   2
END_RES LYS A 135
BEGIN_RES ARG A 124
REMARK  4 active torsions:
REMARK  status: ('A' for Active; 'I' for Inactive)
REMARK    5  A    between atoms: CA   and  CB  
REMARK    6  A    between atoms: CB   and  CG  
REMARK    7  A    between atoms: CG   and  CD  
REMARK    8  A    between atoms: CD   and  NE  
REMARK       I    between atoms: NE   and  CZ  
ROOT
ATOM      7  CA  ARG A 124      31.045  26.515   9.594  1.00 17.84     0.186 C 
ENDROOT
BRANCH   7   8
ATOM      8  CB  ARG A 124      29.529  26.705   9.647  1.00 16.18     0.036 C 
BRANCH   8   9
ATOM      9  CG  ARG A 124      28.906  26.798  11.086  1.00 16.22     0.029 C 
BRANCH   9  10
ATOM     10  CD  ARG A 124      27.525  26.112  11.188  1.00 15.09     0.145 C 
BRANCH  10  11
ATOM     11  NE  ARG A 124      26.407  27.050  11.427  1.00 16.98    -0.083 NA
ATOM     12  CZ  ARG A 124      26.046  27.514  12.618  1.00 18.21     0.782 C 
ATOM     13  NH1 ARG A 124      26.697  27.165  13.721  1.00 21.11     0.063 N 
ATOM     14  NH2 ARG A 124      25.033  28.361  12.718  1.00 21.25     0.063 N 
ENDBRANCH  10  11
ENDBRANCH   9  10
ENDBRANCH   8   9
ENDBRANCH   7   8
END_RES ARG A 124
BEGIN_RES ASN A 133
REMARK  2 active torsions:
REMARK  status: ('A' for Active; 'I' for Inactive)
REMARK    9  A    between atoms: CA   and  CB  
REMARK   10  A    between atoms: CB   and  CG  
ROOT
ATOM     15  CA  ASN A 133      31.225  30.257  11.749  1.00 18.15     0.196 C 
ENDROOT
BRANCH  15  16
ATOM     16  CB  ASN A 133      30.092  31.240  11.460  1.00 18.27     0.126 C 
BRANCH  16  17
ATOM     17  CG  ASN A 133      28.734  30.612  11.521  1.00 18.94     0.276 C 
ATOM     18  OD1 ASN A 133      28.344  29.847  10.637  1.00 18.09    -0.269 OA
ATOM     19  ND2 ASN A 133      27.990  30.935  12.578  1.00 18.93    -0.107 N 
ENDBRANCH  16  17
ENDBRANCH  15  16
END_RES ASN A 133
BEGIN_RES LYS A 131
REMARK  4 active torsions:
REMARK  status: ('A' for Active; 'I' for Inactive)
REMARK   11  A    between atoms: CA   and  CB  
REMARK   12  A    between atoms: CB   and  CG  
REMARK   13  A    between atoms: CG   and  CD  
REMARK   14  A    between atoms: CD   and  CE  
ROOT
ATOM     20  CA  LYS A 131      29.867  25.555  16.977  1.00 20.52     0.186 C 
ENDROOT
BRANCH  20  21
ATOM     21  CB  LYS A 131      28.345  25.722  17.026  1.00 20.94     0.034 C 
BRANCH  21  22
ATOM     22  CG  LYS A 131      27.600  24.408  16.847  1.00 22.96     0.005 C 
BRANCH  22  23
ATOM     23  CD  LYS A 131      26.145  24.528  17.207  1.00 24.33     0.041 C 
BRANCH  23  24
ATOM     24  CE  LYS A 131      25.600  23.155  17.588  1.00 26.91     0.338 C 
ATOM     25  NZ  LYS A 131      24.196  23.011  17.138  1.00 27.40     0.618 N 
ENDBRANCH  23  24
ENDBRANCH  22  23
ENDBRANCH  21  22
ENDBRANCH  20  21
END_RES LYS A 131
