REMARK VINA RESULT:    -3.963      6.407     13.118
REMARK INTER + INTRA:         -10.682
REMARK INTER:                  -5.051
REMARK INTRA:                  -5.631
REMARK UNBOUND:                -5.329
REMARK SMILES CC(C)C[C@H](CN)CC(=O)O
REMARK SMILES IDX 8 1 5 2 4 3 2 4 1 5 3 6 6 7 7 8 9 11 10 12 11 13
REMARK H PARENT 7 9 7 10 11 14
REMARK Flexibility Score: inf
ROOT
ATOM      1  C   UNL     1      37.090  33.826  13.480  1.00  0.00     0.127 C 
ENDROOT
BRANCH   1   2
ATOM      2  C   UNL     1      38.154  34.211  14.489  1.00  0.00     0.014 C 
BRANCH   2   3
ATOM      3  C   UNL     1      37.614  35.124  15.552  1.00  0.00     0.008 C 
BRANCH   3   4
ATOM      4  C   UNL     1      38.302  34.967  16.877  1.00  0.00    -0.017 C 
ATOM      5  C   UNL     1      37.361  35.361  18.006  1.00  0.00     0.007 C 
ATOM      6  C   UNL     1      38.601  33.479  17.018  1.00  0.00     0.007 C 
ENDBRANCH   3   4
ENDBRANCH   2   3
BRANCH   2   7
ATOM      7  C   UNL     1      39.255  35.022  13.787  1.00  0.00     0.081 C 
BRANCH   7   8
ATOM      8  N   UNL     1      40.500  34.259  13.929  1.00  0.00    -0.330 NA
ATOM      9  H   UNL     1      40.926  34.143  12.994  1.00  0.00     0.118 HD
ATOM     10  H   UNL     1      40.321  33.350  14.390  1.00  0.00     0.118 HD
ENDBRANCH   7   8
ENDBRANCH   2   7
ENDBRANCH   1   2
BRANCH   1  11
ATOM     11  C   UNL     1      37.642  33.173  12.277  1.00  0.00     0.303 C 
ATOM     12  O   UNL     1      38.515  32.230  12.414  1.00  0.00    -0.252 OA
BRANCH  11  13
ATOM     13  O   UNL     1      37.292  33.507  10.992  1.00  0.00    -0.481 OA
ATOM     14  H   UNL     1      38.014  33.729  10.287  1.00  0.00     0.296 HD
ENDBRANCH  11  13
ENDBRANCH   1  11
TORSDOF 7
BEGIN_RES LYS A 135
REMARK  4 active torsions:
REMARK  status: ('A' for Active; 'I' for Inactive)
REMARK    1  A    between atoms: CA   and  CB  
REMARK    2  A    between atoms: CB   and  CG  
REMARK    3  A    between atoms: CG   and  CD  
REMARK    4  A    between atoms: CD   and  CE  
ROOT
ATOM      1  CA  LYS A 135      33.193  34.663   9.290  1.00 25.02     0.186 C 
ENDROOT
BRANCH   1   2
ATOM      2  CB  LYS A 135      32.060  35.360  10.034  1.00 26.63     0.034 C 
BRANCH   2   3
ATOM      3  CG  LYS A 135      30.701  34.776   9.746  1.00 29.45     0.005 C 
BRANCH   3   4
ATOM      4  CD  LYS A 135      30.537  34.505   8.259  1.00 32.00     0.041 C 
BRANCH   4   5
ATOM      5  CE  LYS A 135      29.148  34.899   7.795  1.00 34.25     0.338 C 
ATOM      6  NZ  LYS A 135      28.912  36.357   7.987  1.00 35.99     0.618 N 
ENDBRANCH   4   5
ENDBRANCH   3   4
ENDBRANCH   2   3
ENDBRANCH   1   2
END_RES LYS A 135
BEGIN_RES ARG A 124
REMARK  4 active torsions:
REMARK  status: ('A' for Active; 'I' for Inactive)
REMARK    5  A    between atoms: CA   and  CB  
REMARK    6  A    between atoms: CB   and  CG  
REMARK    7  A    between atoms: CG   and  CD  
REMARK    8  A    between atoms: CD   and  NE  
REMARK       I    between atoms: NE   and  CZ  
ROOT
ATOM      7  CA  ARG A 124      31.045  26.515   9.594  1.00 17.84     0.186 C 
ENDROOT
BRANCH   7   8
ATOM      8  CB  ARG A 124      29.529  26.705   9.647  1.00 16.18     0.036 C 
BRANCH   8   9
ATOM      9  CG  ARG A 124      28.974  27.371  10.956  1.00 16.22     0.029 C 
BRANCH   9  10
ATOM     10  CD  ARG A 124      28.441  26.338  11.976  1.00 15.09     0.145 C 
BRANCH  10  11
ATOM     11  NE  ARG A 124      28.020  26.932  13.264  1.00 16.98    -0.083 NA
ATOM     12  CZ  ARG A 124      26.786  27.335  13.547  1.00 18.21     0.782 C 
ATOM     13  NH1 ARG A 124      25.802  27.217  12.664  1.00 21.11     0.063 N 
ATOM     14  NH2 ARG A 124      26.514  27.843  14.739  1.00 21.25     0.063 N 
ENDBRANCH  10  11
ENDBRANCH   9  10
ENDBRANCH   8   9
ENDBRANCH   7   8
END_RES ARG A 124
BEGIN_RES ASN A 133
REMARK  2 active torsions:
REMARK  status: ('A' for Active; 'I' for Inactive)
REMARK    9  A    between atoms: CA   and  CB  
REMARK   10  A    between atoms: CB   and  CG  
ROOT
ATOM     15  CA  ASN A 133      31.225  30.257  11.749  1.00 18.15     0.196 C 
ENDROOT
BRANCH  15  16
ATOM     16  CB  ASN A 133      30.092  31.240  11.460  1.00 18.27     0.126 C 
BRANCH  16  17
ATOM     17  CG  ASN A 133      28.939  31.109  12.407  1.00 18.94     0.276 C 
ATOM     18  OD1 ASN A 133      28.035  30.297  12.203  1.00 18.09    -0.269 OA
ATOM     19  ND2 ASN A 133      28.959  31.919  13.464  1.00 18.93    -0.107 N 
ENDBRANCH  16  17
ENDBRANCH  15  16
END_RES ASN A 133
BEGIN_RES LYS A 131
REMARK  4 active torsions:
REMARK  status: ('A' for Active; 'I' for Inactive)
REMARK   11  A    between atoms: CA   and  CB  
REMARK   12  A    between atoms: CB   and  CG  
REMARK   13  A    between atoms: CG   and  CD  
REMARK   14  A    between atoms: CD   and  CE  
ROOT
ATOM     20  CA  LYS A 131      29.867  25.555  16.977  1.00 20.52     0.186 C 
ENDROOT
BRANCH  20  21
ATOM     21  CB  LYS A 131      28.345  25.722  17.026  1.00 20.94     0.034 C 
BRANCH  21  22
ATOM     22  CG  LYS A 131      27.600  24.412  16.820  1.00 22.96     0.005 C 
BRANCH  22  23
ATOM     23  CD  LYS A 131      26.698  24.085  17.978  1.00 24.33     0.041 C 
BRANCH  23  24
ATOM     24  CE  LYS A 131      26.370  25.363  18.744  1.00 26.91     0.338 C 
ATOM     25  NZ  LYS A 131      24.913  25.457  18.997  1.00 27.40     0.618 N 
ENDBRANCH  23  24
ENDBRANCH  22  23
ENDBRANCH  21  22
ENDBRANCH  20  21
END_RES LYS A 131
