REMARK VINA RESULT:    -2.251      4.584      7.756
REMARK INTER + INTRA:          -9.247
REMARK INTER:                  -3.243
REMARK INTRA:                  -6.004
REMARK UNBOUND:                -6.207
REMARK SMILES NCCCCCC(=O)O
REMARK SMILES IDX 4 1 3 2 2 3 1 4 5 7 6 8 7 9 8 10 9 11
REMARK H PARENT 1 5 1 6 9 12
REMARK Flexibility Score: inf
ROOT
ATOM      1  C   UNL     1      30.643  30.359  19.682  1.00  0.00     0.002 C 
ENDROOT
BRANCH   1   2
ATOM      2  C   UNL     1      31.211  30.066  21.045  1.00  0.00     0.015 C 
BRANCH   2   3
ATOM      3  C   UNL     1      32.464  29.220  20.971  1.00  0.00     0.077 C 
BRANCH   3   4
ATOM      4  N   UNL     1      32.177  28.132  20.052  1.00  0.00    -0.330 NA
ATOM      5  H   UNL     1      31.814  27.334  20.625  1.00  0.00     0.118 HD
ATOM      6  H   UNL     1      33.081  27.865  19.606  1.00  0.00     0.118 HD
ENDBRANCH   3   4
ENDBRANCH   2   3
ENDBRANCH   1   2
BRANCH   1   7
ATOM      7  C   UNL     1      29.129  30.334  19.661  1.00  0.00     0.012 C 
BRANCH   7   8
ATOM      8  C   UNL     1      28.724  29.216  20.627  1.00  0.00     0.122 C 
BRANCH   8   9
ATOM      9  C   UNL     1      28.513  27.945  19.943  1.00  0.00     0.303 C 
ATOM     10  O   UNL     1      27.577  27.739  19.133  1.00  0.00    -0.252 OA
BRANCH   9  11
ATOM     11  O   UNL     1      29.402  26.898  20.203  1.00  0.00    -0.481 OA
ATOM     12  H   UNL     1      29.087  25.968  20.445  1.00  0.00     0.296 HD
ENDBRANCH   9  11
ENDBRANCH   8   9
ENDBRANCH   7   8
ENDBRANCH   1   7
TORSDOF 7
BEGIN_RES LYS A 135
REMARK  4 active torsions:
REMARK  status: ('A' for Active; 'I' for Inactive)
REMARK    1  A    between atoms: CA   and  CB  
REMARK    2  A    between atoms: CB   and  CG  
REMARK    3  A    between atoms: CG   and  CD  
REMARK    4  A    between atoms: CD   and  CE  
ROOT
ATOM      1  CA  LYS A 135      33.193  34.663   9.290  1.00 25.02     0.186 C 
ENDROOT
BRANCH   1   2
ATOM      2  CB  LYS A 135      32.060  35.360  10.034  1.00 26.63     0.034 C 
BRANCH   2   3
ATOM      3  CG  LYS A 135      30.832  35.583   9.189  1.00 29.45     0.005 C 
BRANCH   3   4
ATOM      4  CD  LYS A 135      30.290  34.261   8.670  1.00 32.00     0.041 C 
BRANCH   4   5
ATOM      5  CE  LYS A 135      28.774  34.258   8.699  1.00 34.25     0.338 C 
ATOM      6  NZ  LYS A 135      28.223  35.480   8.050  1.00 35.99     0.618 N 
ENDBRANCH   4   5
ENDBRANCH   3   4
ENDBRANCH   2   3
ENDBRANCH   1   2
END_RES LYS A 135
BEGIN_RES ARG A 124
REMARK  4 active torsions:
REMARK  status: ('A' for Active; 'I' for Inactive)
REMARK    5  A    between atoms: CA   and  CB  
REMARK    6  A    between atoms: CB   and  CG  
REMARK    7  A    between atoms: CG   and  CD  
REMARK    8  A    between atoms: CD   and  NE  
REMARK       I    between atoms: NE   and  CZ  
ROOT
ATOM      7  CA  ARG A 124      31.045  26.515   9.594  1.00 17.84     0.186 C 
ENDROOT
BRANCH   7   8
ATOM      8  CB  ARG A 124      29.529  26.705   9.647  1.00 16.18     0.036 C 
BRANCH   8   9
ATOM      9  CG  ARG A 124      28.893  26.690  11.083  1.00 16.22     0.029 C 
BRANCH   9  10
ATOM     10  CD  ARG A 124      27.476  26.073  11.105  1.00 15.09     0.145 C 
BRANCH  10  11
ATOM     11  NE  ARG A 124      26.401  27.050  11.384  1.00 16.98    -0.083 NA
ATOM     12  CZ  ARG A 124      26.087  27.511  12.590  1.00 18.21     0.782 C 
ATOM     13  NH1 ARG A 124      26.750  27.120  13.672  1.00 21.11     0.063 N 
ATOM     14  NH2 ARG A 124      25.112  28.396  12.726  1.00 21.25     0.063 N 
ENDBRANCH  10  11
ENDBRANCH   9  10
ENDBRANCH   8   9
ENDBRANCH   7   8
END_RES ARG A 124
BEGIN_RES ASN A 133
REMARK  2 active torsions:
REMARK  status: ('A' for Active; 'I' for Inactive)
REMARK    9  A    between atoms: CA   and  CB  
REMARK   10  A    between atoms: CB   and  CG  
ROOT
ATOM     15  CA  ASN A 133      31.225  30.257  11.749  1.00 18.15     0.196 C 
ENDROOT
BRANCH  15  16
ATOM     16  CB  ASN A 133      30.092  31.240  11.460  1.00 18.27     0.126 C 
BRANCH  16  17
ATOM     17  CG  ASN A 133      28.735  30.609  11.509  1.00 18.94     0.276 C 
ATOM     18  OD1 ASN A 133      28.374  29.804  10.648  1.00 18.09    -0.269 OA
ATOM     19  ND2 ASN A 133      27.958  30.975  12.528  1.00 18.93    -0.107 N 
ENDBRANCH  16  17
ENDBRANCH  15  16
END_RES ASN A 133
BEGIN_RES LYS A 131
REMARK  4 active torsions:
REMARK  status: ('A' for Active; 'I' for Inactive)
REMARK   11  A    between atoms: CA   and  CB  
REMARK   12  A    between atoms: CB   and  CG  
REMARK   13  A    between atoms: CG   and  CD  
REMARK   14  A    between atoms: CD   and  CE  
ROOT
ATOM     20  CA  LYS A 131      29.867  25.555  16.977  1.00 20.52     0.186 C 
ENDROOT
BRANCH  20  21
ATOM     21  CB  LYS A 131      28.345  25.722  17.026  1.00 20.94     0.034 C 
BRANCH  21  22
ATOM     22  CG  LYS A 131      27.600  24.410  16.834  1.00 22.96     0.005 C 
BRANCH  22  23
ATOM     23  CD  LYS A 131      26.176  24.492  17.308  1.00 24.33     0.041 C 
BRANCH  23  24
ATOM     24  CE  LYS A 131      25.654  23.089  17.597  1.00 26.91     0.338 C 
ATOM     25  NZ  LYS A 131      24.988  23.045  18.921  1.00 27.40     0.618 N 
ENDBRANCH  23  24
ENDBRANCH  22  23
ENDBRANCH  21  22
ENDBRANCH  20  21
END_RES LYS A 131
