REMARK VINA RESULT:    -3.629      6.211      7.399
REMARK INTER + INTRA:          -9.537
REMARK INTER:                  -3.745
REMARK INTRA:                  -5.792
REMARK UNBOUND:                -5.590
REMARK SMILES NCc1ccc2c(c1)OCO2
REMARK SMILES IDX 2 1 1 2 3 5 4 6 8 7 5 8 7 9 6 10 9 11 11 12 10 13
REMARK H PARENT 1 3 1 4
REMARK Flexibility Score: inf
ROOT
ATOM      1  C   UNL     1      37.198  37.601   3.297  1.00  0.00     0.113 C 
ENDROOT
BRANCH   1   2
ATOM      2  N   UNL     1      37.862  36.858   4.321  1.00  0.00    -0.326 NA
ATOM      3  H   UNL     1      37.330  36.033   4.645  1.00  0.00     0.119 HD
ATOM      4  H   UNL     1      38.817  36.615   3.963  1.00  0.00     0.119 HD
ENDBRANCH   1   2
BRANCH   1   5
ATOM      5  C   UNL     1      36.036  38.360   3.760  1.00  0.00    -0.030 A 
ATOM      6  C   UNL     1      35.237  39.010   2.845  1.00  0.00     0.009 A 
ATOM      7  C   UNL     1      35.674  38.475   5.087  1.00  0.00     0.055 A 
ATOM      8  C   UNL     1      34.123  39.744   3.218  1.00  0.00     0.051 A 
ATOM      9  C   UNL     1      34.568  39.201   5.493  1.00  0.00     0.166 A 
ATOM     10  C   UNL     1      33.784  39.843   4.552  1.00  0.00     0.165 A 
ATOM     11  O   UNL     1      33.991  39.475   6.731  1.00  0.00    -0.454 OA
ATOM     12  O   UNL     1      32.727  40.511   5.183  1.00  0.00    -0.454 OA
ATOM     13  C   UNL     1      32.685  39.971   6.493  1.00  0.00     0.468 C 
ENDBRANCH   1   5
TORSDOF 2
BEGIN_RES LYS A 135
REMARK  4 active torsions:
REMARK  status: ('A' for Active; 'I' for Inactive)
REMARK    1  A    between atoms: CA   and  CB  
REMARK    2  A    between atoms: CB   and  CG  
REMARK    3  A    between atoms: CG   and  CD  
REMARK    4  A    between atoms: CD   and  CE  
ROOT
ATOM      1  CA  LYS A 135      33.193  34.663   9.290  1.00 25.02     0.186 C 
ENDROOT
BRANCH   1   2
ATOM      2  CB  LYS A 135      32.060  35.360  10.034  1.00 26.63     0.034 C 
BRANCH   2   3
ATOM      3  CG  LYS A 135      30.857  35.642   9.172  1.00 29.45     0.005 C 
BRANCH   3   4
ATOM      4  CD  LYS A 135      30.377  34.371   8.487  1.00 32.00     0.041 C 
BRANCH   4   5
ATOM      5  CE  LYS A 135      28.868  34.384   8.338  1.00 34.25     0.338 C 
ATOM      6  NZ  LYS A 135      28.207  33.758   9.516  1.00 35.99     0.618 N 
ENDBRANCH   4   5
ENDBRANCH   3   4
ENDBRANCH   2   3
ENDBRANCH   1   2
END_RES LYS A 135
BEGIN_RES ARG A 124
REMARK  4 active torsions:
REMARK  status: ('A' for Active; 'I' for Inactive)
REMARK    5  A    between atoms: CA   and  CB  
REMARK    6  A    between atoms: CB   and  CG  
REMARK    7  A    between atoms: CG   and  CD  
REMARK    8  A    between atoms: CD   and  NE  
REMARK       I    between atoms: NE   and  CZ  
ROOT
ATOM      7  CA  ARG A 124      31.045  26.515   9.594  1.00 17.84     0.186 C 
ENDROOT
BRANCH   7   8
ATOM      8  CB  ARG A 124      29.529  26.705   9.647  1.00 16.18     0.036 C 
BRANCH   8   9
ATOM      9  CG  ARG A 124      28.917  26.888  11.082  1.00 16.22     0.029 C 
BRANCH   9  10
ATOM     10  CD  ARG A 124      27.615  26.081  11.287  1.00 15.09     0.145 C 
BRANCH  10  11
ATOM     11  NE  ARG A 124      26.409  26.923  11.448  1.00 16.98    -0.083 NA
ATOM     12  CZ  ARG A 124      25.963  27.398  12.606  1.00 18.21     0.782 C 
ATOM     13  NH1 ARG A 124      26.600  27.151  13.744  1.00 21.11     0.063 N 
ATOM     14  NH2 ARG A 124      24.876  28.153  12.636  1.00 21.25     0.063 N 
ENDBRANCH  10  11
ENDBRANCH   9  10
ENDBRANCH   8   9
ENDBRANCH   7   8
END_RES ARG A 124
BEGIN_RES ASN A 133
REMARK  2 active torsions:
REMARK  status: ('A' for Active; 'I' for Inactive)
REMARK    9  A    between atoms: CA   and  CB  
REMARK   10  A    between atoms: CB   and  CG  
ROOT
ATOM     15  CA  ASN A 133      31.225  30.257  11.749  1.00 18.15     0.196 C 
ENDROOT
BRANCH  15  16
ATOM     16  CB  ASN A 133      30.092  31.240  11.460  1.00 18.27     0.126 C 
BRANCH  16  17
ATOM     17  CG  ASN A 133      28.731  30.626  11.578  1.00 18.94     0.276 C 
ATOM     18  OD1 ASN A 133      28.298  29.863  10.713  1.00 18.09    -0.269 OA
ATOM     19  ND2 ASN A 133      28.035  30.958  12.664  1.00 18.93    -0.107 N 
ENDBRANCH  16  17
ENDBRANCH  15  16
END_RES ASN A 133
BEGIN_RES LYS A 131
REMARK  4 active torsions:
REMARK  status: ('A' for Active; 'I' for Inactive)
REMARK   11  A    between atoms: CA   and  CB  
REMARK   12  A    between atoms: CB   and  CG  
REMARK   13  A    between atoms: CG   and  CD  
REMARK   14  A    between atoms: CD   and  CE  
ROOT
ATOM     20  CA  LYS A 131      29.867  25.555  16.977  1.00 20.52     0.186 C 
ENDROOT
BRANCH  20  21
ATOM     21  CB  LYS A 131      28.345  25.722  17.026  1.00 20.94     0.034 C 
BRANCH  21  22
ATOM     22  CG  LYS A 131      27.600  24.409  16.837  1.00 22.96     0.005 C 
BRANCH  22  23
ATOM     23  CD  LYS A 131      26.149  24.523  17.212  1.00 24.33     0.041 C 
BRANCH  23  24
ATOM     24  CE  LYS A 131      25.610  23.145  17.584  1.00 26.91     0.338 C 
ATOM     25  NZ  LYS A 131      24.199  23.006  17.152  1.00 27.40     0.618 N 
ENDBRANCH  23  24
ENDBRANCH  22  23
ENDBRANCH  21  22
ENDBRANCH  20  21
END_RES LYS A 131
