REMARK VINA RESULT:    -3.343      6.078     10.671
REMARK INTER + INTRA:          -9.485
REMARK INTER:                  -3.549
REMARK INTRA:                  -5.935
REMARK UNBOUND:                -5.849
REMARK SMILES CN(C)C(=O)c1ccc(Cl)cc1N
REMARK SMILES IDX 6 1 7 2 8 3 9 4 10 5 11 6 12 7 4 8 1 9 2 10 3 11 5 12 13 13
REMARK H PARENT 13 14 13 15
REMARK Flexibility Score: inf
ROOT
ATOM      1  C   UNL     1      25.711  16.474  15.858  1.00  0.00     0.063 A 
ATOM      2  C   UNL     1      24.660  16.089  15.078  1.00  0.00     0.017 A 
ATOM      3  C   UNL     1      23.852  16.978  14.342  1.00  0.00     0.021 A 
ATOM      4  C   UNL     1      24.140  18.308  14.417  1.00  0.00     0.043 A 
ATOM      5  Cl  UNL     1      23.148  19.443  13.509  1.00  0.00    -0.084 Cl
ATOM      6  C   UNL     1      25.192  18.748  15.192  1.00  0.00     0.046 A 
ATOM      7  C   UNL     1      25.955  17.876  15.890  1.00  0.00     0.046 A 
ENDROOT
BRANCH   1   8
ATOM      8  C   UNL     1      26.559  15.606  16.622  1.00  0.00     0.255 C 
ATOM      9  C   UNL     1      25.161  15.071  18.649  1.00  0.00     0.146 C 
ATOM     10  N   UNL     1      26.336  14.989  17.834  1.00  0.00    -0.345 N 
ATOM     11  C   UNL     1      27.448  14.129  18.367  1.00  0.00     0.146 C 
ATOM     12  O   UNL     1      27.727  15.351  16.104  1.00  0.00    -0.269 OA
ENDBRANCH   1   8
BRANCH   7  13
ATOM     13  N   UNL     1      27.027  18.355  16.678  1.00  0.00    -0.398 N 
ATOM     14  H   UNL     1      27.148  19.389  16.776  1.00  0.00     0.156 HD
ATOM     15  H   UNL     1      27.715  17.734  17.175  1.00  0.00     0.156 HD
ENDBRANCH   7  13
TORSDOF 2
BEGIN_RES LYS A 135
REMARK  4 active torsions:
REMARK  status: ('A' for Active; 'I' for Inactive)
REMARK    1  A    between atoms: CA   and  CB  
REMARK    2  A    between atoms: CB   and  CG  
REMARK    3  A    between atoms: CG   and  CD  
REMARK    4  A    between atoms: CD   and  CE  
ROOT
ATOM      1  CA  LYS A 135      33.193  34.663   9.290  1.00 25.02     0.186 C 
ENDROOT
BRANCH   1   2
ATOM      2  CB  LYS A 135      32.060  35.360  10.034  1.00 26.63     0.034 C 
BRANCH   2   3
ATOM      3  CG  LYS A 135      30.725  34.680   9.872  1.00 29.45     0.005 C 
BRANCH   3   4
ATOM      4  CD  LYS A 135      30.358  34.560   8.401  1.00 32.00     0.041 C 
BRANCH   4   5
ATOM      5  CE  LYS A 135      29.482  35.723   7.974  1.00 34.25     0.338 C 
ATOM      6  NZ  LYS A 135      28.302  35.249   7.200  1.00 35.99     0.618 N 
ENDBRANCH   4   5
ENDBRANCH   3   4
ENDBRANCH   2   3
ENDBRANCH   1   2
END_RES LYS A 135
BEGIN_RES ARG A 124
REMARK  4 active torsions:
REMARK  status: ('A' for Active; 'I' for Inactive)
REMARK    5  A    between atoms: CA   and  CB  
REMARK    6  A    between atoms: CB   and  CG  
REMARK    7  A    between atoms: CG   and  CD  
REMARK    8  A    between atoms: CD   and  NE  
REMARK       I    between atoms: NE   and  CZ  
ROOT
ATOM      7  CA  ARG A 124      31.045  26.515   9.594  1.00 17.84     0.186 C 
ENDROOT
BRANCH   7   8
ATOM      8  CB  ARG A 124      29.529  26.705   9.647  1.00 16.18     0.036 C 
BRANCH   8   9
ATOM      9  CG  ARG A 124      28.907  26.800  11.086  1.00 16.22     0.029 C 
BRANCH   9  10
ATOM     10  CD  ARG A 124      27.547  26.073  11.201  1.00 15.09     0.145 C 
BRANCH  10  11
ATOM     11  NE  ARG A 124      26.399  26.981  11.413  1.00 16.98    -0.083 NA
ATOM     12  CZ  ARG A 124      26.011  27.453  12.593  1.00 18.21     0.782 C 
ATOM     13  NH1 ARG A 124      26.659  27.140  13.708  1.00 21.11     0.063 N 
ATOM     14  NH2 ARG A 124      24.972  28.271  12.668  1.00 21.25     0.063 N 
ENDBRANCH  10  11
ENDBRANCH   9  10
ENDBRANCH   8   9
ENDBRANCH   7   8
END_RES ARG A 124
BEGIN_RES ASN A 133
REMARK  2 active torsions:
REMARK  status: ('A' for Active; 'I' for Inactive)
REMARK    9  A    between atoms: CA   and  CB  
REMARK   10  A    between atoms: CB   and  CG  
ROOT
ATOM     15  CA  ASN A 133      31.225  30.257  11.749  1.00 18.15     0.196 C 
ENDROOT
BRANCH  15  16
ATOM     16  CB  ASN A 133      30.092  31.240  11.460  1.00 18.27     0.126 C 
BRANCH  16  17
ATOM     17  CG  ASN A 133      28.731  30.626  11.578  1.00 18.94     0.276 C 
ATOM     18  OD1 ASN A 133      28.328  29.804  10.753  1.00 18.09    -0.269 OA
ATOM     19  ND2 ASN A 133      28.000  31.025  12.618  1.00 18.93    -0.107 N 
ENDBRANCH  16  17
ENDBRANCH  15  16
END_RES ASN A 133
BEGIN_RES LYS A 131
REMARK  4 active torsions:
REMARK  status: ('A' for Active; 'I' for Inactive)
REMARK   11  A    between atoms: CA   and  CB  
REMARK   12  A    between atoms: CB   and  CG  
REMARK   13  A    between atoms: CG   and  CD  
REMARK   14  A    between atoms: CD   and  CE  
ROOT
ATOM     20  CA  LYS A 131      29.867  25.555  16.977  1.00 20.52     0.186 C 
ENDROOT
BRANCH  20  21
ATOM     21  CB  LYS A 131      28.345  25.722  17.026  1.00 20.94     0.034 C 
BRANCH  21  22
ATOM     22  CG  LYS A 131      27.599  24.421  16.770  1.00 22.96     0.005 C 
BRANCH  22  23
ATOM     23  CD  LYS A 131      26.870  23.936  17.991  1.00 24.33     0.041 C 
BRANCH  23  24
ATOM     24  CE  LYS A 131      25.773  22.961  17.576  1.00 26.91     0.338 C 
ATOM     25  NZ  LYS A 131      24.440  23.492  17.943  1.00 27.40     0.618 N 
ENDBRANCH  23  24
ENDBRANCH  22  23
ENDBRANCH  21  22
ENDBRANCH  20  21
END_RES LYS A 131
