REMARK VINA RESULT:    -2.811      6.100     10.227
REMARK INTER + INTRA:          -8.545
REMARK INTER:                  -3.057
REMARK INTRA:                  -5.488
REMARK UNBOUND:                -5.488
REMARK SMILES Nc1ccc([N+](=O)[O-])cc1
REMARK SMILES IDX 2 1 3 2 4 3 5 4 9 5 10 6 1 7 6 10 7 11 8 12
REMARK H PARENT 1 8 1 9
REMARK Flexibility Score: inf
ROOT
ATOM      1  C   UNL     1      20.756  29.252  12.170  1.00  0.00     0.032 A 
ATOM      2  C   UNL     1      20.367  30.568  12.306  1.00  0.00     0.032 A 
ATOM      3  C   UNL     1      21.263  31.572  12.614  1.00  0.00     0.088 A 
ATOM      4  C   UNL     1      22.601  31.305  12.799  1.00  0.00     0.269 A 
ATOM      5  C   UNL     1      22.988  29.990  12.663  1.00  0.00     0.088 A 
ATOM      6  C   UNL     1      22.096  28.982  12.356  1.00  0.00     0.032 A 
ENDROOT
BRANCH   1   7
ATOM      7  N   UNL     1      19.811  28.228  11.852  1.00  0.00    -0.399 N 
ATOM      8  H   UNL     1      18.967  28.088  12.437  1.00  0.00     0.156 HD
ATOM      9  H   UNL     1      19.932  27.592  11.034  1.00  0.00     0.156 HD
ENDBRANCH   1   7
BRANCH   4  10
ATOM     10  N   UNL     1      23.536  32.330  13.117  1.00  0.00     0.062 N 
ATOM     11  O   UNL     1      24.711  32.015  13.463  1.00  0.00    -0.258 OA
ATOM     12  O   UNL     1      23.255  33.652  13.073  1.00  0.00    -0.258 OA
ENDBRANCH   4  10
TORSDOF 2
BEGIN_RES LYS A 135
REMARK  4 active torsions:
REMARK  status: ('A' for Active; 'I' for Inactive)
REMARK    1  A    between atoms: CA   and  CB  
REMARK    2  A    between atoms: CB   and  CG  
REMARK    3  A    between atoms: CG   and  CD  
REMARK    4  A    between atoms: CD   and  CE  
ROOT
ATOM      1  CA  LYS A 135      33.193  34.663   9.290  1.00 25.02     0.186 C 
ENDROOT
BRANCH   1   2
ATOM      2  CB  LYS A 135      32.060  35.360  10.034  1.00 26.63     0.034 C 
BRANCH   2   3
ATOM      3  CG  LYS A 135      30.697  34.802   9.716  1.00 29.45     0.005 C 
BRANCH   3   4
ATOM      4  CD  LYS A 135      30.574  34.499   8.230  1.00 32.00     0.041 C 
BRANCH   4   5
ATOM      5  CE  LYS A 135      29.257  35.019   7.688  1.00 34.25     0.338 C 
ATOM      6  NZ  LYS A 135      29.206  36.507   7.737  1.00 35.99     0.618 N 
ENDBRANCH   4   5
ENDBRANCH   3   4
ENDBRANCH   2   3
ENDBRANCH   1   2
END_RES LYS A 135
BEGIN_RES ARG A 124
REMARK  4 active torsions:
REMARK  status: ('A' for Active; 'I' for Inactive)
REMARK    5  A    between atoms: CA   and  CB  
REMARK    6  A    between atoms: CB   and  CG  
REMARK    7  A    between atoms: CG   and  CD  
REMARK    8  A    between atoms: CD   and  NE  
REMARK       I    between atoms: NE   and  CZ  
ROOT
ATOM      7  CA  ARG A 124      31.045  26.515   9.594  1.00 17.84     0.186 C 
ENDROOT
BRANCH   7   8
ATOM      8  CB  ARG A 124      29.529  26.705   9.647  1.00 16.18     0.036 C 
BRANCH   8   9
ATOM      9  CG  ARG A 124      28.751  25.702  10.572  1.00 16.22     0.029 C 
BRANCH   9  10
ATOM     10  CD  ARG A 124      27.615  26.381  11.371  1.00 15.09     0.145 C 
BRANCH  10  11
ATOM     11  NE  ARG A 124      28.054  26.958  12.661  1.00 16.98    -0.083 NA
ATOM     12  CZ  ARG A 124      27.318  27.757  13.426  1.00 18.21     0.782 C 
ATOM     13  NH1 ARG A 124      26.082  28.096  13.080  1.00 21.11     0.063 N 
ATOM     14  NH2 ARG A 124      27.806  28.210  14.570  1.00 21.25     0.063 N 
ENDBRANCH  10  11
ENDBRANCH   9  10
ENDBRANCH   8   9
ENDBRANCH   7   8
END_RES ARG A 124
BEGIN_RES ASN A 133
REMARK  2 active torsions:
REMARK  status: ('A' for Active; 'I' for Inactive)
REMARK    9  A    between atoms: CA   and  CB  
REMARK   10  A    between atoms: CB   and  CG  
ROOT
ATOM     15  CA  ASN A 133      31.225  30.257  11.749  1.00 18.15     0.196 C 
ENDROOT
BRANCH  15  16
ATOM     16  CB  ASN A 133      30.092  31.240  11.460  1.00 18.27     0.126 C 
BRANCH  16  17
ATOM     17  CG  ASN A 133      28.736  30.605  11.487  1.00 18.94     0.276 C 
ATOM     18  OD1 ASN A 133      28.437  29.705  10.700  1.00 18.09    -0.269 OA
ATOM     19  ND2 ASN A 133      27.891  31.074  12.404  1.00 18.93    -0.107 N 
ENDBRANCH  16  17
ENDBRANCH  15  16
END_RES ASN A 133
BEGIN_RES LYS A 131
REMARK  4 active torsions:
REMARK  status: ('A' for Active; 'I' for Inactive)
REMARK   11  A    between atoms: CA   and  CB  
REMARK   12  A    between atoms: CB   and  CG  
REMARK   13  A    between atoms: CG   and  CD  
REMARK   14  A    between atoms: CD   and  CE  
ROOT
ATOM     20  CA  LYS A 131      29.867  25.555  16.977  1.00 20.52     0.186 C 
ENDROOT
BRANCH  20  21
ATOM     21  CB  LYS A 131      28.345  25.722  17.026  1.00 20.94     0.034 C 
BRANCH  21  22
ATOM     22  CG  LYS A 131      27.599  24.436  16.704  1.00 22.96     0.005 C 
BRANCH  22  23
ATOM     23  CD  LYS A 131      26.922  23.856  17.915  1.00 24.33     0.041 C 
BRANCH  23  24
ATOM     24  CE  LYS A 131      25.507  23.421  17.548  1.00 26.91     0.338 C 
ATOM     25  NZ  LYS A 131      24.780  24.529  16.884  1.00 27.40     0.618 N 
ENDBRANCH  23  24
ENDBRANCH  22  23
ENDBRANCH  21  22
ENDBRANCH  20  21
END_RES LYS A 131
