REMARK VINA RESULT:    -4.558      4.310      5.447
REMARK INTER + INTRA:         -10.414
REMARK INTER:                  -4.614
REMARK INTRA:                  -5.801
REMARK UNBOUND:                -5.056
REMARK SMILES NCc1ccc(C(=O)O)cc1
REMARK SMILES IDX 3 1 4 2 5 3 6 4 10 5 11 6 2 7 1 8 7 11 8 12 9 13
REMARK H PARENT 1 9 1 10 9 14
REMARK Flexibility Score: inf
ROOT
ATOM      1  C   UNL     1      39.943  34.917  14.979  1.00  0.00    -0.034 A 
ATOM      2  C   UNL     1      40.141  34.850  13.625  1.00  0.00     0.006 A 
ATOM      3  C   UNL     1      39.128  34.410  12.801  1.00  0.00     0.016 A 
ATOM      4  C   UNL     1      37.896  34.024  13.280  1.00  0.00     0.059 A 
ATOM      5  C   UNL     1      37.719  34.100  14.645  1.00  0.00     0.016 A 
ATOM      6  C   UNL     1      38.723  34.538  15.488  1.00  0.00     0.006 A 
ENDROOT
BRANCH   1   7
ATOM      7  C   UNL     1      41.064  35.397  15.823  1.00  0.00     0.113 C 
BRANCH   7   8
ATOM      8  N   UNL     1      41.291  34.521  16.964  1.00  0.00    -0.326 NA
ATOM      9  H   UNL     1      41.230  35.033  17.857  1.00  0.00     0.119 HD
ATOM     10  H   UNL     1      40.736  33.647  16.921  1.00  0.00     0.119 HD
ENDBRANCH   7   8
ENDBRANCH   1   7
BRANCH   4  11
ATOM     11  C   UNL     1      36.865  33.569  12.365  1.00  0.00     0.335 C 
ATOM     12  O   UNL     1      37.176  33.187  11.209  1.00  0.00    -0.246 OA
BRANCH  11  13
ATOM     13  O   UNL     1      35.527  33.535  12.714  1.00  0.00    -0.478 OA
ATOM     14  H   UNL     1      34.882  34.308  12.532  1.00  0.00     0.297 HD
ENDBRANCH  11  13
ENDBRANCH   4  11
TORSDOF 4
BEGIN_RES LYS A 135
REMARK  4 active torsions:
REMARK  status: ('A' for Active; 'I' for Inactive)
REMARK    1  A    between atoms: CA   and  CB  
REMARK    2  A    between atoms: CB   and  CG  
REMARK    3  A    between atoms: CG   and  CD  
REMARK    4  A    between atoms: CD   and  CE  
ROOT
ATOM      1  CA  LYS A 135      33.193  34.663   9.290  1.00 25.02     0.186 C 
ENDROOT
BRANCH   1   2
ATOM      2  CB  LYS A 135      32.060  35.360  10.034  1.00 26.63     0.034 C 
BRANCH   2   3
ATOM      3  CG  LYS A 135      30.706  34.751   9.776  1.00 29.45     0.005 C 
BRANCH   3   4
ATOM      4  CD  LYS A 135      30.479  34.558   8.285  1.00 32.00     0.041 C 
BRANCH   4   5
ATOM      5  CE  LYS A 135      29.034  34.844   7.924  1.00 34.25     0.338 C 
ATOM      6  NZ  LYS A 135      28.937  35.557   6.621  1.00 35.99     0.618 N 
ENDBRANCH   4   5
ENDBRANCH   3   4
ENDBRANCH   2   3
ENDBRANCH   1   2
END_RES LYS A 135
BEGIN_RES ARG A 124
REMARK  4 active torsions:
REMARK  status: ('A' for Active; 'I' for Inactive)
REMARK    5  A    between atoms: CA   and  CB  
REMARK    6  A    between atoms: CB   and  CG  
REMARK    7  A    between atoms: CG   and  CD  
REMARK    8  A    between atoms: CD   and  NE  
REMARK       I    between atoms: NE   and  CZ  
ROOT
ATOM      7  CA  ARG A 124      31.045  26.515   9.594  1.00 17.84     0.186 C 
ENDROOT
BRANCH   7   8
ATOM      8  CB  ARG A 124      29.529  26.705   9.647  1.00 16.18     0.036 C 
BRANCH   8   9
ATOM      9  CG  ARG A 124      28.898  26.734  11.085  1.00 16.22     0.029 C 
BRANCH   9  10
ATOM     10  CD  ARG A 124      27.511  26.054  11.146  1.00 15.09     0.145 C 
BRANCH  10  11
ATOM     11  NE  ARG A 124      26.396  26.992  11.398  1.00 16.98    -0.083 NA
ATOM     12  CZ  ARG A 124      26.138  27.570  12.566  1.00 18.21     0.782 C 
ATOM     13  NH1 ARG A 124      26.902  27.349  13.629  1.00 21.11     0.063 N 
ATOM     14  NH2 ARG A 124      25.117  28.405  12.679  1.00 21.25     0.063 N 
ENDBRANCH  10  11
ENDBRANCH   9  10
ENDBRANCH   8   9
ENDBRANCH   7   8
END_RES ARG A 124
BEGIN_RES ASN A 133
REMARK  2 active torsions:
REMARK  status: ('A' for Active; 'I' for Inactive)
REMARK    9  A    between atoms: CA   and  CB  
REMARK   10  A    between atoms: CB   and  CG  
ROOT
ATOM     15  CA  ASN A 133      31.225  30.257  11.749  1.00 18.15     0.196 C 
ENDROOT
BRANCH  15  16
ATOM     16  CB  ASN A 133      30.092  31.240  11.460  1.00 18.27     0.126 C 
BRANCH  16  17
ATOM     17  CG  ASN A 133      28.732  30.623  11.567  1.00 18.94     0.276 C 
ATOM     18  OD1 ASN A 133      28.340  29.794  10.743  1.00 18.09    -0.269 OA
ATOM     19  ND2 ASN A 133      27.988  31.027  12.595  1.00 18.93    -0.107 N 
ENDBRANCH  16  17
ENDBRANCH  15  16
END_RES ASN A 133
BEGIN_RES LYS A 131
REMARK  4 active torsions:
REMARK  status: ('A' for Active; 'I' for Inactive)
REMARK   11  A    between atoms: CA   and  CB  
REMARK   12  A    between atoms: CB   and  CG  
REMARK   13  A    between atoms: CG   and  CD  
REMARK   14  A    between atoms: CD   and  CE  
ROOT
ATOM     20  CA  LYS A 131      29.867  25.555  16.977  1.00 20.52     0.186 C 
ENDROOT
BRANCH  20  21
ATOM     21  CB  LYS A 131      28.345  25.722  17.026  1.00 20.94     0.034 C 
BRANCH  21  22
ATOM     22  CG  LYS A 131      27.601  24.401  16.900  1.00 22.96     0.005 C 
BRANCH  22  23
ATOM     23  CD  LYS A 131      26.127  24.555  17.152  1.00 24.33     0.041 C 
BRANCH  23  24
ATOM     24  CE  LYS A 131      25.744  26.028  17.047  1.00 26.91     0.338 C 
ATOM     25  NZ  LYS A 131      24.642  26.208  16.071  1.00 27.40     0.618 N 
ENDBRANCH  23  24
ENDBRANCH  22  23
ENDBRANCH  21  22
ENDBRANCH  20  21
END_RES LYS A 131
