REMARK VINA RESULT:    -3.662      5.956      6.692
REMARK INTER + INTRA:          -9.248
REMARK INTER:                  -3.498
REMARK INTRA:                  -5.751
REMARK UNBOUND:                -5.479
REMARK SMILES CN1C2CCC1CC(N)C2
REMARK SMILES IDX 1 1 2 2 3 3 4 4 5 5 6 6 7 7 8 8 10 9 9 10
REMARK H PARENT 9 11 9 12
REMARK Flexibility Score: inf
ROOT
ATOM      1  C   UNL     1      34.770  16.938  24.662  1.00  0.00     0.105 C 
ATOM      2  N   UNL     1      34.847  17.983  23.780  1.00  0.00    -0.300 NA
ATOM      3  C   UNL     1      35.027  17.818  22.409  1.00  0.00     0.058 C 
ATOM      4  C   UNL     1      35.730  19.136  22.040  1.00  0.00     0.021 C 
ATOM      5  C   UNL     1      35.332  20.110  23.147  1.00  0.00     0.021 C 
ATOM      6  C   UNL     1      34.411  19.262  24.042  1.00  0.00     0.058 C 
ATOM      7  C   UNL     1      33.012  19.479  23.519  1.00  0.00     0.038 C 
ATOM      8  C   UNL     1      32.800  18.951  22.138  1.00  0.00     0.053 C 
ATOM      9  C   UNL     1      33.647  17.801  21.754  1.00  0.00     0.038 C 
ENDROOT
BRANCH   8  10
ATOM     10  N   UNL     1      31.405  18.566  22.017  1.00  0.00    -0.328 NA
ATOM     11  H   UNL     1      30.770  19.354  21.855  1.00  0.00     0.119 HD
ATOM     12  H   UNL     1      31.108  17.883  22.719  1.00  0.00     0.119 HD
ENDBRANCH   8  10
TORSDOF 1
BEGIN_RES LYS A 135
REMARK  4 active torsions:
REMARK  status: ('A' for Active; 'I' for Inactive)
REMARK    1  A    between atoms: CA   and  CB  
REMARK    2  A    between atoms: CB   and  CG  
REMARK    3  A    between atoms: CG   and  CD  
REMARK    4  A    between atoms: CD   and  CE  
ROOT
ATOM      1  CA  LYS A 135      33.193  34.663   9.290  1.00 25.02     0.186 C 
ENDROOT
BRANCH   1   2
ATOM      2  CB  LYS A 135      32.060  35.360  10.034  1.00 26.63     0.034 C 
BRANCH   2   3
ATOM      3  CG  LYS A 135      30.865  35.661   9.167  1.00 29.45     0.005 C 
BRANCH   3   4
ATOM      4  CD  LYS A 135      30.292  34.380   8.579  1.00 32.00     0.041 C 
BRANCH   4   5
ATOM      5  CE  LYS A 135      28.807  34.534   8.312  1.00 34.25     0.338 C 
ATOM      6  NZ  LYS A 135      28.564  35.333   7.079  1.00 35.99     0.618 N 
ENDBRANCH   4   5
ENDBRANCH   3   4
ENDBRANCH   2   3
ENDBRANCH   1   2
END_RES LYS A 135
BEGIN_RES ARG A 124
REMARK  4 active torsions:
REMARK  status: ('A' for Active; 'I' for Inactive)
REMARK    5  A    between atoms: CA   and  CB  
REMARK    6  A    between atoms: CB   and  CG  
REMARK    7  A    between atoms: CG   and  CD  
REMARK    8  A    between atoms: CD   and  NE  
REMARK       I    between atoms: NE   and  CZ  
ROOT
ATOM      7  CA  ARG A 124      31.045  26.515   9.594  1.00 17.84     0.186 C 
ENDROOT
BRANCH   7   8
ATOM      8  CB  ARG A 124      29.529  26.705   9.647  1.00 16.18     0.036 C 
BRANCH   8   9
ATOM      9  CG  ARG A 124      28.907  26.807  11.086  1.00 16.22     0.029 C 
BRANCH   9  10
ATOM     10  CD  ARG A 124      27.536  26.103  11.198  1.00 15.09     0.145 C 
BRANCH  10  11
ATOM     11  NE  ARG A 124      26.405  27.029  11.429  1.00 16.98    -0.083 NA
ATOM     12  CZ  ARG A 124      26.034  27.494  12.617  1.00 18.21     0.782 C 
ATOM     13  NH1 ARG A 124      26.686  27.158  13.723  1.00 21.11     0.063 N 
ATOM     14  NH2 ARG A 124      25.012  28.330  12.709  1.00 21.25     0.063 N 
ENDBRANCH  10  11
ENDBRANCH   9  10
ENDBRANCH   8   9
ENDBRANCH   7   8
END_RES ARG A 124
BEGIN_RES ASN A 133
REMARK  2 active torsions:
REMARK  status: ('A' for Active; 'I' for Inactive)
REMARK    9  A    between atoms: CA   and  CB  
REMARK   10  A    between atoms: CB   and  CG  
ROOT
ATOM     15  CA  ASN A 133      31.225  30.257  11.749  1.00 18.15     0.196 C 
ENDROOT
BRANCH  15  16
ATOM     16  CB  ASN A 133      30.092  31.240  11.460  1.00 18.27     0.126 C 
BRANCH  16  17
ATOM     17  CG  ASN A 133      28.741  30.595  11.438  1.00 18.94     0.276 C 
ATOM     18  OD1 ASN A 133      28.408  29.841  10.522  1.00 18.09    -0.269 OA
ATOM     19  ND2 ASN A 133      27.937  30.891  12.459  1.00 18.93    -0.107 N 
ENDBRANCH  16  17
ENDBRANCH  15  16
END_RES ASN A 133
BEGIN_RES LYS A 131
REMARK  4 active torsions:
REMARK  status: ('A' for Active; 'I' for Inactive)
REMARK   11  A    between atoms: CA   and  CB  
REMARK   12  A    between atoms: CB   and  CG  
REMARK   13  A    between atoms: CG   and  CD  
REMARK   14  A    between atoms: CD   and  CE  
ROOT
ATOM     20  CA  LYS A 131      29.867  25.555  16.977  1.00 20.52     0.186 C 
ENDROOT
BRANCH  20  21
ATOM     21  CB  LYS A 131      28.345  25.722  17.026  1.00 20.94     0.034 C 
BRANCH  21  22
ATOM     22  CG  LYS A 131      27.600  24.417  16.791  1.00 22.96     0.005 C 
BRANCH  22  23
ATOM     23  CD  LYS A 131      26.759  24.024  17.974  1.00 24.33     0.041 C 
BRANCH  23  24
ATOM     24  CE  LYS A 131      25.331  23.748  17.514  1.00 26.91     0.338 C 
ATOM     25  NZ  LYS A 131      25.046  22.294  17.553  1.00 27.40     0.618 N 
ENDBRANCH  23  24
ENDBRANCH  22  23
ENDBRANCH  21  22
ENDBRANCH  20  21
END_RES LYS A 131
