REMARK VINA RESULT:    -3.756      5.221      6.375
REMARK INTER + INTRA:          -9.934
REMARK INTER:                  -3.954
REMARK INTRA:                  -5.981
REMARK UNBOUND:                -5.849
REMARK SMILES CN(C)C(=O)c1ccc(Cl)cc1N
REMARK SMILES IDX 6 1 7 2 8 3 9 4 10 5 11 6 12 7 4 8 1 9 2 10 3 11 5 12 13 13
REMARK H PARENT 13 14 13 15
REMARK Flexibility Score: inf
ROOT
ATOM      1  C   UNL     1      37.851  34.841  16.115  1.00  0.00     0.063 A 
ATOM      2  C   UNL     1      36.940  35.798  16.453  1.00  0.00     0.017 A 
ATOM      3  C   UNL     1      36.534  36.076  17.774  1.00  0.00     0.021 A 
ATOM      4  C   UNL     1      37.089  35.336  18.776  1.00  0.00     0.043 A 
ATOM      5  Cl  UNL     1      36.601  35.659  20.436  1.00  0.00    -0.084 Cl
ATOM      6  C   UNL     1      38.014  34.356  18.486  1.00  0.00     0.046 A 
ATOM      7  C   UNL     1      38.388  34.108  17.210  1.00  0.00     0.046 A 
ENDROOT
BRANCH   1   8
ATOM      8  C   UNL     1      38.293  34.526  14.787  1.00  0.00     0.255 C 
ATOM      9  C   UNL     1      39.899  36.393  14.255  1.00  0.00     0.146 C 
ATOM     10  N   UNL     1      39.180  35.187  13.967  1.00  0.00    -0.345 N 
ATOM     11  C   UNL     1      39.429  34.580  12.614  1.00  0.00     0.146 C 
ATOM     12  O   UNL     1      37.785  33.447  14.260  1.00  0.00    -0.269 OA
ENDBRANCH   1   8
BRANCH   7  13
ATOM     13  N   UNL     1      39.339  33.096  16.941  1.00  0.00    -0.398 N 
ATOM     14  H   UNL     1      39.032  32.098  16.999  1.00  0.00     0.156 HD
ATOM     15  H   UNL     1      40.341  33.284  16.684  1.00  0.00     0.156 HD
ENDBRANCH   7  13
TORSDOF 2
BEGIN_RES LYS A 135
REMARK  4 active torsions:
REMARK  status: ('A' for Active; 'I' for Inactive)
REMARK    1  A    between atoms: CA   and  CB  
REMARK    2  A    between atoms: CB   and  CG  
REMARK    3  A    between atoms: CG   and  CD  
REMARK    4  A    between atoms: CD   and  CE  
ROOT
ATOM      1  CA  LYS A 135      33.193  34.663   9.290  1.00 25.02     0.186 C 
ENDROOT
BRANCH   1   2
ATOM      2  CB  LYS A 135      32.060  35.360  10.034  1.00 26.63     0.034 C 
BRANCH   2   3
ATOM      3  CG  LYS A 135      30.804  35.510   9.215  1.00 29.45     0.005 C 
BRANCH   3   4
ATOM      4  CD  LYS A 135      30.257  34.148   8.817  1.00 32.00     0.041 C 
BRANCH   4   5
ATOM      5  CE  LYS A 135      28.803  34.017   9.229  1.00 34.25     0.338 C 
ATOM      6  NZ  LYS A 135      27.905  34.694   8.252  1.00 35.99     0.618 N 
ENDBRANCH   4   5
ENDBRANCH   3   4
ENDBRANCH   2   3
ENDBRANCH   1   2
END_RES LYS A 135
BEGIN_RES ARG A 124
REMARK  4 active torsions:
REMARK  status: ('A' for Active; 'I' for Inactive)
REMARK    5  A    between atoms: CA   and  CB  
REMARK    6  A    between atoms: CB   and  CG  
REMARK    7  A    between atoms: CG   and  CD  
REMARK    8  A    between atoms: CD   and  NE  
REMARK       I    between atoms: NE   and  CZ  
ROOT
ATOM      7  CA  ARG A 124      31.045  26.515   9.594  1.00 17.84     0.186 C 
ENDROOT
BRANCH   7   8
ATOM      8  CB  ARG A 124      29.529  26.705   9.647  1.00 16.18     0.036 C 
BRANCH   8   9
ATOM      9  CG  ARG A 124      28.962  27.266  11.000  1.00 16.22     0.029 C 
BRANCH   9  10
ATOM     10  CD  ARG A 124      28.373  26.161  11.907  1.00 15.09     0.145 C 
BRANCH  10  11
ATOM     11  NE  ARG A 124      27.887  26.656  13.214  1.00 16.98    -0.083 NA
ATOM     12  CZ  ARG A 124      26.679  27.164  13.433  1.00 18.21     0.782 C 
ATOM     13  NH1 ARG A 124      25.782  27.254  12.458  1.00 21.11     0.063 N 
ATOM     14  NH2 ARG A 124      26.342  27.568  14.648  1.00 21.25     0.063 N 
ENDBRANCH  10  11
ENDBRANCH   9  10
ENDBRANCH   8   9
ENDBRANCH   7   8
END_RES ARG A 124
BEGIN_RES ASN A 133
REMARK  2 active torsions:
REMARK  status: ('A' for Active; 'I' for Inactive)
REMARK    9  A    between atoms: CA   and  CB  
REMARK   10  A    between atoms: CB   and  CG  
ROOT
ATOM     15  CA  ASN A 133      31.225  30.257  11.749  1.00 18.15     0.196 C 
ENDROOT
BRANCH  15  16
ATOM     16  CB  ASN A 133      30.092  31.240  11.460  1.00 18.27     0.126 C 
BRANCH  16  17
ATOM     17  CG  ASN A 133      28.846  30.952  12.238  1.00 18.94     0.276 C 
ATOM     18  OD1 ASN A 133      28.031  30.113  11.851  1.00 18.09    -0.269 OA
ATOM     19  ND2 ASN A 133      28.682  31.656  13.358  1.00 18.93    -0.107 N 
ENDBRANCH  16  17
ENDBRANCH  15  16
END_RES ASN A 133
BEGIN_RES LYS A 131
REMARK  4 active torsions:
REMARK  status: ('A' for Active; 'I' for Inactive)
REMARK   11  A    between atoms: CA   and  CB  
REMARK   12  A    between atoms: CB   and  CG  
REMARK   13  A    between atoms: CG   and  CD  
REMARK   14  A    between atoms: CD   and  CE  
ROOT
ATOM     20  CA  LYS A 131      29.867  25.555  16.977  1.00 20.52     0.186 C 
ENDROOT
BRANCH  20  21
ATOM     21  CB  LYS A 131      28.345  25.722  17.026  1.00 20.94     0.034 C 
BRANCH  21  22
ATOM     22  CG  LYS A 131      27.599  24.448  16.660  1.00 22.96     0.005 C 
BRANCH  22  23
ATOM     23  CD  LYS A 131      27.050  23.745  17.870  1.00 24.33     0.041 C 
BRANCH  23  24
ATOM     24  CE  LYS A 131      25.647  23.229  17.567  1.00 26.91     0.338 C 
ATOM     25  NZ  LYS A 131      24.819  24.301  16.966  1.00 27.40     0.618 N 
ENDBRANCH  23  24
ENDBRANCH  22  23
ENDBRANCH  21  22
ENDBRANCH  20  21
END_RES LYS A 131
