REMARK VINA RESULT:    -3.987      7.270     12.829
REMARK INTER + INTRA:         -11.740
REMARK INTER:                  -5.257
REMARK INTRA:                  -6.483
REMARK UNBOUND:                -6.122
REMARK SMILES NCC(=O)NCC(O)Cn1ccnc1[N+](=O)[O-]
REMARK SMILES IDX 6 1 5 2 3 3 4 4 2 6 1 7 7 10 8 11 9 13 10 14 11 15 14 16
REMARK SMILES IDX 12 17 13 18 15 19 16 20 17 21
REMARK H PARENT 5 5 1 8 1 9 8 12
REMARK Flexibility Score: inf
ROOT
ATOM      1  C   UNL     1      31.441  32.844  16.153  1.00  0.00     0.151 C 
ENDROOT
BRANCH   1   2
ATOM      2  N   UNL     1      32.066  33.292  14.945  1.00  0.00    -0.352 N 
ATOM      3  C   UNL     1      32.813  34.479  14.901  1.00  0.00     0.233 C 
ATOM      4  O   UNL     1      32.983  35.228  15.923  1.00  0.00    -0.274 OA
ATOM      5  H   UNL     1      31.968  32.731  14.075  1.00  0.00     0.163 HD
BRANCH   3   6
ATOM      6  C   UNL     1      33.452  34.934  13.664  1.00  0.00     0.178 C 
BRANCH   6   7
ATOM      7  N   UNL     1      34.491  34.055  13.191  1.00  0.00    -0.322 NA
ATOM      8  H   UNL     1      34.806  34.308  12.229  1.00  0.00     0.119 HD
ATOM      9  H   UNL     1      35.346  34.080  13.784  1.00  0.00     0.119 HD
ENDBRANCH   6   7
ENDBRANCH   3   6
ENDBRANCH   1   2
BRANCH   1  10
ATOM     10  C   UNL     1      29.955  32.579  15.973  1.00  0.00     0.168 C 
BRANCH  10  11
ATOM     11  O   UNL     1      29.767  31.859  14.799  1.00  0.00    -0.388 OA
ATOM     12  H   UNL     1      29.336  32.452  14.133  1.00  0.00     0.211 HD
ENDBRANCH  10  11
BRANCH  10  13
ATOM     13  C   UNL     1      29.226  33.895  15.846  1.00  0.00     0.239 C 
BRANCH  13  14
ATOM     14  N   UNL     1      28.072  33.840  14.972  1.00  0.00    -0.227 N 
ATOM     15  C   UNL     1      26.808  33.477  15.312  1.00  0.00     0.204 A 
ATOM     16  C   UNL     1      28.043  34.169  13.669  1.00  0.00     0.434 A 
ATOM     17  C   UNL     1      25.975  33.576  14.221  1.00  0.00     0.245 A 
ATOM     18  N   UNL     1      26.768  34.006  13.227  1.00  0.00    -0.074 NA
BRANCH  16  19
ATOM     19  N   UNL     1      29.086  34.599  12.817  1.00  0.00    -0.047 N 
ATOM     20  O   UNL     1      29.060  35.768  12.328  1.00  0.00    -0.390 OA
ATOM     21  O   UNL     1      30.159  33.795  12.478  1.00  0.00    -0.390 OA
ENDBRANCH  16  19
ENDBRANCH  13  14
ENDBRANCH  10  13
ENDBRANCH   1  10
TORSDOF 8
BEGIN_RES LYS A 135
REMARK  4 active torsions:
REMARK  status: ('A' for Active; 'I' for Inactive)
REMARK    1  A    between atoms: CA   and  CB  
REMARK    2  A    between atoms: CB   and  CG  
REMARK    3  A    between atoms: CG   and  CD  
REMARK    4  A    between atoms: CD   and  CE  
ROOT
ATOM      1  CA  LYS A 135      33.193  34.663   9.290  1.00 25.02     0.186 C 
ENDROOT
BRANCH   1   2
ATOM      2  CB  LYS A 135      32.060  35.360  10.034  1.00 26.63     0.034 C 
BRANCH   2   3
ATOM      3  CG  LYS A 135      30.794  35.483   9.225  1.00 29.45     0.005 C 
BRANCH   3   4
ATOM      4  CD  LYS A 135      30.192  34.112   8.958  1.00 32.00     0.041 C 
BRANCH   4   5
ATOM      5  CE  LYS A 135      28.678  34.184   8.971  1.00 34.25     0.338 C 
ATOM      6  NZ  LYS A 135      28.167  34.964   7.810  1.00 35.99     0.618 N 
ENDBRANCH   4   5
ENDBRANCH   3   4
ENDBRANCH   2   3
ENDBRANCH   1   2
END_RES LYS A 135
BEGIN_RES ARG A 124
REMARK  4 active torsions:
REMARK  status: ('A' for Active; 'I' for Inactive)
REMARK    5  A    between atoms: CA   and  CB  
REMARK    6  A    between atoms: CB   and  CG  
REMARK    7  A    between atoms: CG   and  CD  
REMARK    8  A    between atoms: CD   and  NE  
REMARK       I    between atoms: NE   and  CZ  
ROOT
ATOM      7  CA  ARG A 124      31.045  26.515   9.594  1.00 17.84     0.186 C 
ENDROOT
BRANCH   7   8
ATOM      8  CB  ARG A 124      29.529  26.705   9.647  1.00 16.18     0.036 C 
BRANCH   8   9
ATOM      9  CG  ARG A 124      28.911  26.836  11.085  1.00 16.22     0.029 C 
BRANCH   9  10
ATOM     10  CD  ARG A 124      27.550  26.116  11.221  1.00 15.09     0.145 C 
BRANCH  10  11
ATOM     11  NE  ARG A 124      26.408  27.031  11.439  1.00 16.98    -0.083 NA
ATOM     12  CZ  ARG A 124      26.016  27.487  12.623  1.00 18.21     0.782 C 
ATOM     13  NH1 ARG A 124      26.653  27.151  13.738  1.00 21.11     0.063 N 
ATOM     14  NH2 ARG A 124      24.984  28.313  12.705  1.00 21.25     0.063 N 
ENDBRANCH  10  11
ENDBRANCH   9  10
ENDBRANCH   8   9
ENDBRANCH   7   8
END_RES ARG A 124
BEGIN_RES ASN A 133
REMARK  2 active torsions:
REMARK  status: ('A' for Active; 'I' for Inactive)
REMARK    9  A    between atoms: CA   and  CB  
REMARK   10  A    between atoms: CB   and  CG  
ROOT
ATOM     15  CA  ASN A 133      31.225  30.257  11.749  1.00 18.15     0.196 C 
ENDROOT
BRANCH  15  16
ATOM     16  CB  ASN A 133      30.092  31.240  11.460  1.00 18.27     0.126 C 
BRANCH  16  17
ATOM     17  CG  ASN A 133      28.751  30.582  11.353  1.00 18.94     0.276 C 
ATOM     18  OD1 ASN A 133      28.466  29.866  10.392  1.00 18.09    -0.269 OA
ATOM     19  ND2 ASN A 133      27.902  30.824  12.352  1.00 18.93    -0.107 N 
ENDBRANCH  16  17
ENDBRANCH  15  16
END_RES ASN A 133
BEGIN_RES LYS A 131
REMARK  4 active torsions:
REMARK  status: ('A' for Active; 'I' for Inactive)
REMARK   11  A    between atoms: CA   and  CB  
REMARK   12  A    between atoms: CB   and  CG  
REMARK   13  A    between atoms: CG   and  CD  
REMARK   14  A    between atoms: CD   and  CE  
ROOT
ATOM     20  CA  LYS A 131      29.867  25.555  16.977  1.00 20.52     0.186 C 
ENDROOT
BRANCH  20  21
ATOM     21  CB  LYS A 131      28.345  25.722  17.026  1.00 20.94     0.034 C 
BRANCH  21  22
ATOM     22  CG  LYS A 131      27.600  24.412  16.821  1.00 22.96     0.005 C 
BRANCH  22  23
ATOM     23  CD  LYS A 131      26.697  24.087  17.979  1.00 24.33     0.041 C 
BRANCH  23  24
ATOM     24  CE  LYS A 131      26.163  25.379  18.587  1.00 26.91     0.338 C 
ATOM     25  NZ  LYS A 131      25.578  25.121  19.923  1.00 27.40     0.618 N 
ENDBRANCH  23  24
ENDBRANCH  22  23
ENDBRANCH  21  22
ENDBRANCH  20  21
END_RES LYS A 131
