REMARK VINA RESULT:    -2.663      5.225      6.863
REMARK INTER + INTRA:          -7.604
REMARK INTER:                  -2.741
REMARK INTRA:                  -4.863
REMARK UNBOUND:                -4.863
REMARK SMILES Nc1ccc(Br)cc1
REMARK SMILES IDX 2 1 3 2 4 3 5 4 6 5 7 6 8 7 1 8
REMARK H PARENT 1 9 1 10
REMARK Flexibility Score: inf
ROOT
ATOM      1  C   UNL     1      30.323  27.779  20.765  1.00  0.00     0.031 A 
ATOM      2  C   UNL     1      31.347  27.181  21.470  1.00  0.00     0.026 A 
ATOM      3  C   UNL     1      32.448  27.887  21.914  1.00  0.00     0.018 A 
ATOM      4  C   UNL     1      32.570  29.239  21.667  1.00  0.00     0.018 A 
ATOM      5  Br  UNL     1      34.087  30.235  22.273  1.00  0.00    -0.051 Br
ATOM      6  C   UNL     1      31.547  29.840  20.961  1.00  0.00     0.018 A 
ATOM      7  C   UNL     1      30.446  29.130  20.517  1.00  0.00     0.026 A 
ENDROOT
BRANCH   1   8
ATOM      8  N   UNL     1      29.191  27.055  20.308  1.00  0.00    -0.399 N 
ATOM      9  H   UNL     1      28.304  27.583  20.059  1.00  0.00     0.156 HD
ATOM     10  H   UNL     1      29.150  26.029  20.192  1.00  0.00     0.156 HD
ENDBRANCH   1   8
TORSDOF 1
BEGIN_RES LYS A 135
REMARK  4 active torsions:
REMARK  status: ('A' for Active; 'I' for Inactive)
REMARK    1  A    between atoms: CA   and  CB  
REMARK    2  A    between atoms: CB   and  CG  
REMARK    3  A    between atoms: CG   and  CD  
REMARK    4  A    between atoms: CD   and  CE  
ROOT
ATOM      1  CA  LYS A 135      33.193  34.663   9.290  1.00 25.02     0.186 C 
ENDROOT
BRANCH   1   2
ATOM      2  CB  LYS A 135      32.060  35.360  10.034  1.00 26.63     0.034 C 
BRANCH   2   3
ATOM      3  CG  LYS A 135      30.723  34.685   9.865  1.00 29.45     0.005 C 
BRANCH   3   4
ATOM      4  CD  LYS A 135      30.356  34.584   8.392  1.00 32.00     0.041 C 
BRANCH   4   5
ATOM      5  CE  LYS A 135      29.505  35.767   7.972  1.00 34.25     0.338 C 
ATOM      6  NZ  LYS A 135      28.380  35.335   7.097  1.00 35.99     0.618 N 
ENDBRANCH   4   5
ENDBRANCH   3   4
ENDBRANCH   2   3
ENDBRANCH   1   2
END_RES LYS A 135
BEGIN_RES ARG A 124
REMARK  4 active torsions:
REMARK  status: ('A' for Active; 'I' for Inactive)
REMARK    5  A    between atoms: CA   and  CB  
REMARK    6  A    between atoms: CB   and  CG  
REMARK    7  A    between atoms: CG   and  CD  
REMARK    8  A    between atoms: CD   and  NE  
REMARK       I    between atoms: NE   and  CZ  
ROOT
ATOM      7  CA  ARG A 124      31.045  26.515   9.594  1.00 17.84     0.186 C 
ENDROOT
BRANCH   7   8
ATOM      8  CB  ARG A 124      29.529  26.705   9.647  1.00 16.18     0.036 C 
BRANCH   8   9
ATOM      9  CG  ARG A 124      28.755  25.726  10.600  1.00 16.22     0.029 C 
BRANCH   9  10
ATOM     10  CD  ARG A 124      28.410  26.365  11.965  1.00 15.09     0.145 C 
BRANCH  10  11
ATOM     11  NE  ARG A 124      26.976  26.692  12.126  1.00 16.98    -0.083 NA
ATOM     12  CZ  ARG A 124      26.473  27.442  13.101  1.00 18.21     0.782 C 
ATOM     13  NH1 ARG A 124      27.254  27.983  14.028  1.00 21.11     0.063 N 
ATOM     14  NH2 ARG A 124      25.172  27.682  13.145  1.00 21.25     0.063 N 
ENDBRANCH  10  11
ENDBRANCH   9  10
ENDBRANCH   8   9
ENDBRANCH   7   8
END_RES ARG A 124
BEGIN_RES ASN A 133
REMARK  2 active torsions:
REMARK  status: ('A' for Active; 'I' for Inactive)
REMARK    9  A    between atoms: CA   and  CB  
REMARK   10  A    between atoms: CB   and  CG  
ROOT
ATOM     15  CA  ASN A 133      31.225  30.257  11.749  1.00 18.15     0.196 C 
ENDROOT
BRANCH  15  16
ATOM     16  CB  ASN A 133      30.092  31.240  11.460  1.00 18.27     0.126 C 
BRANCH  16  17
ATOM     17  CG  ASN A 133      28.731  30.656  11.682  1.00 18.94     0.276 C 
ATOM     18  OD1 ASN A 133      27.999  31.067  12.584  1.00 18.09    -0.269 OA
ATOM     19  ND2 ASN A 133      28.375  29.677  10.850  1.00 18.93    -0.107 N 
ENDBRANCH  16  17
ENDBRANCH  15  16
END_RES ASN A 133
BEGIN_RES LYS A 131
REMARK  4 active torsions:
REMARK  status: ('A' for Active; 'I' for Inactive)
REMARK   11  A    between atoms: CA   and  CB  
REMARK   12  A    between atoms: CB   and  CG  
REMARK   13  A    between atoms: CG   and  CD  
REMARK   14  A    between atoms: CD   and  CE  
ROOT
ATOM     20  CA  LYS A 131      29.867  25.555  16.977  1.00 20.52     0.186 C 
ENDROOT
BRANCH  20  21
ATOM     21  CB  LYS A 131      28.345  25.722  17.026  1.00 20.94     0.034 C 
BRANCH  21  22
ATOM     22  CG  LYS A 131      27.600  24.413  16.813  1.00 22.96     0.005 C 
BRANCH  22  23
ATOM     23  CD  LYS A 131      26.429  24.270  17.745  1.00 24.33     0.041 C 
BRANCH  23  24
ATOM     24  CE  LYS A 131      26.378  25.469  18.687  1.00 26.91     0.338 C 
ATOM     25  NZ  LYS A 131      25.035  26.094  18.658  1.00 27.40     0.618 N 
ENDBRANCH  23  24
ENDBRANCH  22  23
ENDBRANCH  21  22
ENDBRANCH  20  21
END_RES LYS A 131
