REMARK VINA RESULT:    -4.813      3.328      5.053
REMARK INTER + INTRA:         -10.854
REMARK INTER:                  -4.772
REMARK INTRA:                  -6.082
REMARK UNBOUND:                -5.056
REMARK SMILES Nc1ccc(S(=O)(=O)Nc2nccs2)cc1
REMARK SMILES IDX 6 1 7 2 8 3 5 4 2 5 3 6 16 7 4 8 15 9 1 10 9 13 10 15 11 16
REMARK SMILES IDX 14 17 12 18 13 19
REMARK H PARENT 1 11 1 12 9 14
REMARK Flexibility Score: inf
ROOT
ATOM      1  S   UNL     1      29.739  31.376  19.329  1.00  0.00     0.263 S 
ATOM      2  O   UNL     1      28.870  30.182  18.983  1.00  0.00    -0.201 OA
ATOM      3  O   UNL     1      28.833  32.427  19.930  1.00  0.00    -0.201 OA
ENDROOT
BRANCH   1   4
ATOM      4  C   UNL     1      30.474  32.054  17.905  1.00  0.00     0.088 A 
ATOM      5  C   UNL     1      31.694  33.245  15.665  1.00  0.00     0.031 A 
ATOM      6  C   UNL     1      31.107  31.999  15.591  1.00  0.00     0.027 A 
ATOM      7  C   UNL     1      31.652  33.881  16.895  1.00  0.00     0.027 A 
ATOM      8  C   UNL     1      30.508  31.413  16.694  1.00  0.00     0.024 A 
ATOM      9  C   UNL     1      31.055  33.299  17.998  1.00  0.00     0.024 A 
BRANCH   5  10
ATOM     10  N   UNL     1      32.315  33.862  14.537  1.00  0.00    -0.399 N 
ATOM     11  H   UNL     1      32.191  33.429  13.601  1.00  0.00     0.156 HD
ATOM     12  H   UNL     1      32.886  34.723  14.594  1.00  0.00     0.156 HD
ENDBRANCH   5  10
ENDBRANCH   1   4
BRANCH   1  13
ATOM     13  N   UNL     1      30.901  30.947  20.516  1.00  0.00    -0.255 N 
ATOM     14  H   UNL     1      31.462  31.625  21.055  1.00  0.00     0.182 HD
BRANCH  13  15
ATOM     15  C   UNL     1      31.067  29.537  20.739  1.00  0.00     0.196 A 
ATOM     16  N   UNL     1      31.719  28.669  20.392  1.00  0.00    -0.228 NA
ATOM     17  S   UNL     1      29.926  28.664  21.976  1.00  0.00    -0.105 S 
ATOM     18  C   UNL     1      31.690  27.385  20.754  1.00  0.00     0.125 A 
ATOM     19  C   UNL     1      30.777  27.079  21.640  1.00  0.00     0.089 A 
ENDBRANCH  13  15
ENDBRANCH   1  13
TORSDOF 4
BEGIN_RES LYS A 135
REMARK  4 active torsions:
REMARK  status: ('A' for Active; 'I' for Inactive)
REMARK    1  A    between atoms: CA   and  CB  
REMARK    2  A    between atoms: CB   and  CG  
REMARK    3  A    between atoms: CG   and  CD  
REMARK    4  A    between atoms: CD   and  CE  
ROOT
ATOM      1  CA  LYS A 135      33.193  34.663   9.290  1.00 25.02     0.186 C 
ENDROOT
BRANCH   1   2
ATOM      2  CB  LYS A 135      32.060  35.360  10.034  1.00 26.63     0.034 C 
BRANCH   2   3
ATOM      3  CG  LYS A 135      30.708  34.739   9.792  1.00 29.45     0.005 C 
BRANCH   3   4
ATOM      4  CD  LYS A 135      30.473  34.528   8.304  1.00 32.00     0.041 C 
BRANCH   4   5
ATOM      5  CE  LYS A 135      29.033  34.839   7.943  1.00 34.25     0.338 C 
ATOM      6  NZ  LYS A 135      28.950  35.562   6.644  1.00 35.99     0.618 N 
ENDBRANCH   4   5
ENDBRANCH   3   4
ENDBRANCH   2   3
ENDBRANCH   1   2
END_RES LYS A 135
BEGIN_RES ARG A 124
REMARK  4 active torsions:
REMARK  status: ('A' for Active; 'I' for Inactive)
REMARK    5  A    between atoms: CA   and  CB  
REMARK    6  A    between atoms: CB   and  CG  
REMARK    7  A    between atoms: CG   and  CD  
REMARK    8  A    between atoms: CD   and  NE  
REMARK       I    between atoms: NE   and  CZ  
ROOT
ATOM      7  CA  ARG A 124      31.045  26.515   9.594  1.00 17.84     0.186 C 
ENDROOT
BRANCH   7   8
ATOM      8  CB  ARG A 124      29.529  26.705   9.647  1.00 16.18     0.036 C 
BRANCH   8   9
ATOM      9  CG  ARG A 124      28.916  26.878  11.083  1.00 16.22     0.029 C 
BRANCH   9  10
ATOM     10  CD  ARG A 124      27.586  26.111  11.264  1.00 15.09     0.145 C 
BRANCH  10  11
ATOM     11  NE  ARG A 124      26.411  26.989  11.457  1.00 16.98    -0.083 NA
ATOM     12  CZ  ARG A 124      25.997  27.458  12.629  1.00 18.21     0.782 C 
ATOM     13  NH1 ARG A 124      26.642  27.171  13.753  1.00 21.11     0.063 N 
ATOM     14  NH2 ARG A 124      24.936  28.248  12.687  1.00 21.25     0.063 N 
ENDBRANCH  10  11
ENDBRANCH   9  10
ENDBRANCH   8   9
ENDBRANCH   7   8
END_RES ARG A 124
BEGIN_RES ASN A 133
REMARK  2 active torsions:
REMARK  status: ('A' for Active; 'I' for Inactive)
REMARK    9  A    between atoms: CA   and  CB  
REMARK   10  A    between atoms: CB   and  CG  
ROOT
ATOM     15  CA  ASN A 133      31.225  30.257  11.749  1.00 18.15     0.196 C 
ENDROOT
BRANCH  15  16
ATOM     16  CB  ASN A 133      30.092  31.240  11.460  1.00 18.27     0.126 C 
BRANCH  16  17
ATOM     17  CG  ASN A 133      28.733  30.619  11.549  1.00 18.94     0.276 C 
ATOM     18  OD1 ASN A 133      28.314  29.870  10.663  1.00 18.09    -0.269 OA
ATOM     19  ND2 ASN A 133      28.020  30.928  12.631  1.00 18.93    -0.107 N 
ENDBRANCH  16  17
ENDBRANCH  15  16
END_RES ASN A 133
BEGIN_RES LYS A 131
REMARK  4 active torsions:
REMARK  status: ('A' for Active; 'I' for Inactive)
REMARK   11  A    between atoms: CA   and  CB  
REMARK   12  A    between atoms: CB   and  CG  
REMARK   13  A    between atoms: CG   and  CD  
REMARK   14  A    between atoms: CD   and  CE  
ROOT
ATOM     20  CA  LYS A 131      29.867  25.555  16.977  1.00 20.52     0.186 C 
ENDROOT
BRANCH  20  21
ATOM     21  CB  LYS A 131      28.345  25.722  17.026  1.00 20.94     0.034 C 
BRANCH  21  22
ATOM     22  CG  LYS A 131      27.600  24.409  16.840  1.00 22.96     0.005 C 
BRANCH  22  23
ATOM     23  CD  LYS A 131      26.646  24.134  17.969  1.00 24.33     0.041 C 
BRANCH  23  24
ATOM     24  CE  LYS A 131      25.745  22.960  17.599  1.00 26.91     0.338 C 
ATOM     25  NZ  LYS A 131      24.442  23.447  17.089  1.00 27.40     0.618 N 
ENDBRANCH  23  24
ENDBRANCH  22  23
ENDBRANCH  21  22
ENDBRANCH  20  21
END_RES LYS A 131
