REMARK VINA RESULT:    -8.873      8.433     13.778
REMARK INTER + INTRA:          -7.892
REMARK INTER:                  -3.363
REMARK INTRA:                  -4.529
REMARK UNBOUND:                 4.353
REMARK SMILES NC1CC(O)C=C[C@@H](O)C1
REMARK SMILES IDX 8 1 10 2 2 3 1 4 3 7 7 9 6 10 4 11 5 13 9 15
REMARK H PARENT 1 5 1 6 5 14 9 16
REMARK Flexibility Score: 80.00
ROOT
ATOM      1  C   UNL     1      40.221  34.255  12.699  1.00  0.00     0.138 C 
ENDROOT
BRANCH   1   2
ATOM      2  C   UNL     1      39.099  33.280  12.703  1.00  0.00     0.054 C 
BRANCH   2   3
ATOM      3  C   UNL     1      37.800  33.812  13.198  1.00  0.00     0.056 C 
BRANCH   3   4
ATOM      4  N   UNL     1      36.664  33.052  12.711  1.00  0.00    -0.327 NA
ATOM      5  H   UNL     1      35.793  33.340  13.251  1.00  0.00     0.119 HD
ATOM      6  H   UNL     1      36.785  32.031  12.942  1.00  0.00     0.119 HD
ENDBRANCH   3   4
BRANCH   3   7
ATOM      7  C   UNL     1      37.751  34.025  14.688  1.00  0.00     0.054 CG0
ATOM      8  G   UNL     1      38.512  35.218  15.155  1.00  0.00     0.000 G0
ENDBRANCH   3   7
ENDBRANCH   2   3
ENDBRANCH   1   2
BRANCH   1   9
ATOM      9  C   UNL     1      40.705  34.621  14.057  1.00  0.00     0.002 C 
ATOM     10  C   UNL     1      39.997  35.034  15.103  1.00  0.00     0.002 C 
BRANCH  10  11
ATOM     11  C   UNL     1      38.525  35.230  15.149  1.00  0.00     0.138 CG0
ATOM     12  G   UNL     1      37.761  34.037  14.684  1.00  0.00     0.000 G0
BRANCH  11  13
ATOM     13  O   UNL     1      38.155  35.581  16.439  1.00  0.00    -0.389 OA
ATOM     14  H   UNL     1      38.136  34.781  17.038  1.00  0.00     0.211 HD
ENDBRANCH  11  13
ENDBRANCH  10  11
ENDBRANCH   1   9
BRANCH   1  15
ATOM     15  O   UNL     1      41.310  33.851  11.930  1.00  0.00    -0.389 OA
ATOM     16  H   UNL     1      42.112  33.985  12.474  1.00  0.00     0.211 HD
ENDBRANCH   1  15
TORSDOF 3
BEGIN_RES LYS A 135
REMARK  4 active torsions:
REMARK  status: ('A' for Active; 'I' for Inactive)
REMARK    1  A    between atoms: CA   and  CB  
REMARK    2  A    between atoms: CB   and  CG  
REMARK    3  A    between atoms: CG   and  CD  
REMARK    4  A    between atoms: CD   and  CE  
ROOT
ATOM      1  CA  LYS A 135      33.193  34.663   9.290  1.00 25.02     0.186 C 
ENDROOT
BRANCH   1   2
ATOM      2  CB  LYS A 135      32.060  35.360  10.034  1.00 26.63     0.034 C 
BRANCH   2   3
ATOM      3  CG  LYS A 135      30.831  35.579   9.191  1.00 29.45     0.005 C 
BRANCH   3   4
ATOM      4  CD  LYS A 135      29.992  34.312   9.125  1.00 32.00     0.041 C 
BRANCH   4   5
ATOM      5  CE  LYS A 135      28.732  34.549   8.315  1.00 34.25     0.338 C 
ATOM      6  NZ  LYS A 135      29.026  35.327   7.080  1.00 35.99     0.618 N 
ENDBRANCH   4   5
ENDBRANCH   3   4
ENDBRANCH   2   3
ENDBRANCH   1   2
END_RES LYS A 135
BEGIN_RES ARG A 124
REMARK  4 active torsions:
REMARK  status: ('A' for Active; 'I' for Inactive)
REMARK    5  A    between atoms: CA   and  CB  
REMARK    6  A    between atoms: CB   and  CG  
REMARK    7  A    between atoms: CG   and  CD  
REMARK    8  A    between atoms: CD   and  NE  
REMARK       I    between atoms: NE   and  CZ  
ROOT
ATOM      7  CA  ARG A 124      31.045  26.515   9.594  1.00 17.84     0.186 C 
ENDROOT
BRANCH   7   8
ATOM      8  CB  ARG A 124      29.529  26.705   9.647  1.00 16.18     0.036 C 
BRANCH   8   9
ATOM      9  CG  ARG A 124      28.971  27.347  10.967  1.00 16.22     0.029 C 
BRANCH   9  10
ATOM     10  CD  ARG A 124      28.409  26.297  11.954  1.00 15.09     0.145 C 
BRANCH  10  11
ATOM     11  NE  ARG A 124      28.029  26.856  13.269  1.00 16.98    -0.083 NA
ATOM     12  CZ  ARG A 124      26.848  27.395  13.554  1.00 18.21     0.782 C 
ATOM     13  NH1 ARG A 124      25.883  27.462  12.644  1.00 21.11     0.063 N 
ATOM     14  NH2 ARG A 124      26.608  27.857  14.771  1.00 21.25     0.063 N 
ENDBRANCH  10  11
ENDBRANCH   9  10
ENDBRANCH   8   9
ENDBRANCH   7   8
END_RES ARG A 124
BEGIN_RES ASN A 133
REMARK  2 active torsions:
REMARK  status: ('A' for Active; 'I' for Inactive)
REMARK    9  A    between atoms: CA   and  CB  
REMARK   10  A    between atoms: CB   and  CG  
ROOT
ATOM     15  CA  ASN A 133      31.225  30.257  11.749  1.00 18.15     0.196 C 
ENDROOT
BRANCH  15  16
ATOM     16  CB  ASN A 133      30.092  31.240  11.460  1.00 18.27     0.126 C 
BRANCH  16  17
ATOM     17  CG  ASN A 133      28.761  30.773  11.962  1.00 18.94     0.276 C 
ATOM     18  OD1 ASN A 133      28.040  30.045  11.277  1.00 18.09    -0.269 OA
ATOM     19  ND2 ASN A 133      28.416  31.193  13.178  1.00 18.93    -0.107 N 
ENDBRANCH  16  17
ENDBRANCH  15  16
END_RES ASN A 133
BEGIN_RES LYS A 131
REMARK  4 active torsions:
REMARK  status: ('A' for Active; 'I' for Inactive)
REMARK   11  A    between atoms: CA   and  CB  
REMARK   12  A    between atoms: CB   and  CG  
REMARK   13  A    between atoms: CG   and  CD  
REMARK   14  A    between atoms: CD   and  CE  
ROOT
ATOM     20  CA  LYS A 131      29.867  25.555  16.977  1.00 20.52     0.186 C 
ENDROOT
BRANCH  20  21
ATOM     21  CB  LYS A 131      28.345  25.722  17.026  1.00 20.94     0.034 C 
BRANCH  21  22
ATOM     22  CG  LYS A 131      27.600  24.409  16.843  1.00 22.96     0.005 C 
BRANCH  22  23
ATOM     23  CD  LYS A 131      26.153  24.519  17.234  1.00 24.33     0.041 C 
BRANCH  23  24
ATOM     24  CE  LYS A 131      26.051  24.963  18.689  1.00 26.91     0.338 C 
ATOM     25  NZ  LYS A 131      25.075  26.069  18.828  1.00 27.40     0.618 N 
ENDBRANCH  23  24
ENDBRANCH  22  23
ENDBRANCH  21  22
ENDBRANCH  20  21
END_RES LYS A 131
