REMARK VINA RESULT:    -4.474      8.725     16.575
REMARK INTER + INTRA:          -9.948
REMARK INTER:                  -4.425
REMARK INTRA:                  -5.523
REMARK UNBOUND:                -5.342
REMARK SMILES Nc1c2ccccc2nc2ccccc12
REMARK SMILES IDX 2 1 3 2 4 3 5 4 6 5 7 6 8 7 9 8 10 9 11 10 12 11 13 12 14 13
REMARK SMILES IDX 15 14 1 15
REMARK H PARENT 1 16 1 17
REMARK Flexibility Score: inf
ROOT
ATOM      1  C   UNL     1      37.023  19.486  21.478  1.00  0.00     0.050 A 
ATOM      2  C   UNL     1      38.147  18.706  21.300  1.00  0.00     0.024 A 
ATOM      3  C   UNL     1      39.266  19.180  20.639  1.00  0.00     0.012 A 
ATOM      4  C   UNL     1      40.353  18.346  20.497  1.00  0.00     0.001 A 
ATOM      5  C   UNL     1      40.360  17.058  20.992  1.00  0.00     0.002 A 
ATOM      6  C   UNL     1      39.221  16.631  21.641  1.00  0.00     0.029 A 
ATOM      7  C   UNL     1      38.102  17.427  21.812  1.00  0.00     0.073 A 
ATOM      8  N   UNL     1      37.010  16.954  22.459  1.00  0.00    -0.248 NA
ATOM      9  C   UNL     1      35.900  17.697  22.646  1.00  0.00     0.073 A 
ATOM     10  C   UNL     1      34.804  17.184  23.311  1.00  0.00     0.029 A 
ATOM     11  C   UNL     1      33.669  17.948  23.501  1.00  0.00     0.002 A 
ATOM     12  C   UNL     1      33.687  19.232  22.998  1.00  0.00     0.001 A 
ATOM     13  C   UNL     1      34.783  19.745  22.332  1.00  0.00     0.012 A 
ATOM     14  C   UNL     1      35.916  18.982  22.144  1.00  0.00     0.024 A 
ENDROOT
BRANCH   1  15
ATOM     15  N   UNL     1      37.027  20.812  20.964  1.00  0.00    -0.398 N 
ATOM     16  H   UNL     1      36.778  21.071  19.996  1.00  0.00     0.156 HD
ATOM     17  H   UNL     1      37.303  21.604  21.608  1.00  0.00     0.156 HD
ENDBRANCH   1  15
TORSDOF 1
BEGIN_RES LYS A 135
REMARK  4 active torsions:
REMARK  status: ('A' for Active; 'I' for Inactive)
REMARK    1  A    between atoms: CA   and  CB  
REMARK    2  A    between atoms: CB   and  CG  
REMARK    3  A    between atoms: CG   and  CD  
REMARK    4  A    between atoms: CD   and  CE  
ROOT
ATOM      1  CA  LYS A 135      33.193  34.663   9.290  1.00 25.02     0.186 C 
ENDROOT
BRANCH   1   2
ATOM      2  CB  LYS A 135      32.060  35.360  10.034  1.00 26.63     0.034 C 
BRANCH   2   3
ATOM      3  CG  LYS A 135      30.829  35.577   9.192  1.00 29.45     0.005 C 
BRANCH   3   4
ATOM      4  CD  LYS A 135      30.290  34.250   8.678  1.00 32.00     0.041 C 
BRANCH   4   5
ATOM      5  CE  LYS A 135      28.806  34.131   8.966  1.00 34.25     0.338 C 
ATOM      6  NZ  LYS A 135      28.525  34.317  10.417  1.00 35.99     0.618 N 
ENDBRANCH   4   5
ENDBRANCH   3   4
ENDBRANCH   2   3
ENDBRANCH   1   2
END_RES LYS A 135
BEGIN_RES ARG A 124
REMARK  4 active torsions:
REMARK  status: ('A' for Active; 'I' for Inactive)
REMARK    5  A    between atoms: CA   and  CB  
REMARK    6  A    between atoms: CB   and  CG  
REMARK    7  A    between atoms: CG   and  CD  
REMARK    8  A    between atoms: CD   and  NE  
REMARK       I    between atoms: NE   and  CZ  
ROOT
ATOM      7  CA  ARG A 124      31.045  26.515   9.594  1.00 17.84     0.186 C 
ENDROOT
BRANCH   7   8
ATOM      8  CB  ARG A 124      29.529  26.705   9.647  1.00 16.18     0.036 C 
BRANCH   8   9
ATOM      9  CG  ARG A 124      28.887  26.650  11.080  1.00 16.22     0.029 C 
BRANCH   9  10
ATOM     10  CD  ARG A 124      27.461  26.054  11.075  1.00 15.09     0.145 C 
BRANCH  10  11
ATOM     11  NE  ARG A 124      26.398  27.046  11.350  1.00 16.98    -0.083 NA
ATOM     12  CZ  ARG A 124      26.095  27.521  12.553  1.00 18.21     0.782 C 
ATOM     13  NH1 ARG A 124      26.759  27.134  13.636  1.00 21.11     0.063 N 
ATOM     14  NH2 ARG A 124      25.129  28.417  12.686  1.00 21.25     0.063 N 
ENDBRANCH  10  11
ENDBRANCH   9  10
ENDBRANCH   8   9
ENDBRANCH   7   8
END_RES ARG A 124
BEGIN_RES ASN A 133
REMARK  2 active torsions:
REMARK  status: ('A' for Active; 'I' for Inactive)
REMARK    9  A    between atoms: CA   and  CB  
REMARK   10  A    between atoms: CB   and  CG  
ROOT
ATOM     15  CA  ASN A 133      31.225  30.257  11.749  1.00 18.15     0.196 C 
ENDROOT
BRANCH  15  16
ATOM     16  CB  ASN A 133      30.092  31.240  11.460  1.00 18.27     0.126 C 
BRANCH  16  17
ATOM     17  CG  ASN A 133      28.735  30.609  11.508  1.00 18.94     0.276 C 
ATOM     18  OD1 ASN A 133      28.398  29.755  10.687  1.00 18.09    -0.269 OA
ATOM     19  ND2 ASN A 133      27.931  31.031  12.484  1.00 18.93    -0.107 N 
ENDBRANCH  16  17
ENDBRANCH  15  16
END_RES ASN A 133
BEGIN_RES LYS A 131
REMARK  4 active torsions:
REMARK  status: ('A' for Active; 'I' for Inactive)
REMARK   11  A    between atoms: CA   and  CB  
REMARK   12  A    between atoms: CB   and  CG  
REMARK   13  A    between atoms: CG   and  CD  
REMARK   14  A    between atoms: CD   and  CE  
ROOT
ATOM     20  CA  LYS A 131      29.867  25.555  16.977  1.00 20.52     0.186 C 
ENDROOT
BRANCH  20  21
ATOM     21  CB  LYS A 131      28.345  25.722  17.026  1.00 20.94     0.034 C 
BRANCH  21  22
ATOM     22  CG  LYS A 131      27.600  24.407  16.851  1.00 22.96     0.005 C 
BRANCH  22  23
ATOM     23  CD  LYS A 131      26.160  24.513  17.268  1.00 24.33     0.041 C 
BRANCH  23  24
ATOM     24  CE  LYS A 131      25.560  25.799  16.709  1.00 26.91     0.338 C 
ATOM     25  NZ  LYS A 131      24.140  25.593  16.342  1.00 27.40     0.618 N 
ENDBRANCH  23  24
ENDBRANCH  22  23
ENDBRANCH  21  22
ENDBRANCH  20  21
END_RES LYS A 131
