REMARK VINA RESULT:    -5.269      1.969      2.582
REMARK INTER + INTRA:         -12.600
REMARK INTER:                  -7.274
REMARK INTRA:                  -5.326
REMARK UNBOUND:                -6.408
REMARK SMILES Nc1ccc(-c2c3ccc(=O)cc-3oc3cc(O)ccc23)c(C(=O)[O-])c1
REMARK SMILES IDX 17 1 19 2 20 3 21 4 6 5 7 6 8 7 9 8 10 9 11 10 12 11 13 12
REMARK SMILES IDX 14 13 15 14 16 15 18 16 5 18 4 19 22 20 3 21 26 22 2 23
REMARK SMILES IDX 23 24 24 25 25 26 1 27
REMARK H PARENT 18 17 1 28 1 29
REMARK Flexibility Score: inf
ROOT
ATOM      1  C   UNL     1      27.511  34.274  13.061  1.00  0.00     0.119 A 
ATOM      2  C   UNL     1      28.315  34.683  12.017  1.00  0.00     0.047 A 
ATOM      3  C   UNL     1      27.773  35.162  10.851  1.00  0.00     0.016 A 
ATOM      4  C   UNL     1      26.393  35.236  10.723  1.00  0.00     0.026 A 
ATOM      5  C   UNL     1      25.819  35.718   9.548  1.00  0.00     0.004 A 
ATOM      6  C   UNL     1      24.453  35.773   9.469  1.00  0.00     0.026 A 
ATOM      7  C   UNL     1      23.829  36.241   8.333  1.00  0.00     0.016 A 
ATOM      8  C   UNL     1      22.454  36.268   8.322  1.00  0.00     0.053 A 
ATOM      9  C   UNL     1      21.727  35.847   9.399  1.00  0.00     0.182 A 
ATOM     10  O   UNL     1      20.468  35.882   9.361  1.00  0.00    -0.290 OA
ATOM     11  C   UNL     1      22.321  35.376  10.540  1.00  0.00     0.099 A 
ATOM     12  C   UNL     1      23.701  35.320  10.623  1.00  0.00     0.139 A 
ATOM     13  O   UNL     1      24.276  34.872  11.711  1.00  0.00    -0.456 OA
ATOM     14  C   UNL     1      25.600  34.827  11.770  1.00  0.00     0.139 A 
ATOM     15  C   UNL     1      26.141  34.336  12.966  1.00  0.00     0.093 A 
ENDROOT
BRANCH   1  16
ATOM     16  O   UNL     1      28.034  33.784  14.258  1.00  0.00    -0.508 OA
ATOM     17  H   UNL     1      29.010  33.518  14.242  1.00  0.00     0.293 HD
ENDBRANCH   1  16
BRANCH   5  18
ATOM     18  C   UNL     1      26.684  36.142   8.463  1.00  0.00    -0.008 A 
ATOM     19  C   UNL     1      27.178  35.232   7.559  1.00  0.00     0.011 A 
ATOM     20  C   UNL     1      27.019  37.488   8.333  1.00  0.00     0.007 A 
ATOM     21  C   UNL     1      27.996  35.626   6.532  1.00  0.00     0.026 A 
ATOM     22  C   UNL     1      27.844  37.857   7.289  1.00  0.00     0.036 A 
ATOM     23  C   UNL     1      28.349  36.933   6.369  1.00  0.00     0.032 A 
BRANCH  20  24
ATOM     24  C   UNL     1      26.513  38.471   9.271  1.00  0.00     0.072 C 
ATOM     25  O   UNL     1      25.487  39.137   9.023  1.00  0.00    -0.545 OA
ATOM     26  O   UNL     1      27.176  38.681  10.463  1.00  0.00    -0.545 OA
ENDBRANCH  20  24
BRANCH  23  27
ATOM     27  N   UNL     1      29.187  37.385   5.328  1.00  0.00    -0.399 N 
ATOM     28  H   UNL     1      30.191  37.530   5.509  1.00  0.00     0.156 HD
ATOM     29  H   UNL     1      28.800  37.570   4.392  1.00  0.00     0.156 HD
ENDBRANCH  23  27
ENDBRANCH   5  18
TORSDOF 4
BEGIN_RES LYS A 135
REMARK  4 active torsions:
REMARK  status: ('A' for Active; 'I' for Inactive)
REMARK    1  A    between atoms: CA   and  CB  
REMARK    2  A    between atoms: CB   and  CG  
REMARK    3  A    between atoms: CG   and  CD  
REMARK    4  A    between atoms: CD   and  CE  
ROOT
ATOM      1  CA  LYS A 135      33.193  34.663   9.290  1.00 25.02     0.186 C 
ENDROOT
BRANCH   1   2
ATOM      2  CB  LYS A 135      32.060  35.360  10.034  1.00 26.63     0.034 C 
BRANCH   2   3
ATOM      3  CG  LYS A 135      30.894  35.725   9.151  1.00 29.45     0.005 C 
BRANCH   3   4
ATOM      4  CD  LYS A 135      30.581  37.209   9.263  1.00 32.00     0.041 C 
BRANCH   4   5
ATOM      5  CE  LYS A 135      30.581  37.646  10.715  1.00 34.25     0.338 C 
ATOM      6  NZ  LYS A 135      30.860  39.103  10.837  1.00 35.99     0.618 N 
ENDBRANCH   4   5
ENDBRANCH   3   4
ENDBRANCH   2   3
ENDBRANCH   1   2
END_RES LYS A 135
BEGIN_RES ARG A 124
REMARK  4 active torsions:
REMARK  status: ('A' for Active; 'I' for Inactive)
REMARK    5  A    between atoms: CA   and  CB  
REMARK    6  A    between atoms: CB   and  CG  
REMARK    7  A    between atoms: CG   and  CD  
REMARK    8  A    between atoms: CD   and  NE  
REMARK       I    between atoms: NE   and  CZ  
ROOT
ATOM      7  CA  ARG A 124      31.045  26.515   9.594  1.00 17.84     0.186 C 
ENDROOT
BRANCH   7   8
ATOM      8  CB  ARG A 124      29.529  26.705   9.647  1.00 16.18     0.036 C 
BRANCH   8   9
ATOM      9  CG  ARG A 124      28.911  26.833  11.085  1.00 16.22     0.029 C 
BRANCH   9  10
ATOM     10  CD  ARG A 124      27.547  26.118  11.217  1.00 15.09     0.145 C 
BRANCH  10  11
ATOM     11  NE  ARG A 124      26.407  27.037  11.430  1.00 16.98    -0.083 NA
ATOM     12  CZ  ARG A 124      26.005  27.488  12.613  1.00 18.21     0.782 C 
ATOM     13  NH1 ARG A 124      26.630  27.143  13.732  1.00 21.11     0.063 N 
ATOM     14  NH2 ARG A 124      24.977  28.319  12.689  1.00 21.25     0.063 N 
ENDBRANCH  10  11
ENDBRANCH   9  10
ENDBRANCH   8   9
ENDBRANCH   7   8
END_RES ARG A 124
BEGIN_RES ASN A 133
REMARK  2 active torsions:
REMARK  status: ('A' for Active; 'I' for Inactive)
REMARK    9  A    between atoms: CA   and  CB  
REMARK   10  A    between atoms: CB   and  CG  
ROOT
ATOM     15  CA  ASN A 133      31.225  30.257  11.749  1.00 18.15     0.196 C 
ENDROOT
BRANCH  15  16
ATOM     16  CB  ASN A 133      30.092  31.240  11.460  1.00 18.27     0.126 C 
BRANCH  16  17
ATOM     17  CG  ASN A 133      28.744  30.591  11.410  1.00 18.94     0.276 C 
ATOM     18  OD1 ASN A 133      28.408  29.889  10.454  1.00 18.09    -0.269 OA
ATOM     19  ND2 ASN A 133      27.946  30.823  12.452  1.00 18.93    -0.107 N 
ENDBRANCH  16  17
ENDBRANCH  15  16
END_RES ASN A 133
BEGIN_RES LYS A 131
REMARK  4 active torsions:
REMARK  status: ('A' for Active; 'I' for Inactive)
REMARK   11  A    between atoms: CA   and  CB  
REMARK   12  A    between atoms: CB   and  CG  
REMARK   13  A    between atoms: CG   and  CD  
REMARK   14  A    between atoms: CD   and  CE  
ROOT
ATOM     20  CA  LYS A 131      29.867  25.555  16.977  1.00 20.52     0.186 C 
ENDROOT
BRANCH  20  21
ATOM     21  CB  LYS A 131      28.345  25.722  17.026  1.00 20.94     0.034 C 
BRANCH  21  22
ATOM     22  CG  LYS A 131      27.599  24.439  16.695  1.00 22.96     0.005 C 
BRANCH  22  23
ATOM     23  CD  LYS A 131      26.957  23.828  17.910  1.00 24.33     0.041 C 
BRANCH  23  24
ATOM     24  CE  LYS A 131      25.526  23.416  17.577  1.00 26.91     0.338 C 
ATOM     25  NZ  LYS A 131      24.814  24.522  16.893  1.00 27.40     0.618 N 
ENDBRANCH  23  24
ENDBRANCH  22  23
ENDBRANCH  21  22
ENDBRANCH  20  21
END_RES LYS A 131
