REMARK VINA RESULT:    -5.517      1.414      2.049
REMARK INTER + INTRA:         -10.728
REMARK INTER:                  -6.617
REMARK INTRA:                  -4.110
REMARK UNBOUND:                -5.049
REMARK SMILES NC1c2ccccc2-c2ccccc21
REMARK SMILES IDX 2 1 3 2 4 3 5 4 6 5 7 6 8 7 9 8 10 9 11 10 12 11 13 12 14 13
REMARK SMILES IDX 1 14
REMARK H PARENT 1 15 1 16
REMARK Flexibility Score: inf
ROOT
ATOM      1  C   UNL     1      26.928  34.254  10.157  1.00  0.00     0.113 C 
ATOM      2  C   UNL     1      26.106  35.215   9.419  1.00  0.00    -0.019 A 
ATOM      3  C   UNL     1      24.802  35.641   9.525  1.00  0.00     0.006 A 
ATOM      4  C   UNL     1      24.248  36.581   8.687  1.00  0.00     0.000 A 
ATOM      5  C   UNL     1      25.011  37.131   7.696  1.00  0.00     0.001 A 
ATOM      6  C   UNL     1      26.321  36.717   7.572  1.00  0.00     0.009 A 
ATOM      7  C   UNL     1      26.894  35.773   8.406  1.00  0.00    -0.013 A 
ATOM      8  C   UNL     1      28.215  35.166   8.504  1.00  0.00    -0.013 A 
ATOM      9  C   UNL     1      29.350  35.364   7.748  1.00  0.00     0.009 A 
ATOM     10  C   UNL     1      30.524  34.667   8.017  1.00  0.00     0.001 A 
ATOM     11  C   UNL     1      30.578  33.750   9.058  1.00  0.00     0.000 A 
ATOM     12  C   UNL     1      29.427  33.568   9.802  1.00  0.00     0.006 A 
ATOM     13  C   UNL     1      28.265  34.255   9.540  1.00  0.00    -0.019 A 
ENDROOT
BRANCH   1  14
ATOM     14  N   UNL     1      26.958  34.492  11.578  1.00  0.00    -0.320 NA
ATOM     15  H   UNL     1      27.936  34.548  11.967  1.00  0.00     0.119 HD
ATOM     16  H   UNL     1      26.460  33.762  12.131  1.00  0.00     0.119 HD
ENDBRANCH   1  14
TORSDOF 1
BEGIN_RES LYS A 135
REMARK  4 active torsions:
REMARK  status: ('A' for Active; 'I' for Inactive)
REMARK    1  A    between atoms: CA   and  CB  
REMARK    2  A    between atoms: CB   and  CG  
REMARK    3  A    between atoms: CG   and  CD  
REMARK    4  A    between atoms: CD   and  CE  
ROOT
ATOM      1  CA  LYS A 135      33.193  34.663   9.290  1.00 25.02     0.186 C 
ENDROOT
BRANCH   1   2
ATOM      2  CB  LYS A 135      32.060  35.360  10.034  1.00 26.63     0.034 C 
BRANCH   2   3
ATOM      3  CG  LYS A 135      32.511  36.088  11.274  1.00 29.45     0.005 C 
BRANCH   3   4
ATOM      4  CD  LYS A 135      31.827  37.442  11.380  1.00 32.00     0.041 C 
BRANCH   4   5
ATOM      5  CE  LYS A 135      30.525  37.443  10.603  1.00 34.25     0.338 C 
ATOM      6  NZ  LYS A 135      29.369  37.143  11.493  1.00 35.99     0.618 N 
ENDBRANCH   4   5
ENDBRANCH   3   4
ENDBRANCH   2   3
ENDBRANCH   1   2
END_RES LYS A 135
BEGIN_RES ARG A 124
REMARK  4 active torsions:
REMARK  status: ('A' for Active; 'I' for Inactive)
REMARK    5  A    between atoms: CA   and  CB  
REMARK    6  A    between atoms: CB   and  CG  
REMARK    7  A    between atoms: CG   and  CD  
REMARK    8  A    between atoms: CD   and  NE  
REMARK       I    between atoms: NE   and  CZ  
ROOT
ATOM      7  CA  ARG A 124      31.045  26.515   9.594  1.00 17.84     0.186 C 
ENDROOT
BRANCH   7   8
ATOM      8  CB  ARG A 124      29.529  26.705   9.647  1.00 16.18     0.036 C 
BRANCH   8   9
ATOM      9  CG  ARG A 124      28.891  26.675  11.082  1.00 16.22     0.029 C 
BRANCH   9  10
ATOM     10  CD  ARG A 124      27.488  26.025  11.101  1.00 15.09     0.145 C 
BRANCH  10  11
ATOM     11  NE  ARG A 124      26.389  26.981  11.356  1.00 16.98    -0.083 NA
ATOM     12  CZ  ARG A 124      26.077  27.481  12.547  1.00 18.21     0.782 C 
ATOM     13  NH1 ARG A 124      26.765  27.155  13.634  1.00 21.11     0.063 N 
ATOM     14  NH2 ARG A 124      25.078  28.342  12.661  1.00 21.25     0.063 N 
ENDBRANCH  10  11
ENDBRANCH   9  10
ENDBRANCH   8   9
ENDBRANCH   7   8
END_RES ARG A 124
BEGIN_RES ASN A 133
REMARK  2 active torsions:
REMARK  status: ('A' for Active; 'I' for Inactive)
REMARK    9  A    between atoms: CA   and  CB  
REMARK   10  A    between atoms: CB   and  CG  
ROOT
ATOM     15  CA  ASN A 133      31.225  30.257  11.749  1.00 18.15     0.196 C 
ENDROOT
BRANCH  15  16
ATOM     16  CB  ASN A 133      30.092  31.240  11.460  1.00 18.27     0.126 C 
BRANCH  16  17
ATOM     17  CG  ASN A 133      28.732  30.621  11.557  1.00 18.94     0.276 C 
ATOM     18  OD1 ASN A 133      28.357  29.774  10.744  1.00 18.09    -0.269 OA
ATOM     19  ND2 ASN A 133      27.970  31.043  12.565  1.00 18.93    -0.107 N 
ENDBRANCH  16  17
ENDBRANCH  15  16
END_RES ASN A 133
BEGIN_RES LYS A 131
REMARK  4 active torsions:
REMARK  status: ('A' for Active; 'I' for Inactive)
REMARK   11  A    between atoms: CA   and  CB  
REMARK   12  A    between atoms: CB   and  CG  
REMARK   13  A    between atoms: CG   and  CD  
REMARK   14  A    between atoms: CD   and  CE  
ROOT
ATOM     20  CA  LYS A 131      29.867  25.555  16.977  1.00 20.52     0.186 C 
ENDROOT
BRANCH  20  21
ATOM     21  CB  LYS A 131      28.345  25.722  17.026  1.00 20.94     0.034 C 
BRANCH  21  22
ATOM     22  CG  LYS A 131      27.600  24.410  16.830  1.00 22.96     0.005 C 
BRANCH  22  23
ATOM     23  CD  LYS A 131      26.193  24.474  17.357  1.00 24.33     0.041 C 
BRANCH  23  24
ATOM     24  CE  LYS A 131      26.041  25.698  18.255  1.00 26.91     0.338 C 
ATOM     25  NZ  LYS A 131      25.693  25.288  19.636  1.00 27.40     0.618 N 
ENDBRANCH  23  24
ENDBRANCH  22  23
ENDBRANCH  21  22
ENDBRANCH  20  21
END_RES LYS A 131
