REMARK VINA RESULT:    -3.660      2.086      3.691
REMARK INTER + INTRA:         -11.395
REMARK INTER:                  -6.011
REMARK INTRA:                  -5.383
REMARK UNBOUND:                -6.451
REMARK SMILES NC[C@@H](C(=O)O)C(c1ccccc1)c1ccccc1
REMARK SMILES IDX 3 1 2 2 1 3 4 6 5 7 6 8 7 10 8 11 9 12 13 13 10 14 12 15
REMARK SMILES IDX 11 16 14 17 15 18 19 19 16 20 18 21 17 22
REMARK H PARENT 1 4 1 5 6 9
REMARK Flexibility Score: inf
ROOT
ATOM      1  C   UNL     1      25.805  37.522  10.331  1.00  0.00     0.124 C 
ENDROOT
BRANCH   1   2
ATOM      2  C   UNL     1      27.278  37.774  10.590  1.00  0.00     0.094 C 
BRANCH   2   3
ATOM      3  N   UNL     1      27.638  37.681  11.960  1.00  0.00    -0.330 NA
ATOM      4  H   UNL     1      27.390  36.792  12.429  1.00  0.00     0.118 HD
ATOM      5  H   UNL     1      28.581  38.044  12.196  1.00  0.00     0.118 HD
ENDBRANCH   2   3
ENDBRANCH   1   2
BRANCH   1   6
ATOM      6  C   UNL     1      25.072  38.608  11.026  1.00  0.00     0.308 C 
ATOM      7  O   UNL     1      24.575  38.388  12.152  1.00  0.00    -0.252 OA
BRANCH   6   8
ATOM      8  O   UNL     1      24.921  39.864  10.464  1.00  0.00    -0.481 OA
ATOM      9  H   UNL     1      25.632  40.358   9.956  1.00  0.00     0.296 HD
ENDBRANCH   6   8
ENDBRANCH   1   6
BRANCH   1  10
ATOM     10  C   UNL     1      25.450  37.599   8.887  1.00  0.00     0.065 C 
BRANCH  10  11
ATOM     11  C   UNL     1      26.399  36.942   7.962  1.00  0.00    -0.040 A 
ATOM     12  C   UNL     1      26.732  35.605   8.208  1.00  0.00     0.004 A 
ATOM     13  C   UNL     1      26.915  37.651   6.910  1.00  0.00     0.004 A 
ATOM     14  C   UNL     1      27.616  34.990   7.345  1.00  0.00     0.000 A 
ATOM     15  C   UNL     1      27.800  37.012   6.060  1.00  0.00     0.000 A 
ATOM     16  C   UNL     1      28.153  35.676   6.276  1.00  0.00     0.000 A 
ENDBRANCH  10  11
BRANCH  10  17
ATOM     17  C   UNL     1      24.125  36.973   8.674  1.00  0.00    -0.040 A 
ATOM     18  C   UNL     1      23.250  37.413   7.686  1.00  0.00     0.004 A 
ATOM     19  C   UNL     1      23.689  35.917   9.438  1.00  0.00     0.004 A 
ATOM     20  C   UNL     1      22.016  36.848   7.460  1.00  0.00     0.000 A 
ATOM     21  C   UNL     1      22.436  35.333   9.219  1.00  0.00     0.000 A 
ATOM     22  C   UNL     1      21.599  35.799   8.230  1.00  0.00     0.000 A 
ENDBRANCH  10  17
ENDBRANCH   1  10
TORSDOF 7
BEGIN_RES LYS A 135
REMARK  4 active torsions:
REMARK  status: ('A' for Active; 'I' for Inactive)
REMARK    1  A    between atoms: CA   and  CB  
REMARK    2  A    between atoms: CB   and  CG  
REMARK    3  A    between atoms: CG   and  CD  
REMARK    4  A    between atoms: CD   and  CE  
ROOT
ATOM      1  CA  LYS A 135      33.193  34.663   9.290  1.00 25.02     0.186 C 
ENDROOT
BRANCH   1   2
ATOM      2  CB  LYS A 135      32.060  35.360  10.034  1.00 26.63     0.034 C 
BRANCH   2   3
ATOM      3  CG  LYS A 135      30.705  35.137   9.414  1.00 29.45     0.005 C 
BRANCH   3   4
ATOM      4  CD  LYS A 135      29.651  34.926  10.490  1.00 32.00     0.041 C 
BRANCH   4   5
ATOM      5  CE  LYS A 135      30.281  34.963  11.868  1.00 34.25     0.338 C 
ATOM      6  NZ  LYS A 135      29.319  34.511  12.911  1.00 35.99     0.618 N 
ENDBRANCH   4   5
ENDBRANCH   3   4
ENDBRANCH   2   3
ENDBRANCH   1   2
END_RES LYS A 135
BEGIN_RES ARG A 124
REMARK  4 active torsions:
REMARK  status: ('A' for Active; 'I' for Inactive)
REMARK    5  A    between atoms: CA   and  CB  
REMARK    6  A    between atoms: CB   and  CG  
REMARK    7  A    between atoms: CG   and  CD  
REMARK    8  A    between atoms: CD   and  NE  
REMARK       I    between atoms: NE   and  CZ  
ROOT
ATOM      7  CA  ARG A 124      31.045  26.515   9.594  1.00 17.84     0.186 C 
ENDROOT
BRANCH   7   8
ATOM      8  CB  ARG A 124      29.529  26.705   9.647  1.00 16.18     0.036 C 
BRANCH   8   9
ATOM      9  CG  ARG A 124      28.717  25.513  10.269  1.00 16.22     0.029 C 
BRANCH   9  10
ATOM     10  CD  ARG A 124      27.628  25.983  11.261  1.00 15.09     0.145 C 
BRANCH  10  11
ATOM     11  NE  ARG A 124      28.160  26.710  12.434  1.00 16.98    -0.083 NA
ATOM     12  CZ  ARG A 124      27.459  27.545  13.193  1.00 18.21     0.782 C 
ATOM     13  NH1 ARG A 124      26.176  27.786  12.950  1.00 21.11     0.063 N 
ATOM     14  NH2 ARG A 124      28.032  28.136  14.230  1.00 21.25     0.063 N 
ENDBRANCH  10  11
ENDBRANCH   9  10
ENDBRANCH   8   9
ENDBRANCH   7   8
END_RES ARG A 124
BEGIN_RES ASN A 133
REMARK  2 active torsions:
REMARK  status: ('A' for Active; 'I' for Inactive)
REMARK    9  A    between atoms: CA   and  CB  
REMARK   10  A    between atoms: CB   and  CG  
ROOT
ATOM     15  CA  ASN A 133      31.225  30.257  11.749  1.00 18.15     0.196 C 
ENDROOT
BRANCH  15  16
ATOM     16  CB  ASN A 133      30.092  31.240  11.460  1.00 18.27     0.126 C 
BRANCH  16  17
ATOM     17  CG  ASN A 133      28.738  30.600  11.462  1.00 18.94     0.276 C 
ATOM     18  OD1 ASN A 133      28.473  29.665  10.705  1.00 18.09    -0.269 OA
ATOM     19  ND2 ASN A 133      27.857  31.105  12.325  1.00 18.93    -0.107 N 
ENDBRANCH  16  17
ENDBRANCH  15  16
END_RES ASN A 133
BEGIN_RES LYS A 131
REMARK  4 active torsions:
REMARK  status: ('A' for Active; 'I' for Inactive)
REMARK   11  A    between atoms: CA   and  CB  
REMARK   12  A    between atoms: CB   and  CG  
REMARK   13  A    between atoms: CG   and  CD  
REMARK   14  A    between atoms: CD   and  CE  
ROOT
ATOM     20  CA  LYS A 131      29.867  25.555  16.977  1.00 20.52     0.186 C 
ENDROOT
BRANCH  20  21
ATOM     21  CB  LYS A 131      28.345  25.722  17.026  1.00 20.94     0.034 C 
BRANCH  21  22
ATOM     22  CG  LYS A 131      27.601  24.406  16.858  1.00 22.96     0.005 C 
BRANCH  22  23
ATOM     23  CD  LYS A 131      26.149  24.525  17.231  1.00 24.33     0.041 C 
BRANCH  23  24
ATOM     24  CE  LYS A 131      26.023  24.668  18.744  1.00 26.91     0.338 C 
ATOM     25  NZ  LYS A 131      25.310  25.921  19.090  1.00 27.40     0.618 N 
ENDBRANCH  23  24
ENDBRANCH  22  23
ENDBRANCH  21  22
ENDBRANCH  20  21
END_RES LYS A 131
