REMARK VINA RESULT:    -4.242      6.122      8.530
REMARK INTER + INTRA:          -8.962
REMARK INTER:                  -4.414
REMARK INTRA:                  -4.548
REMARK UNBOUND:                -4.347
REMARK SMILES NCc1ccccc1Br
REMARK SMILES IDX 2 1 1 2 3 5 4 6 8 7 5 8 7 9 9 10 6 11
REMARK H PARENT 1 3 1 4
REMARK Flexibility Score: inf
ROOT
ATOM      1  C   UNL     1      25.725  38.521   7.474  1.00  0.00     0.114 C 
ENDROOT
BRANCH   1   2
ATOM      2  N   UNL     1      24.311  38.538   7.069  1.00  0.00    -0.326 NA
ATOM      3  H   UNL     1      23.753  38.443   7.955  1.00  0.00     0.119 HD
ATOM      4  H   UNL     1      24.073  39.536   6.710  1.00  0.00     0.119 HD
ENDBRANCH   1   2
BRANCH   1   5
ATOM      5  C   UNL     1      26.214  37.167   7.746  1.00  0.00    -0.020 A 
ATOM      6  C   UNL     1      25.602  36.442   8.785  1.00  0.00     0.006 A 
ATOM      7  C   UNL     1      27.186  36.583   6.990  1.00  0.00     0.022 A 
ATOM      8  C   UNL     1      25.978  35.135   9.054  1.00  0.00     0.000 A 
ATOM      9  C   UNL     1      27.580  35.283   7.239  1.00  0.00     0.016 A 
ATOM     10  Br  UNL     1      28.043  37.585   5.610  1.00  0.00    -0.050 Br
ATOM     11  C   UNL     1      26.959  34.572   8.280  1.00  0.00     0.001 A 
ENDBRANCH   1   5
TORSDOF 2
BEGIN_RES LYS A 135
REMARK  4 active torsions:
REMARK  status: ('A' for Active; 'I' for Inactive)
REMARK    1  A    between atoms: CA   and  CB  
REMARK    2  A    between atoms: CB   and  CG  
REMARK    3  A    between atoms: CG   and  CD  
REMARK    4  A    between atoms: CD   and  CE  
ROOT
ATOM      1  CA  LYS A 135      33.193  34.663   9.290  1.00 25.02     0.186 C 
ENDROOT
BRANCH   1   2
ATOM      2  CB  LYS A 135      32.060  35.360  10.034  1.00 26.63     0.034 C 
BRANCH   2   3
ATOM      3  CG  LYS A 135      30.693  35.037   9.489  1.00 29.45     0.005 C 
BRANCH   3   4
ATOM      4  CD  LYS A 135      29.691  34.865  10.620  1.00 32.00     0.041 C 
BRANCH   4   5
ATOM      5  CE  LYS A 135      29.341  36.208  11.231  1.00 34.25     0.338 C 
ATOM      6  NZ  LYS A 135      28.911  37.177  10.186  1.00 35.99     0.618 N 
ENDBRANCH   4   5
ENDBRANCH   3   4
ENDBRANCH   2   3
ENDBRANCH   1   2
END_RES LYS A 135
BEGIN_RES ARG A 124
REMARK  4 active torsions:
REMARK  status: ('A' for Active; 'I' for Inactive)
REMARK    5  A    between atoms: CA   and  CB  
REMARK    6  A    between atoms: CB   and  CG  
REMARK    7  A    between atoms: CG   and  CD  
REMARK    8  A    between atoms: CD   and  NE  
REMARK       I    between atoms: NE   and  CZ  
ROOT
ATOM      7  CA  ARG A 124      31.045  26.515   9.594  1.00 17.84     0.186 C 
ENDROOT
BRANCH   7   8
ATOM      8  CB  ARG A 124      29.529  26.705   9.647  1.00 16.18     0.036 C 
BRANCH   8   9
ATOM      9  CG  ARG A 124      28.997  27.594  10.827  1.00 16.22     0.029 C 
BRANCH   9  10
ATOM     10  CD  ARG A 124      28.444  26.759  12.005  1.00 15.09     0.145 C 
BRANCH  10  11
ATOM     11  NE  ARG A 124      26.985  26.899  12.204  1.00 16.98    -0.083 NA
ATOM     12  CZ  ARG A 124      26.409  27.352  13.313  1.00 18.21     0.782 C 
ATOM     13  NH1 ARG A 124      27.132  27.738  14.358  1.00 21.11     0.063 N 
ATOM     14  NH2 ARG A 124      25.090  27.447  13.381  1.00 21.25     0.063 N 
ENDBRANCH  10  11
ENDBRANCH   9  10
ENDBRANCH   8   9
ENDBRANCH   7   8
END_RES ARG A 124
BEGIN_RES ASN A 133
REMARK  2 active torsions:
REMARK  status: ('A' for Active; 'I' for Inactive)
REMARK    9  A    between atoms: CA   and  CB  
REMARK   10  A    between atoms: CB   and  CG  
ROOT
ATOM     15  CA  ASN A 133      31.225  30.257  11.749  1.00 18.15     0.196 C 
ENDROOT
BRANCH  15  16
ATOM     16  CB  ASN A 133      30.092  31.240  11.460  1.00 18.27     0.126 C 
BRANCH  16  17
ATOM     17  CG  ASN A 133      29.126  31.379  12.595  1.00 18.94     0.276 C 
ATOM     18  OD1 ASN A 133      29.345  32.154  13.528  1.00 18.09    -0.269 OA
ATOM     19  ND2 ASN A 133      28.033  30.619  12.527  1.00 18.93    -0.107 N 
ENDBRANCH  16  17
ENDBRANCH  15  16
END_RES ASN A 133
BEGIN_RES LYS A 131
REMARK  4 active torsions:
REMARK  status: ('A' for Active; 'I' for Inactive)
REMARK   11  A    between atoms: CA   and  CB  
REMARK   12  A    between atoms: CB   and  CG  
REMARK   13  A    between atoms: CG   and  CD  
REMARK   14  A    between atoms: CD   and  CE  
ROOT
ATOM     20  CA  LYS A 131      29.867  25.555  16.977  1.00 20.52     0.186 C 
ENDROOT
BRANCH  20  21
ATOM     21  CB  LYS A 131      28.345  25.722  17.026  1.00 20.94     0.034 C 
BRANCH  21  22
ATOM     22  CG  LYS A 131      27.599  24.425  16.754  1.00 22.96     0.005 C 
BRANCH  22  23
ATOM     23  CD  LYS A 131      26.846  23.941  17.962  1.00 24.33     0.041 C 
BRANCH  23  24
ATOM     24  CE  LYS A 131      25.382  23.719  17.594  1.00 26.91     0.338 C 
ATOM     25  NZ  LYS A 131      25.058  22.273  17.603  1.00 27.40     0.618 N 
ENDBRANCH  23  24
ENDBRANCH  22  23
ENDBRANCH  21  22
ENDBRANCH  20  21
END_RES LYS A 131
