REMARK VINA RESULT:    -5.037      4.301      7.249
REMARK INTER + INTRA:         -10.527
REMARK INTER:                  -4.842
REMARK INTRA:                  -5.685
REMARK UNBOUND:                -5.342
REMARK SMILES Nc1c2ccccc2nc2ccccc12
REMARK SMILES IDX 2 1 3 2 4 3 5 4 6 5 7 6 8 7 9 8 10 9 11 10 12 11 13 12 14 13
REMARK SMILES IDX 15 14 1 15
REMARK H PARENT 1 16 1 17
REMARK Flexibility Score: inf
ROOT
ATOM      1  C   UNL     1      31.280  32.737  16.155  1.00  0.00     0.050 A 
ATOM      2  C   UNL     1      32.002  33.912  16.093  1.00  0.00     0.024 A 
ATOM      3  C   UNL     1      32.589  34.346  14.918  1.00  0.00     0.012 A 
ATOM      4  C   UNL     1      33.296  35.528  14.930  1.00  0.00     0.001 A 
ATOM      5  C   UNL     1      33.435  36.290  16.071  1.00  0.00     0.002 A 
ATOM      6  C   UNL     1      32.833  35.815  17.217  1.00  0.00     0.029 A 
ATOM      7  C   UNL     1      32.112  34.636  17.262  1.00  0.00     0.073 A 
ATOM      8  N   UNL     1      31.541  34.217  18.417  1.00  0.00    -0.248 NA
ATOM      9  C   UNL     1      30.831  33.074  18.503  1.00  0.00     0.073 A 
ATOM     10  C   UNL     1      30.262  32.677  19.696  1.00  0.00     0.029 A 
ATOM     11  C   UNL     1      29.535  31.506  19.780  1.00  0.00     0.002 A 
ATOM     12  C   UNL     1      29.410  30.762  18.625  1.00  0.00     0.001 A 
ATOM     13  C   UNL     1      29.980  31.158  17.431  1.00  0.00     0.012 A 
ATOM     14  C   UNL     1      30.704  32.329  17.348  1.00  0.00     0.024 A 
ENDROOT
BRANCH   1  15
ATOM     15  N   UNL     1      31.143  31.961  14.972  1.00  0.00    -0.398 N 
ATOM     16  H   UNL     1      31.331  30.947  14.906  1.00  0.00     0.156 HD
ATOM     17  H   UNL     1      30.826  32.441  14.085  1.00  0.00     0.156 HD
ENDBRANCH   1  15
TORSDOF 1
BEGIN_RES LYS A 135
REMARK  4 active torsions:
REMARK  status: ('A' for Active; 'I' for Inactive)
REMARK    1  A    between atoms: CA   and  CB  
REMARK    2  A    between atoms: CB   and  CG  
REMARK    3  A    between atoms: CG   and  CD  
REMARK    4  A    between atoms: CD   and  CE  
ROOT
ATOM      1  CA  LYS A 135      33.193  34.663   9.290  1.00 25.02     0.186 C 
ENDROOT
BRANCH   1   2
ATOM      2  CB  LYS A 135      32.060  35.360  10.034  1.00 26.63     0.034 C 
BRANCH   2   3
ATOM      3  CG  LYS A 135      30.809  35.524   9.210  1.00 29.45     0.005 C 
BRANCH   3   4
ATOM      4  CD  LYS A 135      30.255  34.168   8.801  1.00 32.00     0.041 C 
BRANCH   4   5
ATOM      5  CE  LYS A 135      28.806  34.033   9.231  1.00 34.25     0.338 C 
ATOM      6  NZ  LYS A 135      27.892  34.676   8.247  1.00 35.99     0.618 N 
ENDBRANCH   4   5
ENDBRANCH   3   4
ENDBRANCH   2   3
ENDBRANCH   1   2
END_RES LYS A 135
BEGIN_RES ARG A 124
REMARK  4 active torsions:
REMARK  status: ('A' for Active; 'I' for Inactive)
REMARK    5  A    between atoms: CA   and  CB  
REMARK    6  A    between atoms: CB   and  CG  
REMARK    7  A    between atoms: CG   and  CD  
REMARK    8  A    between atoms: CD   and  NE  
REMARK       I    between atoms: NE   and  CZ  
ROOT
ATOM      7  CA  ARG A 124      31.045  26.515   9.594  1.00 17.84     0.186 C 
ENDROOT
BRANCH   7   8
ATOM      8  CB  ARG A 124      29.529  26.705   9.647  1.00 16.18     0.036 C 
BRANCH   8   9
ATOM      9  CG  ARG A 124      28.906  26.798  11.086  1.00 16.22     0.029 C 
BRANCH   9  10
ATOM     10  CD  ARG A 124      27.547  26.071  11.199  1.00 15.09     0.145 C 
BRANCH  10  11
ATOM     11  NE  ARG A 124      26.400  26.979  11.420  1.00 16.98    -0.083 NA
ATOM     12  CZ  ARG A 124      26.019  27.448  12.603  1.00 18.21     0.782 C 
ATOM     13  NH1 ARG A 124      26.674  27.134  13.714  1.00 21.11     0.063 N 
ATOM     14  NH2 ARG A 124      24.981  28.266  12.687  1.00 21.25     0.063 N 
ENDBRANCH  10  11
ENDBRANCH   9  10
ENDBRANCH   8   9
ENDBRANCH   7   8
END_RES ARG A 124
BEGIN_RES ASN A 133
REMARK  2 active torsions:
REMARK  status: ('A' for Active; 'I' for Inactive)
REMARK    9  A    between atoms: CA   and  CB  
REMARK   10  A    between atoms: CB   and  CG  
ROOT
ATOM     15  CA  ASN A 133      31.225  30.257  11.749  1.00 18.15     0.196 C 
ENDROOT
BRANCH  15  16
ATOM     16  CB  ASN A 133      30.092  31.240  11.460  1.00 18.27     0.126 C 
BRANCH  16  17
ATOM     17  CG  ASN A 133      28.731  30.626  11.579  1.00 18.94     0.276 C 
ATOM     18  OD1 ASN A 133      28.327  29.805  10.753  1.00 18.09    -0.269 OA
ATOM     19  ND2 ASN A 133      28.001  31.025  12.620  1.00 18.93    -0.107 N 
ENDBRANCH  16  17
ENDBRANCH  15  16
END_RES ASN A 133
BEGIN_RES LYS A 131
REMARK  4 active torsions:
REMARK  status: ('A' for Active; 'I' for Inactive)
REMARK   11  A    between atoms: CA   and  CB  
REMARK   12  A    between atoms: CB   and  CG  
REMARK   13  A    between atoms: CG   and  CD  
REMARK   14  A    between atoms: CD   and  CE  
ROOT
ATOM     20  CA  LYS A 131      29.867  25.555  16.977  1.00 20.52     0.186 C 
ENDROOT
BRANCH  20  21
ATOM     21  CB  LYS A 131      28.345  25.722  17.026  1.00 20.94     0.034 C 
BRANCH  21  22
ATOM     22  CG  LYS A 131      27.600  24.408  16.844  1.00 22.96     0.005 C 
BRANCH  22  23
ATOM     23  CD  LYS A 131      26.158  24.513  17.255  1.00 24.33     0.041 C 
BRANCH  23  24
ATOM     24  CE  LYS A 131      25.806  23.352  18.179  1.00 26.91     0.338 C 
ATOM     25  NZ  LYS A 131      24.775  22.488  17.556  1.00 27.40     0.618 N 
ENDBRANCH  23  24
ENDBRANCH  22  23
ENDBRANCH  21  22
ENDBRANCH  20  21
END_RES LYS A 131
