REMARK VINA RESULT:    -4.422      6.275      8.244
REMARK INTER + INTRA:         -12.178
REMARK INTER:                  -6.970
REMARK INTRA:                  -5.208
REMARK UNBOUND:                -4.912
REMARK SMILES NCCCCCCCCCCC(=O)O
REMARK SMILES IDX 7 1 6 2 5 3 4 4 3 5 2 6 1 7 8 10 9 11 10 12 11 13 12 14
REMARK SMILES IDX 13 15 14 16
REMARK H PARENT 1 8 1 9 14 17
REMARK Flexibility Score: inf
ROOT
ATOM      1  C   UNL     1      27.528  33.759   9.804  1.00  0.00     0.000 C 
ENDROOT
BRANCH   1   2
ATOM      2  C   UNL     1      27.379  34.075  11.287  1.00  0.00     0.000 C 
BRANCH   2   3
ATOM      3  C   UNL     1      27.954  35.440  11.555  1.00  0.00     0.000 C 
BRANCH   3   4
ATOM      4  C   UNL     1      29.053  35.436  12.580  1.00  0.00     0.001 C 
BRANCH   4   5
ATOM      5  C   UNL     1      29.716  34.103  12.611  1.00  0.00     0.015 C 
BRANCH   5   6
ATOM      6  C   UNL     1      29.903  33.576  14.021  1.00  0.00     0.077 C 
BRANCH   6   7
ATOM      7  N   UNL     1      31.330  33.600  14.293  1.00  0.00    -0.330 NA
ATOM      8  H   UNL     1      31.708  32.626  14.377  1.00  0.00     0.118 HD
ATOM      9  H   UNL     1      31.506  34.075  15.204  1.00  0.00     0.118 HD
ENDBRANCH   6   7
ENDBRANCH   5   6
ENDBRANCH   4   5
ENDBRANCH   3   4
ENDBRANCH   2   3
ENDBRANCH   1   2
BRANCH   1  10
ATOM     10  C   UNL     1      26.763  34.682   8.925  1.00  0.00     0.000 C 
BRANCH  10  11
ATOM     11  C   UNL     1      27.485  34.854   7.618  1.00  0.00     0.001 C 
BRANCH  11  12
ATOM     12  C   UNL     1      27.348  36.243   7.043  1.00  0.00     0.012 C 
BRANCH  12  13
ATOM     13  C   UNL     1      28.365  36.287   5.888  1.00  0.00     0.122 C 
BRANCH  13  14
ATOM     14  C   UNL     1      28.370  37.716   5.458  1.00  0.00     0.303 C 
ATOM     15  O   UNL     1      29.130  38.497   6.086  1.00  0.00    -0.252 OA
BRANCH  14  16
ATOM     16  O   UNL     1      27.560  38.104   4.417  1.00  0.00    -0.481 OA
ATOM     17  H   UNL     1      26.665  37.633   4.260  1.00  0.00     0.296 HD
ENDBRANCH  14  16
ENDBRANCH  13  14
ENDBRANCH  12  13
ENDBRANCH  11  12
ENDBRANCH  10  11
ENDBRANCH   1  10
TORSDOF 12
BEGIN_RES LYS A 135
REMARK  4 active torsions:
REMARK  status: ('A' for Active; 'I' for Inactive)
REMARK    1  A    between atoms: CA   and  CB  
REMARK    2  A    between atoms: CB   and  CG  
REMARK    3  A    between atoms: CG   and  CD  
REMARK    4  A    between atoms: CD   and  CE  
ROOT
ATOM      1  CA  LYS A 135      33.193  34.663   9.290  1.00 25.02     0.186 C 
ENDROOT
BRANCH   1   2
ATOM      2  CB  LYS A 135      32.060  35.360  10.034  1.00 26.63     0.034 C 
BRANCH   2   3
ATOM      3  CG  LYS A 135      30.798  35.495   9.221  1.00 29.45     0.005 C 
BRANCH   3   4
ATOM      4  CD  LYS A 135      30.392  36.955   9.100  1.00 32.00     0.041 C 
BRANCH   4   5
ATOM      5  CE  LYS A 135      31.150  37.804  10.101  1.00 34.25     0.338 C 
ATOM      6  NZ  LYS A 135      31.846  38.936   9.428  1.00 35.99     0.618 N 
ENDBRANCH   4   5
ENDBRANCH   3   4
ENDBRANCH   2   3
ENDBRANCH   1   2
END_RES LYS A 135
BEGIN_RES ARG A 124
REMARK  4 active torsions:
REMARK  status: ('A' for Active; 'I' for Inactive)
REMARK    5  A    between atoms: CA   and  CB  
REMARK    6  A    between atoms: CB   and  CG  
REMARK    7  A    between atoms: CG   and  CD  
REMARK    8  A    between atoms: CD   and  NE  
REMARK       I    between atoms: NE   and  CZ  
ROOT
ATOM      7  CA  ARG A 124      31.045  26.515   9.594  1.00 17.84     0.186 C 
ENDROOT
BRANCH   7   8
ATOM      8  CB  ARG A 124      29.529  26.705   9.647  1.00 16.18     0.036 C 
BRANCH   8   9
ATOM      9  CG  ARG A 124      28.904  26.777  11.086  1.00 16.22     0.029 C 
BRANCH   9  10
ATOM     10  CD  ARG A 124      27.497  26.142  11.161  1.00 15.09     0.145 C 
BRANCH  10  11
ATOM     11  NE  ARG A 124      26.417  27.111  11.449  1.00 16.98    -0.083 NA
ATOM     12  CZ  ARG A 124      26.123  27.586  12.655  1.00 18.21     0.782 C 
ATOM     13  NH1 ARG A 124      26.813  27.218  13.728  1.00 21.11     0.063 N 
ATOM     14  NH2 ARG A 124      25.140  28.461  12.799  1.00 21.25     0.063 N 
ENDBRANCH  10  11
ENDBRANCH   9  10
ENDBRANCH   8   9
ENDBRANCH   7   8
END_RES ARG A 124
BEGIN_RES ASN A 133
REMARK  2 active torsions:
REMARK  status: ('A' for Active; 'I' for Inactive)
REMARK    9  A    between atoms: CA   and  CB  
REMARK   10  A    between atoms: CB   and  CG  
ROOT
ATOM     15  CA  ASN A 133      31.225  30.257  11.749  1.00 18.15     0.196 C 
ENDROOT
BRANCH  15  16
ATOM     16  CB  ASN A 133      30.092  31.240  11.460  1.00 18.27     0.126 C 
BRANCH  16  17
ATOM     17  CG  ASN A 133      28.737  30.603  11.478  1.00 18.94     0.276 C 
ATOM     18  OD1 ASN A 133      28.364  29.871  10.560  1.00 18.09    -0.269 OA
ATOM     19  ND2 ASN A 133      27.977  30.880  12.537  1.00 18.93    -0.107 N 
ENDBRANCH  16  17
ENDBRANCH  15  16
END_RES ASN A 133
BEGIN_RES LYS A 131
REMARK  4 active torsions:
REMARK  status: ('A' for Active; 'I' for Inactive)
REMARK   11  A    between atoms: CA   and  CB  
REMARK   12  A    between atoms: CB   and  CG  
REMARK   13  A    between atoms: CG   and  CD  
REMARK   14  A    between atoms: CD   and  CE  
ROOT
ATOM     20  CA  LYS A 131      29.867  25.555  16.977  1.00 20.52     0.186 C 
ENDROOT
BRANCH  20  21
ATOM     21  CB  LYS A 131      28.345  25.722  17.026  1.00 20.94     0.034 C 
BRANCH  21  22
ATOM     22  CG  LYS A 131      27.600  24.416  16.795  1.00 22.96     0.005 C 
BRANCH  22  23
ATOM     23  CD  LYS A 131      26.404  24.280  17.696  1.00 24.33     0.041 C 
BRANCH  23  24
ATOM     24  CE  LYS A 131      25.155  24.754  16.959  1.00 26.91     0.338 C 
ATOM     25  NZ  LYS A 131      24.114  23.698  16.970  1.00 27.40     0.618 N 
ENDBRANCH  23  24
ENDBRANCH  22  23
ENDBRANCH  21  22
ENDBRANCH  20  21
END_RES LYS A 131
