REMARK VINA RESULT:    -4.271      1.686      2.583
REMARK INTER + INTRA:          -9.691
REMARK INTER:                  -5.275
REMARK INTRA:                  -4.416
REMARK UNBOUND:                -5.295
REMARK SMILES Cc1cc(C)c(N)c(C)c1
REMARK SMILES IDX 1 1 2 2 3 3 4 4 5 5 6 6 8 7 9 8 10 9 7 10
REMARK H PARENT 7 11 7 12
REMARK Flexibility Score: inf
ROOT
ATOM      1  C   UNL     1      30.426  34.169   8.571  1.00  0.00     0.044 C 
ATOM      2  C   UNL     1      29.189  34.911   8.154  1.00  0.00    -0.050 A 
ATOM      3  C   UNL     1      29.164  35.735   7.053  1.00  0.00     0.009 A 
ATOM      4  C   UNL     1      28.036  36.422   6.656  1.00  0.00    -0.028 A 
ATOM      5  C   UNL     1      28.032  37.313   5.455  1.00  0.00     0.046 C 
ATOM      6  C   UNL     1      26.874  36.286   7.387  1.00  0.00     0.037 A 
ATOM      7  C   UNL     1      26.871  35.465   8.496  1.00  0.00    -0.028 A 
ATOM      8  C   UNL     1      25.623  35.305   9.300  1.00  0.00     0.046 C 
ATOM      9  C   UNL     1      28.014  34.788   8.872  1.00  0.00     0.009 A 
ENDROOT
BRANCH   6  10
ATOM     10  N   UNL     1      25.695  36.981   7.004  1.00  0.00    -0.398 N 
ATOM     11  H   UNL     1      24.752  36.572   6.956  1.00  0.00     0.156 HD
ATOM     12  H   UNL     1      25.792  37.992   6.749  1.00  0.00     0.156 HD
ENDBRANCH   6  10
TORSDOF 1
BEGIN_RES LYS A 135
REMARK  4 active torsions:
REMARK  status: ('A' for Active; 'I' for Inactive)
REMARK    1  A    between atoms: CA   and  CB  
REMARK    2  A    between atoms: CB   and  CG  
REMARK    3  A    between atoms: CG   and  CD  
REMARK    4  A    between atoms: CD   and  CE  
ROOT
ATOM      1  CA  LYS A 135      33.193  34.663   9.290  1.00 25.02     0.186 C 
ENDROOT
BRANCH   1   2
ATOM      2  CB  LYS A 135      32.060  35.360  10.034  1.00 26.63     0.034 C 
BRANCH   2   3
ATOM      3  CG  LYS A 135      32.528  36.197  11.196  1.00 29.45     0.005 C 
BRANCH   3   4
ATOM      4  CD  LYS A 135      31.809  37.538  11.216  1.00 32.00     0.041 C 
BRANCH   4   5
ATOM      5  CE  LYS A 135      31.105  37.784   9.895  1.00 34.25     0.338 C 
ATOM      6  NZ  LYS A 135      29.646  38.005  10.098  1.00 35.99     0.618 N 
ENDBRANCH   4   5
ENDBRANCH   3   4
ENDBRANCH   2   3
ENDBRANCH   1   2
END_RES LYS A 135
BEGIN_RES ARG A 124
REMARK  4 active torsions:
REMARK  status: ('A' for Active; 'I' for Inactive)
REMARK    5  A    between atoms: CA   and  CB  
REMARK    6  A    between atoms: CB   and  CG  
REMARK    7  A    between atoms: CG   and  CD  
REMARK    8  A    between atoms: CD   and  NE  
REMARK       I    between atoms: NE   and  CZ  
ROOT
ATOM      7  CA  ARG A 124      31.045  26.515   9.594  1.00 17.84     0.186 C 
ENDROOT
BRANCH   7   8
ATOM      8  CB  ARG A 124      29.529  26.705   9.647  1.00 16.18     0.036 C 
BRANCH   8   9
ATOM      9  CG  ARG A 124      28.906  26.799  11.086  1.00 16.22     0.029 C 
BRANCH   9  10
ATOM     10  CD  ARG A 124      27.554  26.060  11.204  1.00 15.09     0.145 C 
BRANCH  10  11
ATOM     11  NE  ARG A 124      26.398  26.958  11.417  1.00 16.98    -0.083 NA
ATOM     12  CZ  ARG A 124      26.013  27.433  12.597  1.00 18.21     0.782 C 
ATOM     13  NH1 ARG A 124      26.672  27.134  13.710  1.00 21.11     0.063 N 
ATOM     14  NH2 ARG A 124      24.967  28.242  12.674  1.00 21.25     0.063 N 
ENDBRANCH  10  11
ENDBRANCH   9  10
ENDBRANCH   8   9
ENDBRANCH   7   8
END_RES ARG A 124
BEGIN_RES ASN A 133
REMARK  2 active torsions:
REMARK  status: ('A' for Active; 'I' for Inactive)
REMARK    9  A    between atoms: CA   and  CB  
REMARK   10  A    between atoms: CB   and  CG  
ROOT
ATOM     15  CA  ASN A 133      31.225  30.257  11.749  1.00 18.15     0.196 C 
ENDROOT
BRANCH  15  16
ATOM     16  CB  ASN A 133      30.092  31.240  11.460  1.00 18.27     0.126 C 
BRANCH  16  17
ATOM     17  CG  ASN A 133      28.732  30.624  11.571  1.00 18.94     0.276 C 
ATOM     18  OD1 ASN A 133      28.336  29.797  10.747  1.00 18.09    -0.269 OA
ATOM     19  ND2 ASN A 133      27.992  31.027  12.603  1.00 18.93    -0.107 N 
ENDBRANCH  16  17
ENDBRANCH  15  16
END_RES ASN A 133
BEGIN_RES LYS A 131
REMARK  4 active torsions:
REMARK  status: ('A' for Active; 'I' for Inactive)
REMARK   11  A    between atoms: CA   and  CB  
REMARK   12  A    between atoms: CB   and  CG  
REMARK   13  A    between atoms: CG   and  CD  
REMARK   14  A    between atoms: CD   and  CE  
ROOT
ATOM     20  CA  LYS A 131      29.867  25.555  16.977  1.00 20.52     0.186 C 
ENDROOT
BRANCH  20  21
ATOM     21  CB  LYS A 131      28.345  25.722  17.026  1.00 20.94     0.034 C 
BRANCH  21  22
ATOM     22  CG  LYS A 131      27.600  24.413  16.814  1.00 22.96     0.005 C 
BRANCH  22  23
ATOM     23  CD  LYS A 131      26.731  24.060  17.989  1.00 24.33     0.041 C 
BRANCH  23  24
ATOM     24  CE  LYS A 131      25.738  22.976  17.580  1.00 26.91     0.338 C 
ATOM     25  NZ  LYS A 131      24.454  23.582  17.155  1.00 27.40     0.618 N 
ENDBRANCH  23  24
ENDBRANCH  22  23
ENDBRANCH  21  22
ENDBRANCH  20  21
END_RES LYS A 131
