REMARK VINA RESULT:    -3.144      1.657      2.035
REMARK INTER + INTRA:          -8.402
REMARK INTER:                  -3.330
REMARK INTRA:                  -5.072
REMARK UNBOUND:                -5.166
REMARK SMILES Nc1ccc2c(c1)OCO2
REMARK SMILES IDX 2 1 3 2 4 3 5 4 6 5 7 6 8 7 9 8 10 9 1 10
REMARK H PARENT 1 11 1 12
REMARK Flexibility Score: inf
ROOT
ATOM      1  C   UNL     1      38.759  33.710  13.178  1.00  0.00     0.035 A 
ATOM      2  C   UNL     1      37.861  33.758  14.223  1.00  0.00     0.029 A 
ATOM      3  C   UNL     1      37.795  34.825  15.093  1.00  0.00     0.053 A 
ATOM      4  C   UNL     1      38.648  35.897  14.935  1.00  0.00     0.165 A 
ATOM      5  C   UNL     1      39.557  35.880  13.901  1.00  0.00     0.167 A 
ATOM      6  C   UNL     1      39.605  34.791  13.032  1.00  0.00     0.076 A 
ATOM      7  O   UNL     1      40.287  37.061  13.961  1.00  0.00    -0.454 OA
ATOM      8  C   UNL     1      40.054  37.708  15.187  1.00  0.00     0.468 C 
ATOM      9  O   UNL     1      38.850  37.097  15.605  1.00  0.00    -0.454 OA
ENDROOT
BRANCH   1  10
ATOM     10  N   UNL     1      38.833  32.613  12.276  1.00  0.00    -0.399 N 
ATOM     11  H   UNL     1      38.493  31.654  12.483  1.00  0.00     0.156 HD
ATOM     12  H   UNL     1      39.258  32.770  11.337  1.00  0.00     0.156 HD
ENDBRANCH   1  10
TORSDOF 1
BEGIN_RES LYS A 135
REMARK  4 active torsions:
REMARK  status: ('A' for Active; 'I' for Inactive)
REMARK    1  A    between atoms: CA   and  CB  
REMARK    2  A    between atoms: CB   and  CG  
REMARK    3  A    between atoms: CG   and  CD  
REMARK    4  A    between atoms: CD   and  CE  
ROOT
ATOM      1  CA  LYS A 135      33.193  34.663   9.290  1.00 25.02     0.186 C 
ENDROOT
BRANCH   1   2
ATOM      2  CB  LYS A 135      32.060  35.360  10.034  1.00 26.63     0.034 C 
BRANCH   2   3
ATOM      3  CG  LYS A 135      30.748  35.337   9.292  1.00 29.45     0.005 C 
BRANCH   3   4
ATOM      4  CD  LYS A 135      29.660  34.705  10.146  1.00 32.00     0.041 C 
BRANCH   4   5
ATOM      5  CE  LYS A 135      28.646  33.990   9.274  1.00 34.25     0.338 C 
ATOM      6  NZ  LYS A 135      28.365  34.765   8.034  1.00 35.99     0.618 N 
ENDBRANCH   4   5
ENDBRANCH   3   4
ENDBRANCH   2   3
ENDBRANCH   1   2
END_RES LYS A 135
BEGIN_RES ARG A 124
REMARK  4 active torsions:
REMARK  status: ('A' for Active; 'I' for Inactive)
REMARK    5  A    between atoms: CA   and  CB  
REMARK    6  A    between atoms: CB   and  CG  
REMARK    7  A    between atoms: CG   and  CD  
REMARK    8  A    between atoms: CD   and  NE  
REMARK       I    between atoms: NE   and  CZ  
ROOT
ATOM      7  CA  ARG A 124      31.045  26.515   9.594  1.00 17.84     0.186 C 
ENDROOT
BRANCH   7   8
ATOM      8  CB  ARG A 124      29.529  26.705   9.647  1.00 16.18     0.036 C 
BRANCH   8   9
ATOM      9  CG  ARG A 124      28.746  25.673  10.535  1.00 16.22     0.029 C 
BRANCH   9  10
ATOM     10  CD  ARG A 124      27.620  26.330  11.366  1.00 15.09     0.145 C 
BRANCH  10  11
ATOM     11  NE  ARG A 124      28.090  26.956  12.621  1.00 16.98    -0.083 NA
ATOM     12  CZ  ARG A 124      27.365  27.767  13.384  1.00 18.21     0.782 C 
ATOM     13  NH1 ARG A 124      26.113  28.075  13.068  1.00 21.11     0.063 N 
ATOM     14  NH2 ARG A 124      27.881  28.265  14.497  1.00 21.25     0.063 N 
ENDBRANCH  10  11
ENDBRANCH   9  10
ENDBRANCH   8   9
ENDBRANCH   7   8
END_RES ARG A 124
BEGIN_RES ASN A 133
REMARK  2 active torsions:
REMARK  status: ('A' for Active; 'I' for Inactive)
REMARK    9  A    between atoms: CA   and  CB  
REMARK   10  A    between atoms: CB   and  CG  
ROOT
ATOM     15  CA  ASN A 133      31.225  30.257  11.749  1.00 18.15     0.196 C 
ENDROOT
BRANCH  15  16
ATOM     16  CB  ASN A 133      30.092  31.240  11.460  1.00 18.27     0.126 C 
BRANCH  16  17
ATOM     17  CG  ASN A 133      28.742  30.593  11.425  1.00 18.94     0.276 C 
ATOM     18  OD1 ASN A 133      28.509  29.642  10.677  1.00 18.09    -0.269 OA
ATOM     19  ND2 ASN A 133      27.826  31.111  12.243  1.00 18.93    -0.107 N 
ENDBRANCH  16  17
ENDBRANCH  15  16
END_RES ASN A 133
BEGIN_RES LYS A 131
REMARK  4 active torsions:
REMARK  status: ('A' for Active; 'I' for Inactive)
REMARK   11  A    between atoms: CA   and  CB  
REMARK   12  A    between atoms: CB   and  CG  
REMARK   13  A    between atoms: CG   and  CD  
REMARK   14  A    between atoms: CD   and  CE  
ROOT
ATOM     20  CA  LYS A 131      29.867  25.555  16.977  1.00 20.52     0.186 C 
ENDROOT
BRANCH  20  21
ATOM     21  CB  LYS A 131      28.345  25.722  17.026  1.00 20.94     0.034 C 
BRANCH  21  22
ATOM     22  CG  LYS A 131      27.600  24.409  16.840  1.00 22.96     0.005 C 
BRANCH  22  23
ATOM     23  CD  LYS A 131      26.645  24.135  17.969  1.00 24.33     0.041 C 
BRANCH  23  24
ATOM     24  CE  LYS A 131      25.277  23.769  17.400  1.00 26.91     0.338 C 
ATOM     25  NZ  LYS A 131      24.652  24.946  16.752  1.00 27.40     0.618 N 
ENDBRANCH  23  24
ENDBRANCH  22  23
ENDBRANCH  21  22
ENDBRANCH  20  21
END_RES LYS A 131
