REMARK VINA RESULT:    -2.428      3.962     12.473
REMARK INTER + INTRA:          -7.979
REMARK INTER:                  -3.916
REMARK INTRA:                  -4.063
REMARK UNBOUND:                -5.479
REMARK SMILES CN1C2CCC1CC(N)C2
REMARK SMILES IDX 1 1 2 2 3 3 4 4 5 5 6 6 7 7 8 8 10 9 9 10
REMARK H PARENT 9 11 9 12
REMARK Flexibility Score: inf
ROOT
ATOM      1  C   UNL     1      27.537  37.932   9.128  1.00  0.00     0.105 C 
ATOM      2  N   UNL     1      27.880  36.881   8.320  1.00  0.00    -0.300 NA
ATOM      3  C   UNL     1      29.134  36.275   8.339  1.00  0.00     0.058 C 
ATOM      4  C   UNL     1      29.230  35.744   6.898  1.00  0.00     0.021 C 
ATOM      5  C   UNL     1      27.781  35.619   6.434  1.00  0.00     0.021 C 
ATOM      6  C   UNL     1      26.980  36.069   7.668  1.00  0.00     0.058 C 
ATOM      7  C   UNL     1      26.704  34.815   8.462  1.00  0.00     0.038 C 
ATOM      8  C   UNL     1      27.934  34.173   9.015  1.00  0.00     0.053 C 
ATOM      9  C   UNL     1      29.064  35.085   9.294  1.00  0.00     0.038 C 
ENDROOT
BRANCH   8  10
ATOM     10  N   UNL     1      27.568  33.491  10.243  1.00  0.00    -0.328 NA
ATOM     11  H   UNL     1      26.804  33.944  10.757  1.00  0.00     0.119 HD
ATOM     12  H   UNL     1      28.373  33.193  10.801  1.00  0.00     0.119 HD
ENDBRANCH   8  10
TORSDOF 1
BEGIN_RES LYS A 135
REMARK  4 active torsions:
REMARK  status: ('A' for Active; 'I' for Inactive)
REMARK    1  A    between atoms: CA   and  CB  
REMARK    2  A    between atoms: CB   and  CG  
REMARK    3  A    between atoms: CG   and  CD  
REMARK    4  A    between atoms: CD   and  CE  
ROOT
ATOM      1  CA  LYS A 135      33.193  34.663   9.290  1.00 25.02     0.186 C 
ENDROOT
BRANCH   1   2
ATOM      2  CB  LYS A 135      32.060  35.360  10.034  1.00 26.63     0.034 C 
BRANCH   2   3
ATOM      3  CG  LYS A 135      32.515  36.109  11.260  1.00 29.45     0.005 C 
BRANCH   3   4
ATOM      4  CD  LYS A 135      32.042  37.553  11.213  1.00 32.00     0.041 C 
BRANCH   4   5
ATOM      5  CE  LYS A 135      31.122  37.851  12.382  1.00 34.25     0.338 C 
ATOM      6  NZ  LYS A 135      29.737  37.375  12.109  1.00 35.99     0.618 N 
ENDBRANCH   4   5
ENDBRANCH   3   4
ENDBRANCH   2   3
ENDBRANCH   1   2
END_RES LYS A 135
BEGIN_RES ARG A 124
REMARK  4 active torsions:
REMARK  status: ('A' for Active; 'I' for Inactive)
REMARK    5  A    between atoms: CA   and  CB  
REMARK    6  A    between atoms: CB   and  CG  
REMARK    7  A    between atoms: CG   and  CD  
REMARK    8  A    between atoms: CD   and  NE  
REMARK       I    between atoms: NE   and  CZ  
ROOT
ATOM      7  CA  ARG A 124      31.045  26.515   9.594  1.00 17.84     0.186 C 
ENDROOT
BRANCH   7   8
ATOM      8  CB  ARG A 124      29.529  26.705   9.647  1.00 16.18     0.036 C 
BRANCH   8   9
ATOM      9  CG  ARG A 124      28.969  27.328  10.976  1.00 16.22     0.029 C 
BRANCH   9  10
ATOM     10  CD  ARG A 124      28.412  26.263  11.949  1.00 15.09     0.145 C 
BRANCH  10  11
ATOM     11  NE  ARG A 124      27.968  26.814  13.248  1.00 16.98    -0.083 NA
ATOM     12  CZ  ARG A 124      26.745  27.264  13.505  1.00 18.21     0.782 C 
ATOM     13  NH1 ARG A 124      25.792  27.239  12.581  1.00 21.11     0.063 N 
ATOM     14  NH2 ARG A 124      26.451  27.728  14.710  1.00 21.25     0.063 N 
ENDBRANCH  10  11
ENDBRANCH   9  10
ENDBRANCH   8   9
ENDBRANCH   7   8
END_RES ARG A 124
BEGIN_RES ASN A 133
REMARK  2 active torsions:
REMARK  status: ('A' for Active; 'I' for Inactive)
REMARK    9  A    between atoms: CA   and  CB  
REMARK   10  A    between atoms: CB   and  CG  
ROOT
ATOM     15  CA  ASN A 133      31.225  30.257  11.749  1.00 18.15     0.196 C 
ENDROOT
BRANCH  15  16
ATOM     16  CB  ASN A 133      30.092  31.240  11.460  1.00 18.27     0.126 C 
BRANCH  16  17
ATOM     17  CG  ASN A 133      28.807  30.878  12.139  1.00 18.94     0.276 C 
ATOM     18  OD1 ASN A 133      28.042  30.043  11.653  1.00 18.09    -0.269 OA
ATOM     19  ND2 ASN A 133      28.554  31.513  13.283  1.00 18.93    -0.107 N 
ENDBRANCH  16  17
ENDBRANCH  15  16
END_RES ASN A 133
BEGIN_RES LYS A 131
REMARK  4 active torsions:
REMARK  status: ('A' for Active; 'I' for Inactive)
REMARK   11  A    between atoms: CA   and  CB  
REMARK   12  A    between atoms: CB   and  CG  
REMARK   13  A    between atoms: CG   and  CD  
REMARK   14  A    between atoms: CD   and  CE  
ROOT
ATOM     20  CA  LYS A 131      29.867  25.555  16.977  1.00 20.52     0.186 C 
ENDROOT
BRANCH  20  21
ATOM     21  CB  LYS A 131      28.345  25.722  17.026  1.00 20.94     0.034 C 
BRANCH  21  22
ATOM     22  CG  LYS A 131      27.600  24.410  16.832  1.00 22.96     0.005 C 
BRANCH  22  23
ATOM     23  CD  LYS A 131      26.639  24.133  17.955  1.00 24.33     0.041 C 
BRANCH  23  24
ATOM     24  CE  LYS A 131      25.732  22.968  17.573  1.00 26.91     0.338 C 
ATOM     25  NZ  LYS A 131      24.393  23.461  17.173  1.00 27.40     0.618 N 
ENDBRANCH  23  24
ENDBRANCH  22  23
ENDBRANCH  21  22
ENDBRANCH  20  21
END_RES LYS A 131
