REMARK VINA RESULT:    -3.645      4.519      6.847
REMARK INTER + INTRA:          -9.556
REMARK INTER:                  -5.208
REMARK INTRA:                  -4.348
REMARK UNBOUND:                -5.591
REMARK SMILES COc1ccc(N)cc1
REMARK SMILES IDX 3 1 4 2 5 3 6 4 8 5 9 6 2 7 1 8 7 9
REMARK H PARENT 7 10 7 11
REMARK Flexibility Score: inf
ROOT
ATOM      1  C   UNL     1      27.954  35.276   7.699  1.00  0.00     0.119 A 
ATOM      2  C   UNL     1      29.291  35.327   7.375  1.00  0.00     0.048 A 
ATOM      3  C   UNL     1      30.190  34.646   8.168  1.00  0.00     0.029 A 
ATOM      4  C   UNL     1      29.803  33.917   9.270  1.00  0.00     0.032 A 
ATOM      5  C   UNL     1      28.445  33.899   9.552  1.00  0.00     0.029 A 
ATOM      6  C   UNL     1      27.515  34.563   8.789  1.00  0.00     0.048 A 
ENDROOT
BRANCH   1   7
ATOM      7  O   UNL     1      27.073  35.963   6.895  1.00  0.00    -0.497 OA
ATOM      8  C   UNL     1      27.541  36.767   5.842  1.00  0.00     0.278 C 
ENDBRANCH   1   7
BRANCH   4   9
ATOM      9  N   UNL     1      30.755  33.229  10.062  1.00  0.00    -0.399 N 
ATOM     10  H   UNL     1      31.682  33.646  10.272  1.00  0.00     0.156 HD
ATOM     11  H   UNL     1      30.515  32.294  10.436  1.00  0.00     0.156 HD
ENDBRANCH   4   9
TORSDOF 2
BEGIN_RES LYS A 135
REMARK  4 active torsions:
REMARK  status: ('A' for Active; 'I' for Inactive)
REMARK    1  A    between atoms: CA   and  CB  
REMARK    2  A    between atoms: CB   and  CG  
REMARK    3  A    between atoms: CG   and  CD  
REMARK    4  A    between atoms: CD   and  CE  
ROOT
ATOM      1  CA  LYS A 135      33.193  34.663   9.290  1.00 25.02     0.186 C 
ENDROOT
BRANCH   1   2
ATOM      2  CB  LYS A 135      32.060  35.360  10.034  1.00 26.63     0.034 C 
BRANCH   2   3
ATOM      3  CG  LYS A 135      32.524  36.170  11.217  1.00 29.45     0.005 C 
BRANCH   3   4
ATOM      4  CD  LYS A 135      31.777  37.492  11.288  1.00 32.00     0.041 C 
BRANCH   4   5
ATOM      5  CE  LYS A 135      30.919  37.687  10.053  1.00 34.25     0.338 C 
ATOM      6  NZ  LYS A 135      29.470  37.657  10.396  1.00 35.99     0.618 N 
ENDBRANCH   4   5
ENDBRANCH   3   4
ENDBRANCH   2   3
ENDBRANCH   1   2
END_RES LYS A 135
BEGIN_RES ARG A 124
REMARK  4 active torsions:
REMARK  status: ('A' for Active; 'I' for Inactive)
REMARK    5  A    between atoms: CA   and  CB  
REMARK    6  A    between atoms: CB   and  CG  
REMARK    7  A    between atoms: CG   and  CD  
REMARK    8  A    between atoms: CD   and  NE  
REMARK       I    between atoms: NE   and  CZ  
ROOT
ATOM      7  CA  ARG A 124      31.045  26.515   9.594  1.00 17.84     0.186 C 
ENDROOT
BRANCH   7   8
ATOM      8  CB  ARG A 124      29.529  26.705   9.647  1.00 16.18     0.036 C 
BRANCH   8   9
ATOM      9  CG  ARG A 124      28.913  26.849  11.084  1.00 16.22     0.029 C 
BRANCH   9  10
ATOM     10  CD  ARG A 124      27.544  26.144  11.224  1.00 15.09     0.145 C 
BRANCH  10  11
ATOM     11  NE  ARG A 124      26.412  27.072  11.440  1.00 16.98    -0.083 NA
ATOM     12  CZ  ARG A 124      26.025  27.534  12.624  1.00 18.21     0.782 C 
ATOM     13  NH1 ARG A 124      26.658  27.193  13.740  1.00 21.11     0.063 N 
ATOM     14  NH2 ARG A 124      25.002  28.372  12.704  1.00 21.25     0.063 N 
ENDBRANCH  10  11
ENDBRANCH   9  10
ENDBRANCH   8   9
ENDBRANCH   7   8
END_RES ARG A 124
BEGIN_RES ASN A 133
REMARK  2 active torsions:
REMARK  status: ('A' for Active; 'I' for Inactive)
REMARK    9  A    between atoms: CA   and  CB  
REMARK   10  A    between atoms: CB   and  CG  
ROOT
ATOM     15  CA  ASN A 133      31.225  30.257  11.749  1.00 18.15     0.196 C 
ENDROOT
BRANCH  15  16
ATOM     16  CB  ASN A 133      30.092  31.240  11.460  1.00 18.27     0.126 C 
BRANCH  16  17
ATOM     17  CG  ASN A 133      28.736  30.606  11.492  1.00 18.94     0.276 C 
ATOM     18  OD1 ASN A 133      28.347  29.884  10.572  1.00 18.09    -0.269 OA
ATOM     19  ND2 ASN A 133      27.992  30.874  12.565  1.00 18.93    -0.107 N 
ENDBRANCH  16  17
ENDBRANCH  15  16
END_RES ASN A 133
BEGIN_RES LYS A 131
REMARK  4 active torsions:
REMARK  status: ('A' for Active; 'I' for Inactive)
REMARK   11  A    between atoms: CA   and  CB  
REMARK   12  A    between atoms: CB   and  CG  
REMARK   13  A    between atoms: CG   and  CD  
REMARK   14  A    between atoms: CD   and  CE  
ROOT
ATOM     20  CA  LYS A 131      29.867  25.555  16.977  1.00 20.52     0.186 C 
ENDROOT
BRANCH  20  21
ATOM     21  CB  LYS A 131      28.345  25.722  17.026  1.00 20.94     0.034 C 
BRANCH  21  22
ATOM     22  CG  LYS A 131      27.602  24.397  16.951  1.00 22.96     0.005 C 
BRANCH  22  23
ATOM     23  CD  LYS A 131      26.120  24.566  17.138  1.00 24.33     0.041 C 
BRANCH  23  24
ATOM     24  CE  LYS A 131      25.495  23.222  17.496  1.00 26.91     0.338 C 
ATOM     25  NZ  LYS A 131      24.079  23.176  17.062  1.00 27.40     0.618 N 
ENDBRANCH  23  24
ENDBRANCH  22  23
ENDBRANCH  21  22
ENDBRANCH  20  21
END_RES LYS A 131
