REMARK VINA RESULT:    -3.681      5.097      7.471
REMARK INTER + INTRA:          -9.601
REMARK INTER:                  -3.409
REMARK INTRA:                  -6.192
REMARK UNBOUND:                -4.951
REMARK SMILES N[C@@H](CC(=O)O)C(=O)O
REMARK SMILES IDX 3 1 2 2 1 3 7 6 8 7 9 8 4 10 5 11 6 12
REMARK H PARENT 1 4 1 5 9 9 6 13
REMARK Flexibility Score: inf
ROOT
ATOM      1  C   UNL     1      29.692  28.690  21.551  1.00  0.00     0.153 C 
ENDROOT
BRANCH   1   2
ATOM      2  C   UNL     1      30.641  29.450  20.682  1.00  0.00     0.173 C 
BRANCH   2   3
ATOM      3  N   UNL     1      30.092  29.767  19.387  1.00  0.00    -0.318 NA
ATOM      4  H   UNL     1      30.773  30.323  18.838  1.00  0.00     0.119 HD
ATOM      5  H   UNL     1      29.217  30.354  19.588  1.00  0.00     0.119 HD
ENDBRANCH   2   3
BRANCH   2   6
ATOM      6  C   UNL     1      31.967  28.774  20.550  1.00  0.00     0.321 C 
ATOM      7  O   UNL     1      32.984  29.312  21.014  1.00  0.00    -0.251 OA
BRANCH   6   8
ATOM      8  O   UNL     1      32.015  27.537  19.898  1.00  0.00    -0.480 OA
ATOM      9  H   UNL     1      32.218  26.720  20.461  1.00  0.00     0.296 HD
ENDBRANCH   6   8
ENDBRANCH   2   6
ENDBRANCH   1   2
BRANCH   1  10
ATOM     10  C   UNL     1      28.657  27.971  20.779  1.00  0.00     0.305 C 
ATOM     11  O   UNL     1      27.469  28.324  20.849  1.00  0.00    -0.252 OA
BRANCH  10  12
ATOM     12  O   UNL     1      28.991  26.883  19.955  1.00  0.00    -0.481 OA
ATOM     13  H   UNL     1      28.819  27.032  18.957  1.00  0.00     0.296 HD
ENDBRANCH  10  12
ENDBRANCH   1  10
TORSDOF 6
BEGIN_RES LYS A 135
REMARK  4 active torsions:
REMARK  status: ('A' for Active; 'I' for Inactive)
REMARK    1  A    between atoms: CA   and  CB  
REMARK    2  A    between atoms: CB   and  CG  
REMARK    3  A    between atoms: CG   and  CD  
REMARK    4  A    between atoms: CD   and  CE  
ROOT
ATOM      1  CA  LYS A 135      33.193  34.663   9.290  1.00 25.02     0.186 C 
ENDROOT
BRANCH   1   2
ATOM      2  CB  LYS A 135      32.060  35.360  10.034  1.00 26.63     0.034 C 
BRANCH   2   3
ATOM      3  CG  LYS A 135      30.846  35.616   9.179  1.00 29.45     0.005 C 
BRANCH   3   4
ATOM      4  CD  LYS A 135      30.226  34.305   8.720  1.00 32.00     0.041 C 
BRANCH   4   5
ATOM      5  CE  LYS A 135      28.746  34.483   8.444  1.00 34.25     0.338 C 
ATOM      6  NZ  LYS A 135      27.921  33.827   9.496  1.00 35.99     0.618 N 
ENDBRANCH   4   5
ENDBRANCH   3   4
ENDBRANCH   2   3
ENDBRANCH   1   2
END_RES LYS A 135
BEGIN_RES ARG A 124
REMARK  4 active torsions:
REMARK  status: ('A' for Active; 'I' for Inactive)
REMARK    5  A    between atoms: CA   and  CB  
REMARK    6  A    between atoms: CB   and  CG  
REMARK    7  A    between atoms: CG   and  CD  
REMARK    8  A    between atoms: CD   and  NE  
REMARK       I    between atoms: NE   and  CZ  
ROOT
ATOM      7  CA  ARG A 124      31.045  26.515   9.594  1.00 17.84     0.186 C 
ENDROOT
BRANCH   7   8
ATOM      8  CB  ARG A 124      29.529  26.705   9.647  1.00 16.18     0.036 C 
BRANCH   8   9
ATOM      9  CG  ARG A 124      28.967  27.315  10.981  1.00 16.22     0.029 C 
BRANCH   9  10
ATOM     10  CD  ARG A 124      28.411  26.241  11.944  1.00 15.09     0.145 C 
BRANCH  10  11
ATOM     11  NE  ARG A 124      27.954  26.781  13.243  1.00 16.98    -0.083 NA
ATOM     12  CZ  ARG A 124      26.734  27.248  13.485  1.00 18.21     0.782 C 
ATOM     13  NH1 ARG A 124      25.797  27.250  12.544  1.00 21.11     0.063 N 
ATOM     14  NH2 ARG A 124      26.426  27.700  14.691  1.00 21.25     0.063 N 
ENDBRANCH  10  11
ENDBRANCH   9  10
ENDBRANCH   8   9
ENDBRANCH   7   8
END_RES ARG A 124
BEGIN_RES ASN A 133
REMARK  2 active torsions:
REMARK  status: ('A' for Active; 'I' for Inactive)
REMARK    9  A    between atoms: CA   and  CB  
REMARK   10  A    between atoms: CB   and  CG  
ROOT
ATOM     15  CA  ASN A 133      31.225  30.257  11.749  1.00 18.15     0.196 C 
ENDROOT
BRANCH  15  16
ATOM     16  CB  ASN A 133      30.092  31.240  11.460  1.00 18.27     0.126 C 
BRANCH  16  17
ATOM     17  CG  ASN A 133      28.833  30.928  12.208  1.00 18.94     0.276 C 
ATOM     18  OD1 ASN A 133      28.030  30.094  11.786  1.00 18.09    -0.269 OA
ATOM     19  ND2 ASN A 133      28.645  31.606  13.340  1.00 18.93    -0.107 N 
ENDBRANCH  16  17
ENDBRANCH  15  16
END_RES ASN A 133
BEGIN_RES LYS A 131
REMARK  4 active torsions:
REMARK  status: ('A' for Active; 'I' for Inactive)
REMARK   11  A    between atoms: CA   and  CB  
REMARK   12  A    between atoms: CB   and  CG  
REMARK   13  A    between atoms: CG   and  CD  
REMARK   14  A    between atoms: CD   and  CE  
ROOT
ATOM     20  CA  LYS A 131      29.867  25.555  16.977  1.00 20.52     0.186 C 
ENDROOT
BRANCH  20  21
ATOM     21  CB  LYS A 131      28.345  25.722  17.026  1.00 20.94     0.034 C 
BRANCH  21  22
ATOM     22  CG  LYS A 131      27.600  24.413  16.817  1.00 22.96     0.005 C 
BRANCH  22  23
ATOM     23  CD  LYS A 131      26.145  24.525  17.179  1.00 24.33     0.041 C 
BRANCH  23  24
ATOM     24  CE  LYS A 131      25.659  23.196  17.749  1.00 26.91     0.338 C 
ATOM     25  NZ  LYS A 131      25.535  23.279  19.224  1.00 27.40     0.618 N 
ENDBRANCH  23  24
ENDBRANCH  22  23
ENDBRANCH  21  22
ENDBRANCH  20  21
END_RES LYS A 131
