REMARK VINA RESULT:    -3.707      2.554      3.354
REMARK INTER + INTRA:         -10.043
REMARK INTER:                  -5.221
REMARK INTRA:                  -4.821
REMARK UNBOUND:                -5.686
REMARK SMILES Nc1cccc(C=CC(=O)O)c1
REMARK SMILES IDX 8 1 7 2 9 3 10 4 11 5 6 7 5 8 12 9 4 10 2 11 3 12 1 13
REMARK H PARENT 11 6 1 14 1 15
REMARK Flexibility Score: inf
ROOT
ATOM      1  C   UNL     1      27.247  35.338   7.463  1.00  0.00     0.094 C 
ATOM      2  C   UNL     1      26.432  36.137   8.120  1.00  0.00     0.015 C 
ENDROOT
BRANCH   1   3
ATOM      3  C   UNL     1      27.929  35.895   6.275  1.00  0.00     0.328 C 
ATOM      4  O   UNL     1      29.132  35.650   6.030  1.00  0.00    -0.247 OA
BRANCH   3   5
ATOM      5  O   UNL     1      27.259  36.718   5.377  1.00  0.00    -0.478 OA
ATOM      6  H   UNL     1      26.838  37.578   5.711  1.00  0.00     0.297 HD
ENDBRANCH   3   5
ENDBRANCH   1   3
BRANCH   2   7
ATOM      7  C   UNL     1      25.698  35.715   9.305  1.00  0.00    -0.023 A 
ATOM      8  C   UNL     1      26.335  35.411  10.494  1.00  0.00     0.008 A 
ATOM      9  C   UNL     1      24.317  35.619   9.232  1.00  0.00     0.033 A 
ATOM     10  C   UNL     1      25.627  35.013  11.609  1.00  0.00     0.003 A 
ATOM     11  C   UNL     1      23.594  35.226  10.328  1.00  0.00     0.032 A 
ATOM     12  C   UNL     1      24.260  34.929  11.497  1.00  0.00     0.025 A 
BRANCH  11  13
ATOM     13  N   UNL     1      22.180  35.141  10.211  1.00  0.00    -0.399 N 
ATOM     14  H   UNL     1      21.754  34.215  10.100  1.00  0.00     0.156 HD
ATOM     15  H   UNL     1      21.651  36.051  10.248  1.00  0.00     0.156 HD
ENDBRANCH  11  13
ENDBRANCH   2   7
TORSDOF 4
BEGIN_RES LYS A 135
REMARK  4 active torsions:
REMARK  status: ('A' for Active; 'I' for Inactive)
REMARK    1  A    between atoms: CA   and  CB  
REMARK    2  A    between atoms: CB   and  CG  
REMARK    3  A    between atoms: CG   and  CD  
REMARK    4  A    between atoms: CD   and  CE  
ROOT
ATOM      1  CA  LYS A 135      33.193  34.663   9.290  1.00 25.02     0.186 C 
ENDROOT
BRANCH   1   2
ATOM      2  CB  LYS A 135      32.060  35.360  10.034  1.00 26.63     0.034 C 
BRANCH   2   3
ATOM      3  CG  LYS A 135      30.740  35.304   9.310  1.00 29.45     0.005 C 
BRANCH   3   4
ATOM      4  CD  LYS A 135      29.925  36.559   9.582  1.00 32.00     0.041 C 
BRANCH   4   5
ATOM      5  CE  LYS A 135      30.422  37.713   8.733  1.00 34.25     0.338 C 
ATOM      6  NZ  LYS A 135      29.292  38.563   8.267  1.00 35.99     0.618 N 
ENDBRANCH   4   5
ENDBRANCH   3   4
ENDBRANCH   2   3
ENDBRANCH   1   2
END_RES LYS A 135
BEGIN_RES ARG A 124
REMARK  4 active torsions:
REMARK  status: ('A' for Active; 'I' for Inactive)
REMARK    5  A    between atoms: CA   and  CB  
REMARK    6  A    between atoms: CB   and  CG  
REMARK    7  A    between atoms: CG   and  CD  
REMARK    8  A    between atoms: CD   and  NE  
REMARK       I    between atoms: NE   and  CZ  
ROOT
ATOM      7  CA  ARG A 124      31.045  26.515   9.594  1.00 17.84     0.186 C 
ENDROOT
BRANCH   7   8
ATOM      8  CB  ARG A 124      29.529  26.705   9.647  1.00 16.18     0.036 C 
BRANCH   8   9
ATOM      9  CG  ARG A 124      28.911  26.837  11.085  1.00 16.22     0.029 C 
BRANCH   9  10
ATOM     10  CD  ARG A 124      27.553  26.112  11.223  1.00 15.09     0.145 C 
BRANCH  10  11
ATOM     11  NE  ARG A 124      26.407  27.024  11.434  1.00 16.98    -0.083 NA
ATOM     12  CZ  ARG A 124      26.007  27.481  12.616  1.00 18.21     0.782 C 
ATOM     13  NH1 ARG A 124      26.640  27.147  13.735  1.00 21.11     0.063 N 
ATOM     14  NH2 ARG A 124      24.973  28.304  12.691  1.00 21.25     0.063 N 
ENDBRANCH  10  11
ENDBRANCH   9  10
ENDBRANCH   8   9
ENDBRANCH   7   8
END_RES ARG A 124
BEGIN_RES ASN A 133
REMARK  2 active torsions:
REMARK  status: ('A' for Active; 'I' for Inactive)
REMARK    9  A    between atoms: CA   and  CB  
REMARK   10  A    between atoms: CB   and  CG  
ROOT
ATOM     15  CA  ASN A 133      31.225  30.257  11.749  1.00 18.15     0.196 C 
ENDROOT
BRANCH  15  16
ATOM     16  CB  ASN A 133      30.092  31.240  11.460  1.00 18.27     0.126 C 
BRANCH  16  17
ATOM     17  CG  ASN A 133      28.742  30.593  11.422  1.00 18.94     0.276 C 
ATOM     18  OD1 ASN A 133      28.405  29.875  10.479  1.00 18.09    -0.269 OA
ATOM     19  ND2 ASN A 133      27.946  30.845  12.460  1.00 18.93    -0.107 N 
ENDBRANCH  16  17
ENDBRANCH  15  16
END_RES ASN A 133
BEGIN_RES LYS A 131
REMARK  4 active torsions:
REMARK  status: ('A' for Active; 'I' for Inactive)
REMARK   11  A    between atoms: CA   and  CB  
REMARK   12  A    between atoms: CB   and  CG  
REMARK   13  A    between atoms: CG   and  CD  
REMARK   14  A    between atoms: CD   and  CE  
ROOT
ATOM     20  CA  LYS A 131      29.867  25.555  16.977  1.00 20.52     0.186 C 
ENDROOT
BRANCH  20  21
ATOM     21  CB  LYS A 131      28.345  25.722  17.026  1.00 20.94     0.034 C 
BRANCH  21  22
ATOM     22  CG  LYS A 131      27.600  24.411  16.826  1.00 22.96     0.005 C 
BRANCH  22  23
ATOM     23  CD  LYS A 131      26.422  24.282  17.751  1.00 24.33     0.041 C 
BRANCH  23  24
ATOM     24  CE  LYS A 131      25.172  24.821  17.062  1.00 26.91     0.338 C 
ATOM     25  NZ  LYS A 131      24.693  26.048  17.742  1.00 27.40     0.618 N 
ENDBRANCH  23  24
ENDBRANCH  22  23
ENDBRANCH  21  22
ENDBRANCH  20  21
END_RES LYS A 131
