REMARK VINA RESULT:    -3.162      4.783     11.954
REMARK INTER + INTRA:          -8.616
REMARK INTER:                  -4.514
REMARK INTRA:                  -4.101
REMARK UNBOUND:                -5.361
REMARK SMILES CN1C2CCC1CC(N)C2
REMARK SMILES IDX 1 1 2 2 3 3 4 4 5 5 6 6 7 7 8 8 10 9 9 10
REMARK H PARENT 9 11 9 12
REMARK Flexibility Score: inf
ROOT
ATOM      1  C   UNL     1      28.382  36.120  11.389  1.00  0.00     0.105 C 
ATOM      2  N   UNL     1      27.777  35.689  10.196  1.00  0.00    -0.300 NA
ATOM      3  C   UNL     1      27.915  34.320   9.856  1.00  0.00     0.058 C 
ATOM      4  C   UNL     1      27.125  34.266   8.540  1.00  0.00     0.021 C 
ATOM      5  C   UNL     1      27.272  35.662   7.971  1.00  0.00     0.021 C 
ATOM      6  C   UNL     1      28.152  36.384   9.004  1.00  0.00     0.058 C 
ATOM      7  C   UNL     1      29.576  36.154   8.582  1.00  0.00     0.038 C 
ATOM      8  C   UNL     1      29.755  34.678   8.255  1.00  0.00     0.053 C 
ATOM      9  C   UNL     1      29.334  33.919   9.496  1.00  0.00     0.038 C 
ENDROOT
BRANCH   8  10
ATOM     10  N   UNL     1      31.170  34.376   8.035  1.00  0.00    -0.328 NA
ATOM     11  H   UNL     1      31.692  35.293   8.149  1.00  0.00     0.119 HD
ATOM     12  H   UNL     1      31.556  33.760   8.785  1.00  0.00     0.119 HD
ENDBRANCH   8  10
TORSDOF 1
BEGIN_RES LYS A 135
REMARK  4 active torsions:
REMARK  status: ('A' for Active; 'I' for Inactive)
REMARK    1  A    between atoms: CA   and  CB  
REMARK    2  A    between atoms: CB   and  CG  
REMARK    3  A    between atoms: CG   and  CD  
REMARK    4  A    between atoms: CD   and  CE  
ROOT
ATOM      1  CA  LYS A 135      33.193  34.663   9.290  1.00 25.02     0.186 C 
ENDROOT
BRANCH   1   2
ATOM      2  CB  LYS A 135      32.060  35.360  10.034  1.00 26.63     0.034 C 
BRANCH   2   3
ATOM      3  CG  LYS A 135      32.228  35.353  11.531  1.00 29.45     0.005 C 
BRANCH   3   4
ATOM      4  CD  LYS A 135      32.252  36.773  12.076  1.00 32.00     0.041 C 
BRANCH   4   5
ATOM      5  CE  LYS A 135      31.939  37.770  10.976  1.00 34.25     0.338 C 
ATOM      6  NZ  LYS A 135      31.363  39.023  11.537  1.00 35.99     0.618 N 
ENDBRANCH   4   5
ENDBRANCH   3   4
ENDBRANCH   2   3
ENDBRANCH   1   2
END_RES LYS A 135
BEGIN_RES ARG A 124
REMARK  4 active torsions:
REMARK  status: ('A' for Active; 'I' for Inactive)
REMARK    5  A    between atoms: CA   and  CB  
REMARK    6  A    between atoms: CB   and  CG  
REMARK    7  A    between atoms: CG   and  CD  
REMARK    8  A    between atoms: CD   and  NE  
REMARK       I    between atoms: NE   and  CZ  
ROOT
ATOM      7  CA  ARG A 124      31.045  26.515   9.594  1.00 17.84     0.186 C 
ENDROOT
BRANCH   7   8
ATOM      8  CB  ARG A 124      29.529  26.705   9.647  1.00 16.18     0.036 C 
BRANCH   8   9
ATOM      9  CG  ARG A 124      28.764  25.782  10.662  1.00 16.22     0.029 C 
BRANCH   9  10
ATOM     10  CD  ARG A 124      28.589  26.436  12.052  1.00 15.09     0.145 C 
BRANCH  10  11
ATOM     11  NE  ARG A 124      27.200  26.852  12.346  1.00 16.98    -0.083 NA
ATOM     12  CZ  ARG A 124      26.840  27.643  13.351  1.00 18.21     0.782 C 
ATOM     13  NH1 ARG A 124      27.739  28.146  14.189  1.00 21.11     0.063 N 
ATOM     14  NH2 ARG A 124      25.566  27.963  13.517  1.00 21.25     0.063 N 
ENDBRANCH  10  11
ENDBRANCH   9  10
ENDBRANCH   8   9
ENDBRANCH   7   8
END_RES ARG A 124
BEGIN_RES ASN A 133
REMARK  2 active torsions:
REMARK  status: ('A' for Active; 'I' for Inactive)
REMARK    9  A    between atoms: CA   and  CB  
REMARK   10  A    between atoms: CB   and  CG  
ROOT
ATOM     15  CA  ASN A 133      31.225  30.257  11.749  1.00 18.15     0.196 C 
ENDROOT
BRANCH  15  16
ATOM     16  CB  ASN A 133      30.092  31.240  11.460  1.00 18.27     0.126 C 
BRANCH  16  17
ATOM     17  CG  ASN A 133      28.737  30.604  11.483  1.00 18.94     0.276 C 
ATOM     18  OD1 ASN A 133      28.476  29.631  10.774  1.00 18.09    -0.269 OA
ATOM     19  ND2 ASN A 133      27.848  31.156  12.310  1.00 18.93    -0.107 N 
ENDBRANCH  16  17
ENDBRANCH  15  16
END_RES ASN A 133
BEGIN_RES LYS A 131
REMARK  4 active torsions:
REMARK  status: ('A' for Active; 'I' for Inactive)
REMARK   11  A    between atoms: CA   and  CB  
REMARK   12  A    between atoms: CB   and  CG  
REMARK   13  A    between atoms: CG   and  CD  
REMARK   14  A    between atoms: CD   and  CE  
ROOT
ATOM     20  CA  LYS A 131      29.867  25.555  16.977  1.00 20.52     0.186 C 
ENDROOT
BRANCH  20  21
ATOM     21  CB  LYS A 131      28.345  25.722  17.026  1.00 20.94     0.034 C 
BRANCH  21  22
ATOM     22  CG  LYS A 131      27.601  24.400  16.908  1.00 22.96     0.005 C 
BRANCH  22  23
ATOM     23  CD  LYS A 131      26.132  24.551  17.186  1.00 24.33     0.041 C 
BRANCH  23  24
ATOM     24  CE  LYS A 131      25.611  25.813  16.507  1.00 26.91     0.338 C 
ATOM     25  NZ  LYS A 131      24.215  26.088  16.922  1.00 27.40     0.618 N 
ENDBRANCH  23  24
ENDBRANCH  22  23
ENDBRANCH  21  22
ENDBRANCH  20  21
END_RES LYS A 131
