REMARK VINA RESULT:   -10.526      7.877     11.228
REMARK INTER + INTRA:          -8.455
REMARK INTER:                  -3.486
REMARK INTRA:                  -4.968
REMARK UNBOUND:                 4.840
REMARK SMILES NC1CCc2ccccc2NC1=O
REMARK SMILES IDX 11 1 12 2 13 3 2 5 1 6 3 9 10 11 5 12 9 13 6 14 8 15 7 16
REMARK SMILES IDX 4 17
REMARK H PARENT 11 4 1 7 1 8
REMARK Flexibility Score: 90.00
ROOT
ATOM      1  N   UNL     1      37.422  34.381  14.547  1.00  0.00    -0.324 N 
ATOM      2  C   UNL     1      38.317  34.175  13.461  1.00  0.00     0.241 C 
ATOM      3  O   UNL     1      37.753  33.769  12.413  1.00  0.00    -0.273 OA
ATOM      4  H   UNL     1      36.476  33.979  14.527  1.00  0.00     0.170 HD
ENDROOT
BRANCH   2   5
ATOM      5  C   UNL     1      39.774  34.341  13.315  1.00  0.00     0.141 C 
BRANCH   5   6
ATOM      6  N   UNL     1      40.177  34.628  11.951  1.00  0.00    -0.320 NA
ATOM      7  H   UNL     1      41.069  34.121  11.749  1.00  0.00     0.119 HD
ATOM      8  H   UNL     1      40.317  35.676  11.909  1.00  0.00     0.119 HD
ENDBRANCH   5   6
BRANCH   5   9
ATOM      9  C   UNL     1      40.361  35.334  14.272  1.00  0.00     0.033 CG0
ATOM     10  G   UNL     1      40.285  34.912  15.701  1.00  0.00     0.000 G0
ENDBRANCH   5   9
ENDBRANCH   2   5
BRANCH   1  11
ATOM     11  C   UNL     1      37.752  35.142  15.724  1.00  0.00     0.044 A 
ATOM     12  C   UNL     1      38.982  35.409  16.293  1.00  0.00    -0.024 A 
ATOM     13  C   UNL     1      36.648  35.674  16.356  1.00  0.00     0.026 A 
ATOM     14  C   UNL     1      39.140  36.160  17.429  1.00  0.00     0.006 A 
ATOM     15  C   UNL     1      36.739  36.437  17.503  1.00  0.00     0.002 A 
ATOM     16  C   UNL     1      38.005  36.667  18.022  1.00  0.00     0.000 A 
BRANCH  12  17
ATOM     17  C   UNL     1      40.283  34.904  15.727  1.00  0.00     0.040 CG0
ATOM     18  G   UNL     1      40.335  35.337  14.300  1.00  0.00     0.000 G0
ENDBRANCH  12  17
ENDBRANCH   1  11
TORSDOF 1
BEGIN_RES LYS A 135
REMARK  4 active torsions:
REMARK  status: ('A' for Active; 'I' for Inactive)
REMARK    1  A    between atoms: CA   and  CB  
REMARK    2  A    between atoms: CB   and  CG  
REMARK    3  A    between atoms: CG   and  CD  
REMARK    4  A    between atoms: CD   and  CE  
ROOT
ATOM      1  CA  LYS A 135      33.193  34.663   9.290  1.00 25.02     0.186 C 
ENDROOT
BRANCH   1   2
ATOM      2  CB  LYS A 135      32.060  35.360  10.034  1.00 26.63     0.034 C 
BRANCH   2   3
ATOM      3  CG  LYS A 135      30.799  35.497   9.220  1.00 29.45     0.005 C 
BRANCH   3   4
ATOM      4  CD  LYS A 135      30.063  34.168   9.143  1.00 32.00     0.041 C 
BRANCH   4   5
ATOM      5  CE  LYS A 135      28.604  34.387   8.792  1.00 34.25     0.338 C 
ATOM      6  NZ  LYS A 135      27.710  33.669   9.743  1.00 35.99     0.618 N 
ENDBRANCH   4   5
ENDBRANCH   3   4
ENDBRANCH   2   3
ENDBRANCH   1   2
END_RES LYS A 135
BEGIN_RES ARG A 124
REMARK  4 active torsions:
REMARK  status: ('A' for Active; 'I' for Inactive)
REMARK    5  A    between atoms: CA   and  CB  
REMARK    6  A    between atoms: CB   and  CG  
REMARK    7  A    between atoms: CG   and  CD  
REMARK    8  A    between atoms: CD   and  NE  
REMARK       I    between atoms: NE   and  CZ  
ROOT
ATOM      7  CA  ARG A 124      31.045  26.515   9.594  1.00 17.84     0.186 C 
ENDROOT
BRANCH   7   8
ATOM      8  CB  ARG A 124      29.529  26.705   9.647  1.00 16.18     0.036 C 
BRANCH   8   9
ATOM      9  CG  ARG A 124      28.898  26.731  11.085  1.00 16.22     0.029 C 
BRANCH   9  10
ATOM     10  CD  ARG A 124      27.493  26.088  11.136  1.00 15.09     0.145 C 
BRANCH  10  11
ATOM     11  NE  ARG A 124      26.402  27.054  11.390  1.00 16.98    -0.083 NA
ATOM     12  CZ  ARG A 124      26.049  27.503  12.590  1.00 18.21     0.782 C 
ATOM     13  NH1 ARG A 124      26.685  27.111  13.688  1.00 21.11     0.063 N 
ATOM     14  NH2 ARG A 124      25.062  28.378  12.704  1.00 21.25     0.063 N 
ENDBRANCH  10  11
ENDBRANCH   9  10
ENDBRANCH   8   9
ENDBRANCH   7   8
END_RES ARG A 124
BEGIN_RES ASN A 133
REMARK  2 active torsions:
REMARK  status: ('A' for Active; 'I' for Inactive)
REMARK    9  A    between atoms: CA   and  CB  
REMARK   10  A    between atoms: CB   and  CG  
ROOT
ATOM     15  CA  ASN A 133      31.225  30.257  11.749  1.00 18.15     0.196 C 
ENDROOT
BRANCH  15  16
ATOM     16  CB  ASN A 133      30.092  31.240  11.460  1.00 18.27     0.126 C 
BRANCH  16  17
ATOM     17  CG  ASN A 133      28.741  30.594  11.431  1.00 18.94     0.276 C 
ATOM     18  OD1 ASN A 133      28.409  29.851  10.505  1.00 18.09    -0.269 OA
ATOM     19  ND2 ASN A 133      27.938  30.876  12.456  1.00 18.93    -0.107 N 
ENDBRANCH  16  17
ENDBRANCH  15  16
END_RES ASN A 133
BEGIN_RES LYS A 131
REMARK  4 active torsions:
REMARK  status: ('A' for Active; 'I' for Inactive)
REMARK   11  A    between atoms: CA   and  CB  
REMARK   12  A    between atoms: CB   and  CG  
REMARK   13  A    between atoms: CG   and  CD  
REMARK   14  A    between atoms: CD   and  CE  
ROOT
ATOM     20  CA  LYS A 131      29.867  25.555  16.977  1.00 20.52     0.186 C 
ENDROOT
BRANCH  20  21
ATOM     21  CB  LYS A 131      28.345  25.722  17.026  1.00 20.94     0.034 C 
BRANCH  21  22
ATOM     22  CG  LYS A 131      27.600  24.414  16.806  1.00 22.96     0.005 C 
BRANCH  22  23
ATOM     23  CD  LYS A 131      26.765  24.031  17.997  1.00 24.33     0.041 C 
BRANCH  23  24
ATOM     24  CE  LYS A 131      25.331  23.769  17.550  1.00 26.91     0.338 C 
ATOM     25  NZ  LYS A 131      25.033  22.317  17.588  1.00 27.40     0.618 N 
ENDBRANCH  23  24
ENDBRANCH  22  23
ENDBRANCH  21  22
ENDBRANCH  20  21
END_RES LYS A 131
