REMARK VINA RESULT:    -3.241      6.979     14.231
REMARK INTER + INTRA:         -10.116
REMARK INTER:                  -4.385
REMARK INTRA:                  -5.731
REMARK UNBOUND:                -5.928
REMARK SMILES NCC(O)Cn1ccnc1[N+](=O)[O-]
REMARK SMILES IDX 5 1 3 2 2 3 1 4 4 7 6 9 7 10 10 11 8 12 9 13 11 14 12 15
REMARK SMILES IDX 13 16
REMARK H PARENT 1 5 1 6 4 8
REMARK Flexibility Score: inf
ROOT
ATOM      1  C   UNL     1      24.982  18.730  15.926  1.00  0.00     0.238 C 
ENDROOT
BRANCH   1   2
ATOM      2  C   UNL     1      26.152  18.296  15.062  1.00  0.00     0.162 C 
BRANCH   2   3
ATOM      3  C   UNL     1      27.446  18.596  15.820  1.00  0.00     0.112 C 
BRANCH   3   4
ATOM      4  N   UNL     1      28.472  17.640  15.440  1.00  0.00    -0.328 NA
ATOM      5  H   UNL     1      28.635  17.646  14.393  1.00  0.00     0.118 HD
ATOM      6  H   UNL     1      29.377  17.988  15.845  1.00  0.00     0.118 HD
ENDBRANCH   3   4
ENDBRANCH   2   3
BRANCH   2   7
ATOM      7  O   UNL     1      26.094  19.049  13.891  1.00  0.00    -0.388 OA
ATOM      8  H   UNL     1      26.959  19.526  13.813  1.00  0.00     0.211 HD
ENDBRANCH   2   7
ENDBRANCH   1   2
BRANCH   1   9
ATOM      9  N   UNL     1      24.182  17.613  16.367  1.00  0.00    -0.227 N 
ATOM     10  C   UNL     1      23.071  17.193  15.733  1.00  0.00     0.204 A 
ATOM     11  C   UNL     1      24.421  16.860  17.436  1.00  0.00     0.434 A 
ATOM     12  C   UNL     1      22.597  16.120  16.448  1.00  0.00     0.245 A 
ATOM     13  N   UNL     1      23.441  15.945  17.478  1.00  0.00    -0.074 NA
BRANCH  11  14
ATOM     14  N   UNL     1      25.471  16.932  18.397  1.00  0.00    -0.047 N 
ATOM     15  O   UNL     1      26.515  16.250  18.281  1.00  0.00    -0.390 OA
ATOM     16  O   UNL     1      25.398  17.749  19.497  1.00  0.00    -0.390 OA
ENDBRANCH  11  14
ENDBRANCH   1   9
TORSDOF 6
BEGIN_RES LYS A 135
REMARK  4 active torsions:
REMARK  status: ('A' for Active; 'I' for Inactive)
REMARK    1  A    between atoms: CA   and  CB  
REMARK    2  A    between atoms: CB   and  CG  
REMARK    3  A    between atoms: CG   and  CD  
REMARK    4  A    between atoms: CD   and  CE  
ROOT
ATOM      1  CA  LYS A 135      33.193  34.663   9.290  1.00 25.02     0.186 C 
ENDROOT
BRANCH   1   2
ATOM      2  CB  LYS A 135      32.060  35.360  10.034  1.00 26.63     0.034 C 
BRANCH   2   3
ATOM      3  CG  LYS A 135      30.708  34.743   9.786  1.00 29.45     0.005 C 
BRANCH   3   4
ATOM      4  CD  LYS A 135      30.167  35.163   8.428  1.00 32.00     0.041 C 
BRANCH   4   5
ATOM      5  CE  LYS A 135      28.790  34.570   8.197  1.00 34.25     0.338 C 
ATOM      6  NZ  LYS A 135      28.289  33.885   9.420  1.00 35.99     0.618 N 
ENDBRANCH   4   5
ENDBRANCH   3   4
ENDBRANCH   2   3
ENDBRANCH   1   2
END_RES LYS A 135
BEGIN_RES ARG A 124
REMARK  4 active torsions:
REMARK  status: ('A' for Active; 'I' for Inactive)
REMARK    5  A    between atoms: CA   and  CB  
REMARK    6  A    between atoms: CB   and  CG  
REMARK    7  A    between atoms: CG   and  CD  
REMARK    8  A    between atoms: CD   and  NE  
REMARK       I    between atoms: NE   and  CZ  
ROOT
ATOM      7  CA  ARG A 124      31.045  26.515   9.594  1.00 17.84     0.186 C 
ENDROOT
BRANCH   7   8
ATOM      8  CB  ARG A 124      29.529  26.705   9.647  1.00 16.18     0.036 C 
BRANCH   8   9
ATOM      9  CG  ARG A 124      28.921  26.919  11.079  1.00 16.22     0.029 C 
BRANCH   9  10
ATOM     10  CD  ARG A 124      27.667  26.051  11.335  1.00 15.09     0.145 C 
BRANCH  10  11
ATOM     11  NE  ARG A 124      26.416  26.830  11.457  1.00 16.98    -0.083 NA
ATOM     12  CZ  ARG A 124      25.938  27.326  12.594  1.00 18.21     0.782 C 
ATOM     13  NH1 ARG A 124      26.581  27.161  13.743  1.00 21.11     0.063 N 
ATOM     14  NH2 ARG A 124      24.810  28.020  12.589  1.00 21.25     0.063 N 
ENDBRANCH  10  11
ENDBRANCH   9  10
ENDBRANCH   8   9
ENDBRANCH   7   8
END_RES ARG A 124
BEGIN_RES ASN A 133
REMARK  2 active torsions:
REMARK  status: ('A' for Active; 'I' for Inactive)
REMARK    9  A    between atoms: CA   and  CB  
REMARK   10  A    between atoms: CB   and  CG  
ROOT
ATOM     15  CA  ASN A 133      31.225  30.257  11.749  1.00 18.15     0.196 C 
ENDROOT
BRANCH  15  16
ATOM     16  CB  ASN A 133      30.092  31.240  11.460  1.00 18.27     0.126 C 
BRANCH  16  17
ATOM     17  CG  ASN A 133      28.773  30.803  12.018  1.00 18.94     0.276 C 
ATOM     18  OD1 ASN A 133      28.373  31.215  13.109  1.00 18.09    -0.269 OA
ATOM     19  ND2 ASN A 133      28.076  29.952  11.267  1.00 18.93    -0.107 N 
ENDBRANCH  16  17
ENDBRANCH  15  16
END_RES ASN A 133
BEGIN_RES LYS A 131
REMARK  4 active torsions:
REMARK  status: ('A' for Active; 'I' for Inactive)
REMARK   11  A    between atoms: CA   and  CB  
REMARK   12  A    between atoms: CB   and  CG  
REMARK   13  A    between atoms: CG   and  CD  
REMARK   14  A    between atoms: CD   and  CE  
ROOT
ATOM     20  CA  LYS A 131      29.867  25.555  16.977  1.00 20.52     0.186 C 
ENDROOT
BRANCH  20  21
ATOM     21  CB  LYS A 131      28.345  25.722  17.026  1.00 20.94     0.034 C 
BRANCH  21  22
ATOM     22  CG  LYS A 131      27.599  24.426  16.746  1.00 22.96     0.005 C 
BRANCH  22  23
ATOM     23  CD  LYS A 131      26.920  23.887  17.974  1.00 24.33     0.041 C 
BRANCH  23  24
ATOM     24  CE  LYS A 131      25.661  23.128  17.568  1.00 26.91     0.338 C 
ATOM     25  NZ  LYS A 131      24.651  24.059  17.012  1.00 27.40     0.618 N 
ENDBRANCH  23  24
ENDBRANCH  22  23
ENDBRANCH  21  22
ENDBRANCH  20  21
END_RES LYS A 131
