REMARK VINA RESULT:    -3.844      6.854     15.086
REMARK INTER + INTRA:          -9.807
REMARK INTER:                  -3.663
REMARK INTRA:                  -6.144
REMARK UNBOUND:                -4.951
REMARK SMILES N[C@@H](CC(=O)O)C(=O)O
REMARK SMILES IDX 3 1 2 2 1 3 7 6 8 7 9 8 4 10 5 11 6 12
REMARK H PARENT 1 4 1 5 9 9 6 13
REMARK Flexibility Score: inf
ROOT
ATOM      1  C   UNL     1      37.202  38.991   4.094  1.00  0.00     0.153 C 
ENDROOT
BRANCH   1   2
ATOM      2  C   UNL     1      37.889  38.202   3.026  1.00  0.00     0.173 C 
BRANCH   2   3
ATOM      3  N   UNL     1      37.001  37.313   2.321  1.00  0.00    -0.318 NA
ATOM      4  H   UNL     1      36.574  36.638   2.982  1.00  0.00     0.119 HD
ATOM      5  H   UNL     1      37.620  36.795   1.617  1.00  0.00     0.119 HD
ENDBRANCH   2   3
BRANCH   2   6
ATOM      6  C   UNL     1      39.088  37.470   3.535  1.00  0.00     0.321 C 
ATOM      7  O   UNL     1      40.173  38.063   3.646  1.00  0.00    -0.251 OA
BRANCH   6   8
ATOM      8  O   UNL     1      38.943  36.121   3.874  1.00  0.00    -0.480 OA
ATOM      9  H   UNL     1      39.778  35.548   3.879  1.00  0.00     0.296 HD
ENDBRANCH   6   8
ENDBRANCH   2   6
ENDBRANCH   1   2
BRANCH   1  10
ATOM     10  C   UNL     1      36.089  38.252   4.727  1.00  0.00     0.305 C 
ATOM     11  O   UNL     1      34.922  38.657   4.602  1.00  0.00    -0.252 OA
BRANCH  10  12
ATOM     12  O   UNL     1      36.323  37.087   5.474  1.00  0.00    -0.481 OA
ATOM     13  H   UNL     1      36.548  36.258   4.918  1.00  0.00     0.296 HD
ENDBRANCH  10  12
ENDBRANCH   1  10
TORSDOF 6
BEGIN_RES LYS A 135
REMARK  4 active torsions:
REMARK  status: ('A' for Active; 'I' for Inactive)
REMARK    1  A    between atoms: CA   and  CB  
REMARK    2  A    between atoms: CB   and  CG  
REMARK    3  A    between atoms: CG   and  CD  
REMARK    4  A    between atoms: CD   and  CE  
ROOT
ATOM      1  CA  LYS A 135      33.193  34.663   9.290  1.00 25.02     0.186 C 
ENDROOT
BRANCH   1   2
ATOM      2  CB  LYS A 135      32.060  35.360  10.034  1.00 26.63     0.034 C 
BRANCH   2   3
ATOM      3  CG  LYS A 135      30.807  35.519   9.212  1.00 29.45     0.005 C 
BRANCH   3   4
ATOM      4  CD  LYS A 135      30.241  34.161   8.829  1.00 32.00     0.041 C 
BRANCH   4   5
ATOM      5  CE  LYS A 135      28.730  34.157   8.964  1.00 34.25     0.338 C 
ATOM      6  NZ  LYS A 135      28.184  35.541   8.919  1.00 35.99     0.618 N 
ENDBRANCH   4   5
ENDBRANCH   3   4
ENDBRANCH   2   3
ENDBRANCH   1   2
END_RES LYS A 135
BEGIN_RES ARG A 124
REMARK  4 active torsions:
REMARK  status: ('A' for Active; 'I' for Inactive)
REMARK    5  A    between atoms: CA   and  CB  
REMARK    6  A    between atoms: CB   and  CG  
REMARK    7  A    between atoms: CG   and  CD  
REMARK    8  A    between atoms: CD   and  NE  
REMARK       I    between atoms: NE   and  CZ  
ROOT
ATOM      7  CA  ARG A 124      31.045  26.515   9.594  1.00 17.84     0.186 C 
ENDROOT
BRANCH   7   8
ATOM      8  CB  ARG A 124      29.529  26.705   9.647  1.00 16.18     0.036 C 
BRANCH   8   9
ATOM      9  CG  ARG A 124      28.907  26.802  11.086  1.00 16.22     0.029 C 
BRANCH   9  10
ATOM     10  CD  ARG A 124      27.549  26.073  11.202  1.00 15.09     0.145 C 
BRANCH  10  11
ATOM     11  NE  ARG A 124      26.399  26.980  11.416  1.00 16.98    -0.083 NA
ATOM     12  CZ  ARG A 124      26.004  27.439  12.598  1.00 18.21     0.782 C 
ATOM     13  NH1 ARG A 124      26.644  27.115  13.714  1.00 21.11     0.063 N 
ATOM     14  NH2 ARG A 124      24.965  28.258  12.675  1.00 21.25     0.063 N 
ENDBRANCH  10  11
ENDBRANCH   9  10
ENDBRANCH   8   9
ENDBRANCH   7   8
END_RES ARG A 124
BEGIN_RES ASN A 133
REMARK  2 active torsions:
REMARK  status: ('A' for Active; 'I' for Inactive)
REMARK    9  A    between atoms: CA   and  CB  
REMARK   10  A    between atoms: CB   and  CG  
ROOT
ATOM     15  CA  ASN A 133      31.225  30.257  11.749  1.00 18.15     0.196 C 
ENDROOT
BRANCH  15  16
ATOM     16  CB  ASN A 133      30.092  31.240  11.460  1.00 18.27     0.126 C 
BRANCH  16  17
ATOM     17  CG  ASN A 133      28.733  30.617  11.543  1.00 18.94     0.276 C 
ATOM     18  OD1 ASN A 133      28.343  29.818  10.690  1.00 18.09    -0.269 OA
ATOM     19  ND2 ASN A 133      27.987  30.983  12.585  1.00 18.93    -0.107 N 
ENDBRANCH  16  17
ENDBRANCH  15  16
END_RES ASN A 133
BEGIN_RES LYS A 131
REMARK  4 active torsions:
REMARK  status: ('A' for Active; 'I' for Inactive)
REMARK   11  A    between atoms: CA   and  CB  
REMARK   12  A    between atoms: CB   and  CG  
REMARK   13  A    between atoms: CG   and  CD  
REMARK   14  A    between atoms: CD   and  CE  
ROOT
ATOM     20  CA  LYS A 131      29.867  25.555  16.977  1.00 20.52     0.186 C 
ENDROOT
BRANCH  20  21
ATOM     21  CB  LYS A 131      28.345  25.722  17.026  1.00 20.94     0.034 C 
BRANCH  21  22
ATOM     22  CG  LYS A 131      27.602  24.397  16.945  1.00 22.96     0.005 C 
BRANCH  22  23
ATOM     23  CD  LYS A 131      26.112  24.578  17.022  1.00 24.33     0.041 C 
BRANCH  23  24
ATOM     24  CE  LYS A 131      25.483  23.353  17.677  1.00 26.91     0.338 C 
ATOM     25  NZ  LYS A 131      25.766  23.340  19.132  1.00 27.40     0.618 N 
ENDBRANCH  23  24
ENDBRANCH  22  23
ENDBRANCH  21  22
ENDBRANCH  20  21
END_RES LYS A 131
