REMARK VINA RESULT:    -4.788      5.192      9.266
REMARK INTER + INTRA:          -9.976
REMARK INTER:                  -4.387
REMARK INTRA:                  -5.589
REMARK UNBOUND:                -5.049
REMARK SMILES NC1c2ccccc2-c2ccccc21
REMARK SMILES IDX 2 1 3 2 4 3 5 4 6 5 7 6 8 7 9 8 10 9 11 10 12 11 13 12 14 13
REMARK SMILES IDX 1 14
REMARK H PARENT 1 15 1 16
REMARK Flexibility Score: inf
ROOT
ATOM      1  C   UNL     1      39.785  35.062  14.806  1.00  0.00     0.113 C 
ATOM      2  C   UNL     1      39.022  35.650  15.908  1.00  0.00    -0.019 A 
ATOM      3  C   UNL     1      39.363  36.359  17.037  1.00  0.00     0.006 A 
ATOM      4  C   UNL     1      38.436  36.815  17.947  1.00  0.00     0.000 A 
ATOM      5  C   UNL     1      37.110  36.562  17.737  1.00  0.00     0.001 A 
ATOM      6  C   UNL     1      36.747  35.853  16.612  1.00  0.00     0.009 A 
ATOM      7  C   UNL     1      37.666  35.388  15.688  1.00  0.00    -0.013 A 
ATOM      8  C   UNL     1      37.570  34.633  14.445  1.00  0.00    -0.013 A 
ATOM      9  C   UNL     1      36.469  34.132  13.784  1.00  0.00     0.009 A 
ATOM     10  C   UNL     1      36.605  33.429  12.591  1.00  0.00     0.001 A 
ATOM     11  C   UNL     1      37.859  33.216  12.036  1.00  0.00     0.000 A 
ATOM     12  C   UNL     1      38.948  33.729  12.716  1.00  0.00     0.006 A 
ATOM     13  C   UNL     1      38.819  34.423  13.896  1.00  0.00    -0.019 A 
ENDROOT
BRANCH   1  14
ATOM     14  N   UNL     1      40.657  35.998  14.143  1.00  0.00    -0.320 NA
ATOM     15  H   UNL     1      41.581  35.576  13.865  1.00  0.00     0.119 HD
ATOM     16  H   UNL     1      40.875  36.840  14.718  1.00  0.00     0.119 HD
ENDBRANCH   1  14
TORSDOF 1
BEGIN_RES LYS A 135
REMARK  4 active torsions:
REMARK  status: ('A' for Active; 'I' for Inactive)
REMARK    1  A    between atoms: CA   and  CB  
REMARK    2  A    between atoms: CB   and  CG  
REMARK    3  A    between atoms: CG   and  CD  
REMARK    4  A    between atoms: CD   and  CE  
ROOT
ATOM      1  CA  LYS A 135      33.193  34.663   9.290  1.00 25.02     0.186 C 
ENDROOT
BRANCH   1   2
ATOM      2  CB  LYS A 135      32.060  35.360  10.034  1.00 26.63     0.034 C 
BRANCH   2   3
ATOM      3  CG  LYS A 135      30.708  34.739   9.792  1.00 29.45     0.005 C 
BRANCH   3   4
ATOM      4  CD  LYS A 135      30.474  34.526   8.304  1.00 32.00     0.041 C 
BRANCH   4   5
ATOM      5  CE  LYS A 135      29.031  34.822   7.944  1.00 34.25     0.338 C 
ATOM      6  NZ  LYS A 135      28.939  35.528   6.636  1.00 35.99     0.618 N 
ENDBRANCH   4   5
ENDBRANCH   3   4
ENDBRANCH   2   3
ENDBRANCH   1   2
END_RES LYS A 135
BEGIN_RES ARG A 124
REMARK  4 active torsions:
REMARK  status: ('A' for Active; 'I' for Inactive)
REMARK    5  A    between atoms: CA   and  CB  
REMARK    6  A    between atoms: CB   and  CG  
REMARK    7  A    between atoms: CG   and  CD  
REMARK    8  A    between atoms: CD   and  NE  
REMARK       I    between atoms: NE   and  CZ  
ROOT
ATOM      7  CA  ARG A 124      31.045  26.515   9.594  1.00 17.84     0.186 C 
ENDROOT
BRANCH   7   8
ATOM      8  CB  ARG A 124      29.529  26.705   9.647  1.00 16.18     0.036 C 
BRANCH   8   9
ATOM      9  CG  ARG A 124      28.898  26.734  11.085  1.00 16.22     0.029 C 
BRANCH   9  10
ATOM     10  CD  ARG A 124      27.494  26.090  11.137  1.00 15.09     0.145 C 
BRANCH  10  11
ATOM     11  NE  ARG A 124      26.404  27.052  11.410  1.00 16.98    -0.083 NA
ATOM     12  CZ  ARG A 124      26.068  27.498  12.616  1.00 18.21     0.782 C 
ATOM     13  NH1 ARG A 124      26.721  27.106  13.703  1.00 21.11     0.063 N 
ATOM     14  NH2 ARG A 124      25.080  28.370  12.747  1.00 21.25     0.063 N 
ENDBRANCH  10  11
ENDBRANCH   9  10
ENDBRANCH   8   9
ENDBRANCH   7   8
END_RES ARG A 124
BEGIN_RES ASN A 133
REMARK  2 active torsions:
REMARK  status: ('A' for Active; 'I' for Inactive)
REMARK    9  A    between atoms: CA   and  CB  
REMARK   10  A    between atoms: CB   and  CG  
ROOT
ATOM     15  CA  ASN A 133      31.225  30.257  11.749  1.00 18.15     0.196 C 
ENDROOT
BRANCH  15  16
ATOM     16  CB  ASN A 133      30.092  31.240  11.460  1.00 18.27     0.126 C 
BRANCH  16  17
ATOM     17  CG  ASN A 133      28.733  30.618  11.546  1.00 18.94     0.276 C 
ATOM     18  OD1 ASN A 133      27.998  30.820  12.514  1.00 18.09    -0.269 OA
ATOM     19  ND2 ASN A 133      28.381  29.843  10.521  1.00 18.93    -0.107 N 
ENDBRANCH  16  17
ENDBRANCH  15  16
END_RES ASN A 133
BEGIN_RES LYS A 131
REMARK  4 active torsions:
REMARK  status: ('A' for Active; 'I' for Inactive)
REMARK   11  A    between atoms: CA   and  CB  
REMARK   12  A    between atoms: CB   and  CG  
REMARK   13  A    between atoms: CG   and  CD  
REMARK   14  A    between atoms: CD   and  CE  
ROOT
ATOM     20  CA  LYS A 131      29.867  25.555  16.977  1.00 20.52     0.186 C 
ENDROOT
BRANCH  20  21
ATOM     21  CB  LYS A 131      28.345  25.722  17.026  1.00 20.94     0.034 C 
BRANCH  21  22
ATOM     22  CG  LYS A 131      27.599  24.425  16.753  1.00 22.96     0.005 C 
BRANCH  22  23
ATOM     23  CD  LYS A 131      26.899  23.905  17.978  1.00 24.33     0.041 C 
BRANCH  23  24
ATOM     24  CE  LYS A 131      25.670  23.104  17.560  1.00 26.91     0.338 C 
ATOM     25  NZ  LYS A 131      24.611  24.006  17.049  1.00 27.40     0.618 N 
ENDBRANCH  23  24
ENDBRANCH  22  23
ENDBRANCH  21  22
ENDBRANCH  20  21
END_RES LYS A 131
