REMARK VINA RESULT:    -4.308      6.092     13.540
REMARK INTER + INTRA:         -11.148
REMARK INTER:                  -4.991
REMARK INTRA:                  -6.158
REMARK UNBOUND:                -5.329
REMARK SMILES CC(C)C[C@H](CN)CC(=O)O
REMARK SMILES IDX 8 1 5 2 4 3 2 4 1 5 3 6 6 7 7 8 9 11 10 12 11 13
REMARK H PARENT 7 9 7 10 11 14
REMARK Flexibility Score: inf
ROOT
ATOM      1  C   UNL     1      38.096  33.293  13.248  1.00  0.00     0.127 C 
ENDROOT
BRANCH   1   2
ATOM      2  C   UNL     1      38.508  34.568  13.956  1.00  0.00     0.014 C 
BRANCH   2   3
ATOM      3  C   UNL     1      40.000  34.667  14.105  1.00  0.00     0.008 C 
BRANCH   3   4
ATOM      4  C   UNL     1      40.597  35.824  13.357  1.00  0.00    -0.017 C 
ATOM      5  C   UNL     1      40.435  35.618  11.858  1.00  0.00     0.007 C 
ATOM      6  C   UNL     1      39.774  37.045  13.751  1.00  0.00     0.007 C 
ENDBRANCH   3   4
ENDBRANCH   2   3
BRANCH   2   7
ATOM      7  C   UNL     1      37.964  34.555  15.393  1.00  0.00     0.081 C 
BRANCH   7   8
ATOM      8  N   UNL     1      38.758  33.573  16.139  1.00  0.00    -0.330 NA
ATOM      9  H   UNL     1      39.599  33.338  15.586  1.00  0.00     0.118 HD
ATOM     10  H   UNL     1      38.191  32.736  16.360  1.00  0.00     0.118 HD
ENDBRANCH   7   8
ENDBRANCH   2   7
ENDBRANCH   1   2
BRANCH   1  11
ATOM     11  C   UNL     1      37.076  33.515  12.204  1.00  0.00     0.303 C 
ATOM     12  O   UNL     1      35.863  33.790  12.555  1.00  0.00    -0.252 OA
BRANCH  11  13
ATOM     13  O   UNL     1      37.326  33.442  10.856  1.00  0.00    -0.481 OA
ATOM     14  H   UNL     1      36.843  34.069  10.193  1.00  0.00     0.296 HD
ENDBRANCH  11  13
ENDBRANCH   1  11
TORSDOF 7
BEGIN_RES LYS A 135
REMARK  4 active torsions:
REMARK  status: ('A' for Active; 'I' for Inactive)
REMARK    1  A    between atoms: CA   and  CB  
REMARK    2  A    between atoms: CB   and  CG  
REMARK    3  A    between atoms: CG   and  CD  
REMARK    4  A    between atoms: CD   and  CE  
ROOT
ATOM      1  CA  LYS A 135      33.193  34.663   9.290  1.00 25.02     0.186 C 
ENDROOT
BRANCH   1   2
ATOM      2  CB  LYS A 135      32.060  35.360  10.034  1.00 26.63     0.034 C 
BRANCH   2   3
ATOM      3  CG  LYS A 135      30.817  35.544   9.202  1.00 29.45     0.005 C 
BRANCH   3   4
ATOM      4  CD  LYS A 135      30.193  34.199   8.864  1.00 32.00     0.041 C 
BRANCH   4   5
ATOM      5  CE  LYS A 135      28.701  34.346   8.635  1.00 34.25     0.338 C 
ATOM      6  NZ  LYS A 135      27.924  33.634   9.687  1.00 35.99     0.618 N 
ENDBRANCH   4   5
ENDBRANCH   3   4
ENDBRANCH   2   3
ENDBRANCH   1   2
END_RES LYS A 135
BEGIN_RES ARG A 124
REMARK  4 active torsions:
REMARK  status: ('A' for Active; 'I' for Inactive)
REMARK    5  A    between atoms: CA   and  CB  
REMARK    6  A    between atoms: CB   and  CG  
REMARK    7  A    between atoms: CG   and  CD  
REMARK    8  A    between atoms: CD   and  NE  
REMARK       I    between atoms: NE   and  CZ  
ROOT
ATOM      7  CA  ARG A 124      31.045  26.515   9.594  1.00 17.84     0.186 C 
ENDROOT
BRANCH   7   8
ATOM      8  CB  ARG A 124      29.529  26.705   9.647  1.00 16.18     0.036 C 
BRANCH   8   9
ATOM      9  CG  ARG A 124      28.895  26.710  11.084  1.00 16.22     0.029 C 
BRANCH   9  10
ATOM     10  CD  ARG A 124      27.488  26.072  11.122  1.00 15.09     0.145 C 
BRANCH  10  11
ATOM     11  NE  ARG A 124      26.401  27.036  11.399  1.00 16.98    -0.083 NA
ATOM     12  CZ  ARG A 124      26.069  27.480  12.606  1.00 18.21     0.782 C 
ATOM     13  NH1 ARG A 124      26.723  27.085  13.691  1.00 21.11     0.063 N 
ATOM     14  NH2 ARG A 124      25.083  28.354  12.740  1.00 21.25     0.063 N 
ENDBRANCH  10  11
ENDBRANCH   9  10
ENDBRANCH   8   9
ENDBRANCH   7   8
END_RES ARG A 124
BEGIN_RES ASN A 133
REMARK  2 active torsions:
REMARK  status: ('A' for Active; 'I' for Inactive)
REMARK    9  A    between atoms: CA   and  CB  
REMARK   10  A    between atoms: CB   and  CG  
ROOT
ATOM     15  CA  ASN A 133      31.225  30.257  11.749  1.00 18.15     0.196 C 
ENDROOT
BRANCH  15  16
ATOM     16  CB  ASN A 133      30.092  31.240  11.460  1.00 18.27     0.126 C 
BRANCH  16  17
ATOM     17  CG  ASN A 133      28.733  30.616  11.538  1.00 18.94     0.276 C 
ATOM     18  OD1 ASN A 133      28.368  29.777  10.712  1.00 18.09    -0.269 OA
ATOM     19  ND2 ASN A 133      27.960  31.026  12.542  1.00 18.93    -0.107 N 
ENDBRANCH  16  17
ENDBRANCH  15  16
END_RES ASN A 133
BEGIN_RES LYS A 131
REMARK  4 active torsions:
REMARK  status: ('A' for Active; 'I' for Inactive)
REMARK   11  A    between atoms: CA   and  CB  
REMARK   12  A    between atoms: CB   and  CG  
REMARK   13  A    between atoms: CG   and  CD  
REMARK   14  A    between atoms: CD   and  CE  
ROOT
ATOM     20  CA  LYS A 131      29.867  25.555  16.977  1.00 20.52     0.186 C 
ENDROOT
BRANCH  20  21
ATOM     21  CB  LYS A 131      28.345  25.722  17.026  1.00 20.94     0.034 C 
BRANCH  21  22
ATOM     22  CG  LYS A 131      27.599  24.439  16.694  1.00 22.96     0.005 C 
BRANCH  22  23
ATOM     23  CD  LYS A 131      27.001  23.799  17.916  1.00 24.33     0.041 C 
BRANCH  23  24
ATOM     24  CE  LYS A 131      25.590  23.315  17.598  1.00 26.91     0.338 C 
ATOM     25  NZ  LYS A 131      24.813  24.384  16.928  1.00 27.40     0.618 N 
ENDBRANCH  23  24
ENDBRANCH  22  23
ENDBRANCH  21  22
ENDBRANCH  20  21
END_RES LYS A 131
