REMARK VINA RESULT:    -3.638      5.410     13.102
REMARK INTER + INTRA:          -9.176
REMARK INTER:                  -4.032
REMARK INTRA:                  -5.143
REMARK UNBOUND:                -5.219
REMARK SMILES CC(C)n1c(=O)c2c(N)ncn2c2ccccc21
REMARK SMILES IDX 4 1 5 2 6 3 7 4 8 5 10 6 11 7 12 8 13 9 14 10 15 11 16 12
REMARK SMILES IDX 17 13 18 14 2 15 1 16 3 17 9 18
REMARK H PARENT 9 19 9 20
REMARK Flexibility Score: inf
ROOT
ATOM      1  N   UNL     1      26.186  16.378  17.595  1.00  0.00    -0.302 N 
ATOM      2  C   UNL     1      25.609  17.408  16.960  1.00  0.00     0.279 A 
ATOM      3  O   UNL     1      25.691  17.456  15.721  1.00  0.00    -0.267 OA
ATOM      4  C   UNL     1      24.934  18.408  17.632  1.00  0.00     0.156 A 
ATOM      5  C   UNL     1      24.280  19.537  17.170  1.00  0.00     0.155 A 
ATOM      6  N   UNL     1      23.804  20.149  18.273  1.00  0.00    -0.219 NA
ATOM      7  C   UNL     1      24.126  19.465  19.379  1.00  0.00     0.207 A 
ATOM      8  N   UNL     1      24.831  18.377  18.985  1.00  0.00    -0.291 N 
ATOM      9  C   UNL     1      25.406  17.348  19.634  1.00  0.00     0.071 A 
ATOM     10  C   UNL     1      25.293  17.330  21.017  1.00  0.00     0.029 A 
ATOM     11  C   UNL     1      25.858  16.304  21.747  1.00  0.00     0.002 A 
ATOM     12  C   UNL     1      26.526  15.315  21.087  1.00  0.00     0.002 A 
ATOM     13  C   UNL     1      26.630  15.347  19.717  1.00  0.00     0.028 A 
ATOM     14  C   UNL     1      26.082  16.350  18.944  1.00  0.00     0.068 A 
ENDROOT
BRANCH   1  15
ATOM     15  C   UNL     1      26.901  15.309  16.976  1.00  0.00     0.085 C 
ATOM     16  C   UNL     1      25.934  14.507  16.093  1.00  0.00     0.031 C 
ATOM     17  C   UNL     1      28.024  15.748  16.076  1.00  0.00     0.031 C 
ENDBRANCH   1  15
BRANCH   5  18
ATOM     18  N   UNL     1      24.146  19.955  15.802  1.00  0.00    -0.382 N 
ATOM     19  H   UNL     1      23.243  20.421  15.527  1.00  0.00     0.158 HD
ATOM     20  H   UNL     1      24.904  19.806  15.105  1.00  0.00     0.158 HD
ENDBRANCH   5  18
TORSDOF 2
BEGIN_RES LYS A 135
REMARK  4 active torsions:
REMARK  status: ('A' for Active; 'I' for Inactive)
REMARK    1  A    between atoms: CA   and  CB  
REMARK    2  A    between atoms: CB   and  CG  
REMARK    3  A    between atoms: CG   and  CD  
REMARK    4  A    between atoms: CD   and  CE  
ROOT
ATOM      1  CA  LYS A 135      33.193  34.663   9.290  1.00 25.02     0.186 C 
ENDROOT
BRANCH   1   2
ATOM      2  CB  LYS A 135      32.060  35.360  10.034  1.00 26.63     0.034 C 
BRANCH   2   3
ATOM      3  CG  LYS A 135      30.721  34.692   9.855  1.00 29.45     0.005 C 
BRANCH   3   4
ATOM      4  CD  LYS A 135      30.372  34.576   8.380  1.00 32.00     0.041 C 
BRANCH   4   5
ATOM      5  CE  LYS A 135      28.868  34.590   8.185  1.00 34.25     0.338 C 
ATOM      6  NZ  LYS A 135      28.486  35.428   7.015  1.00 35.99     0.618 N 
ENDBRANCH   4   5
ENDBRANCH   3   4
ENDBRANCH   2   3
ENDBRANCH   1   2
END_RES LYS A 135
BEGIN_RES ARG A 124
REMARK  4 active torsions:
REMARK  status: ('A' for Active; 'I' for Inactive)
REMARK    5  A    between atoms: CA   and  CB  
REMARK    6  A    between atoms: CB   and  CG  
REMARK    7  A    between atoms: CG   and  CD  
REMARK    8  A    between atoms: CD   and  NE  
REMARK       I    between atoms: NE   and  CZ  
ROOT
ATOM      7  CA  ARG A 124      31.045  26.515   9.594  1.00 17.84     0.186 C 
ENDROOT
BRANCH   7   8
ATOM      8  CB  ARG A 124      29.529  26.705   9.647  1.00 16.18     0.036 C 
BRANCH   8   9
ATOM      9  CG  ARG A 124      28.895  26.706  11.084  1.00 16.22     0.029 C 
BRANCH   9  10
ATOM     10  CD  ARG A 124      27.487  26.068  11.119  1.00 15.09     0.145 C 
BRANCH  10  11
ATOM     11  NE  ARG A 124      26.399  27.035  11.383  1.00 16.98    -0.083 NA
ATOM     12  CZ  ARG A 124      26.041  27.466  12.587  1.00 18.21     0.782 C 
ATOM     13  NH1 ARG A 124      26.668  27.054  13.682  1.00 21.11     0.063 N 
ATOM     14  NH2 ARG A 124      25.057  28.343  12.710  1.00 21.25     0.063 N 
ENDBRANCH  10  11
ENDBRANCH   9  10
ENDBRANCH   8   9
ENDBRANCH   7   8
END_RES ARG A 124
BEGIN_RES ASN A 133
REMARK  2 active torsions:
REMARK  status: ('A' for Active; 'I' for Inactive)
REMARK    9  A    between atoms: CA   and  CB  
REMARK   10  A    between atoms: CB   and  CG  
ROOT
ATOM     15  CA  ASN A 133      31.225  30.257  11.749  1.00 18.15     0.196 C 
ENDROOT
BRANCH  15  16
ATOM     16  CB  ASN A 133      30.092  31.240  11.460  1.00 18.27     0.126 C 
BRANCH  16  17
ATOM     17  CG  ASN A 133      28.732  30.625  11.574  1.00 18.94     0.276 C 
ATOM     18  OD1 ASN A 133      28.344  29.778  10.767  1.00 18.09    -0.269 OA
ATOM     19  ND2 ASN A 133      27.982  31.052  12.590  1.00 18.93    -0.107 N 
ENDBRANCH  16  17
ENDBRANCH  15  16
END_RES ASN A 133
BEGIN_RES LYS A 131
REMARK  4 active torsions:
REMARK  status: ('A' for Active; 'I' for Inactive)
REMARK   11  A    between atoms: CA   and  CB  
REMARK   12  A    between atoms: CB   and  CG  
REMARK   13  A    between atoms: CG   and  CD  
REMARK   14  A    between atoms: CD   and  CE  
ROOT
ATOM     20  CA  LYS A 131      29.867  25.555  16.977  1.00 20.52     0.186 C 
ENDROOT
BRANCH  20  21
ATOM     21  CB  LYS A 131      28.345  25.722  17.026  1.00 20.94     0.034 C 
BRANCH  21  22
ATOM     22  CG  LYS A 131      27.600  24.408  16.845  1.00 22.96     0.005 C 
BRANCH  22  23
ATOM     23  CD  LYS A 131      26.145  24.529  17.201  1.00 24.33     0.041 C 
BRANCH  23  24
ATOM     24  CE  LYS A 131      25.765  26.003  17.300  1.00 26.91     0.338 C 
ATOM     25  NZ  LYS A 131      24.596  26.297  16.438  1.00 27.40     0.618 N 
ENDBRANCH  23  24
ENDBRANCH  22  23
ENDBRANCH  21  22
ENDBRANCH  20  21
END_RES LYS A 131
