REMARK VINA RESULT:    -4.770      8.626     15.503
REMARK INTER + INTRA:         -10.719
REMARK INTER:                  -4.781
REMARK INTRA:                  -5.938
REMARK UNBOUND:                -4.555
REMARK SMILES NCC(O)CCc1ccccc1
REMARK SMILES IDX 5 1 3 2 2 3 1 4 4 7 6 9 7 10 8 11 12 12 9 13 11 14 10 15
REMARK H PARENT 1 5 1 6 4 8
REMARK Flexibility Score: inf
ROOT
ATOM      1  C   UNL     1      39.723  18.881  20.182  1.00  0.00     0.038 C 
ENDROOT
BRANCH   1   2
ATOM      2  C   UNL     1      40.212  17.728  19.361  1.00  0.00     0.128 C 
BRANCH   2   3
ATOM      3  C   UNL     1      39.155  16.720  19.041  1.00  0.00     0.109 C 
BRANCH   3   4
ATOM      4  N   UNL     1      39.121  16.532  17.606  1.00  0.00    -0.328 NA
ATOM      5  H   UNL     1      38.609  15.702  17.300  1.00  0.00     0.118 HD
ATOM      6  H   UNL     1      38.900  17.407  17.082  1.00  0.00     0.118 HD
ENDBRANCH   3   4
ENDBRANCH   2   3
BRANCH   2   7
ATOM      7  O   UNL     1      40.654  18.263  18.135  1.00  0.00    -0.392 OA
ATOM      8  H   UNL     1      40.971  17.511  17.568  1.00  0.00     0.211 HD
ENDBRANCH   2   7
ENDBRANCH   1   2
BRANCH   1   9
ATOM      9  C   UNL     1      39.074  18.446  21.476  1.00  0.00     0.038 C 
BRANCH   9  10
ATOM     10  C   UNL     1      37.645  18.848  21.523  1.00  0.00    -0.048 A 
ATOM     11  C   UNL     1      36.706  18.129  22.250  1.00  0.00     0.004 A 
ATOM     12  C   UNL     1      37.176  19.963  20.841  1.00  0.00     0.004 A 
ATOM     13  C   UNL     1      35.384  18.503  22.291  1.00  0.00     0.000 A 
ATOM     14  C   UNL     1      35.857  20.350  20.872  1.00  0.00     0.000 A 
ATOM     15  C   UNL     1      34.954  19.609  21.606  1.00  0.00     0.000 A 
ENDBRANCH   9  10
ENDBRANCH   1   9
TORSDOF 6
BEGIN_RES LYS A 135
REMARK  4 active torsions:
REMARK  status: ('A' for Active; 'I' for Inactive)
REMARK    1  A    between atoms: CA   and  CB  
REMARK    2  A    between atoms: CB   and  CG  
REMARK    3  A    between atoms: CG   and  CD  
REMARK    4  A    between atoms: CD   and  CE  
ROOT
ATOM      1  CA  LYS A 135      33.193  34.663   9.290  1.00 25.02     0.186 C 
ENDROOT
BRANCH   1   2
ATOM      2  CB  LYS A 135      32.060  35.360  10.034  1.00 26.63     0.034 C 
BRANCH   2   3
ATOM      3  CG  LYS A 135      30.847  35.620   9.178  1.00 29.45     0.005 C 
BRANCH   3   4
ATOM      4  CD  LYS A 135      30.225  34.310   8.718  1.00 32.00     0.041 C 
BRANCH   4   5
ATOM      5  CE  LYS A 135      28.808  34.537   8.228  1.00 34.25     0.338 C 
ATOM      6  NZ  LYS A 135      27.812  34.093   9.242  1.00 35.99     0.618 N 
ENDBRANCH   4   5
ENDBRANCH   3   4
ENDBRANCH   2   3
ENDBRANCH   1   2
END_RES LYS A 135
BEGIN_RES ARG A 124
REMARK  4 active torsions:
REMARK  status: ('A' for Active; 'I' for Inactive)
REMARK    5  A    between atoms: CA   and  CB  
REMARK    6  A    between atoms: CB   and  CG  
REMARK    7  A    between atoms: CG   and  CD  
REMARK    8  A    between atoms: CD   and  NE  
REMARK       I    between atoms: NE   and  CZ  
ROOT
ATOM      7  CA  ARG A 124      31.045  26.515   9.594  1.00 17.84     0.186 C 
ENDROOT
BRANCH   7   8
ATOM      8  CB  ARG A 124      29.529  26.705   9.647  1.00 16.18     0.036 C 
BRANCH   8   9
ATOM      9  CG  ARG A 124      28.906  26.798  11.086  1.00 16.22     0.029 C 
BRANCH   9  10
ATOM     10  CD  ARG A 124      27.549  26.067  11.200  1.00 15.09     0.145 C 
BRANCH  10  11
ATOM     11  NE  ARG A 124      26.398  26.972  11.412  1.00 16.98    -0.083 NA
ATOM     12  CZ  ARG A 124      26.010  27.445  12.592  1.00 18.21     0.782 C 
ATOM     13  NH1 ARG A 124      26.661  27.136  13.707  1.00 21.11     0.063 N 
ATOM     14  NH2 ARG A 124      24.970  28.260  12.667  1.00 21.25     0.063 N 
ENDBRANCH  10  11
ENDBRANCH   9  10
ENDBRANCH   8   9
ENDBRANCH   7   8
END_RES ARG A 124
BEGIN_RES ASN A 133
REMARK  2 active torsions:
REMARK  status: ('A' for Active; 'I' for Inactive)
REMARK    9  A    between atoms: CA   and  CB  
REMARK   10  A    between atoms: CB   and  CG  
ROOT
ATOM     15  CA  ASN A 133      31.225  30.257  11.749  1.00 18.15     0.196 C 
ENDROOT
BRANCH  15  16
ATOM     16  CB  ASN A 133      30.092  31.240  11.460  1.00 18.27     0.126 C 
BRANCH  16  17
ATOM     17  CG  ASN A 133      28.732  30.626  11.577  1.00 18.94     0.276 C 
ATOM     18  OD1 ASN A 133      28.332  29.798  10.756  1.00 18.09    -0.269 OA
ATOM     19  ND2 ASN A 133      27.996  31.031  12.611  1.00 18.93    -0.107 N 
ENDBRANCH  16  17
ENDBRANCH  15  16
END_RES ASN A 133
BEGIN_RES LYS A 131
REMARK  4 active torsions:
REMARK  status: ('A' for Active; 'I' for Inactive)
REMARK   11  A    between atoms: CA   and  CB  
REMARK   12  A    between atoms: CB   and  CG  
REMARK   13  A    between atoms: CG   and  CD  
REMARK   14  A    between atoms: CD   and  CE  
ROOT
ATOM     20  CA  LYS A 131      29.867  25.555  16.977  1.00 20.52     0.186 C 
ENDROOT
BRANCH  20  21
ATOM     21  CB  LYS A 131      28.345  25.722  17.026  1.00 20.94     0.034 C 
BRANCH  21  22
ATOM     22  CG  LYS A 131      27.600  24.410  16.836  1.00 22.96     0.005 C 
BRANCH  22  23
ATOM     23  CD  LYS A 131      26.143  24.529  17.188  1.00 24.33     0.041 C 
BRANCH  23  24
ATOM     24  CE  LYS A 131      25.595  23.155  17.559  1.00 26.91     0.338 C 
ATOM     25  NZ  LYS A 131      24.178  23.032  17.142  1.00 27.40     0.618 N 
ENDBRANCH  23  24
ENDBRANCH  22  23
ENDBRANCH  21  22
ENDBRANCH  20  21
END_RES LYS A 131
