REMARK VINA RESULT:    -3.511      5.414     12.048
REMARK INTER + INTRA:          -9.731
REMARK INTER:                  -3.921
REMARK INTRA:                  -5.811
REMARK UNBOUND:                -5.810
REMARK SMILES Nc1ccc(CO)cn1
REMARK SMILES IDX 2 1 3 2 4 3 5 4 8 5 9 6 1 7 6 10 7 11
REMARK H PARENT 1 8 1 9 7 12
REMARK Flexibility Score: inf
ROOT
ATOM      1  C   UNL     1      27.631  17.685  15.782  1.00  0.00     0.123 A 
ATOM      2  C   UNL     1      26.864  18.836  15.733  1.00  0.00     0.047 A 
ATOM      3  C   UNL     1      25.812  19.019  16.582  1.00  0.00     0.011 A 
ATOM      4  C   UNL     1      25.501  18.049  17.505  1.00  0.00    -0.004 A 
ATOM      5  C   UNL     1      26.278  16.909  17.536  1.00  0.00     0.119 A 
ATOM      6  N   UNL     1      27.309  16.761  16.685  1.00  0.00    -0.239 NA
ENDROOT
BRANCH   1   7
ATOM      7  N   UNL     1      28.722  17.524  14.882  1.00  0.00    -0.384 N 
ATOM      8  H   UNL     1      29.497  18.222  14.893  1.00  0.00     0.158 HD
ATOM      9  H   UNL     1      28.707  16.716  14.246  1.00  0.00     0.158 HD
ENDBRANCH   1   7
BRANCH   4  10
ATOM     10  C   UNL     1      24.356  18.272  18.414  1.00  0.00     0.193 C 
BRANCH  10  11
ATOM     11  O   UNL     1      24.721  19.196  19.386  1.00  0.00    -0.392 OA
ATOM     12  H   UNL     1      24.363  20.088  19.107  1.00  0.00     0.211 HD
ENDBRANCH  10  11
ENDBRANCH   4  10
TORSDOF 3
BEGIN_RES LYS A 135
REMARK  4 active torsions:
REMARK  status: ('A' for Active; 'I' for Inactive)
REMARK    1  A    between atoms: CA   and  CB  
REMARK    2  A    between atoms: CB   and  CG  
REMARK    3  A    between atoms: CG   and  CD  
REMARK    4  A    between atoms: CD   and  CE  
ROOT
ATOM      1  CA  LYS A 135      33.193  34.663   9.290  1.00 25.02     0.186 C 
ENDROOT
BRANCH   1   2
ATOM      2  CB  LYS A 135      32.060  35.360  10.034  1.00 26.63     0.034 C 
BRANCH   2   3
ATOM      3  CG  LYS A 135      30.698  34.795   9.723  1.00 29.45     0.005 C 
BRANCH   3   4
ATOM      4  CD  LYS A 135      30.569  34.491   8.238  1.00 32.00     0.041 C 
BRANCH   4   5
ATOM      5  CE  LYS A 135      29.202  34.901   7.727  1.00 34.25     0.338 C 
ATOM      6  NZ  LYS A 135      28.122  34.406   8.626  1.00 35.99     0.618 N 
ENDBRANCH   4   5
ENDBRANCH   3   4
ENDBRANCH   2   3
ENDBRANCH   1   2
END_RES LYS A 135
BEGIN_RES ARG A 124
REMARK  4 active torsions:
REMARK  status: ('A' for Active; 'I' for Inactive)
REMARK    5  A    between atoms: CA   and  CB  
REMARK    6  A    between atoms: CB   and  CG  
REMARK    7  A    between atoms: CG   and  CD  
REMARK    8  A    between atoms: CD   and  NE  
REMARK       I    between atoms: NE   and  CZ  
ROOT
ATOM      7  CA  ARG A 124      31.045  26.515   9.594  1.00 17.84     0.186 C 
ENDROOT
BRANCH   7   8
ATOM      8  CB  ARG A 124      29.529  26.705   9.647  1.00 16.18     0.036 C 
BRANCH   8   9
ATOM      9  CG  ARG A 124      28.900  26.751  11.086  1.00 16.22     0.029 C 
BRANCH   9  10
ATOM     10  CD  ARG A 124      27.502  26.095  11.150  1.00 15.09     0.145 C 
BRANCH  10  11
ATOM     11  NE  ARG A 124      26.405  27.051  11.419  1.00 16.98    -0.083 NA
ATOM     12  CZ  ARG A 124      26.080  27.517  12.620  1.00 18.21     0.782 C 
ATOM     13  NH1 ARG A 124      26.751  27.153  13.706  1.00 21.11     0.063 N 
ATOM     14  NH2 ARG A 124      25.084  28.381  12.747  1.00 21.25     0.063 N 
ENDBRANCH  10  11
ENDBRANCH   9  10
ENDBRANCH   8   9
ENDBRANCH   7   8
END_RES ARG A 124
BEGIN_RES ASN A 133
REMARK  2 active torsions:
REMARK  status: ('A' for Active; 'I' for Inactive)
REMARK    9  A    between atoms: CA   and  CB  
REMARK   10  A    between atoms: CB   and  CG  
ROOT
ATOM     15  CA  ASN A 133      31.225  30.257  11.749  1.00 18.15     0.196 C 
ENDROOT
BRANCH  15  16
ATOM     16  CB  ASN A 133      30.092  31.240  11.460  1.00 18.27     0.126 C 
BRANCH  16  17
ATOM     17  CG  ASN A 133      28.733  30.614  11.531  1.00 18.94     0.276 C 
ATOM     18  OD1 ASN A 133      28.365  29.791  10.691  1.00 18.09    -0.269 OA
ATOM     19  ND2 ASN A 133      27.965  31.005  12.547  1.00 18.93    -0.107 N 
ENDBRANCH  16  17
ENDBRANCH  15  16
END_RES ASN A 133
BEGIN_RES LYS A 131
REMARK  4 active torsions:
REMARK  status: ('A' for Active; 'I' for Inactive)
REMARK   11  A    between atoms: CA   and  CB  
REMARK   12  A    between atoms: CB   and  CG  
REMARK   13  A    between atoms: CG   and  CD  
REMARK   14  A    between atoms: CD   and  CE  
ROOT
ATOM     20  CA  LYS A 131      29.867  25.555  16.977  1.00 20.52     0.186 C 
ENDROOT
BRANCH  20  21
ATOM     21  CB  LYS A 131      28.345  25.722  17.026  1.00 20.94     0.034 C 
BRANCH  21  22
ATOM     22  CG  LYS A 131      27.600  24.413  16.817  1.00 22.96     0.005 C 
BRANCH  22  23
ATOM     23  CD  LYS A 131      26.729  24.063  17.992  1.00 24.33     0.041 C 
BRANCH  23  24
ATOM     24  CE  LYS A 131      25.304  23.809  17.511  1.00 26.91     0.338 C 
ATOM     25  NZ  LYS A 131      24.976  22.366  17.596  1.00 27.40     0.618 N 
ENDBRANCH  23  24
ENDBRANCH  22  23
ENDBRANCH  21  22
ENDBRANCH  20  21
END_RES LYS A 131
