REMARK VINA RESULT:    -5.896      7.350     11.355
REMARK INTER + INTRA:         -11.820
REMARK INTER:                  -6.006
REMARK INTRA:                  -5.814
REMARK UNBOUND:                -4.889
REMARK SMILES Nc1cc(C(=O)O)nc(-c2ccccc2)c1
REMARK SMILES IDX 2 1 3 2 4 3 8 4 9 5 16 6 1 7 5 10 6 11 7 12 10 14 11 15
REMARK SMILES IDX 15 16 12 17 14 18 13 19
REMARK H PARENT 1 8 1 9 7 13
REMARK Flexibility Score: inf
ROOT
ATOM      1  C   UNL     1      23.234  37.787   7.674  1.00  0.00     0.036 A 
ATOM      2  C   UNL     1      22.002  37.145   7.745  1.00  0.00     0.061 A 
ATOM      3  C   UNL     1      21.820  35.949   8.403  1.00  0.00     0.150 A 
ATOM      4  N   UNL     1      22.910  35.415   8.988  1.00  0.00    -0.241 NA
ATOM      5  C   UNL     1      24.129  35.988   8.956  1.00  0.00     0.073 A 
ATOM      6  C   UNL     1      24.300  37.175   8.300  1.00  0.00     0.054 A 
ENDROOT
BRANCH   1   7
ATOM      7  N   UNL     1      23.369  39.018   6.982  1.00  0.00    -0.399 N 
ATOM      8  H   UNL     1      22.758  39.806   7.238  1.00  0.00     0.156 HD
ATOM      9  H   UNL     1      24.077  39.100   6.237  1.00  0.00     0.156 HD
ENDBRANCH   1   7
BRANCH   3  10
ATOM     10  C   UNL     1      20.513  35.319   8.448  1.00  0.00     0.354 C 
ATOM     11  O   UNL     1      19.728  35.543   9.382  1.00  0.00    -0.245 OA
BRANCH  10  12
ATOM     12  O   UNL     1      20.139  34.459   7.436  1.00  0.00    -0.477 OA
ATOM     13  H   UNL     1      20.265  33.462   7.547  1.00  0.00     0.297 HD
ENDBRANCH  10  12
ENDBRANCH   3  10
BRANCH   5  14
ATOM     14  C   UNL     1      25.230  35.285   9.644  1.00  0.00     0.000 A 
ATOM     15  C   UNL     1      26.215  34.645   8.913  1.00  0.00     0.010 A 
ATOM     16  C   UNL     1      25.334  35.231  11.016  1.00  0.00     0.010 A 
ATOM     17  C   UNL     1      27.249  33.984   9.530  1.00  0.00     0.001 A 
ATOM     18  C   UNL     1      26.390  34.557  11.639  1.00  0.00     0.001 A 
ATOM     19  C   UNL     1      27.364  33.923  10.902  1.00  0.00     0.000 A 
ENDBRANCH   5  14
TORSDOF 4
BEGIN_RES LYS A 135
REMARK  4 active torsions:
REMARK  status: ('A' for Active; 'I' for Inactive)
REMARK    1  A    between atoms: CA   and  CB  
REMARK    2  A    between atoms: CB   and  CG  
REMARK    3  A    between atoms: CG   and  CD  
REMARK    4  A    between atoms: CD   and  CE  
ROOT
ATOM      1  CA  LYS A 135      33.193  34.663   9.290  1.00 25.02     0.186 C 
ENDROOT
BRANCH   1   2
ATOM      2  CB  LYS A 135      32.060  35.360  10.034  1.00 26.63     0.034 C 
BRANCH   2   3
ATOM      3  CG  LYS A 135      30.689  34.907   9.604  1.00 29.45     0.005 C 
BRANCH   3   4
ATOM      4  CD  LYS A 135      30.699  34.471   8.147  1.00 32.00     0.041 C 
BRANCH   4   5
ATOM      5  CE  LYS A 135      29.601  35.173   7.373  1.00 34.25     0.338 C 
ATOM      6  NZ  LYS A 135      29.338  36.531   7.926  1.00 35.99     0.618 N 
ENDBRANCH   4   5
ENDBRANCH   3   4
ENDBRANCH   2   3
ENDBRANCH   1   2
END_RES LYS A 135
BEGIN_RES ARG A 124
REMARK  4 active torsions:
REMARK  status: ('A' for Active; 'I' for Inactive)
REMARK    5  A    between atoms: CA   and  CB  
REMARK    6  A    between atoms: CB   and  CG  
REMARK    7  A    between atoms: CG   and  CD  
REMARK    8  A    between atoms: CD   and  NE  
REMARK       I    between atoms: NE   and  CZ  
ROOT
ATOM      7  CA  ARG A 124      31.045  26.515   9.594  1.00 17.84     0.186 C 
ENDROOT
BRANCH   7   8
ATOM      8  CB  ARG A 124      29.529  26.705   9.647  1.00 16.18     0.036 C 
BRANCH   8   9
ATOM      9  CG  ARG A 124      28.914  26.856  11.084  1.00 16.22     0.029 C 
BRANCH   9  10
ATOM     10  CD  ARG A 124      27.550  26.142  11.231  1.00 15.09     0.145 C 
BRANCH  10  11
ATOM     11  NE  ARG A 124      26.412  27.063  11.438  1.00 16.98    -0.083 NA
ATOM     12  CZ  ARG A 124      26.019  27.533  12.617  1.00 18.21     0.782 C 
ATOM     13  NH1 ARG A 124      26.655  27.207  13.736  1.00 21.11     0.063 N 
ATOM     14  NH2 ARG A 124      24.991  28.364  12.689  1.00 21.25     0.063 N 
ENDBRANCH  10  11
ENDBRANCH   9  10
ENDBRANCH   8   9
ENDBRANCH   7   8
END_RES ARG A 124
BEGIN_RES ASN A 133
REMARK  2 active torsions:
REMARK  status: ('A' for Active; 'I' for Inactive)
REMARK    9  A    between atoms: CA   and  CB  
REMARK   10  A    between atoms: CB   and  CG  
ROOT
ATOM     15  CA  ASN A 133      31.225  30.257  11.749  1.00 18.15     0.196 C 
ENDROOT
BRANCH  15  16
ATOM     16  CB  ASN A 133      30.092  31.240  11.460  1.00 18.27     0.126 C 
BRANCH  16  17
ATOM     17  CG  ASN A 133      28.734  30.613  11.526  1.00 18.94     0.276 C 
ATOM     18  OD1 ASN A 133      28.321  29.887  10.620  1.00 18.09    -0.269 OA
ATOM     19  ND2 ASN A 133      28.015  30.893  12.612  1.00 18.93    -0.107 N 
ENDBRANCH  16  17
ENDBRANCH  15  16
END_RES ASN A 133
BEGIN_RES LYS A 131
REMARK  4 active torsions:
REMARK  status: ('A' for Active; 'I' for Inactive)
REMARK   11  A    between atoms: CA   and  CB  
REMARK   12  A    between atoms: CB   and  CG  
REMARK   13  A    between atoms: CG   and  CD  
REMARK   14  A    between atoms: CD   and  CE  
ROOT
ATOM     20  CA  LYS A 131      29.867  25.555  16.977  1.00 20.52     0.186 C 
ENDROOT
BRANCH  20  21
ATOM     21  CB  LYS A 131      28.345  25.722  17.026  1.00 20.94     0.034 C 
BRANCH  21  22
ATOM     22  CG  LYS A 131      27.599  24.434  16.714  1.00 22.96     0.005 C 
BRANCH  22  23
ATOM     23  CD  LYS A 131      26.923  23.862  17.930  1.00 24.33     0.041 C 
BRANCH  23  24
ATOM     24  CE  LYS A 131      25.669  24.671  18.243  1.00 26.91     0.338 C 
ATOM     25  NZ  LYS A 131      24.652  24.483  17.181  1.00 27.40     0.618 N 
ENDBRANCH  23  24
ENDBRANCH  22  23
ENDBRANCH  21  22
ENDBRANCH  20  21
END_RES LYS A 131
