REMARK VINA RESULT:    -2.970      2.723      5.707
REMARK INTER + INTRA:          -8.404
REMARK INTER:                  -3.791
REMARK INTRA:                  -4.613
REMARK UNBOUND:                -5.347
REMARK SMILES NC12CC3CC(CC(C3)C1)C2
REMARK SMILES IDX 2 1 11 2 6 3 5 4 4 5 9 6 8 7 7 8 10 9 3 10 1 11
REMARK H PARENT 1 12 1 13
REMARK Flexibility Score: inf
ROOT
ATOM      1  C   UNL     1      31.633  33.633  15.302  1.00  0.00     0.016 C 
ATOM      2  C   UNL     1      31.659  33.768  16.830  1.00  0.00     0.025 C 
ATOM      3  C   UNL     1      31.813  35.206  17.217  1.00  0.00    -0.009 C 
ATOM      4  C   UNL     1      30.568  35.942  16.752  1.00  0.00     0.007 C 
ATOM      5  C   UNL     1      30.467  35.795  15.263  1.00  0.00    -0.009 C 
ATOM      6  C   UNL     1      31.695  36.429  14.629  1.00  0.00     0.007 C 
ATOM      7  C   UNL     1      32.926  35.724  15.090  1.00  0.00    -0.009 C 
ATOM      8  C   UNL     1      32.996  35.884  16.611  1.00  0.00     0.007 C 
ATOM      9  C   UNL     1      32.928  34.248  14.820  1.00  0.00     0.025 C 
ATOM     10  C   UNL     1      30.418  34.366  14.804  1.00  0.00     0.025 C 
ENDROOT
BRANCH   1  11
ATOM     11  N   UNL     1      31.504  32.256  14.921  1.00  0.00    -0.325 NA
ATOM     12  H   UNL     1      30.517  31.957  14.838  1.00  0.00     0.119 HD
ATOM     13  H   UNL     1      32.132  31.605  15.397  1.00  0.00     0.119 HD
ENDBRANCH   1  11
TORSDOF 1
BEGIN_RES LYS A 135
REMARK  4 active torsions:
REMARK  status: ('A' for Active; 'I' for Inactive)
REMARK    1  A    between atoms: CA   and  CB  
REMARK    2  A    between atoms: CB   and  CG  
REMARK    3  A    between atoms: CG   and  CD  
REMARK    4  A    between atoms: CD   and  CE  
ROOT
ATOM      1  CA  LYS A 135      33.193  34.663   9.290  1.00 25.02     0.186 C 
ENDROOT
BRANCH   1   2
ATOM      2  CB  LYS A 135      32.060  35.360  10.034  1.00 26.63     0.034 C 
BRANCH   2   3
ATOM      3  CG  LYS A 135      30.697  34.799   9.718  1.00 29.45     0.005 C 
BRANCH   3   4
ATOM      4  CD  LYS A 135      30.571  34.499   8.233  1.00 32.00     0.041 C 
BRANCH   4   5
ATOM      5  CE  LYS A 135      29.213  34.931   7.715  1.00 34.25     0.338 C 
ATOM      6  NZ  LYS A 135      28.120  34.434   8.597  1.00 35.99     0.618 N 
ENDBRANCH   4   5
ENDBRANCH   3   4
ENDBRANCH   2   3
ENDBRANCH   1   2
END_RES LYS A 135
BEGIN_RES ARG A 124
REMARK  4 active torsions:
REMARK  status: ('A' for Active; 'I' for Inactive)
REMARK    5  A    between atoms: CA   and  CB  
REMARK    6  A    between atoms: CB   and  CG  
REMARK    7  A    between atoms: CG   and  CD  
REMARK    8  A    between atoms: CD   and  NE  
REMARK       I    between atoms: NE   and  CZ  
ROOT
ATOM      7  CA  ARG A 124      31.045  26.515   9.594  1.00 17.84     0.186 C 
ENDROOT
BRANCH   7   8
ATOM      8  CB  ARG A 124      29.529  26.705   9.647  1.00 16.18     0.036 C 
BRANCH   8   9
ATOM      9  CG  ARG A 124      29.013  27.763  10.687  1.00 16.22     0.029 C 
BRANCH   9  10
ATOM     10  CD  ARG A 124      28.435  27.114  11.966  1.00 15.09     0.145 C 
BRANCH  10  11
ATOM     11  NE  ARG A 124      27.409  27.938  12.643  1.00 16.98    -0.083 NA
ATOM     12  CZ  ARG A 124      26.099  27.824  12.457  1.00 18.21     0.782 C 
ATOM     13  NH1 ARG A 124      25.595  26.918  11.627  1.00 21.11     0.063 N 
ATOM     14  NH2 ARG A 124      25.266  28.607  13.125  1.00 21.25     0.063 N 
ENDBRANCH  10  11
ENDBRANCH   9  10
ENDBRANCH   8   9
ENDBRANCH   7   8
END_RES ARG A 124
BEGIN_RES ASN A 133
REMARK  2 active torsions:
REMARK  status: ('A' for Active; 'I' for Inactive)
REMARK    9  A    between atoms: CA   and  CB  
REMARK   10  A    between atoms: CB   and  CG  
ROOT
ATOM     15  CA  ASN A 133      31.225  30.257  11.749  1.00 18.15     0.196 C 
ENDROOT
BRANCH  15  16
ATOM     16  CB  ASN A 133      30.092  31.240  11.460  1.00 18.27     0.126 C 
BRANCH  16  17
ATOM     17  CG  ASN A 133      28.968  31.154  12.446  1.00 18.94     0.276 C 
ATOM     18  OD1 ASN A 133      29.177  31.216  13.659  1.00 18.09    -0.269 OA
ATOM     19  ND2 ASN A 133      27.749  31.007  11.928  1.00 18.93    -0.107 N 
ENDBRANCH  16  17
ENDBRANCH  15  16
END_RES ASN A 133
BEGIN_RES LYS A 131
REMARK  4 active torsions:
REMARK  status: ('A' for Active; 'I' for Inactive)
REMARK   11  A    between atoms: CA   and  CB  
REMARK   12  A    between atoms: CB   and  CG  
REMARK   13  A    between atoms: CG   and  CD  
REMARK   14  A    between atoms: CD   and  CE  
ROOT
ATOM     20  CA  LYS A 131      29.867  25.555  16.977  1.00 20.52     0.186 C 
ENDROOT
BRANCH  20  21
ATOM     21  CB  LYS A 131      28.345  25.722  17.026  1.00 20.94     0.034 C 
BRANCH  21  22
ATOM     22  CG  LYS A 131      27.726  25.907  15.649  1.00 22.96     0.005 C 
BRANCH  22  23
ATOM     23  CD  LYS A 131      26.276  26.296  15.727  1.00 24.33     0.041 C 
BRANCH  23  24
ATOM     24  CE  LYS A 131      26.091  27.356  16.808  1.00 26.91     0.338 C 
ATOM     25  NZ  LYS A 131      24.854  28.136  16.563  1.00 27.40     0.618 N 
ENDBRANCH  23  24
ENDBRANCH  22  23
ENDBRANCH  21  22
ENDBRANCH  20  21
END_RES LYS A 131
