REMARK VINA RESULT:    -4.518      5.457      8.913
REMARK INTER + INTRA:         -11.087
REMARK INTER:                  -5.057
REMARK INTRA:                  -6.030
REMARK UNBOUND:                -5.644
REMARK SMILES CC(N)CC(=O)c1ccccc1
REMARK SMILES IDX 4 1 2 2 1 3 3 4 5 7 6 8 7 9 8 10 12 11 9 12 11 13 10 14
REMARK H PARENT 3 5 3 6
REMARK Flexibility Score: inf
ROOT
ATOM      1  C   UNL     1      37.840  34.477  14.305  1.00  0.00     0.099 C 
ENDROOT
BRANCH   1   2
ATOM      2  C   UNL     1      37.998  33.351  13.329  1.00  0.00     0.055 C 
ATOM      3  C   UNL     1      36.908  33.411  12.277  1.00  0.00     0.024 C 
BRANCH   2   4
ATOM      4  N   UNL     1      39.305  33.302  12.737  1.00  0.00    -0.328 NA
ATOM      5  H   UNL     1      39.601  32.285  12.741  1.00  0.00     0.119 HD
ATOM      6  H   UNL     1      40.000  33.895  13.265  1.00  0.00     0.119 HD
ENDBRANCH   2   4
ENDBRANCH   1   2
BRANCH   1   7
ATOM      7  C   UNL     1      38.870  34.473  15.358  1.00  0.00     0.164 C 
ATOM      8  O   UNL     1      40.087  34.655  15.110  1.00  0.00    -0.294 OA
BRANCH   7   9
ATOM      9  C   UNL     1      38.496  34.251  16.752  1.00  0.00     0.018 A 
ATOM     10  C   UNL     1      37.731  35.206  17.418  1.00  0.00     0.012 A 
ATOM     11  C   UNL     1      38.885  33.108  17.431  1.00  0.00     0.012 A 
ATOM     12  C   UNL     1      37.367  35.017  18.730  1.00  0.00     0.001 A 
ATOM     13  C   UNL     1      38.528  32.909  18.744  1.00  0.00     0.001 A 
ATOM     14  C   UNL     1      37.771  33.874  19.373  1.00  0.00     0.000 A 
ENDBRANCH   7   9
ENDBRANCH   1   7
TORSDOF 4
BEGIN_RES LYS A 135
REMARK  4 active torsions:
REMARK  status: ('A' for Active; 'I' for Inactive)
REMARK    1  A    between atoms: CA   and  CB  
REMARK    2  A    between atoms: CB   and  CG  
REMARK    3  A    between atoms: CG   and  CD  
REMARK    4  A    between atoms: CD   and  CE  
ROOT
ATOM      1  CA  LYS A 135      33.193  34.663   9.290  1.00 25.02     0.186 C 
ENDROOT
BRANCH   1   2
ATOM      2  CB  LYS A 135      32.060  35.360  10.034  1.00 26.63     0.034 C 
BRANCH   2   3
ATOM      3  CG  LYS A 135      30.702  34.770   9.754  1.00 29.45     0.005 C 
BRANCH   3   4
ATOM      4  CD  LYS A 135      30.524  34.515   8.265  1.00 32.00     0.041 C 
BRANCH   4   5
ATOM      5  CE  LYS A 135      29.131  34.915   7.819  1.00 34.25     0.338 C 
ATOM      6  NZ  LYS A 135      28.312  35.382   8.972  1.00 35.99     0.618 N 
ENDBRANCH   4   5
ENDBRANCH   3   4
ENDBRANCH   2   3
ENDBRANCH   1   2
END_RES LYS A 135
BEGIN_RES ARG A 124
REMARK  4 active torsions:
REMARK  status: ('A' for Active; 'I' for Inactive)
REMARK    5  A    between atoms: CA   and  CB  
REMARK    6  A    between atoms: CB   and  CG  
REMARK    7  A    between atoms: CG   and  CD  
REMARK    8  A    between atoms: CD   and  NE  
REMARK       I    between atoms: NE   and  CZ  
ROOT
ATOM      7  CA  ARG A 124      31.045  26.515   9.594  1.00 17.84     0.186 C 
ENDROOT
BRANCH   7   8
ATOM      8  CB  ARG A 124      29.529  26.705   9.647  1.00 16.18     0.036 C 
BRANCH   8   9
ATOM      9  CG  ARG A 124      28.905  26.788  11.086  1.00 16.22     0.029 C 
BRANCH   9  10
ATOM     10  CD  ARG A 124      27.544  26.064  11.192  1.00 15.09     0.145 C 
BRANCH  10  11
ATOM     11  NE  ARG A 124      26.397  26.974  11.409  1.00 16.98    -0.083 NA
ATOM     12  CZ  ARG A 124      26.019  27.452  12.589  1.00 18.21     0.782 C 
ATOM     13  NH1 ARG A 124      26.677  27.145  13.701  1.00 21.11     0.063 N 
ATOM     14  NH2 ARG A 124      24.982  28.271  12.669  1.00 21.25     0.063 N 
ENDBRANCH  10  11
ENDBRANCH   9  10
ENDBRANCH   8   9
ENDBRANCH   7   8
END_RES ARG A 124
BEGIN_RES ASN A 133
REMARK  2 active torsions:
REMARK  status: ('A' for Active; 'I' for Inactive)
REMARK    9  A    between atoms: CA   and  CB  
REMARK   10  A    between atoms: CB   and  CG  
ROOT
ATOM     15  CA  ASN A 133      31.225  30.257  11.749  1.00 18.15     0.196 C 
ENDROOT
BRANCH  15  16
ATOM     16  CB  ASN A 133      30.092  31.240  11.460  1.00 18.27     0.126 C 
BRANCH  16  17
ATOM     17  CG  ASN A 133      28.732  30.625  11.573  1.00 18.94     0.276 C 
ATOM     18  OD1 ASN A 133      28.334  29.799  10.749  1.00 18.09    -0.269 OA
ATOM     19  ND2 ASN A 133      27.994  31.027  12.607  1.00 18.93    -0.107 N 
ENDBRANCH  16  17
ENDBRANCH  15  16
END_RES ASN A 133
BEGIN_RES LYS A 131
REMARK  4 active torsions:
REMARK  status: ('A' for Active; 'I' for Inactive)
REMARK   11  A    between atoms: CA   and  CB  
REMARK   12  A    between atoms: CB   and  CG  
REMARK   13  A    between atoms: CG   and  CD  
REMARK   14  A    between atoms: CD   and  CE  
ROOT
ATOM     20  CA  LYS A 131      29.867  25.555  16.977  1.00 20.52     0.186 C 
ENDROOT
BRANCH  20  21
ATOM     21  CB  LYS A 131      28.345  25.722  17.026  1.00 20.94     0.034 C 
BRANCH  21  22
ATOM     22  CG  LYS A 131      27.601  24.403  16.888  1.00 22.96     0.005 C 
BRANCH  22  23
ATOM     23  CD  LYS A 131      26.609  24.193  17.998  1.00 24.33     0.041 C 
BRANCH  23  24
ATOM     24  CE  LYS A 131      25.272  23.753  17.409  1.00 26.91     0.338 C 
ATOM     25  NZ  LYS A 131      25.071  22.298  17.608  1.00 27.40     0.618 N 
ENDBRANCH  23  24
ENDBRANCH  22  23
ENDBRANCH  21  22
ENDBRANCH  20  21
END_RES LYS A 131
