REMARK VINA RESULT:    -4.053      0.000      0.000
REMARK INTER + INTRA:          -9.325
REMARK INTER:                  -3.570
REMARK INTRA:                  -5.755
REMARK UNBOUND:                -4.680
REMARK SMILES NCCN1CCCC1
REMARK SMILES IDX 2 1 1 2 3 5 4 6 5 7 8 8 6 9 7 10
REMARK H PARENT 1 3 1 4
REMARK Flexibility Score: inf
ROOT
ATOM      1  C   UNL     1      36.915  33.613  12.497  1.00  0.00     0.093 C 
ENDROOT
BRANCH   1   2
ATOM      2  N   UNL     1      35.483  33.675  12.769  1.00  0.00    -0.329 NA
ATOM      3  H   UNL     1      35.241  33.360  13.735  1.00  0.00     0.118 HD
ATOM      4  H   UNL     1      35.075  34.625  12.554  1.00  0.00     0.118 HD
ENDBRANCH   1   2
BRANCH   1   5
ATOM      5  C   UNL     1      37.732  33.485  13.727  1.00  0.00     0.099 C 
BRANCH   5   6
ATOM      6  N   UNL     1      38.961  34.176  13.789  1.00  0.00    -0.302 NA
ATOM      7  C   UNL     1      39.822  34.055  12.695  1.00  0.00     0.084 C 
ATOM      8  C   UNL     1      39.022  35.392  14.463  1.00  0.00     0.084 C 
ATOM      9  C   UNL     1      40.427  35.424  12.536  1.00  0.00     0.017 C 
ATOM     10  C   UNL     1      39.652  36.324  13.462  1.00  0.00     0.017 C 
ENDBRANCH   5   6
ENDBRANCH   1   5
TORSDOF 3
BEGIN_RES LYS A 135
REMARK  4 active torsions:
REMARK  status: ('A' for Active; 'I' for Inactive)
REMARK    1  A    between atoms: CA   and  CB  
REMARK    2  A    between atoms: CB   and  CG  
REMARK    3  A    between atoms: CG   and  CD  
REMARK    4  A    between atoms: CD   and  CE  
ROOT
ATOM      1  CA  LYS A 135      33.193  34.663   9.290  1.00 25.02     0.186 C 
ENDROOT
BRANCH   1   2
ATOM      2  CB  LYS A 135      32.060  35.360  10.034  1.00 26.63     0.034 C 
BRANCH   2   3
ATOM      3  CG  LYS A 135      30.695  34.815   9.701  1.00 29.45     0.005 C 
BRANCH   3   4
ATOM      4  CD  LYS A 135      30.602  34.467   8.223  1.00 32.00     0.041 C 
BRANCH   4   5
ATOM      5  CE  LYS A 135      29.335  35.041   7.620  1.00 34.25     0.338 C 
ATOM      6  NZ  LYS A 135      28.131  34.591   8.373  1.00 35.99     0.618 N 
ENDBRANCH   4   5
ENDBRANCH   3   4
ENDBRANCH   2   3
ENDBRANCH   1   2
END_RES LYS A 135
BEGIN_RES ARG A 124
REMARK  4 active torsions:
REMARK  status: ('A' for Active; 'I' for Inactive)
REMARK    5  A    between atoms: CA   and  CB  
REMARK    6  A    between atoms: CB   and  CG  
REMARK    7  A    between atoms: CG   and  CD  
REMARK    8  A    between atoms: CD   and  NE  
REMARK       I    between atoms: NE   and  CZ  
ROOT
ATOM      7  CA  ARG A 124      31.045  26.515   9.594  1.00 17.84     0.186 C 
ENDROOT
BRANCH   7   8
ATOM      8  CB  ARG A 124      29.529  26.705   9.647  1.00 16.18     0.036 C 
BRANCH   8   9
ATOM      9  CG  ARG A 124      28.907  26.802  11.086  1.00 16.22     0.029 C 
BRANCH   9  10
ATOM     10  CD  ARG A 124      27.558  26.058  11.208  1.00 15.09     0.145 C 
BRANCH  10  11
ATOM     11  NE  ARG A 124      26.399  26.951  11.427  1.00 16.98    -0.083 NA
ATOM     12  CZ  ARG A 124      26.010  27.415  12.610  1.00 18.21     0.782 C 
ATOM     13  NH1 ARG A 124      26.666  27.107  13.722  1.00 21.11     0.063 N 
ATOM     14  NH2 ARG A 124      24.962  28.220  12.692  1.00 21.25     0.063 N 
ENDBRANCH  10  11
ENDBRANCH   9  10
ENDBRANCH   8   9
ENDBRANCH   7   8
END_RES ARG A 124
BEGIN_RES ASN A 133
REMARK  2 active torsions:
REMARK  status: ('A' for Active; 'I' for Inactive)
REMARK    9  A    between atoms: CA   and  CB  
REMARK   10  A    between atoms: CB   and  CG  
ROOT
ATOM     15  CA  ASN A 133      31.225  30.257  11.749  1.00 18.15     0.196 C 
ENDROOT
BRANCH  15  16
ATOM     16  CB  ASN A 133      30.092  31.240  11.460  1.00 18.27     0.126 C 
BRANCH  16  17
ATOM     17  CG  ASN A 133      28.731  30.631  11.596  1.00 18.94     0.276 C 
ATOM     18  OD1 ASN A 133      28.313  29.812  10.774  1.00 18.09    -0.269 OA
ATOM     19  ND2 ASN A 133      28.016  31.030  12.647  1.00 18.93    -0.107 N 
ENDBRANCH  16  17
ENDBRANCH  15  16
END_RES ASN A 133
BEGIN_RES LYS A 131
REMARK  4 active torsions:
REMARK  status: ('A' for Active; 'I' for Inactive)
REMARK   11  A    between atoms: CA   and  CB  
REMARK   12  A    between atoms: CB   and  CG  
REMARK   13  A    between atoms: CG   and  CD  
REMARK   14  A    between atoms: CD   and  CE  
ROOT
ATOM     20  CA  LYS A 131      29.867  25.555  16.977  1.00 20.52     0.186 C 
ENDROOT
BRANCH  20  21
ATOM     21  CB  LYS A 131      28.345  25.722  17.026  1.00 20.94     0.034 C 
BRANCH  21  22
ATOM     22  CG  LYS A 131      27.600  24.409  16.837  1.00 22.96     0.005 C 
BRANCH  22  23
ATOM     23  CD  LYS A 131      26.181  24.487  17.328  1.00 24.33     0.041 C 
BRANCH  23  24
ATOM     24  CE  LYS A 131      26.126  25.341  18.591  1.00 26.91     0.338 C 
ATOM     25  NZ  LYS A 131      25.504  24.584  19.702  1.00 27.40     0.618 N 
ENDBRANCH  23  24
ENDBRANCH  22  23
ENDBRANCH  21  22
ENDBRANCH  20  21
END_RES LYS A 131
