REMARK VINA RESULT:    -4.643      0.000      0.000
REMARK INTER + INTRA:         -11.237
REMARK INTER:                  -6.452
REMARK INTRA:                  -4.785
REMARK UNBOUND:                -5.644
REMARK SMILES CC(N)CC(=O)c1ccccc1
REMARK SMILES IDX 4 1 2 2 1 3 3 4 5 7 6 8 7 9 8 10 12 11 9 12 11 13 10 14
REMARK H PARENT 3 5 3 6
REMARK Flexibility Score: inf
ROOT
ATOM      1  C   UNL     1      27.749  36.542   5.783  1.00  0.00     0.099 C 
ENDROOT
BRANCH   1   2
ATOM      2  C   UNL     1      27.751  38.036   5.665  1.00  0.00     0.055 C 
ATOM      3  C   UNL     1      29.035  38.606   6.233  1.00  0.00     0.024 C 
BRANCH   2   4
ATOM      4  N   UNL     1      27.514  38.492   4.324  1.00  0.00    -0.328 NA
ATOM      5  H   UNL     1      27.801  39.512   4.297  1.00  0.00     0.119 HD
ATOM      6  H   UNL     1      26.504  38.381   4.041  1.00  0.00     0.119 HD
ENDBRANCH   2   4
ENDBRANCH   1   2
BRANCH   1   7
ATOM      7  C   UNL     1      27.306  36.071   7.106  1.00  0.00     0.164 C 
ATOM      8  O   UNL     1      26.180  36.358   7.582  1.00  0.00    -0.294 OA
BRANCH   7   9
ATOM      9  C   UNL     1      28.186  35.238   7.922  1.00  0.00     0.018 A 
ATOM     10  C   UNL     1      29.553  35.216   7.654  1.00  0.00     0.012 A 
ATOM     11  C   UNL     1      27.691  34.464   8.958  1.00  0.00     0.012 A 
ATOM     12  C   UNL     1      30.399  34.439   8.410  1.00  0.00     0.001 A 
ATOM     13  C   UNL     1      28.527  33.682   9.720  1.00  0.00     0.001 A 
ATOM     14  C   UNL     1      29.875  33.684   9.429  1.00  0.00     0.000 A 
ENDBRANCH   7   9
ENDBRANCH   1   7
TORSDOF 4
BEGIN_RES LYS A 135
REMARK  4 active torsions:
REMARK  status: ('A' for Active; 'I' for Inactive)
REMARK    1  A    between atoms: CA   and  CB  
REMARK    2  A    between atoms: CB   and  CG  
REMARK    3  A    between atoms: CG   and  CD  
REMARK    4  A    between atoms: CD   and  CE  
ROOT
ATOM      1  CA  LYS A 135      33.193  34.663   9.290  1.00 25.02     0.186 C 
ENDROOT
BRANCH   1   2
ATOM      2  CB  LYS A 135      32.060  35.360  10.034  1.00 26.63     0.034 C 
BRANCH   2   3
ATOM      3  CG  LYS A 135      32.535  36.289  11.121  1.00 29.45     0.005 C 
BRANCH   3   4
ATOM      4  CD  LYS A 135      32.335  35.660  12.491  1.00 32.00     0.041 C 
BRANCH   4   5
ATOM      5  CE  LYS A 135      30.982  34.978  12.571  1.00 34.25     0.338 C 
ATOM      6  NZ  LYS A 135      29.914  35.948  12.942  1.00 35.99     0.618 N 
ENDBRANCH   4   5
ENDBRANCH   3   4
ENDBRANCH   2   3
ENDBRANCH   1   2
END_RES LYS A 135
BEGIN_RES ARG A 124
REMARK  4 active torsions:
REMARK  status: ('A' for Active; 'I' for Inactive)
REMARK    5  A    between atoms: CA   and  CB  
REMARK    6  A    between atoms: CB   and  CG  
REMARK    7  A    between atoms: CG   and  CD  
REMARK    8  A    between atoms: CD   and  NE  
REMARK       I    between atoms: NE   and  CZ  
ROOT
ATOM      7  CA  ARG A 124      31.045  26.515   9.594  1.00 17.84     0.186 C 
ENDROOT
BRANCH   7   8
ATOM      8  CB  ARG A 124      29.529  26.705   9.647  1.00 16.18     0.036 C 
BRANCH   8   9
ATOM      9  CG  ARG A 124      28.898  26.728  11.085  1.00 16.22     0.029 C 
BRANCH   9  10
ATOM     10  CD  ARG A 124      27.500  26.069  11.137  1.00 15.09     0.145 C 
BRANCH  10  11
ATOM     11  NE  ARG A 124      26.398  27.022  11.392  1.00 16.98    -0.083 NA
ATOM     12  CZ  ARG A 124      26.082  27.518  12.584  1.00 18.21     0.782 C 
ATOM     13  NH1 ARG A 124      26.768  27.189  13.672  1.00 21.11     0.063 N 
ATOM     14  NH2 ARG A 124      25.081  28.376  12.698  1.00 21.25     0.063 N 
ENDBRANCH  10  11
ENDBRANCH   9  10
ENDBRANCH   8   9
ENDBRANCH   7   8
END_RES ARG A 124
BEGIN_RES ASN A 133
REMARK  2 active torsions:
REMARK  status: ('A' for Active; 'I' for Inactive)
REMARK    9  A    between atoms: CA   and  CB  
REMARK   10  A    between atoms: CB   and  CG  
ROOT
ATOM     15  CA  ASN A 133      31.225  30.257  11.749  1.00 18.15     0.196 C 
ENDROOT
BRANCH  15  16
ATOM     16  CB  ASN A 133      30.092  31.240  11.460  1.00 18.27     0.126 C 
BRANCH  16  17
ATOM     17  CG  ASN A 133      28.733  30.615  11.535  1.00 18.94     0.276 C 
ATOM     18  OD1 ASN A 133      28.363  29.789  10.700  1.00 18.09    -0.269 OA
ATOM     19  ND2 ASN A 133      27.966  31.011  12.550  1.00 18.93    -0.107 N 
ENDBRANCH  16  17
ENDBRANCH  15  16
END_RES ASN A 133
BEGIN_RES LYS A 131
REMARK  4 active torsions:
REMARK  status: ('A' for Active; 'I' for Inactive)
REMARK   11  A    between atoms: CA   and  CB  
REMARK   12  A    between atoms: CB   and  CG  
REMARK   13  A    between atoms: CG   and  CD  
REMARK   14  A    between atoms: CD   and  CE  
ROOT
ATOM     20  CA  LYS A 131      29.867  25.555  16.977  1.00 20.52     0.186 C 
ENDROOT
BRANCH  20  21
ATOM     21  CB  LYS A 131      28.345  25.722  17.026  1.00 20.94     0.034 C 
BRANCH  21  22
ATOM     22  CG  LYS A 131      27.599  24.419  16.781  1.00 22.96     0.005 C 
BRANCH  22  23
ATOM     23  CD  LYS A 131      26.691  24.062  17.925  1.00 24.33     0.041 C 
BRANCH  23  24
ATOM     24  CE  LYS A 131      25.283  23.807  17.396  1.00 26.91     0.338 C 
ATOM     25  NZ  LYS A 131      24.929  22.375  17.534  1.00 27.40     0.618 N 
ENDBRANCH  23  24
ENDBRANCH  22  23
ENDBRANCH  21  22
ENDBRANCH  20  21
END_RES LYS A 131
