REMARK VINA RESULT:    -3.691      4.108      5.696
REMARK INTER + INTRA:          -9.615
REMARK INTER:                  -4.187
REMARK INTRA:                  -5.428
REMARK UNBOUND:                -5.384
REMARK SMILES NCS(=O)(=O)c1ccccc1
REMARK SMILES IDX 2 1 1 2 3 5 4 6 5 7 6 8 7 9 11 10 8 11 10 12 9 13
REMARK H PARENT 1 3 1 4
REMARK Flexibility Score: inf
ROOT
ATOM      1  C   UNL     1      33.638  34.821  14.200  1.00  0.00     0.222 C 
ENDROOT
BRANCH   1   2
ATOM      2  N   UNL     1      33.619  34.791  12.748  1.00  0.00    -0.317 NA
ATOM      3  H   UNL     1      32.948  34.096  12.382  1.00  0.00     0.119 HD
ATOM      4  H   UNL     1      34.565  34.750  12.334  1.00  0.00     0.119 HD
ENDBRANCH   1   2
BRANCH   1   5
ATOM      5  S   UNL     1      31.967  35.090  14.737  1.00  0.00     0.191 S 
ATOM      6  O   UNL     1      31.811  36.430  15.408  1.00  0.00    -0.222 OA
ATOM      7  O   UNL     1      31.071  35.083  13.511  1.00  0.00    -0.222 OA
BRANCH   5   8
ATOM      8  C   UNL     1      31.434  33.833  15.820  1.00  0.00     0.068 A 
ATOM      9  C   UNL     1      31.367  34.116  17.163  1.00  0.00     0.020 A 
ATOM     10  C   UNL     1      31.085  32.586  15.362  1.00  0.00     0.020 A 
ATOM     11  C   UNL     1      30.942  33.115  18.024  1.00  0.00     0.001 A 
ATOM     12  C   UNL     1      30.659  31.580  16.222  1.00  0.00     0.001 A 
ATOM     13  C   UNL     1      30.593  31.869  17.568  1.00  0.00     0.000 A 
ENDBRANCH   5   8
ENDBRANCH   1   5
TORSDOF 3
BEGIN_RES LYS A 135
REMARK  4 active torsions:
REMARK  status: ('A' for Active; 'I' for Inactive)
REMARK    1  A    between atoms: CA   and  CB  
REMARK    2  A    between atoms: CB   and  CG  
REMARK    3  A    between atoms: CG   and  CD  
REMARK    4  A    between atoms: CD   and  CE  
ROOT
ATOM      1  CA  LYS A 135      33.193  34.663   9.290  1.00 25.02     0.186 C 
ENDROOT
BRANCH   1   2
ATOM      2  CB  LYS A 135      32.060  35.360  10.034  1.00 26.63     0.034 C 
BRANCH   2   3
ATOM      3  CG  LYS A 135      30.700  34.781   9.740  1.00 29.45     0.005 C 
BRANCH   3   4
ATOM      4  CD  LYS A 135      30.555  34.479   8.257  1.00 32.00     0.041 C 
BRANCH   4   5
ATOM      5  CE  LYS A 135      29.234  35.008   7.733  1.00 34.25     0.338 C 
ATOM      6  NZ  LYS A 135      29.205  36.497   7.757  1.00 35.99     0.618 N 
ENDBRANCH   4   5
ENDBRANCH   3   4
ENDBRANCH   2   3
ENDBRANCH   1   2
END_RES LYS A 135
BEGIN_RES ARG A 124
REMARK  4 active torsions:
REMARK  status: ('A' for Active; 'I' for Inactive)
REMARK    5  A    between atoms: CA   and  CB  
REMARK    6  A    between atoms: CB   and  CG  
REMARK    7  A    between atoms: CG   and  CD  
REMARK    8  A    between atoms: CD   and  NE  
REMARK       I    between atoms: NE   and  CZ  
ROOT
ATOM      7  CA  ARG A 124      31.045  26.515   9.594  1.00 17.84     0.186 C 
ENDROOT
BRANCH   7   8
ATOM      8  CB  ARG A 124      29.529  26.705   9.647  1.00 16.18     0.036 C 
BRANCH   8   9
ATOM      9  CG  ARG A 124      28.963  27.278  10.996  1.00 16.22     0.029 C 
BRANCH   9  10
ATOM     10  CD  ARG A 124      28.335  26.188  11.894  1.00 15.09     0.145 C 
BRANCH  10  11
ATOM     11  NE  ARG A 124      27.883  26.686  13.212  1.00 16.98    -0.083 NA
ATOM     12  CZ  ARG A 124      26.690  27.217  13.455  1.00 18.21     0.782 C 
ATOM     13  NH1 ARG A 124      25.777  27.331  12.498  1.00 21.11     0.063 N 
ATOM     14  NH2 ARG A 124      26.384  27.622  14.678  1.00 21.25     0.063 N 
ENDBRANCH  10  11
ENDBRANCH   9  10
ENDBRANCH   8   9
ENDBRANCH   7   8
END_RES ARG A 124
BEGIN_RES ASN A 133
REMARK  2 active torsions:
REMARK  status: ('A' for Active; 'I' for Inactive)
REMARK    9  A    between atoms: CA   and  CB  
REMARK   10  A    between atoms: CB   and  CG  
ROOT
ATOM     15  CA  ASN A 133      31.225  30.257  11.749  1.00 18.15     0.196 C 
ENDROOT
BRANCH  15  16
ATOM     16  CB  ASN A 133      30.092  31.240  11.460  1.00 18.27     0.126 C 
BRANCH  16  17
ATOM     17  CG  ASN A 133      28.765  30.784  11.983  1.00 18.94     0.276 C 
ATOM     18  OD1 ASN A 133      28.058  30.007  11.338  1.00 18.09    -0.269 OA
ATOM     19  ND2 ASN A 133      28.409  31.269  13.171  1.00 18.93    -0.107 N 
ENDBRANCH  16  17
ENDBRANCH  15  16
END_RES ASN A 133
BEGIN_RES LYS A 131
REMARK  4 active torsions:
REMARK  status: ('A' for Active; 'I' for Inactive)
REMARK   11  A    between atoms: CA   and  CB  
REMARK   12  A    between atoms: CB   and  CG  
REMARK   13  A    between atoms: CG   and  CD  
REMARK   14  A    between atoms: CD   and  CE  
ROOT
ATOM     20  CA  LYS A 131      29.867  25.555  16.977  1.00 20.52     0.186 C 
ENDROOT
BRANCH  20  21
ATOM     21  CB  LYS A 131      28.345  25.722  17.026  1.00 20.94     0.034 C 
BRANCH  21  22
ATOM     22  CG  LYS A 131      27.601  24.403  16.881  1.00 22.96     0.005 C 
BRANCH  22  23
ATOM     23  CD  LYS A 131      26.140  24.538  17.209  1.00 24.33     0.041 C 
BRANCH  23  24
ATOM     24  CE  LYS A 131      25.744  23.466  18.219  1.00 26.91     0.338 C 
ATOM     25  NZ  LYS A 131      25.015  22.364  17.546  1.00 27.40     0.618 N 
ENDBRANCH  23  24
ENDBRANCH  22  23
ENDBRANCH  21  22
ENDBRANCH  20  21
END_RES LYS A 131
