REMARK VINA RESULT:    -5.852      0.538      4.192
REMARK INTER + INTRA:         -11.683
REMARK INTER:                  -5.693
REMARK INTRA:                  -5.990
REMARK UNBOUND:                -4.804
REMARK SMILES Nc1ccc(S(=O)(=O)c2ccc(N)cc2)cc1
REMARK SMILES IDX 6 1 7 2 8 3 5 4 2 5 3 6 17 7 4 8 16 9 1 10 9 13 10 14 15 15
REMARK SMILES IDX 11 16 14 17 12 18 13 19
REMARK H PARENT 1 11 1 12 13 20 13 21
REMARK Flexibility Score: inf
ROOT
ATOM      1  S   UNL     1      39.321  35.615  16.391  1.00  0.00     0.206 S 
ATOM      2  O   UNL     1      38.873  37.035  16.578  1.00  0.00    -0.219 OA
ATOM      3  O   UNL     1      40.821  35.601  16.487  1.00  0.00    -0.219 OA
ENDROOT
BRANCH   1   4
ATOM      4  C   UNL     1      38.707  34.689  17.737  1.00  0.00     0.072 A 
ATOM      5  C   UNL     1      37.759  33.149  19.881  1.00  0.00     0.031 A 
ATOM      6  C   UNL     1      37.315  34.445  19.685  1.00  0.00     0.027 A 
ATOM      7  C   UNL     1      38.680  32.627  18.998  1.00  0.00     0.027 A 
ATOM      8  C   UNL     1      37.784  35.199  18.630  1.00  0.00     0.023 A 
ATOM      9  C   UNL     1      39.137  33.388  17.954  1.00  0.00     0.023 A 
BRANCH   5  10
ATOM     10  N   UNL     1      37.253  32.409  20.978  1.00  0.00    -0.399 N 
ATOM     11  H   UNL     1      37.716  31.545  21.325  1.00  0.00     0.156 HD
ATOM     12  H   UNL     1      36.390  32.715  21.477  1.00  0.00     0.156 HD
ENDBRANCH   5  10
ENDBRANCH   1   4
BRANCH   1  13
ATOM     13  C   UNL     1      38.767  34.959  14.862  1.00  0.00     0.072 A 
ATOM     14  C   UNL     1      37.534  34.350  14.743  1.00  0.00     0.023 A 
ATOM     15  C   UNL     1      39.545  35.026  13.723  1.00  0.00     0.023 A 
ATOM     16  C   UNL     1      37.099  33.833  13.540  1.00  0.00     0.027 A 
ATOM     17  C   UNL     1      39.110  34.509  12.519  1.00  0.00     0.027 A 
ATOM     18  C   UNL     1      37.876  33.902  12.403  1.00  0.00     0.031 A 
BRANCH  18  19
ATOM     19  N   UNL     1      37.407  33.361  11.168  1.00  0.00    -0.399 N 
ATOM     20  H   UNL     1      36.394  33.155  11.089  1.00  0.00     0.156 HD
ATOM     21  H   UNL     1      38.021  33.167  10.354  1.00  0.00     0.156 HD
ENDBRANCH  18  19
ENDBRANCH   1  13
TORSDOF 4
BEGIN_RES LYS A 135
REMARK  4 active torsions:
REMARK  status: ('A' for Active; 'I' for Inactive)
REMARK    1  A    between atoms: CA   and  CB  
REMARK    2  A    between atoms: CB   and  CG  
REMARK    3  A    between atoms: CG   and  CD  
REMARK    4  A    between atoms: CD   and  CE  
ROOT
ATOM      1  CA  LYS A 135      33.193  34.663   9.290  1.00 25.02     0.186 C 
ENDROOT
BRANCH   1   2
ATOM      2  CB  LYS A 135      32.060  35.360  10.034  1.00 26.63     0.034 C 
BRANCH   2   3
ATOM      3  CG  LYS A 135      30.695  34.819   9.697  1.00 29.45     0.005 C 
BRANCH   3   4
ATOM      4  CD  LYS A 135      30.592  34.509   8.211  1.00 32.00     0.041 C 
BRANCH   4   5
ATOM      5  CE  LYS A 135      29.291  35.042   7.644  1.00 34.25     0.338 C 
ATOM      6  NZ  LYS A 135      28.955  36.370   8.230  1.00 35.99     0.618 N 
ENDBRANCH   4   5
ENDBRANCH   3   4
ENDBRANCH   2   3
ENDBRANCH   1   2
END_RES LYS A 135
BEGIN_RES ARG A 124
REMARK  4 active torsions:
REMARK  status: ('A' for Active; 'I' for Inactive)
REMARK    5  A    between atoms: CA   and  CB  
REMARK    6  A    between atoms: CB   and  CG  
REMARK    7  A    between atoms: CG   and  CD  
REMARK    8  A    between atoms: CD   and  NE  
REMARK       I    between atoms: NE   and  CZ  
ROOT
ATOM      7  CA  ARG A 124      31.045  26.515   9.594  1.00 17.84     0.186 C 
ENDROOT
BRANCH   7   8
ATOM      8  CB  ARG A 124      29.529  26.705   9.647  1.00 16.18     0.036 C 
BRANCH   8   9
ATOM      9  CG  ARG A 124      28.903  26.772  11.086  1.00 16.22     0.029 C 
BRANCH   9  10
ATOM     10  CD  ARG A 124      27.502  26.123  11.161  1.00 15.09     0.145 C 
BRANCH  10  11
ATOM     11  NE  ARG A 124      26.410  27.086  11.425  1.00 16.98    -0.083 NA
ATOM     12  CZ  ARG A 124      26.063  27.531  12.627  1.00 18.21     0.782 C 
ATOM     13  NH1 ARG A 124      26.706  27.138  13.721  1.00 21.11     0.063 N 
ATOM     14  NH2 ARG A 124      25.075  28.404  12.749  1.00 21.25     0.063 N 
ENDBRANCH  10  11
ENDBRANCH   9  10
ENDBRANCH   8   9
ENDBRANCH   7   8
END_RES ARG A 124
BEGIN_RES ASN A 133
REMARK  2 active torsions:
REMARK  status: ('A' for Active; 'I' for Inactive)
REMARK    9  A    between atoms: CA   and  CB  
REMARK   10  A    between atoms: CB   and  CG  
ROOT
ATOM     15  CA  ASN A 133      31.225  30.257  11.749  1.00 18.15     0.196 C 
ENDROOT
BRANCH  15  16
ATOM     16  CB  ASN A 133      30.092  31.240  11.460  1.00 18.27     0.126 C 
BRANCH  16  17
ATOM     17  CG  ASN A 133      28.738  30.600  11.463  1.00 18.94     0.276 C 
ATOM     18  OD1 ASN A 133      28.404  29.810  10.578  1.00 18.09    -0.269 OA
ATOM     19  ND2 ASN A 133      27.935  30.941  12.469  1.00 18.93    -0.107 N 
ENDBRANCH  16  17
ENDBRANCH  15  16
END_RES ASN A 133
BEGIN_RES LYS A 131
REMARK  4 active torsions:
REMARK  status: ('A' for Active; 'I' for Inactive)
REMARK   11  A    between atoms: CA   and  CB  
REMARK   12  A    between atoms: CB   and  CG  
REMARK   13  A    between atoms: CG   and  CD  
REMARK   14  A    between atoms: CD   and  CE  
ROOT
ATOM     20  CA  LYS A 131      29.867  25.555  16.977  1.00 20.52     0.186 C 
ENDROOT
BRANCH  20  21
ATOM     21  CB  LYS A 131      28.345  25.722  17.026  1.00 20.94     0.034 C 
BRANCH  21  22
ATOM     22  CG  LYS A 131      27.599  24.427  16.742  1.00 22.96     0.005 C 
BRANCH  22  23
ATOM     23  CD  LYS A 131      26.773  23.981  17.916  1.00 24.33     0.041 C 
BRANCH  23  24
ATOM     24  CE  LYS A 131      25.299  23.962  17.524  1.00 26.91     0.338 C 
ATOM     25  NZ  LYS A 131      24.665  25.267  17.825  1.00 27.40     0.618 N 
ENDBRANCH  23  24
ENDBRANCH  22  23
ENDBRANCH  21  22
ENDBRANCH  20  21
END_RES LYS A 131
