REMARK VINA RESULT:    -3.562      6.463     13.793
REMARK INTER + INTRA:          -9.502
REMARK INTER:                  -3.406
REMARK INTRA:                  -6.096
REMARK UNBOUND:                -5.627
REMARK SMILES CC(=O)c1ccccc1N
REMARK SMILES IDX 4 1 5 2 6 3 7 4 8 5 9 6 2 7 1 8 3 9 10 10
REMARK H PARENT 10 11 10 12
REMARK Flexibility Score: inf
ROOT
ATOM      1  C   UNL     1      39.440  35.678  13.706  1.00  0.00     0.040 A 
ATOM      2  C   UNL     1      39.323  34.836  12.617  1.00  0.00     0.014 A 
ATOM      3  C   UNL     1      38.515  33.718  12.657  1.00  0.00     0.001 A 
ATOM      4  C   UNL     1      37.788  33.388  13.777  1.00  0.00     0.002 A 
ATOM      5  C   UNL     1      37.893  34.221  14.875  1.00  0.00     0.026 A 
ATOM      6  C   UNL     1      38.716  35.351  14.821  1.00  0.00     0.042 A 
ENDROOT
BRANCH   1   7
ATOM      7  C   UNL     1      40.277  36.845  13.676  1.00  0.00     0.161 C 
ATOM      8  C   UNL     1      39.986  38.070  12.905  1.00  0.00     0.093 C 
ATOM      9  O   UNL     1      41.358  36.838  14.359  1.00  0.00    -0.294 OA
ENDBRANCH   1   7
BRANCH   6  10
ATOM     10  N   UNL     1      38.818  36.198  15.951  1.00  0.00    -0.398 N 
ATOM     11  H   UNL     1      38.172  36.132  16.769  1.00  0.00     0.156 HD
ATOM     12  H   UNL     1      39.556  36.952  16.037  1.00  0.00     0.156 HD
ENDBRANCH   6  10
TORSDOF 2
BEGIN_RES LYS A 135
REMARK  4 active torsions:
REMARK  status: ('A' for Active; 'I' for Inactive)
REMARK    1  A    between atoms: CA   and  CB  
REMARK    2  A    between atoms: CB   and  CG  
REMARK    3  A    between atoms: CG   and  CD  
REMARK    4  A    between atoms: CD   and  CE  
ROOT
ATOM      1  CA  LYS A 135      33.193  34.663   9.290  1.00 25.02     0.186 C 
ENDROOT
BRANCH   1   2
ATOM      2  CB  LYS A 135      32.060  35.360  10.034  1.00 26.63     0.034 C 
BRANCH   2   3
ATOM      3  CG  LYS A 135      30.700  34.779   9.742  1.00 29.45     0.005 C 
BRANCH   3   4
ATOM      4  CD  LYS A 135      30.522  34.557   8.248  1.00 32.00     0.041 C 
BRANCH   4   5
ATOM      5  CE  LYS A 135      29.105  34.894   7.825  1.00 34.25     0.338 C 
ATOM      6  NZ  LYS A 135      29.004  36.308   7.367  1.00 35.99     0.618 N 
ENDBRANCH   4   5
ENDBRANCH   3   4
ENDBRANCH   2   3
ENDBRANCH   1   2
END_RES LYS A 135
BEGIN_RES ARG A 124
REMARK  4 active torsions:
REMARK  status: ('A' for Active; 'I' for Inactive)
REMARK    5  A    between atoms: CA   and  CB  
REMARK    6  A    between atoms: CB   and  CG  
REMARK    7  A    between atoms: CG   and  CD  
REMARK    8  A    between atoms: CD   and  NE  
REMARK       I    between atoms: NE   and  CZ  
ROOT
ATOM      7  CA  ARG A 124      31.045  26.515   9.594  1.00 17.84     0.186 C 
ENDROOT
BRANCH   7   8
ATOM      8  CB  ARG A 124      29.529  26.705   9.647  1.00 16.18     0.036 C 
BRANCH   8   9
ATOM      9  CG  ARG A 124      28.910  26.829  11.085  1.00 16.22     0.029 C 
BRANCH   9  10
ATOM     10  CD  ARG A 124      27.561  26.088  11.224  1.00 15.09     0.145 C 
BRANCH  10  11
ATOM     11  NE  ARG A 124      26.403  26.986  11.429  1.00 16.98    -0.083 NA
ATOM     12  CZ  ARG A 124      26.009  27.461  12.606  1.00 18.21     0.782 C 
ATOM     13  NH1 ARG A 124      26.659  27.160  13.724  1.00 21.11     0.063 N 
ATOM     14  NH2 ARG A 124      24.963  28.269  12.675  1.00 21.25     0.063 N 
ENDBRANCH  10  11
ENDBRANCH   9  10
ENDBRANCH   8   9
ENDBRANCH   7   8
END_RES ARG A 124
BEGIN_RES ASN A 133
REMARK  2 active torsions:
REMARK  status: ('A' for Active; 'I' for Inactive)
REMARK    9  A    between atoms: CA   and  CB  
REMARK   10  A    between atoms: CB   and  CG  
ROOT
ATOM     15  CA  ASN A 133      31.225  30.257  11.749  1.00 18.15     0.196 C 
ENDROOT
BRANCH  15  16
ATOM     16  CB  ASN A 133      30.092  31.240  11.460  1.00 18.27     0.126 C 
BRANCH  16  17
ATOM     17  CG  ASN A 133      28.734  30.612  11.521  1.00 18.94     0.276 C 
ATOM     18  OD1 ASN A 133      28.353  29.829  10.648  1.00 18.09    -0.269 OA
ATOM     19  ND2 ASN A 133      27.980  30.955  12.565  1.00 18.93    -0.107 N 
ENDBRANCH  16  17
ENDBRANCH  15  16
END_RES ASN A 133
BEGIN_RES LYS A 131
REMARK  4 active torsions:
REMARK  status: ('A' for Active; 'I' for Inactive)
REMARK   11  A    between atoms: CA   and  CB  
REMARK   12  A    between atoms: CB   and  CG  
REMARK   13  A    between atoms: CG   and  CD  
REMARK   14  A    between atoms: CD   and  CE  
ROOT
ATOM     20  CA  LYS A 131      29.867  25.555  16.977  1.00 20.52     0.186 C 
ENDROOT
BRANCH  20  21
ATOM     21  CB  LYS A 131      28.345  25.722  17.026  1.00 20.94     0.034 C 
BRANCH  21  22
ATOM     22  CG  LYS A 131      27.600  24.418  16.789  1.00 22.96     0.005 C 
BRANCH  22  23
ATOM     23  CD  LYS A 131      26.850  23.964  18.011  1.00 24.33     0.041 C 
BRANCH  23  24
ATOM     24  CE  LYS A 131      25.721  23.025  17.596  1.00 26.91     0.338 C 
ATOM     25  NZ  LYS A 131      24.573  23.797  17.065  1.00 27.40     0.618 N 
ENDBRANCH  23  24
ENDBRANCH  22  23
ENDBRANCH  21  22
ENDBRANCH  20  21
END_RES LYS A 131
