REMARK VINA RESULT:    -3.108      4.611      6.984
REMARK INTER + INTRA:          -8.164
REMARK INTER:                  -3.563
REMARK INTRA:                  -4.601
REMARK UNBOUND:                -4.965
REMARK SMILES Nc1cccnc1
REMARK SMILES IDX 2 1 3 2 4 3 5 4 6 5 7 6 1 7
REMARK H PARENT 1 8 1 9
REMARK Flexibility Score: inf
ROOT
ATOM      1  C   UNL     1      26.948  36.605   6.653  1.00  0.00     0.050 A 
ATOM      2  C   UNL     1      27.607  35.438   7.023  1.00  0.00     0.029 A 
ATOM      3  C   UNL     1      27.314  34.758   8.184  1.00  0.00     0.022 A 
ATOM      4  C   UNL     1      26.326  35.268   8.994  1.00  0.00     0.111 A 
ATOM      5  N   UNL     1      25.691  36.392   8.637  1.00  0.00    -0.263 NA
ATOM      6  C   UNL     1      25.970  37.066   7.505  1.00  0.00     0.136 A 
ENDROOT
BRANCH   1   7
ATOM      7  N   UNL     1      27.278  37.276   5.449  1.00  0.00    -0.397 N 
ATOM      8  H   UNL     1      28.177  37.803   5.396  1.00  0.00     0.156 HD
ATOM      9  H   UNL     1      26.669  37.275   4.610  1.00  0.00     0.156 HD
ENDBRANCH   1   7
TORSDOF 1
BEGIN_RES LYS A 135
REMARK  4 active torsions:
REMARK  status: ('A' for Active; 'I' for Inactive)
REMARK    1  A    between atoms: CA   and  CB  
REMARK    2  A    between atoms: CB   and  CG  
REMARK    3  A    between atoms: CG   and  CD  
REMARK    4  A    between atoms: CD   and  CE  
ROOT
ATOM      1  CA  LYS A 135      33.193  34.663   9.290  1.00 25.02     0.186 C 
ENDROOT
BRANCH   1   2
ATOM      2  CB  LYS A 135      32.060  35.360  10.034  1.00 26.63     0.034 C 
BRANCH   2   3
ATOM      3  CG  LYS A 135      30.790  35.470   9.231  1.00 29.45     0.005 C 
BRANCH   3   4
ATOM      4  CD  LYS A 135      30.082  36.784   9.523  1.00 32.00     0.041 C 
BRANCH   4   5
ATOM      5  CE  LYS A 135      30.770  37.930   8.807  1.00 34.25     0.338 C 
ATOM      6  NZ  LYS A 135      29.949  38.418   7.664  1.00 35.99     0.618 N 
ENDBRANCH   4   5
ENDBRANCH   3   4
ENDBRANCH   2   3
ENDBRANCH   1   2
END_RES LYS A 135
BEGIN_RES ARG A 124
REMARK  4 active torsions:
REMARK  status: ('A' for Active; 'I' for Inactive)
REMARK    5  A    between atoms: CA   and  CB  
REMARK    6  A    between atoms: CB   and  CG  
REMARK    7  A    between atoms: CG   and  CD  
REMARK    8  A    between atoms: CD   and  NE  
REMARK       I    between atoms: NE   and  CZ  
ROOT
ATOM      7  CA  ARG A 124      31.045  26.515   9.594  1.00 17.84     0.186 C 
ENDROOT
BRANCH   7   8
ATOM      8  CB  ARG A 124      29.529  26.705   9.647  1.00 16.18     0.036 C 
BRANCH   8   9
ATOM      9  CG  ARG A 124      28.970  27.340  10.970  1.00 16.22     0.029 C 
BRANCH   9  10
ATOM     10  CD  ARG A 124      28.409  26.286  11.951  1.00 15.09     0.145 C 
BRANCH  10  11
ATOM     11  NE  ARG A 124      27.981  26.846  13.252  1.00 16.98    -0.083 NA
ATOM     12  CZ  ARG A 124      26.755  27.281  13.526  1.00 18.21     0.782 C 
ATOM     13  NH1 ARG A 124      25.786  27.229  12.620  1.00 21.11     0.063 N 
ATOM     14  NH2 ARG A 124      26.476  27.755  14.730  1.00 21.25     0.063 N 
ENDBRANCH  10  11
ENDBRANCH   9  10
ENDBRANCH   8   9
ENDBRANCH   7   8
END_RES ARG A 124
BEGIN_RES ASN A 133
REMARK  2 active torsions:
REMARK  status: ('A' for Active; 'I' for Inactive)
REMARK    9  A    between atoms: CA   and  CB  
REMARK   10  A    between atoms: CB   and  CG  
ROOT
ATOM     15  CA  ASN A 133      31.225  30.257  11.749  1.00 18.15     0.196 C 
ENDROOT
BRANCH  15  16
ATOM     16  CB  ASN A 133      30.092  31.240  11.460  1.00 18.27     0.126 C 
BRANCH  16  17
ATOM     17  CG  ASN A 133      28.957  31.137  12.432  1.00 18.94     0.276 C 
ATOM     18  OD1 ASN A 133      28.076  30.287  12.296  1.00 18.09    -0.269 OA
ATOM     19  ND2 ASN A 133      28.967  32.016  13.434  1.00 18.93    -0.107 N 
ENDBRANCH  16  17
ENDBRANCH  15  16
END_RES ASN A 133
BEGIN_RES LYS A 131
REMARK  4 active torsions:
REMARK  status: ('A' for Active; 'I' for Inactive)
REMARK   11  A    between atoms: CA   and  CB  
REMARK   12  A    between atoms: CB   and  CG  
REMARK   13  A    between atoms: CG   and  CD  
REMARK   14  A    between atoms: CD   and  CE  
ROOT
ATOM     20  CA  LYS A 131      29.867  25.555  16.977  1.00 20.52     0.186 C 
ENDROOT
BRANCH  20  21
ATOM     21  CB  LYS A 131      28.345  25.722  17.026  1.00 20.94     0.034 C 
BRANCH  21  22
ATOM     22  CG  LYS A 131      27.600  24.414  16.811  1.00 22.96     0.005 C 
BRANCH  22  23
ATOM     23  CD  LYS A 131      26.164  24.501  17.251  1.00 24.33     0.041 C 
BRANCH  23  24
ATOM     24  CE  LYS A 131      25.874  23.396  18.261  1.00 26.91     0.338 C 
ATOM     25  NZ  LYS A 131      25.076  22.315  17.634  1.00 27.40     0.618 N 
ENDBRANCH  23  24
ENDBRANCH  22  23
ENDBRANCH  21  22
ENDBRANCH  20  21
END_RES LYS A 131
