REMARK VINA RESULT:    -3.519      5.880     11.294
REMARK INTER + INTRA:          -8.980
REMARK INTER:                  -3.216
REMARK INTRA:                  -5.764
REMARK UNBOUND:                -5.358
REMARK SMILES Nc1ccccc1
REMARK SMILES IDX 3 1 4 2 5 3 6 4 7 5 2 6 1 7
REMARK H PARENT 1 8 1 9
REMARK Flexibility Score: inf
ROOT
ATOM      1  C   UNL     1      36.243  21.543  21.235  1.00  0.00     0.025 A 
ATOM      2  C   UNL     1      35.659  20.375  20.792  1.00  0.00     0.002 A 
ATOM      3  C   UNL     1      35.063  19.505  21.676  1.00  0.00     0.000 A 
ATOM      4  C   UNL     1      35.070  19.841  23.023  1.00  0.00     0.002 A 
ATOM      5  C   UNL     1      35.652  21.005  23.465  1.00  0.00     0.025 A 
ATOM      6  C   UNL     1      36.254  21.886  22.579  1.00  0.00     0.031 A 
ENDROOT
BRANCH   6   7
ATOM      7  N   UNL     1      36.855  23.088  23.043  1.00  0.00    -0.399 N 
ATOM      8  H   UNL     1      37.879  23.224  23.166  1.00  0.00     0.156 HD
ATOM      9  H   UNL     1      36.237  23.894  23.281  1.00  0.00     0.156 HD
ENDBRANCH   6   7
TORSDOF 1
BEGIN_RES LYS A 135
REMARK  4 active torsions:
REMARK  status: ('A' for Active; 'I' for Inactive)
REMARK    1  A    between atoms: CA   and  CB  
REMARK    2  A    between atoms: CB   and  CG  
REMARK    3  A    between atoms: CG   and  CD  
REMARK    4  A    between atoms: CD   and  CE  
ROOT
ATOM      1  CA  LYS A 135      33.193  34.663   9.290  1.00 25.02     0.186 C 
ENDROOT
BRANCH   1   2
ATOM      2  CB  LYS A 135      32.060  35.360  10.034  1.00 26.63     0.034 C 
BRANCH   2   3
ATOM      3  CG  LYS A 135      30.710  34.731   9.802  1.00 29.45     0.005 C 
BRANCH   3   4
ATOM      4  CD  LYS A 135      30.420  34.619   8.313  1.00 32.00     0.041 C 
BRANCH   4   5
ATOM      5  CE  LYS A 135      28.935  34.776   8.047  1.00 34.25     0.338 C 
ATOM      6  NZ  LYS A 135      28.692  35.507   6.772  1.00 35.99     0.618 N 
ENDBRANCH   4   5
ENDBRANCH   3   4
ENDBRANCH   2   3
ENDBRANCH   1   2
END_RES LYS A 135
BEGIN_RES ARG A 124
REMARK  4 active torsions:
REMARK  status: ('A' for Active; 'I' for Inactive)
REMARK    5  A    between atoms: CA   and  CB  
REMARK    6  A    between atoms: CB   and  CG  
REMARK    7  A    between atoms: CG   and  CD  
REMARK    8  A    between atoms: CD   and  NE  
REMARK       I    between atoms: NE   and  CZ  
ROOT
ATOM      7  CA  ARG A 124      31.045  26.515   9.594  1.00 17.84     0.186 C 
ENDROOT
BRANCH   7   8
ATOM      8  CB  ARG A 124      29.529  26.705   9.647  1.00 16.18     0.036 C 
BRANCH   8   9
ATOM      9  CG  ARG A 124      28.911  26.835  11.085  1.00 16.22     0.029 C 
BRANCH   9  10
ATOM     10  CD  ARG A 124      27.568  26.084  11.231  1.00 15.09     0.145 C 
BRANCH  10  11
ATOM     11  NE  ARG A 124      26.403  26.974  11.430  1.00 16.98    -0.083 NA
ATOM     12  CZ  ARG A 124      25.998  27.444  12.605  1.00 18.21     0.782 C 
ATOM     13  NH1 ARG A 124      26.642  27.146  13.727  1.00 21.11     0.063 N 
ATOM     14  NH2 ARG A 124      24.946  28.245  12.669  1.00 21.25     0.063 N 
ENDBRANCH  10  11
ENDBRANCH   9  10
ENDBRANCH   8   9
ENDBRANCH   7   8
END_RES ARG A 124
BEGIN_RES ASN A 133
REMARK  2 active torsions:
REMARK  status: ('A' for Active; 'I' for Inactive)
REMARK    9  A    between atoms: CA   and  CB  
REMARK   10  A    between atoms: CB   and  CG  
ROOT
ATOM     15  CA  ASN A 133      31.225  30.257  11.749  1.00 18.15     0.196 C 
ENDROOT
BRANCH  15  16
ATOM     16  CB  ASN A 133      30.092  31.240  11.460  1.00 18.27     0.126 C 
BRANCH  16  17
ATOM     17  CG  ASN A 133      28.734  30.614  11.527  1.00 18.94     0.276 C 
ATOM     18  OD1 ASN A 133      28.338  29.851  10.644  1.00 18.09    -0.269 OA
ATOM     19  ND2 ASN A 133      27.996  30.935  12.589  1.00 18.93    -0.107 N 
ENDBRANCH  16  17
ENDBRANCH  15  16
END_RES ASN A 133
BEGIN_RES LYS A 131
REMARK  4 active torsions:
REMARK  status: ('A' for Active; 'I' for Inactive)
REMARK   11  A    between atoms: CA   and  CB  
REMARK   12  A    between atoms: CB   and  CG  
REMARK   13  A    between atoms: CG   and  CD  
REMARK   14  A    between atoms: CD   and  CE  
ROOT
ATOM     20  CA  LYS A 131      29.867  25.555  16.977  1.00 20.52     0.186 C 
ENDROOT
BRANCH  20  21
ATOM     21  CB  LYS A 131      28.345  25.722  17.026  1.00 20.94     0.034 C 
BRANCH  21  22
ATOM     22  CG  LYS A 131      27.601  24.404  16.878  1.00 22.96     0.005 C 
BRANCH  22  23
ATOM     23  CD  LYS A 131      26.137  24.542  17.190  1.00 24.33     0.041 C 
BRANCH  23  24
ATOM     24  CE  LYS A 131      25.566  23.178  17.567  1.00 26.91     0.338 C 
ATOM     25  NZ  LYS A 131      24.162  23.058  17.106  1.00 27.40     0.618 N 
ENDBRANCH  23  24
ENDBRANCH  22  23
ENDBRANCH  21  22
ENDBRANCH  20  21
END_RES LYS A 131
