REMARK VINA RESULT:    -3.533      2.676      6.109
REMARK INTER + INTRA:          -8.931
REMARK INTER:                  -3.731
REMARK INTRA:                  -5.200
REMARK UNBOUND:                -5.295
REMARK SMILES Cc1cc(C)c(N)c(C)c1
REMARK SMILES IDX 1 1 2 2 3 3 4 4 5 5 6 6 8 7 9 8 10 9 7 10
REMARK H PARENT 7 11 7 12
REMARK Flexibility Score: inf
ROOT
ATOM      1  C   UNL     1      30.312  31.274  16.334  1.00  0.00     0.044 C 
ATOM      2  C   UNL     1      31.059  32.573  16.430  1.00  0.00    -0.050 A 
ATOM      3  C   UNL     1      31.712  33.126  15.354  1.00  0.00     0.009 A 
ATOM      4  C   UNL     1      32.401  34.317  15.426  1.00  0.00    -0.028 A 
ATOM      5  C   UNL     1      33.104  34.900  14.241  1.00  0.00     0.046 C 
ATOM      6  C   UNL     1      32.446  34.997  16.626  1.00  0.00     0.037 A 
ATOM      7  C   UNL     1      31.799  34.464  17.723  1.00  0.00    -0.028 A 
ATOM      8  C   UNL     1      31.837  35.184  19.030  1.00  0.00     0.046 C 
ATOM      9  C   UNL     1      31.116  33.269  17.623  1.00  0.00     0.009 A 
ENDROOT
BRANCH   6  10
ATOM     10  N   UNL     1      33.149  36.227  16.733  1.00  0.00    -0.398 N 
ATOM     11  H   UNL     1      33.892  36.431  17.415  1.00  0.00     0.156 HD
ATOM     12  H   UNL     1      32.891  36.991  16.064  1.00  0.00     0.156 HD
ENDBRANCH   6  10
TORSDOF 1
BEGIN_RES LYS A 135
REMARK  4 active torsions:
REMARK  status: ('A' for Active; 'I' for Inactive)
REMARK    1  A    between atoms: CA   and  CB  
REMARK    2  A    between atoms: CB   and  CG  
REMARK    3  A    between atoms: CG   and  CD  
REMARK    4  A    between atoms: CD   and  CE  
ROOT
ATOM      1  CA  LYS A 135      33.193  34.663   9.290  1.00 25.02     0.186 C 
ENDROOT
BRANCH   1   2
ATOM      2  CB  LYS A 135      32.060  35.360  10.034  1.00 26.63     0.034 C 
BRANCH   2   3
ATOM      3  CG  LYS A 135      30.809  35.523   9.210  1.00 29.45     0.005 C 
BRANCH   3   4
ATOM      4  CD  LYS A 135      30.243  34.167   8.819  1.00 32.00     0.041 C 
BRANCH   4   5
ATOM      5  CE  LYS A 135      28.733  34.158   8.965  1.00 34.25     0.338 C 
ATOM      6  NZ  LYS A 135      28.084  34.938   7.876  1.00 35.99     0.618 N 
ENDBRANCH   4   5
ENDBRANCH   3   4
ENDBRANCH   2   3
ENDBRANCH   1   2
END_RES LYS A 135
BEGIN_RES ARG A 124
REMARK  4 active torsions:
REMARK  status: ('A' for Active; 'I' for Inactive)
REMARK    5  A    between atoms: CA   and  CB  
REMARK    6  A    between atoms: CB   and  CG  
REMARK    7  A    between atoms: CG   and  CD  
REMARK    8  A    between atoms: CD   and  NE  
REMARK       I    between atoms: NE   and  CZ  
ROOT
ATOM      7  CA  ARG A 124      31.045  26.515   9.594  1.00 17.84     0.186 C 
ENDROOT
BRANCH   7   8
ATOM      8  CB  ARG A 124      29.529  26.705   9.647  1.00 16.18     0.036 C 
BRANCH   8   9
ATOM      9  CG  ARG A 124      28.757  25.737  10.613  1.00 16.22     0.029 C 
BRANCH   9  10
ATOM     10  CD  ARG A 124      28.569  26.327  12.030  1.00 15.09     0.145 C 
BRANCH  10  11
ATOM     11  NE  ARG A 124      27.188  26.772  12.315  1.00 16.98    -0.083 NA
ATOM     12  CZ  ARG A 124      26.832  27.537  13.341  1.00 18.21     0.782 C 
ATOM     13  NH1 ARG A 124      27.728  27.985  14.211  1.00 21.11     0.063 N 
ATOM     14  NH2 ARG A 124      25.564  27.886  13.496  1.00 21.25     0.063 N 
ENDBRANCH  10  11
ENDBRANCH   9  10
ENDBRANCH   8   9
ENDBRANCH   7   8
END_RES ARG A 124
BEGIN_RES ASN A 133
REMARK  2 active torsions:
REMARK  status: ('A' for Active; 'I' for Inactive)
REMARK    9  A    between atoms: CA   and  CB  
REMARK   10  A    between atoms: CB   and  CG  
ROOT
ATOM     15  CA  ASN A 133      31.225  30.257  11.749  1.00 18.15     0.196 C 
ENDROOT
BRANCH  15  16
ATOM     16  CB  ASN A 133      30.092  31.240  11.460  1.00 18.27     0.126 C 
BRANCH  16  17
ATOM     17  CG  ASN A 133      28.731  30.659  11.689  1.00 18.94     0.276 C 
ATOM     18  OD1 ASN A 133      27.995  31.089  12.579  1.00 18.09    -0.269 OA
ATOM     19  ND2 ASN A 133      28.380  29.660  10.880  1.00 18.93    -0.107 N 
ENDBRANCH  16  17
ENDBRANCH  15  16
END_RES ASN A 133
BEGIN_RES LYS A 131
REMARK  4 active torsions:
REMARK  status: ('A' for Active; 'I' for Inactive)
REMARK   11  A    between atoms: CA   and  CB  
REMARK   12  A    between atoms: CB   and  CG  
REMARK   13  A    between atoms: CG   and  CD  
REMARK   14  A    between atoms: CD   and  CE  
ROOT
ATOM     20  CA  LYS A 131      29.867  25.555  16.977  1.00 20.52     0.186 C 
ENDROOT
BRANCH  20  21
ATOM     21  CB  LYS A 131      28.345  25.722  17.026  1.00 20.94     0.034 C 
BRANCH  21  22
ATOM     22  CG  LYS A 131      27.601  24.406  16.857  1.00 22.96     0.005 C 
BRANCH  22  23
ATOM     23  CD  LYS A 131      26.153  24.520  17.249  1.00 24.33     0.041 C 
BRANCH  23  24
ATOM     24  CE  LYS A 131      26.045  24.647  18.765  1.00 26.91     0.338 C 
ATOM     25  NZ  LYS A 131      25.552  23.381  19.357  1.00 27.40     0.618 N 
ENDBRANCH  23  24
ENDBRANCH  22  23
ENDBRANCH  21  22
ENDBRANCH  20  21
END_RES LYS A 131
