REMARK VINA RESULT:    -8.797      6.438      6.743
REMARK INTER + INTRA:          -7.786
REMARK INTER:                  -3.136
REMARK INTRA:                  -4.650
REMARK UNBOUND:                 4.353
REMARK SMILES NC1CC(O)C=C[C@@H](O)C1
REMARK SMILES IDX 8 1 10 2 2 3 1 4 3 7 7 9 6 10 4 11 5 13 9 15
REMARK H PARENT 1 5 1 6 5 14 9 16
REMARK Flexibility Score: 80.00
ROOT
ATOM      1  C   UNL     1      35.321  18.242  24.310  1.00  0.00     0.138 C 
ENDROOT
BRANCH   1   2
ATOM      2  C   UNL     1      35.871  18.483  22.950  1.00  0.00     0.054 C 
BRANCH   2   3
ATOM      3  C   UNL     1      35.098  19.441  22.114  1.00  0.00     0.056 C 
BRANCH   3   4
ATOM      4  N   UNL     1      35.902  20.047  21.070  1.00  0.00    -0.327 NA
ATOM      5  H   UNL     1      36.893  19.666  21.125  1.00  0.00     0.119 HD
ATOM      6  H   UNL     1      36.011  21.079  21.249  1.00  0.00     0.119 HD
ENDBRANCH   3   4
BRANCH   3   7
ATOM      7  C   UNL     1      33.799  18.889  21.589  1.00  0.00     0.054 CG0
ATOM      8  G   UNL     1      32.732  18.764  22.623  1.00  0.00     0.000 G0
ENDBRANCH   3   7
ENDBRANCH   2   3
ENDBRANCH   1   2
BRANCH   1   9
ATOM      9  C   UNL     1      34.062  17.451  24.318  1.00  0.00     0.002 C 
ATOM     10  C   UNL     1      32.953  17.656  23.616  1.00  0.00     0.002 C 
BRANCH  10  11
ATOM     11  C   UNL     1      32.717  18.753  22.641  1.00  0.00     0.138 CG0
ATOM     12  G   UNL     1      33.795  18.869  21.618  1.00  0.00     0.000 G0
BRANCH  11  13
ATOM     13  O   UNL     1      31.482  18.563  22.037  1.00  0.00    -0.389 OA
ATOM     14  H   UNL     1      31.107  19.428  21.706  1.00  0.00     0.211 HD
ENDBRANCH  11  13
ENDBRANCH  10  11
ENDBRANCH   1   9
BRANCH   1  15
ATOM     15  O   UNL     1      36.229  17.648  25.183  1.00  0.00    -0.389 OA
ATOM     16  H   UNL     1      36.257  18.201  25.990  1.00  0.00     0.211 HD
ENDBRANCH   1  15
TORSDOF 3
BEGIN_RES LYS A 135
REMARK  4 active torsions:
REMARK  status: ('A' for Active; 'I' for Inactive)
REMARK    1  A    between atoms: CA   and  CB  
REMARK    2  A    between atoms: CB   and  CG  
REMARK    3  A    between atoms: CG   and  CD  
REMARK    4  A    between atoms: CD   and  CE  
ROOT
ATOM      1  CA  LYS A 135      33.193  34.663   9.290  1.00 25.02     0.186 C 
ENDROOT
BRANCH   1   2
ATOM      2  CB  LYS A 135      32.060  35.360  10.034  1.00 26.63     0.034 C 
BRANCH   2   3
ATOM      3  CG  LYS A 135      30.707  34.744   9.785  1.00 29.45     0.005 C 
BRANCH   3   4
ATOM      4  CD  LYS A 135      30.437  34.628   8.293  1.00 32.00     0.041 C 
BRANCH   4   5
ATOM      5  CE  LYS A 135      28.979  34.918   7.992  1.00 34.25     0.338 C 
ATOM      6  NZ  LYS A 135      28.831  35.633   6.695  1.00 35.99     0.618 N 
ENDBRANCH   4   5
ENDBRANCH   3   4
ENDBRANCH   2   3
ENDBRANCH   1   2
END_RES LYS A 135
BEGIN_RES ARG A 124
REMARK  4 active torsions:
REMARK  status: ('A' for Active; 'I' for Inactive)
REMARK    5  A    between atoms: CA   and  CB  
REMARK    6  A    between atoms: CB   and  CG  
REMARK    7  A    between atoms: CG   and  CD  
REMARK    8  A    between atoms: CD   and  NE  
REMARK       I    between atoms: NE   and  CZ  
ROOT
ATOM      7  CA  ARG A 124      31.045  26.515   9.594  1.00 17.84     0.186 C 
ENDROOT
BRANCH   7   8
ATOM      8  CB  ARG A 124      29.529  26.705   9.647  1.00 16.18     0.036 C 
BRANCH   8   9
ATOM      9  CG  ARG A 124      28.908  26.811  11.086  1.00 16.22     0.029 C 
BRANCH   9  10
ATOM     10  CD  ARG A 124      27.568  26.051  11.218  1.00 15.09     0.145 C 
BRANCH  10  11
ATOM     11  NE  ARG A 124      26.401  26.931  11.446  1.00 16.98    -0.083 NA
ATOM     12  CZ  ARG A 124      26.023  27.402  12.629  1.00 18.21     0.782 C 
ATOM     13  NH1 ARG A 124      26.700  27.114  13.734  1.00 21.11     0.063 N 
ATOM     14  NH2 ARG A 124      24.966  28.194  12.718  1.00 21.25     0.063 N 
ENDBRANCH  10  11
ENDBRANCH   9  10
ENDBRANCH   8   9
ENDBRANCH   7   8
END_RES ARG A 124
BEGIN_RES ASN A 133
REMARK  2 active torsions:
REMARK  status: ('A' for Active; 'I' for Inactive)
REMARK    9  A    between atoms: CA   and  CB  
REMARK   10  A    between atoms: CB   and  CG  
ROOT
ATOM     15  CA  ASN A 133      31.225  30.257  11.749  1.00 18.15     0.196 C 
ENDROOT
BRANCH  15  16
ATOM     16  CB  ASN A 133      30.092  31.240  11.460  1.00 18.27     0.126 C 
BRANCH  16  17
ATOM     17  CG  ASN A 133      28.733  30.671  11.726  1.00 18.94     0.276 C 
ATOM     18  OD1 ASN A 133      28.097  30.982  12.734  1.00 18.09    -0.269 OA
ATOM     19  ND2 ASN A 133      28.269  29.818  10.813  1.00 18.93    -0.107 N 
ENDBRANCH  16  17
ENDBRANCH  15  16
END_RES ASN A 133
BEGIN_RES LYS A 131
REMARK  4 active torsions:
REMARK  status: ('A' for Active; 'I' for Inactive)
REMARK   11  A    between atoms: CA   and  CB  
REMARK   12  A    between atoms: CB   and  CG  
REMARK   13  A    between atoms: CG   and  CD  
REMARK   14  A    between atoms: CD   and  CE  
ROOT
ATOM     20  CA  LYS A 131      29.867  25.555  16.977  1.00 20.52     0.186 C 
ENDROOT
BRANCH  20  21
ATOM     21  CB  LYS A 131      28.345  25.722  17.026  1.00 20.94     0.034 C 
BRANCH  21  22
ATOM     22  CG  LYS A 131      27.600  24.409  16.839  1.00 22.96     0.005 C 
BRANCH  22  23
ATOM     23  CD  LYS A 131      26.199  24.471  17.381  1.00 24.33     0.041 C 
BRANCH  23  24
ATOM     24  CE  LYS A 131      26.001  25.783  18.133  1.00 26.91     0.338 C 
ATOM     25  NZ  LYS A 131      25.777  25.525  19.575  1.00 27.40     0.618 N 
ENDBRANCH  23  24
ENDBRANCH  22  23
ENDBRANCH  21  22
ENDBRANCH  20  21
END_RES LYS A 131
