REMARK VINA RESULT:    -2.858      4.510      8.193
REMARK INTER + INTRA:          -8.421
REMARK INTER:                  -2.720
REMARK INTRA:                  -5.701
REMARK UNBOUND:                -5.479
REMARK SMILES CN1C2CCC1CC(N)C2
REMARK SMILES IDX 1 1 2 2 3 3 4 4 5 5 6 6 7 7 8 8 10 9 9 10
REMARK H PARENT 9 11 9 12
REMARK Flexibility Score: inf
ROOT
ATOM      1  C   UNL     1      28.713  30.034  19.668  1.00  0.00     0.105 C 
ATOM      2  N   UNL     1      29.448  29.684  20.769  1.00  0.00    -0.300 NA
ATOM      3  C   UNL     1      29.217  28.529  21.512  1.00  0.00     0.058 C 
ATOM      4  C   UNL     1      29.736  28.957  22.895  1.00  0.00     0.021 C 
ATOM      5  C   UNL     1      30.718  30.089  22.609  1.00  0.00     0.021 C 
ATOM      6  C   UNL     1      30.691  30.192  21.074  1.00  0.00     0.058 C 
ATOM      7  C   UNL     1      31.789  29.282  20.578  1.00  0.00     0.038 C 
ATOM      8  C   UNL     1      31.546  27.837  20.872  1.00  0.00     0.053 C 
ATOM      9  C   UNL     1      30.127  27.431  20.966  1.00  0.00     0.038 C 
ENDROOT
BRANCH   8  10
ATOM     10  N   UNL     1      32.188  27.057  19.829  1.00  0.00    -0.328 NA
ATOM     11  H   UNL     1      32.934  27.558  19.335  1.00  0.00     0.119 HD
ATOM     12  H   UNL     1      31.529  26.537  19.243  1.00  0.00     0.119 HD
ENDBRANCH   8  10
TORSDOF 1
BEGIN_RES LYS A 135
REMARK  4 active torsions:
REMARK  status: ('A' for Active; 'I' for Inactive)
REMARK    1  A    between atoms: CA   and  CB  
REMARK    2  A    between atoms: CB   and  CG  
REMARK    3  A    between atoms: CG   and  CD  
REMARK    4  A    between atoms: CD   and  CE  
ROOT
ATOM      1  CA  LYS A 135      33.193  34.663   9.290  1.00 25.02     0.186 C 
ENDROOT
BRANCH   1   2
ATOM      2  CB  LYS A 135      32.060  35.360  10.034  1.00 26.63     0.034 C 
BRANCH   2   3
ATOM      3  CG  LYS A 135      30.697  34.799   9.718  1.00 29.45     0.005 C 
BRANCH   3   4
ATOM      4  CD  LYS A 135      30.591  34.447   8.243  1.00 32.00     0.041 C 
BRANCH   4   5
ATOM      5  CE  LYS A 135      29.378  35.115   7.622  1.00 34.25     0.338 C 
ATOM      6  NZ  LYS A 135      28.121  34.657   8.275  1.00 35.99     0.618 N 
ENDBRANCH   4   5
ENDBRANCH   3   4
ENDBRANCH   2   3
ENDBRANCH   1   2
END_RES LYS A 135
BEGIN_RES ARG A 124
REMARK  4 active torsions:
REMARK  status: ('A' for Active; 'I' for Inactive)
REMARK    5  A    between atoms: CA   and  CB  
REMARK    6  A    between atoms: CB   and  CG  
REMARK    7  A    between atoms: CG   and  CD  
REMARK    8  A    between atoms: CD   and  NE  
REMARK       I    between atoms: NE   and  CZ  
ROOT
ATOM      7  CA  ARG A 124      31.045  26.515   9.594  1.00 17.84     0.186 C 
ENDROOT
BRANCH   7   8
ATOM      8  CB  ARG A 124      29.529  26.705   9.647  1.00 16.18     0.036 C 
BRANCH   8   9
ATOM      9  CG  ARG A 124      28.898  26.731  11.085  1.00 16.22     0.029 C 
BRANCH   9  10
ATOM     10  CD  ARG A 124      27.496  26.081  11.137  1.00 15.09     0.145 C 
BRANCH  10  11
ATOM     11  NE  ARG A 124      26.402  27.039  11.404  1.00 16.98    -0.083 NA
ATOM     12  CZ  ARG A 124      26.107  27.542  12.598  1.00 18.21     0.782 C 
ATOM     13  NH1 ARG A 124      26.809  27.217  13.677  1.00 21.11     0.063 N 
ATOM     14  NH2 ARG A 124      25.110  28.405  12.724  1.00 21.25     0.063 N 
ENDBRANCH  10  11
ENDBRANCH   9  10
ENDBRANCH   8   9
ENDBRANCH   7   8
END_RES ARG A 124
BEGIN_RES ASN A 133
REMARK  2 active torsions:
REMARK  status: ('A' for Active; 'I' for Inactive)
REMARK    9  A    between atoms: CA   and  CB  
REMARK   10  A    between atoms: CB   and  CG  
ROOT
ATOM     15  CA  ASN A 133      31.225  30.257  11.749  1.00 18.15     0.196 C 
ENDROOT
BRANCH  15  16
ATOM     16  CB  ASN A 133      30.092  31.240  11.460  1.00 18.27     0.126 C 
BRANCH  16  17
ATOM     17  CG  ASN A 133      28.734  30.614  11.528  1.00 18.94     0.276 C 
ATOM     18  OD1 ASN A 133      28.353  29.821  10.664  1.00 18.09    -0.269 OA
ATOM     19  ND2 ASN A 133      27.979  30.969  12.567  1.00 18.93    -0.107 N 
ENDBRANCH  16  17
ENDBRANCH  15  16
END_RES ASN A 133
BEGIN_RES LYS A 131
REMARK  4 active torsions:
REMARK  status: ('A' for Active; 'I' for Inactive)
REMARK   11  A    between atoms: CA   and  CB  
REMARK   12  A    between atoms: CB   and  CG  
REMARK   13  A    between atoms: CG   and  CD  
REMARK   14  A    between atoms: CD   and  CE  
ROOT
ATOM     20  CA  LYS A 131      29.867  25.555  16.977  1.00 20.52     0.186 C 
ENDROOT
BRANCH  20  21
ATOM     21  CB  LYS A 131      28.345  25.722  17.026  1.00 20.94     0.034 C 
BRANCH  21  22
ATOM     22  CG  LYS A 131      27.601  24.400  16.909  1.00 22.96     0.005 C 
BRANCH  22  23
ATOM     23  CD  LYS A 131      26.614  24.204  18.026  1.00 24.33     0.041 C 
BRANCH  23  24
ATOM     24  CE  LYS A 131      25.670  23.059  17.676  1.00 26.91     0.338 C 
ATOM     25  NZ  LYS A 131      24.911  22.628  18.873  1.00 27.40     0.618 N 
ENDBRANCH  23  24
ENDBRANCH  22  23
ENDBRANCH  21  22
ENDBRANCH  20  21
END_RES LYS A 131
