REMARK VINA RESULT:    -9.283      7.891     14.387
REMARK INTER + INTRA:          -8.457
REMARK INTER:                  -3.943
REMARK INTRA:                  -4.514
REMARK UNBOUND:                 4.353
REMARK SMILES NC1CC(O)C=C[C@@H](O)C1
REMARK SMILES IDX 8 1 10 2 2 3 1 4 3 7 7 9 6 10 4 11 5 13 9 15
REMARK H PARENT 1 5 1 6 5 14 9 16
REMARK Flexibility Score: 80.00
ROOT
ATOM      1  C   UNL     1      28.735  37.465   5.414  1.00  0.00     0.138 C 
ENDROOT
BRANCH   1   2
ATOM      2  C   UNL     1      29.181  38.435   6.449  1.00  0.00     0.054 C 
BRANCH   2   3
ATOM      3  C   UNL     1      29.073  37.956   7.854  1.00  0.00     0.056 C 
BRANCH   3   4
ATOM      4  N   UNL     1      29.940  38.686   8.760  1.00  0.00    -0.327 NA
ATOM      5  H   UNL     1      30.129  38.089   9.620  1.00  0.00     0.119 HD
ATOM      6  H   UNL     1      29.439  39.532   9.138  1.00  0.00     0.119 HD
ENDBRANCH   3   4
BRANCH   3   7
ATOM      7  C   UNL     1      27.660  37.862   8.364  1.00  0.00     0.054 CG0
ATOM      8  G   UNL     1      26.893  36.707   7.816  1.00  0.00     0.000 G0
ENDBRANCH   3   7
ENDBRANCH   2   3
ENDBRANCH   1   2
BRANCH   1   9
ATOM      9  C   UNL     1      28.447  36.107   5.947  1.00  0.00     0.002 C 
ATOM     10  C   UNL     1      27.657  35.767   6.960  1.00  0.00     0.002 C 
BRANCH  10  11
ATOM     11  C   UNL     1      26.863  36.694   7.808  1.00  0.00     0.138 CG0
ATOM     12  G   UNL     1      27.667  37.828   8.348  1.00  0.00     0.000 G0
BRANCH  11  13
ATOM     13  O   UNL     1      25.780  37.161   7.077  1.00  0.00    -0.389 OA
ATOM     14  H   UNL     1      25.591  38.119   7.286  1.00  0.00     0.211 HD
ENDBRANCH  11  13
ENDBRANCH  10  11
ENDBRANCH   1   9
BRANCH   1  15
ATOM     15  O   UNL     1      27.636  37.900   4.678  1.00  0.00    -0.389 OA
ATOM     16  H   UNL     1      26.996  37.159   4.650  1.00  0.00     0.211 HD
ENDBRANCH   1  15
TORSDOF 3
BEGIN_RES LYS A 135
REMARK  4 active torsions:
REMARK  status: ('A' for Active; 'I' for Inactive)
REMARK    1  A    between atoms: CA   and  CB  
REMARK    2  A    between atoms: CB   and  CG  
REMARK    3  A    between atoms: CG   and  CD  
REMARK    4  A    between atoms: CD   and  CE  
ROOT
ATOM      1  CA  LYS A 135      33.193  34.663   9.290  1.00 25.02     0.186 C 
ENDROOT
BRANCH   1   2
ATOM      2  CB  LYS A 135      32.060  35.360  10.034  1.00 26.63     0.034 C 
BRANCH   2   3
ATOM      3  CG  LYS A 135      30.688  34.924   9.587  1.00 29.45     0.005 C 
BRANCH   3   4
ATOM      4  CD  LYS A 135      29.619  35.487  10.511  1.00 32.00     0.041 C 
BRANCH   4   5
ATOM      5  CE  LYS A 135      28.462  34.516  10.640  1.00 34.25     0.338 C 
ATOM      6  NZ  LYS A 135      28.432  33.562   9.498  1.00 35.99     0.618 N 
ENDBRANCH   4   5
ENDBRANCH   3   4
ENDBRANCH   2   3
ENDBRANCH   1   2
END_RES LYS A 135
BEGIN_RES ARG A 124
REMARK  4 active torsions:
REMARK  status: ('A' for Active; 'I' for Inactive)
REMARK    5  A    between atoms: CA   and  CB  
REMARK    6  A    between atoms: CB   and  CG  
REMARK    7  A    between atoms: CG   and  CD  
REMARK    8  A    between atoms: CD   and  NE  
REMARK       I    between atoms: NE   and  CZ  
ROOT
ATOM      7  CA  ARG A 124      31.045  26.515   9.594  1.00 17.84     0.186 C 
ENDROOT
BRANCH   7   8
ATOM      8  CB  ARG A 124      29.529  26.705   9.647  1.00 16.18     0.036 C 
BRANCH   8   9
ATOM      9  CG  ARG A 124      28.890  26.673  11.082  1.00 16.22     0.029 C 
BRANCH   9  10
ATOM     10  CD  ARG A 124      27.466  26.072  11.091  1.00 15.09     0.145 C 
BRANCH  10  11
ATOM     11  NE  ARG A 124      26.407  27.049  11.424  1.00 16.98    -0.083 NA
ATOM     12  CZ  ARG A 124      26.134  27.486  12.649  1.00 18.21     0.782 C 
ATOM     13  NH1 ARG A 124      26.829  27.070  13.701  1.00 21.11     0.063 N 
ATOM     14  NH2 ARG A 124      25.169  28.373  12.834  1.00 21.25     0.063 N 
ENDBRANCH  10  11
ENDBRANCH   9  10
ENDBRANCH   8   9
ENDBRANCH   7   8
END_RES ARG A 124
BEGIN_RES ASN A 133
REMARK  2 active torsions:
REMARK  status: ('A' for Active; 'I' for Inactive)
REMARK    9  A    between atoms: CA   and  CB  
REMARK   10  A    between atoms: CB   and  CG  
ROOT
ATOM     15  CA  ASN A 133      31.225  30.257  11.749  1.00 18.15     0.196 C 
ENDROOT
BRANCH  15  16
ATOM     16  CB  ASN A 133      30.092  31.240  11.460  1.00 18.27     0.126 C 
BRANCH  16  17
ATOM     17  CG  ASN A 133      28.733  30.615  11.534  1.00 18.94     0.276 C 
ATOM     18  OD1 ASN A 133      28.387  29.744  10.734  1.00 18.09    -0.269 OA
ATOM     19  ND2 ASN A 133      27.939  31.061  12.507  1.00 18.93    -0.107 N 
ENDBRANCH  16  17
ENDBRANCH  15  16
END_RES ASN A 133
BEGIN_RES LYS A 131
REMARK  4 active torsions:
REMARK  status: ('A' for Active; 'I' for Inactive)
REMARK   11  A    between atoms: CA   and  CB  
REMARK   12  A    between atoms: CB   and  CG  
REMARK   13  A    between atoms: CG   and  CD  
REMARK   14  A    between atoms: CD   and  CE  
ROOT
ATOM     20  CA  LYS A 131      29.867  25.555  16.977  1.00 20.52     0.186 C 
ENDROOT
BRANCH  20  21
ATOM     21  CB  LYS A 131      28.345  25.722  17.026  1.00 20.94     0.034 C 
BRANCH  21  22
ATOM     22  CG  LYS A 131      27.600  24.411  16.826  1.00 22.96     0.005 C 
BRANCH  22  23
ATOM     23  CD  LYS A 131      26.227  24.441  17.437  1.00 24.33     0.041 C 
BRANCH  23  24
ATOM     24  CE  LYS A 131      26.159  25.550  18.482  1.00 26.91     0.338 C 
ATOM     25  NZ  LYS A 131      25.546  25.047  19.734  1.00 27.40     0.618 N 
ENDBRANCH  23  24
ENDBRANCH  22  23
ENDBRANCH  21  22
ENDBRANCH  20  21
END_RES LYS A 131
