REMARK VINA RESULT:    -2.904      4.489      5.461
REMARK INTER + INTRA:          -9.680
REMARK INTER:                  -3.894
REMARK INTRA:                  -5.786
REMARK UNBOUND:                -5.928
REMARK SMILES NCC(O)Cn1ccnc1[N+](=O)[O-]
REMARK SMILES IDX 5 1 3 2 2 3 1 4 4 7 6 9 7 10 10 11 8 12 9 13 11 14 12 15
REMARK SMILES IDX 13 16
REMARK H PARENT 1 5 1 6 4 8
REMARK Flexibility Score: inf
ROOT
ATOM      1  C   UNL     1      30.214  34.031  13.703  1.00  0.00     0.238 C 
ENDROOT
BRANCH   1   2
ATOM      2  C   UNL     1      29.605  33.760  15.067  1.00  0.00     0.162 C 
BRANCH   2   3
ATOM      3  C   UNL     1      30.358  32.592  15.705  1.00  0.00     0.112 C 
BRANCH   3   4
ATOM      4  N   UNL     1      31.527  32.267  14.908  1.00  0.00    -0.328 NA
ATOM      5  H   UNL     1      31.292  32.229  13.876  1.00  0.00     0.118 HD
ATOM      6  H   UNL     1      32.189  33.079  14.994  1.00  0.00     0.118 HD
ENDBRANCH   3   4
ENDBRANCH   2   3
BRANCH   2   7
ATOM      7  O   UNL     1      28.271  33.417  14.855  1.00  0.00    -0.388 OA
ATOM      8  H   UNL     1      27.722  34.109  15.304  1.00  0.00     0.211 HD
ENDBRANCH   2   7
ENDBRANCH   1   2
BRANCH   1   9
ATOM      9  N   UNL     1      30.716  35.378  13.582  1.00  0.00    -0.227 N 
ATOM     10  C   UNL     1      30.034  36.379  12.996  1.00  0.00     0.204 A 
ATOM     11  C   UNL     1      31.893  35.812  14.023  1.00  0.00     0.434 A 
ATOM     12  C   UNL     1      30.832  37.494  13.078  1.00  0.00     0.245 A 
ATOM     13  N   UNL     1      31.955  37.114  13.707  1.00  0.00    -0.074 NA
BRANCH  11  14
ATOM     14  N   UNL     1      32.936  35.116  14.699  1.00  0.00    -0.047 N 
ATOM     15  O   UNL     1      33.877  34.575  14.075  1.00  0.00    -0.390 OA
ATOM     16  O   UNL     1      32.969  35.000  16.066  1.00  0.00    -0.390 OA
ENDBRANCH  11  14
ENDBRANCH   1   9
TORSDOF 6
BEGIN_RES LYS A 135
REMARK  4 active torsions:
REMARK  status: ('A' for Active; 'I' for Inactive)
REMARK    1  A    between atoms: CA   and  CB  
REMARK    2  A    between atoms: CB   and  CG  
REMARK    3  A    between atoms: CG   and  CD  
REMARK    4  A    between atoms: CD   and  CE  
ROOT
ATOM      1  CA  LYS A 135      33.193  34.663   9.290  1.00 25.02     0.186 C 
ENDROOT
BRANCH   1   2
ATOM      2  CB  LYS A 135      32.060  35.360  10.034  1.00 26.63     0.034 C 
BRANCH   2   3
ATOM      3  CG  LYS A 135      30.695  34.814   9.702  1.00 29.45     0.005 C 
BRANCH   3   4
ATOM      4  CD  LYS A 135      30.593  34.490   8.219  1.00 32.00     0.041 C 
BRANCH   4   5
ATOM      5  CE  LYS A 135      29.322  35.075   7.634  1.00 34.25     0.338 C 
ATOM      6  NZ  LYS A 135      29.243  36.542   7.877  1.00 35.99     0.618 N 
ENDBRANCH   4   5
ENDBRANCH   3   4
ENDBRANCH   2   3
ENDBRANCH   1   2
END_RES LYS A 135
BEGIN_RES ARG A 124
REMARK  4 active torsions:
REMARK  status: ('A' for Active; 'I' for Inactive)
REMARK    5  A    between atoms: CA   and  CB  
REMARK    6  A    between atoms: CB   and  CG  
REMARK    7  A    between atoms: CG   and  CD  
REMARK    8  A    between atoms: CD   and  NE  
REMARK       I    between atoms: NE   and  CZ  
ROOT
ATOM      7  CA  ARG A 124      31.045  26.515   9.594  1.00 17.84     0.186 C 
ENDROOT
BRANCH   7   8
ATOM      8  CB  ARG A 124      29.529  26.705   9.647  1.00 16.18     0.036 C 
BRANCH   8   9
ATOM      9  CG  ARG A 124      28.961  27.261  11.002  1.00 16.22     0.029 C 
BRANCH   9  10
ATOM     10  CD  ARG A 124      28.331  26.159  11.885  1.00 15.09     0.145 C 
BRANCH  10  11
ATOM     11  NE  ARG A 124      27.840  26.648  13.192  1.00 16.98    -0.083 NA
ATOM     12  CZ  ARG A 124      26.636  27.168  13.405  1.00 18.21     0.782 C 
ATOM     13  NH1 ARG A 124      25.748  27.278  12.425  1.00 21.11     0.063 N 
ATOM     14  NH2 ARG A 124      26.294  27.566  14.621  1.00 21.25     0.063 N 
ENDBRANCH  10  11
ENDBRANCH   9  10
ENDBRANCH   8   9
ENDBRANCH   7   8
END_RES ARG A 124
BEGIN_RES ASN A 133
REMARK  2 active torsions:
REMARK  status: ('A' for Active; 'I' for Inactive)
REMARK    9  A    between atoms: CA   and  CB  
REMARK   10  A    between atoms: CB   and  CG  
ROOT
ATOM     15  CA  ASN A 133      31.225  30.257  11.749  1.00 18.15     0.196 C 
ENDROOT
BRANCH  15  16
ATOM     16  CB  ASN A 133      30.092  31.240  11.460  1.00 18.27     0.126 C 
BRANCH  16  17
ATOM     17  CG  ASN A 133      28.767  30.789  11.992  1.00 18.94     0.276 C 
ATOM     18  OD1 ASN A 133      28.407  31.075  13.136  1.00 18.09    -0.269 OA
ATOM     19  ND2 ASN A 133      28.019  30.067  11.158  1.00 18.93    -0.107 N 
ENDBRANCH  16  17
ENDBRANCH  15  16
END_RES ASN A 133
BEGIN_RES LYS A 131
REMARK  4 active torsions:
REMARK  status: ('A' for Active; 'I' for Inactive)
REMARK   11  A    between atoms: CA   and  CB  
REMARK   12  A    between atoms: CB   and  CG  
REMARK   13  A    between atoms: CG   and  CD  
REMARK   14  A    between atoms: CD   and  CE  
ROOT
ATOM     20  CA  LYS A 131      29.867  25.555  16.977  1.00 20.52     0.186 C 
ENDROOT
BRANCH  20  21
ATOM     21  CB  LYS A 131      28.345  25.722  17.026  1.00 20.94     0.034 C 
BRANCH  21  22
ATOM     22  CG  LYS A 131      27.599  24.424  16.757  1.00 22.96     0.005 C 
BRANCH  22  23
ATOM     23  CD  LYS A 131      26.167  24.490  17.209  1.00 24.33     0.041 C 
BRANCH  23  24
ATOM     24  CE  LYS A 131      25.781  23.171  17.872  1.00 26.91     0.338 C 
ATOM     25  NZ  LYS A 131      25.630  23.351  19.335  1.00 27.40     0.618 N 
ENDBRANCH  23  24
ENDBRANCH  22  23
ENDBRANCH  21  22
ENDBRANCH  20  21
END_RES LYS A 131
