REMARK VINA RESULT:    -3.715      6.380     11.301
REMARK INTER + INTRA:         -10.356
REMARK INTER:                  -4.656
REMARK INTRA:                  -5.700
REMARK UNBOUND:                -5.664
REMARK SMILES NCCNC(=O)NCc1ccco1
REMARK SMILES IDX 7 1 5 2 6 3 4 4 8 7 9 8 10 9 13 10 11 11 12 12 3 13 2 14
REMARK SMILES IDX 1 15
REMARK H PARENT 7 5 4 6 1 16 1 17
REMARK Flexibility Score: inf
ROOT
ATOM      1  N   UNL     1      30.230  33.777  13.023  1.00  0.00    -0.331 N 
ATOM      2  C   UNL     1      30.205  33.360  14.395  1.00  0.00     0.315 C 
ATOM      3  O   UNL     1      29.875  34.159  15.305  1.00  0.00    -0.249 OA
ATOM      4  N   UNL     1      30.552  32.038  14.767  1.00  0.00    -0.337 N 
ATOM      5  H   UNL     1      30.501  33.122  12.265  1.00  0.00     0.165 HD
ATOM      6  H   UNL     1      30.834  31.350  14.016  1.00  0.00     0.165 HD
ENDROOT
BRANCH   1   7
ATOM      7  C   UNL     1      29.868  35.137  12.690  1.00  0.00     0.193 C 
BRANCH   7   8
ATOM      8  C   UNL     1      28.518  35.118  12.048  1.00  0.00     0.122 A 
ATOM      9  C   UNL     1      27.832  36.190  11.525  1.00  0.00     0.047 A 
ATOM     10  O   UNL     1      27.750  34.071  11.872  1.00  0.00    -0.467 OA
ATOM     11  C   UNL     1      26.640  35.707  11.042  1.00  0.00     0.042 A 
ATOM     12  C   UNL     1      26.635  34.358  11.285  1.00  0.00     0.195 A 
ENDBRANCH   7   8
ENDBRANCH   1   7
BRANCH   4  13
ATOM     13  C   UNL     1      30.527  31.616  16.127  1.00  0.00     0.132 C 
BRANCH  13  14
ATOM     14  C   UNL     1      29.231  30.971  16.565  1.00  0.00     0.099 C 
BRANCH  14  15
ATOM     15  N   UNL     1      29.007  29.855  15.632  1.00  0.00    -0.329 NA
ATOM     16  H   UNL     1      27.987  29.829  15.450  1.00  0.00     0.118 HD
ATOM     17  H   UNL     1      29.457  30.154  14.725  1.00  0.00     0.118 HD
ENDBRANCH  14  15
ENDBRANCH  13  14
ENDBRANCH   4  13
TORSDOF 5
BEGIN_RES LYS A 135
REMARK  4 active torsions:
REMARK  status: ('A' for Active; 'I' for Inactive)
REMARK    1  A    between atoms: CA   and  CB  
REMARK    2  A    between atoms: CB   and  CG  
REMARK    3  A    between atoms: CG   and  CD  
REMARK    4  A    between atoms: CD   and  CE  
ROOT
ATOM      1  CA  LYS A 135      33.193  34.663   9.290  1.00 25.02     0.186 C 
ENDROOT
BRANCH   1   2
ATOM      2  CB  LYS A 135      32.060  35.360  10.034  1.00 26.63     0.034 C 
BRANCH   2   3
ATOM      3  CG  LYS A 135      30.839  35.600   9.184  1.00 29.45     0.005 C 
BRANCH   3   4
ATOM      4  CD  LYS A 135      30.144  34.286   8.860  1.00 32.00     0.041 C 
BRANCH   4   5
ATOM      5  CE  LYS A 135      28.790  34.541   8.228  1.00 34.25     0.338 C 
ATOM      6  NZ  LYS A 135      28.601  35.988   7.930  1.00 35.99     0.618 N 
ENDBRANCH   4   5
ENDBRANCH   3   4
ENDBRANCH   2   3
ENDBRANCH   1   2
END_RES LYS A 135
BEGIN_RES ARG A 124
REMARK  4 active torsions:
REMARK  status: ('A' for Active; 'I' for Inactive)
REMARK    5  A    between atoms: CA   and  CB  
REMARK    6  A    between atoms: CB   and  CG  
REMARK    7  A    between atoms: CG   and  CD  
REMARK    8  A    between atoms: CD   and  NE  
REMARK       I    between atoms: NE   and  CZ  
ROOT
ATOM      7  CA  ARG A 124      31.045  26.515   9.594  1.00 17.84     0.186 C 
ENDROOT
BRANCH   7   8
ATOM      8  CB  ARG A 124      29.529  26.705   9.647  1.00 16.18     0.036 C 
BRANCH   8   9
ATOM      9  CG  ARG A 124      28.911  26.833  11.085  1.00 16.22     0.029 C 
BRANCH   9  10
ATOM     10  CD  ARG A 124      27.542  26.127  11.215  1.00 15.09     0.145 C 
BRANCH  10  11
ATOM     11  NE  ARG A 124      26.410  27.053  11.439  1.00 16.98    -0.083 NA
ATOM     12  CZ  ARG A 124      26.039  27.527  12.624  1.00 18.21     0.782 C 
ATOM     13  NH1 ARG A 124      26.692  27.201  13.733  1.00 21.11     0.063 N 
ATOM     14  NH2 ARG A 124      25.015  28.362  12.710  1.00 21.25     0.063 N 
ENDBRANCH  10  11
ENDBRANCH   9  10
ENDBRANCH   8   9
ENDBRANCH   7   8
END_RES ARG A 124
BEGIN_RES ASN A 133
REMARK  2 active torsions:
REMARK  status: ('A' for Active; 'I' for Inactive)
REMARK    9  A    between atoms: CA   and  CB  
REMARK   10  A    between atoms: CB   and  CG  
ROOT
ATOM     15  CA  ASN A 133      31.225  30.257  11.749  1.00 18.15     0.196 C 
ENDROOT
BRANCH  15  16
ATOM     16  CB  ASN A 133      30.092  31.240  11.460  1.00 18.27     0.126 C 
BRANCH  16  17
ATOM     17  CG  ASN A 133      28.740  30.597  11.447  1.00 18.94     0.276 C 
ATOM     18  OD1 ASN A 133      28.387  29.872  10.515  1.00 18.09    -0.269 OA
ATOM     19  ND2 ASN A 133      27.959  30.860  12.494  1.00 18.93    -0.107 N 
ENDBRANCH  16  17
ENDBRANCH  15  16
END_RES ASN A 133
BEGIN_RES LYS A 131
REMARK  4 active torsions:
REMARK  status: ('A' for Active; 'I' for Inactive)
REMARK   11  A    between atoms: CA   and  CB  
REMARK   12  A    between atoms: CB   and  CG  
REMARK   13  A    between atoms: CG   and  CD  
REMARK   14  A    between atoms: CD   and  CE  
ROOT
ATOM     20  CA  LYS A 131      29.867  25.555  16.977  1.00 20.52     0.186 C 
ENDROOT
BRANCH  20  21
ATOM     21  CB  LYS A 131      28.345  25.722  17.026  1.00 20.94     0.034 C 
BRANCH  21  22
ATOM     22  CG  LYS A 131      27.600  24.411  16.826  1.00 22.96     0.005 C 
BRANCH  22  23
ATOM     23  CD  LYS A 131      26.593  24.160  17.914  1.00 24.33     0.041 C 
BRANCH  23  24
ATOM     24  CE  LYS A 131      25.191  24.133  17.314  1.00 26.91     0.338 C 
ATOM     25  NZ  LYS A 131      24.458  25.377  17.651  1.00 27.40     0.618 N 
ENDBRANCH  23  24
ENDBRANCH  22  23
ENDBRANCH  21  22
ENDBRANCH  20  21
END_RES LYS A 131
