REMARK VINA RESULT:    -4.498      3.454      6.533
REMARK INTER + INTRA:         -10.343
REMARK INTER:                  -5.984
REMARK INTRA:                  -4.359
REMARK UNBOUND:                -5.056
REMARK SMILES NCc1ccc(C(=O)O)cc1
REMARK SMILES IDX 3 1 4 2 5 3 6 4 10 5 11 6 2 7 1 8 7 11 8 12 9 13
REMARK H PARENT 1 9 1 10 9 14
REMARK Flexibility Score: inf
ROOT
ATOM      1  C   UNL     1      27.950  35.603   6.956  1.00  0.00    -0.034 A 
ATOM      2  C   UNL     1      29.318  35.546   6.977  1.00  0.00     0.006 A 
ATOM      3  C   UNL     1      29.966  34.900   8.008  1.00  0.00     0.016 A 
ATOM      4  C   UNL     1      29.291  34.294   9.045  1.00  0.00     0.059 A 
ATOM      5  C   UNL     1      27.915  34.365   9.003  1.00  0.00     0.016 A 
ATOM      6  C   UNL     1      27.248  35.008   7.978  1.00  0.00     0.006 A 
ENDROOT
BRANCH   1   7
ATOM      7  C   UNL     1      27.300  36.309   5.825  1.00  0.00     0.113 C 
BRANCH   7   8
ATOM      8  N   UNL     1      26.656  37.542   6.259  1.00  0.00    -0.326 NA
ATOM      9  H   UNL     1      26.218  38.040   5.470  1.00  0.00     0.119 HD
ATOM     10  H   UNL     1      26.048  37.410   7.087  1.00  0.00     0.119 HD
ENDBRANCH   7   8
ENDBRANCH   1   7
BRANCH   4  11
ATOM     11  C   UNL     1      30.024  33.629  10.105  1.00  0.00     0.335 C 
ATOM     12  O   UNL     1      29.794  33.919  11.306  1.00  0.00    -0.246 OA
BRANCH  11  13
ATOM     13  O   UNL     1      30.988  32.670   9.851  1.00  0.00    -0.478 OA
ATOM     14  H   UNL     1      31.547  32.230  10.585  1.00  0.00     0.297 HD
ENDBRANCH  11  13
ENDBRANCH   4  11
TORSDOF 4
BEGIN_RES LYS A 135
REMARK  4 active torsions:
REMARK  status: ('A' for Active; 'I' for Inactive)
REMARK    1  A    between atoms: CA   and  CB  
REMARK    2  A    between atoms: CB   and  CG  
REMARK    3  A    between atoms: CG   and  CD  
REMARK    4  A    between atoms: CD   and  CE  
ROOT
ATOM      1  CA  LYS A 135      33.193  34.663   9.290  1.00 25.02     0.186 C 
ENDROOT
BRANCH   1   2
ATOM      2  CB  LYS A 135      32.060  35.360  10.034  1.00 26.63     0.034 C 
BRANCH   2   3
ATOM      3  CG  LYS A 135      32.533  36.421  10.994  1.00 29.45     0.005 C 
BRANCH   3   4
ATOM      4  CD  LYS A 135      32.493  35.907  12.425  1.00 32.00     0.041 C 
BRANCH   4   5
ATOM      5  CE  LYS A 135      31.803  36.907  13.332  1.00 34.25     0.338 C 
ATOM      6  NZ  LYS A 135      32.257  36.755  14.742  1.00 35.99     0.618 N 
ENDBRANCH   4   5
ENDBRANCH   3   4
ENDBRANCH   2   3
ENDBRANCH   1   2
END_RES LYS A 135
BEGIN_RES ARG A 124
REMARK  4 active torsions:
REMARK  status: ('A' for Active; 'I' for Inactive)
REMARK    5  A    between atoms: CA   and  CB  
REMARK    6  A    between atoms: CB   and  CG  
REMARK    7  A    between atoms: CG   and  CD  
REMARK    8  A    between atoms: CD   and  NE  
REMARK       I    between atoms: NE   and  CZ  
ROOT
ATOM      7  CA  ARG A 124      31.045  26.515   9.594  1.00 17.84     0.186 C 
ENDROOT
BRANCH   7   8
ATOM      8  CB  ARG A 124      29.529  26.705   9.647  1.00 16.18     0.036 C 
BRANCH   8   9
ATOM      9  CG  ARG A 124      28.911  26.836  11.085  1.00 16.22     0.029 C 
BRANCH   9  10
ATOM     10  CD  ARG A 124      27.547  26.121  11.219  1.00 15.09     0.145 C 
BRANCH  10  11
ATOM     11  NE  ARG A 124      26.409  27.041  11.441  1.00 16.98    -0.083 NA
ATOM     12  CZ  ARG A 124      26.021  27.497  12.627  1.00 18.21     0.782 C 
ATOM     13  NH1 ARG A 124      26.659  27.157  13.740  1.00 21.11     0.063 N 
ATOM     14  NH2 ARG A 124      24.993  28.328  12.711  1.00 21.25     0.063 N 
ENDBRANCH  10  11
ENDBRANCH   9  10
ENDBRANCH   8   9
ENDBRANCH   7   8
END_RES ARG A 124
BEGIN_RES ASN A 133
REMARK  2 active torsions:
REMARK  status: ('A' for Active; 'I' for Inactive)
REMARK    9  A    between atoms: CA   and  CB  
REMARK   10  A    between atoms: CB   and  CG  
ROOT
ATOM     15  CA  ASN A 133      31.225  30.257  11.749  1.00 18.15     0.196 C 
ENDROOT
BRANCH  15  16
ATOM     16  CB  ASN A 133      30.092  31.240  11.460  1.00 18.27     0.126 C 
BRANCH  16  17
ATOM     17  CG  ASN A 133      28.743  30.591  11.414  1.00 18.94     0.276 C 
ATOM     18  OD1 ASN A 133      28.407  29.885  10.462  1.00 18.09    -0.269 OA
ATOM     19  ND2 ASN A 133      27.946  30.829  12.455  1.00 18.93    -0.107 N 
ENDBRANCH  16  17
ENDBRANCH  15  16
END_RES ASN A 133
BEGIN_RES LYS A 131
REMARK  4 active torsions:
REMARK  status: ('A' for Active; 'I' for Inactive)
REMARK   11  A    between atoms: CA   and  CB  
REMARK   12  A    between atoms: CB   and  CG  
REMARK   13  A    between atoms: CG   and  CD  
REMARK   14  A    between atoms: CD   and  CE  
ROOT
ATOM     20  CA  LYS A 131      29.867  25.555  16.977  1.00 20.52     0.186 C 
ENDROOT
BRANCH  20  21
ATOM     21  CB  LYS A 131      28.345  25.722  17.026  1.00 20.94     0.034 C 
BRANCH  21  22
ATOM     22  CG  LYS A 131      27.599  24.431  16.724  1.00 22.96     0.005 C 
BRANCH  22  23
ATOM     23  CD  LYS A 131      26.938  23.860  17.947  1.00 24.33     0.041 C 
BRANCH  23  24
ATOM     24  CE  LYS A 131      25.606  23.226  17.557  1.00 26.91     0.338 C 
ATOM     25  NZ  LYS A 131      24.482  23.940  18.206  1.00 27.40     0.618 N 
ENDBRANCH  23  24
ENDBRANCH  22  23
ENDBRANCH  21  22
ENDBRANCH  20  21
END_RES LYS A 131
