REMARK VINA RESULT:    -4.225      6.039     13.010
REMARK INTER + INTRA:         -11.036
REMARK INTER:                  -5.021
REMARK INTRA:                  -6.016
REMARK UNBOUND:                -5.329
REMARK SMILES CC(C)C[C@H](CN)CC(=O)O
REMARK SMILES IDX 8 1 5 2 4 3 2 4 1 5 3 6 6 7 7 8 9 11 10 12 11 13
REMARK H PARENT 7 9 7 10 11 14
REMARK Flexibility Score: inf
ROOT
ATOM      1  C   UNL     1      37.767  32.855  13.362  1.00  0.00     0.127 C 
ENDROOT
BRANCH   1   2
ATOM      2  C   UNL     1      38.492  33.960  14.102  1.00  0.00     0.014 C 
BRANCH   2   3
ATOM      3  C   UNL     1      37.540  34.864  14.833  1.00  0.00     0.008 C 
BRANCH   3   4
ATOM      4  C   UNL     1      38.039  35.288  16.183  1.00  0.00    -0.017 C 
ATOM      5  C   UNL     1      36.882  35.777  17.041  1.00  0.00     0.007 C 
ATOM      6  C   UNL     1      38.601  34.028  16.834  1.00  0.00     0.007 C 
ENDBRANCH   3   4
ENDBRANCH   2   3
BRANCH   2   7
ATOM      7  C   UNL     1      39.208  34.870  13.091  1.00  0.00     0.081 C 
BRANCH   7   8
ATOM      8  N   UNL     1      40.111  34.012  12.315  1.00  0.00    -0.330 NA
ATOM      9  H   UNL     1      40.262  33.132  12.835  1.00  0.00     0.118 HD
ATOM     10  H   UNL     1      41.001  34.504  12.116  1.00  0.00     0.118 HD
ENDBRANCH   7   8
ENDBRANCH   2   7
ENDBRANCH   1   2
BRANCH   1  11
ATOM     11  C   UNL     1      36.765  33.362  12.403  1.00  0.00     0.303 C 
ATOM     12  O   UNL     1      37.121  33.598  11.183  1.00  0.00    -0.252 OA
BRANCH  11  13
ATOM     13  O   UNL     1      35.453  33.612  12.722  1.00  0.00    -0.481 OA
ATOM     14  H   UNL     1      35.191  34.450  13.266  1.00  0.00     0.296 HD
ENDBRANCH  11  13
ENDBRANCH   1  11
TORSDOF 7
BEGIN_RES LYS A 135
REMARK  4 active torsions:
REMARK  status: ('A' for Active; 'I' for Inactive)
REMARK    1  A    between atoms: CA   and  CB  
REMARK    2  A    between atoms: CB   and  CG  
REMARK    3  A    between atoms: CG   and  CD  
REMARK    4  A    between atoms: CD   and  CE  
ROOT
ATOM      1  CA  LYS A 135      33.193  34.663   9.290  1.00 25.02     0.186 C 
ENDROOT
BRANCH   1   2
ATOM      2  CB  LYS A 135      32.060  35.360  10.034  1.00 26.63     0.034 C 
BRANCH   2   3
ATOM      3  CG  LYS A 135      30.810  35.527   9.209  1.00 29.45     0.005 C 
BRANCH   3   4
ATOM      4  CD  LYS A 135      30.167  34.178   8.930  1.00 32.00     0.041 C 
BRANCH   4   5
ATOM      5  CE  LYS A 135      28.686  34.342   8.648  1.00 34.25     0.338 C 
ATOM      6  NZ  LYS A 135      27.863  33.653   9.681  1.00 35.99     0.618 N 
ENDBRANCH   4   5
ENDBRANCH   3   4
ENDBRANCH   2   3
ENDBRANCH   1   2
END_RES LYS A 135
BEGIN_RES ARG A 124
REMARK  4 active torsions:
REMARK  status: ('A' for Active; 'I' for Inactive)
REMARK    5  A    between atoms: CA   and  CB  
REMARK    6  A    between atoms: CB   and  CG  
REMARK    7  A    between atoms: CG   and  CD  
REMARK    8  A    between atoms: CD   and  NE  
REMARK       I    between atoms: NE   and  CZ  
ROOT
ATOM      7  CA  ARG A 124      31.045  26.515   9.594  1.00 17.84     0.186 C 
ENDROOT
BRANCH   7   8
ATOM      8  CB  ARG A 124      29.529  26.705   9.647  1.00 16.18     0.036 C 
BRANCH   8   9
ATOM      9  CG  ARG A 124      28.906  26.796  11.086  1.00 16.22     0.029 C 
BRANCH   9  10
ATOM     10  CD  ARG A 124      27.539  26.082  11.194  1.00 15.09     0.145 C 
BRANCH  10  11
ATOM     11  NE  ARG A 124      26.400  27.000  11.414  1.00 16.98    -0.083 NA
ATOM     12  CZ  ARG A 124      26.009  27.455  12.599  1.00 18.21     0.782 C 
ATOM     13  NH1 ARG A 124      26.645  27.113  13.714  1.00 21.11     0.063 N 
ATOM     14  NH2 ARG A 124      24.980  28.284  12.682  1.00 21.25     0.063 N 
ENDBRANCH  10  11
ENDBRANCH   9  10
ENDBRANCH   8   9
ENDBRANCH   7   8
END_RES ARG A 124
BEGIN_RES ASN A 133
REMARK  2 active torsions:
REMARK  status: ('A' for Active; 'I' for Inactive)
REMARK    9  A    between atoms: CA   and  CB  
REMARK   10  A    between atoms: CB   and  CG  
ROOT
ATOM     15  CA  ASN A 133      31.225  30.257  11.749  1.00 18.15     0.196 C 
ENDROOT
BRANCH  15  16
ATOM     16  CB  ASN A 133      30.092  31.240  11.460  1.00 18.27     0.126 C 
BRANCH  16  17
ATOM     17  CG  ASN A 133      28.740  30.596  11.441  1.00 18.94     0.276 C 
ATOM     18  OD1 ASN A 133      28.407  29.840  10.527  1.00 18.09    -0.269 OA
ATOM     19  ND2 ASN A 133      27.938  30.894  12.462  1.00 18.93    -0.107 N 
ENDBRANCH  16  17
ENDBRANCH  15  16
END_RES ASN A 133
BEGIN_RES LYS A 131
REMARK  4 active torsions:
REMARK  status: ('A' for Active; 'I' for Inactive)
REMARK   11  A    between atoms: CA   and  CB  
REMARK   12  A    between atoms: CB   and  CG  
REMARK   13  A    between atoms: CG   and  CD  
REMARK   14  A    between atoms: CD   and  CE  
ROOT
ATOM     20  CA  LYS A 131      29.867  25.555  16.977  1.00 20.52     0.186 C 
ENDROOT
BRANCH  20  21
ATOM     21  CB  LYS A 131      28.345  25.722  17.026  1.00 20.94     0.034 C 
BRANCH  21  22
ATOM     22  CG  LYS A 131      27.600  24.417  16.793  1.00 22.96     0.005 C 
BRANCH  22  23
ATOM     23  CD  LYS A 131      26.812  23.991  18.001  1.00 24.33     0.041 C 
BRANCH  23  24
ATOM     24  CE  LYS A 131      25.739  22.991  17.583  1.00 26.91     0.338 C 
ATOM     25  NZ  LYS A 131      24.532  23.700  17.095  1.00 27.40     0.618 N 
ENDBRANCH  23  24
ENDBRANCH  22  23
ENDBRANCH  21  22
ENDBRANCH  20  21
END_RES LYS A 131
