REMARK VINA RESULT:    -4.300      0.000      0.000
REMARK INTER + INTRA:         -10.083
REMARK INTER:                  -4.089
REMARK INTRA:                  -5.993
REMARK UNBOUND:                -4.903
REMARK SMILES NCC(O)CO
REMARK SMILES IDX 3 1 2 2 1 3 4 6 5 8 6 9
REMARK H PARENT 1 4 1 5 4 7 6 10
REMARK Flexibility Score: inf
ROOT
ATOM      1  C   UNL     1      26.716  18.117  16.394  1.00  0.00     0.153 C 
ENDROOT
BRANCH   1   2
ATOM      2  C   UNL     1      25.638  18.329  15.354  1.00  0.00     0.112 C 
BRANCH   2   3
ATOM      3  N   UNL     1      26.120  18.879  14.128  1.00  0.00    -0.328 NA
ATOM      4  H   UNL     1      25.373  19.294  13.527  1.00  0.00     0.118 HD
ATOM      5  H   UNL     1      26.670  18.151  13.595  1.00  0.00     0.118 HD
ENDBRANCH   2   3
ENDBRANCH   1   2
BRANCH   1   6
ATOM      6  O   UNL     1      27.485  19.269  16.559  1.00  0.00    -0.389 OA
ATOM      7  H   UNL     1      28.319  19.244  16.009  1.00  0.00     0.211 HD
ENDBRANCH   1   6
BRANCH   1   8
ATOM      8  C   UNL     1      27.644  17.036  15.884  1.00  0.00     0.189 C 
BRANCH   8   9
ATOM      9  O   UNL     1      28.662  17.575  15.092  1.00  0.00    -0.394 OA
ATOM     10  H   UNL     1      29.469  17.008  15.195  1.00  0.00     0.210 HD
ENDBRANCH   8   9
ENDBRANCH   1   8
TORSDOF 5
BEGIN_RES LYS A 135
REMARK  4 active torsions:
REMARK  status: ('A' for Active; 'I' for Inactive)
REMARK    1  A    between atoms: CA   and  CB  
REMARK    2  A    between atoms: CB   and  CG  
REMARK    3  A    between atoms: CG   and  CD  
REMARK    4  A    between atoms: CD   and  CE  
ROOT
ATOM      1  CA  LYS A 135      33.193  34.663   9.290  1.00 25.02     0.186 C 
ENDROOT
BRANCH   1   2
ATOM      2  CB  LYS A 135      32.060  35.360  10.034  1.00 26.63     0.034 C 
BRANCH   2   3
ATOM      3  CG  LYS A 135      30.729  34.668   9.890  1.00 29.45     0.005 C 
BRANCH   3   4
ATOM      4  CD  LYS A 135      30.340  34.553   8.424  1.00 32.00     0.041 C 
BRANCH   4   5
ATOM      5  CE  LYS A 135      28.832  34.576   8.269  1.00 34.25     0.338 C 
ATOM      6  NZ  LYS A 135      28.166  33.865   9.396  1.00 35.99     0.618 N 
ENDBRANCH   4   5
ENDBRANCH   3   4
ENDBRANCH   2   3
ENDBRANCH   1   2
END_RES LYS A 135
BEGIN_RES ARG A 124
REMARK  4 active torsions:
REMARK  status: ('A' for Active; 'I' for Inactive)
REMARK    5  A    between atoms: CA   and  CB  
REMARK    6  A    between atoms: CB   and  CG  
REMARK    7  A    between atoms: CG   and  CD  
REMARK    8  A    between atoms: CD   and  NE  
REMARK       I    between atoms: NE   and  CZ  
ROOT
ATOM      7  CA  ARG A 124      31.045  26.515   9.594  1.00 17.84     0.186 C 
ENDROOT
BRANCH   7   8
ATOM      8  CB  ARG A 124      29.529  26.705   9.647  1.00 16.18     0.036 C 
BRANCH   8   9
ATOM      9  CG  ARG A 124      28.901  26.758  11.086  1.00 16.22     0.029 C 
BRANCH   9  10
ATOM     10  CD  ARG A 124      27.503  26.102  11.154  1.00 15.09     0.145 C 
BRANCH  10  11
ATOM     11  NE  ARG A 124      26.403  27.063  11.388  1.00 16.98    -0.083 NA
ATOM     12  CZ  ARG A 124      26.039  27.528  12.578  1.00 18.21     0.782 C 
ATOM     13  NH1 ARG A 124      26.671  27.158  13.686  1.00 21.11     0.063 N 
ATOM     14  NH2 ARG A 124      25.044  28.397  12.673  1.00 21.25     0.063 N 
ENDBRANCH  10  11
ENDBRANCH   9  10
ENDBRANCH   8   9
ENDBRANCH   7   8
END_RES ARG A 124
BEGIN_RES ASN A 133
REMARK  2 active torsions:
REMARK  status: ('A' for Active; 'I' for Inactive)
REMARK    9  A    between atoms: CA   and  CB  
REMARK   10  A    between atoms: CB   and  CG  
ROOT
ATOM     15  CA  ASN A 133      31.225  30.257  11.749  1.00 18.15     0.196 C 
ENDROOT
BRANCH  15  16
ATOM     16  CB  ASN A 133      30.092  31.240  11.460  1.00 18.27     0.126 C 
BRANCH  16  17
ATOM     17  CG  ASN A 133      28.738  30.600  11.462  1.00 18.94     0.276 C 
ATOM     18  OD1 ASN A 133      28.401  29.818  10.572  1.00 18.09    -0.269 OA
ATOM     19  ND2 ASN A 133      27.939  30.931  12.475  1.00 18.93    -0.107 N 
ENDBRANCH  16  17
ENDBRANCH  15  16
END_RES ASN A 133
BEGIN_RES LYS A 131
REMARK  4 active torsions:
REMARK  status: ('A' for Active; 'I' for Inactive)
REMARK   11  A    between atoms: CA   and  CB  
REMARK   12  A    between atoms: CB   and  CG  
REMARK   13  A    between atoms: CG   and  CD  
REMARK   14  A    between atoms: CD   and  CE  
ROOT
ATOM     20  CA  LYS A 131      29.867  25.555  16.977  1.00 20.52     0.186 C 
ENDROOT
BRANCH  20  21
ATOM     21  CB  LYS A 131      28.345  25.722  17.026  1.00 20.94     0.034 C 
BRANCH  21  22
ATOM     22  CG  LYS A 131      27.599  24.460  16.621  1.00 22.96     0.005 C 
BRANCH  22  23
ATOM     23  CD  LYS A 131      27.013  23.744  17.806  1.00 24.33     0.041 C 
BRANCH  23  24
ATOM     24  CE  LYS A 131      25.542  23.440  17.542  1.00 26.91     0.338 C 
ATOM     25  NZ  LYS A 131      24.713  24.645  17.780  1.00 27.40     0.618 N 
ENDBRANCH  23  24
ENDBRANCH  22  23
ENDBRANCH  21  22
ENDBRANCH  20  21
END_RES LYS A 131
