REMARK VINA RESULT:    -2.721      5.275      6.533
REMARK INTER + INTRA:          -8.658
REMARK INTER:                  -2.731
REMARK INTRA:                  -5.927
REMARK UNBOUND:                -5.539
REMARK SMILES NCCC1OCCO1
REMARK SMILES IDX 2 1 1 2 3 5 4 6 5 7 8 8 6 9 7 10
REMARK H PARENT 1 3 1 4
REMARK Flexibility Score: inf
ROOT
ATOM      1  C   UNL     1      30.158  27.185  21.289  1.00  0.00     0.083 C 
ENDROOT
BRANCH   1   2
ATOM      2  N   UNL     1      29.259  26.990  20.190  1.00  0.00    -0.330 NA
ATOM      3  H   UNL     1      29.830  26.859  19.329  1.00  0.00     0.118 HD
ATOM      4  H   UNL     1      28.659  26.158  20.386  1.00  0.00     0.118 HD
ENDBRANCH   1   2
BRANCH   1   5
ATOM      5  C   UNL     1      31.605  27.283  20.813  1.00  0.00     0.077 C 
BRANCH   5   6
ATOM      6  C   UNL     1      31.921  28.741  20.666  1.00  0.00     0.251 C 
ATOM      7  O   UNL     1      32.771  29.229  21.632  1.00  0.00    -0.350 OA
ATOM      8  O   UNL     1      30.793  29.552  20.795  1.00  0.00    -0.350 OA
ATOM      9  C   UNL     1      32.551  30.605  21.711  1.00  0.00     0.192 C 
ATOM     10  C   UNL     1      31.420  30.805  20.717  1.00  0.00     0.192 C 
ENDBRANCH   5   6
ENDBRANCH   1   5
TORSDOF 3
BEGIN_RES LYS A 135
REMARK  4 active torsions:
REMARK  status: ('A' for Active; 'I' for Inactive)
REMARK    1  A    between atoms: CA   and  CB  
REMARK    2  A    between atoms: CB   and  CG  
REMARK    3  A    between atoms: CG   and  CD  
REMARK    4  A    between atoms: CD   and  CE  
ROOT
ATOM      1  CA  LYS A 135      33.193  34.663   9.290  1.00 25.02     0.186 C 
ENDROOT
BRANCH   1   2
ATOM      2  CB  LYS A 135      32.060  35.360  10.034  1.00 26.63     0.034 C 
BRANCH   2   3
ATOM      3  CG  LYS A 135      30.705  34.756   9.770  1.00 29.45     0.005 C 
BRANCH   3   4
ATOM      4  CD  LYS A 135      30.472  34.592   8.276  1.00 32.00     0.041 C 
BRANCH   4   5
ATOM      5  CE  LYS A 135      29.015  34.839   7.934  1.00 34.25     0.338 C 
ATOM      6  NZ  LYS A 135      28.883  35.573   6.645  1.00 35.99     0.618 N 
ENDBRANCH   4   5
ENDBRANCH   3   4
ENDBRANCH   2   3
ENDBRANCH   1   2
END_RES LYS A 135
BEGIN_RES ARG A 124
REMARK  4 active torsions:
REMARK  status: ('A' for Active; 'I' for Inactive)
REMARK    5  A    between atoms: CA   and  CB  
REMARK    6  A    between atoms: CB   and  CG  
REMARK    7  A    between atoms: CG   and  CD  
REMARK    8  A    between atoms: CD   and  NE  
REMARK       I    between atoms: NE   and  CZ  
ROOT
ATOM      7  CA  ARG A 124      31.045  26.515   9.594  1.00 17.84     0.186 C 
ENDROOT
BRANCH   7   8
ATOM      8  CB  ARG A 124      29.529  26.705   9.647  1.00 16.18     0.036 C 
BRANCH   8   9
ATOM      9  CG  ARG A 124      28.911  26.839  11.085  1.00 16.22     0.029 C 
BRANCH   9  10
ATOM     10  CD  ARG A 124      27.557  26.108  11.227  1.00 15.09     0.145 C 
BRANCH  10  11
ATOM     11  NE  ARG A 124      26.408  27.014  11.446  1.00 16.98    -0.083 NA
ATOM     12  CZ  ARG A 124      26.018  27.473  12.631  1.00 18.21     0.782 C 
ATOM     13  NH1 ARG A 124      26.665  27.149  13.744  1.00 21.11     0.063 N 
ATOM     14  NH2 ARG A 124      24.980  28.291  12.713  1.00 21.25     0.063 N 
ENDBRANCH  10  11
ENDBRANCH   9  10
ENDBRANCH   8   9
ENDBRANCH   7   8
END_RES ARG A 124
BEGIN_RES ASN A 133
REMARK  2 active torsions:
REMARK  status: ('A' for Active; 'I' for Inactive)
REMARK    9  A    between atoms: CA   and  CB  
REMARK   10  A    between atoms: CB   and  CG  
ROOT
ATOM     15  CA  ASN A 133      31.225  30.257  11.749  1.00 18.15     0.196 C 
ENDROOT
BRANCH  15  16
ATOM     16  CB  ASN A 133      30.092  31.240  11.460  1.00 18.27     0.126 C 
BRANCH  16  17
ATOM     17  CG  ASN A 133      28.735  30.610  11.513  1.00 18.94     0.276 C 
ATOM     18  OD1 ASN A 133      28.327  29.893  10.597  1.00 18.09    -0.269 OA
ATOM     19  ND2 ASN A 133      28.010  30.877  12.599  1.00 18.93    -0.107 N 
ENDBRANCH  16  17
ENDBRANCH  15  16
END_RES ASN A 133
BEGIN_RES LYS A 131
REMARK  4 active torsions:
REMARK  status: ('A' for Active; 'I' for Inactive)
REMARK   11  A    between atoms: CA   and  CB  
REMARK   12  A    between atoms: CB   and  CG  
REMARK   13  A    between atoms: CG   and  CD  
REMARK   14  A    between atoms: CD   and  CE  
ROOT
ATOM     20  CA  LYS A 131      29.867  25.555  16.977  1.00 20.52     0.186 C 
ENDROOT
BRANCH  20  21
ATOM     21  CB  LYS A 131      28.345  25.722  17.026  1.00 20.94     0.034 C 
BRANCH  21  22
ATOM     22  CG  LYS A 131      27.601  24.406  16.862  1.00 22.96     0.005 C 
BRANCH  22  23
ATOM     23  CD  LYS A 131      26.186  24.488  17.366  1.00 24.33     0.041 C 
BRANCH  23  24
ATOM     24  CE  LYS A 131      26.031  25.724  18.247  1.00 26.91     0.338 C 
ATOM     25  NZ  LYS A 131      25.740  25.330  19.646  1.00 27.40     0.618 N 
ENDBRANCH  23  24
ENDBRANCH  22  23
ENDBRANCH  21  22
ENDBRANCH  20  21
END_RES LYS A 131
