REMARK VINA RESULT:    -3.424      5.073     12.841
REMARK INTER + INTRA:          -9.954
REMARK INTER:                  -5.520
REMARK INTRA:                  -4.434
REMARK UNBOUND:                -5.329
REMARK SMILES CC(C)C[C@H](CN)CC(=O)O
REMARK SMILES IDX 8 1 5 2 4 3 2 4 1 5 3 6 6 7 7 8 9 11 10 12 11 13
REMARK H PARENT 7 9 7 10 11 14
REMARK Flexibility Score: inf
ROOT
ATOM      1  C   UNL     1      28.976  34.642   8.194  1.00  0.00     0.127 C 
ENDROOT
BRANCH   1   2
ATOM      2  C   UNL     1      27.964  35.648   7.684  1.00  0.00     0.014 C 
BRANCH   2   3
ATOM      3  C   UNL     1      26.554  35.228   7.990  1.00  0.00     0.008 C 
BRANCH   3   4
ATOM      4  C   UNL     1      26.101  35.621   9.366  1.00  0.00    -0.017 C 
ATOM      5  C   UNL     1      26.480  37.067   9.649  1.00  0.00     0.007 C 
ATOM      6  C   UNL     1      24.579  35.534   9.345  1.00  0.00     0.007 C 
ENDBRANCH   3   4
ENDBRANCH   2   3
BRANCH   2   7
ATOM      7  C   UNL     1      28.036  35.714   6.150  1.00  0.00     0.081 C 
BRANCH   7   8
ATOM      8  N   UNL     1      27.154  36.809   5.731  1.00  0.00    -0.330 NA
ATOM      9  H   UNL     1      27.676  37.699   5.797  1.00  0.00     0.118 HD
ATOM     10  H   UNL     1      26.290  36.822   6.301  1.00  0.00     0.118 HD
ENDBRANCH   7   8
ENDBRANCH   2   7
ENDBRANCH   1   2
BRANCH   1  11
ATOM     11  C   UNL     1      30.345  35.188   8.273  1.00  0.00     0.303 C 
ATOM     12  O   UNL     1      30.516  36.411   8.657  1.00  0.00    -0.252 OA
BRANCH  11  13
ATOM     13  O   UNL     1      31.476  34.477   7.956  1.00  0.00    -0.481 OA
ATOM     14  H   UNL     1      31.614  33.517   8.310  1.00  0.00     0.296 HD
ENDBRANCH  11  13
ENDBRANCH   1  11
TORSDOF 7
BEGIN_RES LYS A 135
REMARK  4 active torsions:
REMARK  status: ('A' for Active; 'I' for Inactive)
REMARK    1  A    between atoms: CA   and  CB  
REMARK    2  A    between atoms: CB   and  CG  
REMARK    3  A    between atoms: CG   and  CD  
REMARK    4  A    between atoms: CD   and  CE  
ROOT
ATOM      1  CA  LYS A 135      33.193  34.663   9.290  1.00 25.02     0.186 C 
ENDROOT
BRANCH   1   2
ATOM      2  CB  LYS A 135      32.060  35.360  10.034  1.00 26.63     0.034 C 
BRANCH   2   3
ATOM      3  CG  LYS A 135      32.492  35.996  11.330  1.00 29.45     0.005 C 
BRANCH   3   4
ATOM      4  CD  LYS A 135      31.466  35.737  12.423  1.00 32.00     0.041 C 
BRANCH   4   5
ATOM      5  CE  LYS A 135      30.351  34.847  11.907  1.00 34.25     0.338 C 
ATOM      6  NZ  LYS A 135      29.052  35.574  11.882  1.00 35.99     0.618 N 
ENDBRANCH   4   5
ENDBRANCH   3   4
ENDBRANCH   2   3
ENDBRANCH   1   2
END_RES LYS A 135
BEGIN_RES ARG A 124
REMARK  4 active torsions:
REMARK  status: ('A' for Active; 'I' for Inactive)
REMARK    5  A    between atoms: CA   and  CB  
REMARK    6  A    between atoms: CB   and  CG  
REMARK    7  A    between atoms: CG   and  CD  
REMARK    8  A    between atoms: CD   and  NE  
REMARK       I    between atoms: NE   and  CZ  
ROOT
ATOM      7  CA  ARG A 124      31.045  26.515   9.594  1.00 17.84     0.186 C 
ENDROOT
BRANCH   7   8
ATOM      8  CB  ARG A 124      29.529  26.705   9.647  1.00 16.18     0.036 C 
BRANCH   8   9
ATOM      9  CG  ARG A 124      28.757  25.739  10.616  1.00 16.22     0.029 C 
BRANCH   9  10
ATOM     10  CD  ARG A 124      28.445  26.386  11.984  1.00 15.09     0.145 C 
BRANCH  10  11
ATOM     11  NE  ARG A 124      27.087  26.966  12.076  1.00 16.98    -0.083 NA
ATOM     12  CZ  ARG A 124      26.654  27.736  13.068  1.00 18.21     0.782 C 
ATOM     13  NH1 ARG A 124      27.445  28.063  14.083  1.00 21.11     0.063 N 
ATOM     14  NH2 ARG A 124      25.419  28.212  13.045  1.00 21.25     0.063 N 
ENDBRANCH  10  11
ENDBRANCH   9  10
ENDBRANCH   8   9
ENDBRANCH   7   8
END_RES ARG A 124
BEGIN_RES ASN A 133
REMARK  2 active torsions:
REMARK  status: ('A' for Active; 'I' for Inactive)
REMARK    9  A    between atoms: CA   and  CB  
REMARK   10  A    between atoms: CB   and  CG  
ROOT
ATOM     15  CA  ASN A 133      31.225  30.257  11.749  1.00 18.15     0.196 C 
ENDROOT
BRANCH  15  16
ATOM     16  CB  ASN A 133      30.092  31.240  11.460  1.00 18.27     0.126 C 
BRANCH  16  17
ATOM     17  CG  ASN A 133      28.737  30.602  11.473  1.00 18.94     0.276 C 
ATOM     18  OD1 ASN A 133      28.459  29.679  10.705  1.00 18.09    -0.269 OA
ATOM     19  ND2 ASN A 133      27.870  31.095  12.356  1.00 18.93    -0.107 N 
ENDBRANCH  16  17
ENDBRANCH  15  16
END_RES ASN A 133
BEGIN_RES LYS A 131
REMARK  4 active torsions:
REMARK  status: ('A' for Active; 'I' for Inactive)
REMARK   11  A    between atoms: CA   and  CB  
REMARK   12  A    between atoms: CB   and  CG  
REMARK   13  A    between atoms: CG   and  CD  
REMARK   14  A    between atoms: CD   and  CE  
ROOT
ATOM     20  CA  LYS A 131      29.867  25.555  16.977  1.00 20.52     0.186 C 
ENDROOT
BRANCH  20  21
ATOM     21  CB  LYS A 131      28.345  25.722  17.026  1.00 20.94     0.034 C 
BRANCH  21  22
ATOM     22  CG  LYS A 131      27.599  24.424  16.755  1.00 22.96     0.005 C 
BRANCH  22  23
ATOM     23  CD  LYS A 131      26.896  23.909  17.980  1.00 24.33     0.041 C 
BRANCH  23  24
ATOM     24  CE  LYS A 131      25.675  23.097  17.563  1.00 26.91     0.338 C 
ATOM     25  NZ  LYS A 131      24.623  23.986  17.016  1.00 27.40     0.618 N 
ENDBRANCH  23  24
ENDBRANCH  22  23
ENDBRANCH  21  22
ENDBRANCH  20  21
END_RES LYS A 131
