REMARK VINA RESULT:    -4.406      2.216      2.830
REMARK INTER + INTRA:         -10.120
REMARK INTER:                  -5.011
REMARK INTRA:                  -5.109
REMARK UNBOUND:                -4.812
REMARK SMILES CC(=O)Oc1ccccc1CN
REMARK SMILES IDX 5 1 6 2 7 3 8 4 9 5 10 6 4 7 2 8 1 9 3 10 11 11 12 12
REMARK H PARENT 12 13 12 14
REMARK Flexibility Score: inf
ROOT
ATOM      1  C   UNL     1      25.511  36.875   8.276  1.00  0.00     0.135 A 
ATOM      2  C   UNL     1      26.483  37.111   7.324  1.00  0.00     0.047 A 
ATOM      3  C   UNL     1      27.377  36.108   7.059  1.00  0.00     0.004 A 
ATOM      4  C   UNL     1      27.350  34.879   7.699  1.00  0.00     0.001 A 
ATOM      5  C   UNL     1      26.365  34.677   8.646  1.00  0.00     0.009 A 
ATOM      6  C   UNL     1      25.444  35.658   8.944  1.00  0.00     0.008 A 
ENDROOT
BRANCH   1   7
ATOM      7  O   UNL     1      24.557  37.819   8.622  1.00  0.00    -0.426 OA
BRANCH   7   8
ATOM      8  C   UNL     1      23.628  38.224   7.675  1.00  0.00     0.308 C 
ATOM      9  C   UNL     1      23.539  39.644   7.198  1.00  0.00     0.139 C 
ATOM     10  O   UNL     1      22.850  37.351   7.220  1.00  0.00    -0.252 OA
ENDBRANCH   7   8
ENDBRANCH   1   7
BRANCH   6  11
ATOM     11  C   UNL     1      24.411  35.385   9.968  1.00  0.00     0.117 C 
BRANCH  11  12
ATOM     12  N   UNL     1      23.135  35.138   9.343  1.00  0.00    -0.326 NA
ATOM     13  H   UNL     1      23.163  35.260   8.312  1.00  0.00     0.119 HD
ATOM     14  H   UNL     1      22.795  34.184   9.538  1.00  0.00     0.119 HD
ENDBRANCH  11  12
ENDBRANCH   6  11
TORSDOF 4
BEGIN_RES LYS A 135
REMARK  4 active torsions:
REMARK  status: ('A' for Active; 'I' for Inactive)
REMARK    1  A    between atoms: CA   and  CB  
REMARK    2  A    between atoms: CB   and  CG  
REMARK    3  A    between atoms: CG   and  CD  
REMARK    4  A    between atoms: CD   and  CE  
ROOT
ATOM      1  CA  LYS A 135      33.193  34.663   9.290  1.00 25.02     0.186 C 
ENDROOT
BRANCH   1   2
ATOM      2  CB  LYS A 135      32.060  35.360  10.034  1.00 26.63     0.034 C 
BRANCH   2   3
ATOM      3  CG  LYS A 135      30.692  35.029   9.495  1.00 29.45     0.005 C 
BRANCH   3   4
ATOM      4  CD  LYS A 135      29.611  35.451  10.479  1.00 32.00     0.041 C 
BRANCH   4   5
ATOM      5  CE  LYS A 135      29.205  36.892  10.236  1.00 34.25     0.338 C 
ATOM      6  NZ  LYS A 135      27.976  37.239  11.003  1.00 35.99     0.618 N 
ENDBRANCH   4   5
ENDBRANCH   3   4
ENDBRANCH   2   3
ENDBRANCH   1   2
END_RES LYS A 135
BEGIN_RES ARG A 124
REMARK  4 active torsions:
REMARK  status: ('A' for Active; 'I' for Inactive)
REMARK    5  A    between atoms: CA   and  CB  
REMARK    6  A    between atoms: CB   and  CG  
REMARK    7  A    between atoms: CG   and  CD  
REMARK    8  A    between atoms: CD   and  NE  
REMARK       I    between atoms: NE   and  CZ  
ROOT
ATOM      7  CA  ARG A 124      31.045  26.515   9.594  1.00 17.84     0.186 C 
ENDROOT
BRANCH   7   8
ATOM      8  CB  ARG A 124      29.529  26.705   9.647  1.00 16.18     0.036 C 
BRANCH   8   9
ATOM      9  CG  ARG A 124      28.958  27.227  11.014  1.00 16.22     0.029 C 
BRANCH   9  10
ATOM     10  CD  ARG A 124      28.252  26.121  11.831  1.00 15.09     0.145 C 
BRANCH  10  11
ATOM     11  NE  ARG A 124      27.778  26.568  13.159  1.00 16.98    -0.083 NA
ATOM     12  CZ  ARG A 124      26.581  27.091  13.402  1.00 18.21     0.782 C 
ATOM     13  NH1 ARG A 124      25.686  27.245  12.434  1.00 21.11     0.063 N 
ATOM     14  NH2 ARG A 124      26.255  27.449  14.634  1.00 21.25     0.063 N 
ENDBRANCH  10  11
ENDBRANCH   9  10
ENDBRANCH   8   9
ENDBRANCH   7   8
END_RES ARG A 124
BEGIN_RES ASN A 133
REMARK  2 active torsions:
REMARK  status: ('A' for Active; 'I' for Inactive)
REMARK    9  A    between atoms: CA   and  CB  
REMARK   10  A    between atoms: CB   and  CG  
ROOT
ATOM     15  CA  ASN A 133      31.225  30.257  11.749  1.00 18.15     0.196 C 
ENDROOT
BRANCH  15  16
ATOM     16  CB  ASN A 133      30.092  31.240  11.460  1.00 18.27     0.126 C 
BRANCH  16  17
ATOM     17  CG  ASN A 133      28.819  30.902  12.173  1.00 18.94     0.276 C 
ATOM     18  OD1 ASN A 133      28.045  30.052  11.729  1.00 18.09    -0.269 OA
ATOM     19  ND2 ASN A 133      28.587  31.575  13.300  1.00 18.93    -0.107 N 
ENDBRANCH  16  17
ENDBRANCH  15  16
END_RES ASN A 133
BEGIN_RES LYS A 131
REMARK  4 active torsions:
REMARK  status: ('A' for Active; 'I' for Inactive)
REMARK   11  A    between atoms: CA   and  CB  
REMARK   12  A    between atoms: CB   and  CG  
REMARK   13  A    between atoms: CG   and  CD  
REMARK   14  A    between atoms: CD   and  CE  
ROOT
ATOM     20  CA  LYS A 131      29.867  25.555  16.977  1.00 20.52     0.186 C 
ENDROOT
BRANCH  20  21
ATOM     21  CB  LYS A 131      28.345  25.722  17.026  1.00 20.94     0.034 C 
BRANCH  21  22
ATOM     22  CG  LYS A 131      27.599  24.424  16.759  1.00 22.96     0.005 C 
BRANCH  22  23
ATOM     23  CD  LYS A 131      26.835  23.951  17.965  1.00 24.33     0.041 C 
BRANCH  23  24
ATOM     24  CE  LYS A 131      25.825  25.018  18.377  1.00 26.91     0.338 C 
ATOM     25  NZ  LYS A 131      25.698  25.069  19.853  1.00 27.40     0.618 N 
ENDBRANCH  23  24
ENDBRANCH  22  23
ENDBRANCH  21  22
ENDBRANCH  20  21
END_RES LYS A 131
