REMARK VINA RESULT:    -4.191      2.953      5.570
REMARK INTER + INTRA:          -9.363
REMARK INTER:                  -4.314
REMARK INTRA:                  -5.049
REMARK UNBOUND:                -5.049
REMARK SMILES NC1c2ccccc2-c2ccccc21
REMARK SMILES IDX 2 1 3 2 4 3 5 4 6 5 7 6 8 7 9 8 10 9 11 10 12 11 13 12 14 13
REMARK SMILES IDX 1 14
REMARK H PARENT 1 15 1 16
REMARK Flexibility Score: inf
ROOT
ATOM      1  C   UNL     1      28.842  34.916  14.124  1.00  0.00     0.113 C 
ATOM      2  C   UNL     1      29.332  33.741  14.846  1.00  0.00    -0.019 A 
ATOM      3  C   UNL     1      28.727  32.742  15.573  1.00  0.00     0.006 A 
ATOM      4  C   UNL     1      29.426  31.719  16.173  1.00  0.00     0.000 A 
ATOM      5  C   UNL     1      30.786  31.674  16.051  1.00  0.00     0.001 A 
ATOM      6  C   UNL     1      31.413  32.666  15.326  1.00  0.00     0.009 A 
ATOM      7  C   UNL     1      30.725  33.701  14.718  1.00  0.00    -0.013 A 
ATOM      8  C   UNL     1      31.116  34.852  13.914  1.00  0.00    -0.013 A 
ATOM      9  C   UNL     1      32.361  35.272  13.498  1.00  0.00     0.009 A 
ATOM     10  C   UNL     1      32.511  36.419  12.724  1.00  0.00     0.001 A 
ATOM     11  C   UNL     1      31.404  37.169  12.351  1.00  0.00     0.000 A 
ATOM     12  C   UNL     1      30.166  36.727  12.779  1.00  0.00     0.006 A 
ATOM     13  C   UNL     1      30.013  35.595  13.545  1.00  0.00    -0.019 A 
ENDROOT
BRANCH   1  14
ATOM     14  N   UNL     1      27.823  34.612  13.151  1.00  0.00    -0.320 NA
ATOM     15  H   UNL     1      28.181  34.625  12.160  1.00  0.00     0.119 HD
ATOM     16  H   UNL     1      27.012  35.266  13.183  1.00  0.00     0.119 HD
ENDBRANCH   1  14
TORSDOF 1
BEGIN_RES LYS A 135
REMARK  4 active torsions:
REMARK  status: ('A' for Active; 'I' for Inactive)
REMARK    1  A    between atoms: CA   and  CB  
REMARK    2  A    between atoms: CB   and  CG  
REMARK    3  A    between atoms: CG   and  CD  
REMARK    4  A    between atoms: CD   and  CE  
ROOT
ATOM      1  CA  LYS A 135      33.193  34.663   9.290  1.00 25.02     0.186 C 
ENDROOT
BRANCH   1   2
ATOM      2  CB  LYS A 135      32.060  35.360  10.034  1.00 26.63     0.034 C 
BRANCH   2   3
ATOM      3  CG  LYS A 135      30.713  34.720   9.817  1.00 29.45     0.005 C 
BRANCH   3   4
ATOM      4  CD  LYS A 135      30.093  35.203   8.515  1.00 32.00     0.041 C 
BRANCH   4   5
ATOM      5  CE  LYS A 135      28.751  34.535   8.284  1.00 34.25     0.338 C 
ATOM      6  NZ  LYS A 135      28.294  33.814   9.503  1.00 35.99     0.618 N 
ENDBRANCH   4   5
ENDBRANCH   3   4
ENDBRANCH   2   3
ENDBRANCH   1   2
END_RES LYS A 135
BEGIN_RES ARG A 124
REMARK  4 active torsions:
REMARK  status: ('A' for Active; 'I' for Inactive)
REMARK    5  A    between atoms: CA   and  CB  
REMARK    6  A    between atoms: CB   and  CG  
REMARK    7  A    between atoms: CG   and  CD  
REMARK    8  A    between atoms: CD   and  NE  
REMARK       I    between atoms: NE   and  CZ  
ROOT
ATOM      7  CA  ARG A 124      31.045  26.515   9.594  1.00 17.84     0.186 C 
ENDROOT
BRANCH   7   8
ATOM      8  CB  ARG A 124      29.529  26.705   9.647  1.00 16.18     0.036 C 
BRANCH   8   9
ATOM      9  CG  ARG A 124      28.759  25.751  10.629  1.00 16.22     0.029 C 
BRANCH   9  10
ATOM     10  CD  ARG A 124      28.563  26.367  12.033  1.00 15.09     0.145 C 
BRANCH  10  11
ATOM     11  NE  ARG A 124      27.182  26.826  12.297  1.00 16.98    -0.083 NA
ATOM     12  CZ  ARG A 124      26.816  27.579  13.329  1.00 18.21     0.782 C 
ATOM     13  NH1 ARG A 124      27.701  28.001  14.224  1.00 21.11     0.063 N 
ATOM     14  NH2 ARG A 124      25.550  27.944  13.464  1.00 21.25     0.063 N 
ENDBRANCH  10  11
ENDBRANCH   9  10
ENDBRANCH   8   9
ENDBRANCH   7   8
END_RES ARG A 124
BEGIN_RES ASN A 133
REMARK  2 active torsions:
REMARK  status: ('A' for Active; 'I' for Inactive)
REMARK    9  A    between atoms: CA   and  CB  
REMARK   10  A    between atoms: CB   and  CG  
ROOT
ATOM     15  CA  ASN A 133      31.225  30.257  11.749  1.00 18.15     0.196 C 
ENDROOT
BRANCH  15  16
ATOM     16  CB  ASN A 133      30.092  31.240  11.460  1.00 18.27     0.126 C 
BRANCH  16  17
ATOM     17  CG  ASN A 133      28.731  30.649  11.661  1.00 18.94     0.276 C 
ATOM     18  OD1 ASN A 133      27.992  31.041  12.567  1.00 18.09    -0.269 OA
ATOM     19  ND2 ASN A 133      28.381  29.687  10.808  1.00 18.93    -0.107 N 
ENDBRANCH  16  17
ENDBRANCH  15  16
END_RES ASN A 133
BEGIN_RES LYS A 131
REMARK  4 active torsions:
REMARK  status: ('A' for Active; 'I' for Inactive)
REMARK   11  A    between atoms: CA   and  CB  
REMARK   12  A    between atoms: CB   and  CG  
REMARK   13  A    between atoms: CG   and  CD  
REMARK   14  A    between atoms: CD   and  CE  
ROOT
ATOM     20  CA  LYS A 131      29.867  25.555  16.977  1.00 20.52     0.186 C 
ENDROOT
BRANCH  20  21
ATOM     21  CB  LYS A 131      28.345  25.722  17.026  1.00 20.94     0.034 C 
BRANCH  21  22
ATOM     22  CG  LYS A 131      27.601  24.401  16.900  1.00 22.96     0.005 C 
BRANCH  22  23
ATOM     23  CD  LYS A 131      26.143  24.537  17.242  1.00 24.33     0.041 C 
BRANCH  23  24
ATOM     24  CE  LYS A 131      25.687  25.966  16.964  1.00 26.91     0.338 C 
ATOM     25  NZ  LYS A 131      24.507  25.968  16.067  1.00 27.40     0.618 N 
ENDBRANCH  23  24
ENDBRANCH  22  23
ENDBRANCH  21  22
ENDBRANCH  20  21
END_RES LYS A 131
