REMARK VINA RESULT:    -3.034      5.045     11.797
REMARK INTER + INTRA:          -8.170
REMARK INTER:                  -2.231
REMARK INTRA:                  -5.939
REMARK UNBOUND:                -4.516
REMARK SMILES COCC(N)C(N)=O
REMARK SMILES IDX 3 1 2 2 1 3 4 4 5 5 6 8 7 9 8 10
REMARK H PARENT 5 6 5 7 7 11 7 12
REMARK Flexibility Score: inf
ROOT
ATOM      1  C   UNL     1      23.156  36.629   9.175  1.00  0.00     0.188 C 
ENDROOT
BRANCH   1   2
ATOM      2  O   UNL     1      22.377  35.621   8.568  1.00  0.00    -0.383 OA
ATOM      3  C   UNL     1      21.229  36.167   8.004  1.00  0.00     0.194 C 
ENDBRANCH   1   2
BRANCH   1   4
ATOM      4  C   UNL     1      24.632  36.363   8.954  1.00  0.00     0.167 C 
BRANCH   4   5
ATOM      5  N   UNL     1      25.355  36.756  10.115  1.00  0.00    -0.318 NA
ATOM      6  H   UNL     1      24.904  37.462  10.704  1.00  0.00     0.119 HD
ATOM      7  H   UNL     1      25.830  35.991  10.622  1.00  0.00     0.119 HD
ENDBRANCH   4   5
BRANCH   4   8
ATOM      8  C   UNL     1      25.056  37.201   7.812  1.00  0.00     0.236 C 
ATOM      9  N   UNL     1      24.114  38.054   7.195  1.00  0.00    -0.368 N 
ATOM     10  O   UNL     1      26.221  37.168   7.387  1.00  0.00    -0.273 OA
ATOM     11  H   UNL     1      23.113  37.753   7.007  1.00  0.00     0.159 HD
ATOM     12  H   UNL     1      24.426  39.011   6.920  1.00  0.00     0.159 HD
ENDBRANCH   4   8
ENDBRANCH   1   4
TORSDOF 4
BEGIN_RES LYS A 135
REMARK  4 active torsions:
REMARK  status: ('A' for Active; 'I' for Inactive)
REMARK    1  A    between atoms: CA   and  CB  
REMARK    2  A    between atoms: CB   and  CG  
REMARK    3  A    between atoms: CG   and  CD  
REMARK    4  A    between atoms: CD   and  CE  
ROOT
ATOM      1  CA  LYS A 135      33.193  34.663   9.290  1.00 25.02     0.186 C 
ENDROOT
BRANCH   1   2
ATOM      2  CB  LYS A 135      32.060  35.360  10.034  1.00 26.63     0.034 C 
BRANCH   2   3
ATOM      3  CG  LYS A 135      30.696  34.808   9.709  1.00 29.45     0.005 C 
BRANCH   3   4
ATOM      4  CD  LYS A 135      30.568  34.538   8.218  1.00 32.00     0.041 C 
BRANCH   4   5
ATOM      5  CE  LYS A 135      29.215  34.996   7.708  1.00 34.25     0.338 C 
ATOM      6  NZ  LYS A 135      28.116  34.498   8.581  1.00 35.99     0.618 N 
ENDBRANCH   4   5
ENDBRANCH   3   4
ENDBRANCH   2   3
ENDBRANCH   1   2
END_RES LYS A 135
BEGIN_RES ARG A 124
REMARK  4 active torsions:
REMARK  status: ('A' for Active; 'I' for Inactive)
REMARK    5  A    between atoms: CA   and  CB  
REMARK    6  A    between atoms: CB   and  CG  
REMARK    7  A    between atoms: CG   and  CD  
REMARK    8  A    between atoms: CD   and  NE  
REMARK       I    between atoms: NE   and  CZ  
ROOT
ATOM      7  CA  ARG A 124      31.045  26.515   9.594  1.00 17.84     0.186 C 
ENDROOT
BRANCH   7   8
ATOM      8  CB  ARG A 124      29.529  26.705   9.647  1.00 16.18     0.036 C 
BRANCH   8   9
ATOM      9  CG  ARG A 124      28.901  26.752  11.086  1.00 16.22     0.029 C 
BRANCH   9  10
ATOM     10  CD  ARG A 124      27.518  26.065  11.159  1.00 15.09     0.145 C 
BRANCH  10  11
ATOM     11  NE  ARG A 124      26.398  27.000  11.403  1.00 16.98    -0.083 NA
ATOM     12  CZ  ARG A 124      26.040  27.463  12.596  1.00 18.21     0.782 C 
ATOM     13  NH1 ARG A 124      26.696  27.115  13.696  1.00 21.11     0.063 N 
ATOM     14  NH2 ARG A 124      25.025  28.307  12.700  1.00 21.25     0.063 N 
ENDBRANCH  10  11
ENDBRANCH   9  10
ENDBRANCH   8   9
ENDBRANCH   7   8
END_RES ARG A 124
BEGIN_RES ASN A 133
REMARK  2 active torsions:
REMARK  status: ('A' for Active; 'I' for Inactive)
REMARK    9  A    between atoms: CA   and  CB  
REMARK   10  A    between atoms: CB   and  CG  
ROOT
ATOM     15  CA  ASN A 133      31.225  30.257  11.749  1.00 18.15     0.196 C 
ENDROOT
BRANCH  15  16
ATOM     16  CB  ASN A 133      30.092  31.240  11.460  1.00 18.27     0.126 C 
BRANCH  16  17
ATOM     17  CG  ASN A 133      28.733  30.617  11.543  1.00 18.94     0.276 C 
ATOM     18  OD1 ASN A 133      28.345  29.815  10.692  1.00 18.09    -0.269 OA
ATOM     19  ND2 ASN A 133      27.985  30.987  12.583  1.00 18.93    -0.107 N 
ENDBRANCH  16  17
ENDBRANCH  15  16
END_RES ASN A 133
BEGIN_RES LYS A 131
REMARK  4 active torsions:
REMARK  status: ('A' for Active; 'I' for Inactive)
REMARK   11  A    between atoms: CA   and  CB  
REMARK   12  A    between atoms: CB   and  CG  
REMARK   13  A    between atoms: CG   and  CD  
REMARK   14  A    between atoms: CD   and  CE  
ROOT
ATOM     20  CA  LYS A 131      29.867  25.555  16.977  1.00 20.52     0.186 C 
ENDROOT
BRANCH  20  21
ATOM     21  CB  LYS A 131      28.345  25.722  17.026  1.00 20.94     0.034 C 
BRANCH  21  22
ATOM     22  CG  LYS A 131      27.600  24.410  16.835  1.00 22.96     0.005 C 
BRANCH  22  23
ATOM     23  CD  LYS A 131      26.164  24.505  17.271  1.00 24.33     0.041 C 
BRANCH  23  24
ATOM     24  CE  LYS A 131      25.868  23.409  18.289  1.00 26.91     0.338 C 
ATOM     25  NZ  LYS A 131      25.055  22.334  17.673  1.00 27.40     0.618 N 
ENDBRANCH  23  24
ENDBRANCH  22  23
ENDBRANCH  21  22
ENDBRANCH  20  21
END_RES LYS A 131
