REMARK VINA RESULT:    -3.202      6.087     11.824
REMARK INTER + INTRA:          -8.373
REMARK INTER:                  -3.588
REMARK INTRA:                  -4.785
REMARK UNBOUND:                -4.516
REMARK SMILES COCC(N)C(N)=O
REMARK SMILES IDX 3 1 2 2 1 3 4 4 5 5 6 8 7 9 8 10
REMARK H PARENT 5 6 5 7 7 11 7 12
REMARK Flexibility Score: inf
ROOT
ATOM      1  C   UNL     1      39.472  34.842  13.307  1.00  0.00     0.188 C 
ENDROOT
BRANCH   1   2
ATOM      2  O   UNL     1      40.082  33.741  12.670  1.00  0.00    -0.383 OA
ATOM      3  C   UNL     1      41.466  33.818  12.783  1.00  0.00     0.194 C 
ENDBRANCH   1   2
BRANCH   1   4
ATOM      4  C   UNL     1      38.188  34.415  13.990  1.00  0.00     0.167 C 
BRANCH   4   5
ATOM      5  N   UNL     1      38.502  33.813  15.241  1.00  0.00    -0.318 NA
ATOM      6  H   UNL     1      38.786  32.829  15.204  1.00  0.00     0.119 HD
ATOM      7  H   UNL     1      39.037  34.406  15.897  1.00  0.00     0.119 HD
ENDBRANCH   4   5
BRANCH   4   8
ATOM      8  C   UNL     1      37.548  33.408  13.116  1.00  0.00     0.236 C 
ATOM      9  N   UNL     1      37.786  32.036  13.354  1.00  0.00    -0.368 N 
ATOM     10  O   UNL     1      36.807  33.746  12.180  1.00  0.00    -0.273 OA
ATOM     11  H   UNL     1      38.748  31.664  13.608  1.00  0.00     0.159 HD
ATOM     12  H   UNL     1      36.981  31.378  13.274  1.00  0.00     0.159 HD
ENDBRANCH   4   8
ENDBRANCH   1   4
TORSDOF 4
BEGIN_RES LYS A 135
REMARK  4 active torsions:
REMARK  status: ('A' for Active; 'I' for Inactive)
REMARK    1  A    between atoms: CA   and  CB  
REMARK    2  A    between atoms: CB   and  CG  
REMARK    3  A    between atoms: CG   and  CD  
REMARK    4  A    between atoms: CD   and  CE  
ROOT
ATOM      1  CA  LYS A 135      33.193  34.663   9.290  1.00 25.02     0.186 C 
ENDROOT
BRANCH   1   2
ATOM      2  CB  LYS A 135      32.060  35.360  10.034  1.00 26.63     0.034 C 
BRANCH   2   3
ATOM      3  CG  LYS A 135      30.844  35.612   9.180  1.00 29.45     0.005 C 
BRANCH   3   4
ATOM      4  CD  LYS A 135      30.254  34.301   8.686  1.00 32.00     0.041 C 
BRANCH   4   5
ATOM      5  CE  LYS A 135      28.767  34.449   8.429  1.00 34.25     0.338 C 
ATOM      6  NZ  LYS A 135      27.969  33.816   9.515  1.00 35.99     0.618 N 
ENDBRANCH   4   5
ENDBRANCH   3   4
ENDBRANCH   2   3
ENDBRANCH   1   2
END_RES LYS A 135
BEGIN_RES ARG A 124
REMARK  4 active torsions:
REMARK  status: ('A' for Active; 'I' for Inactive)
REMARK    5  A    between atoms: CA   and  CB  
REMARK    6  A    between atoms: CB   and  CG  
REMARK    7  A    between atoms: CG   and  CD  
REMARK    8  A    between atoms: CD   and  NE  
REMARK       I    between atoms: NE   and  CZ  
ROOT
ATOM      7  CA  ARG A 124      31.045  26.515   9.594  1.00 17.84     0.186 C 
ENDROOT
BRANCH   7   8
ATOM      8  CB  ARG A 124      29.529  26.705   9.647  1.00 16.18     0.036 C 
BRANCH   8   9
ATOM      9  CG  ARG A 124      28.751  25.702  10.572  1.00 16.22     0.029 C 
BRANCH   9  10
ATOM     10  CD  ARG A 124      27.654  26.392  11.415  1.00 15.09     0.145 C 
BRANCH  10  11
ATOM     11  NE  ARG A 124      28.178  27.178  12.553  1.00 16.98    -0.083 NA
ATOM     12  CZ  ARG A 124      27.464  28.026  13.284  1.00 18.21     0.782 C 
ATOM     13  NH1 ARG A 124      26.174  28.227  13.044  1.00 21.11     0.063 N 
ATOM     14  NH2 ARG A 124      28.032  28.672  14.291  1.00 21.25     0.063 N 
ENDBRANCH  10  11
ENDBRANCH   9  10
ENDBRANCH   8   9
ENDBRANCH   7   8
END_RES ARG A 124
BEGIN_RES ASN A 133
REMARK  2 active torsions:
REMARK  status: ('A' for Active; 'I' for Inactive)
REMARK    9  A    between atoms: CA   and  CB  
REMARK   10  A    between atoms: CB   and  CG  
ROOT
ATOM     15  CA  ASN A 133      31.225  30.257  11.749  1.00 18.15     0.196 C 
ENDROOT
BRANCH  15  16
ATOM     16  CB  ASN A 133      30.092  31.240  11.460  1.00 18.27     0.126 C 
BRANCH  16  17
ATOM     17  CG  ASN A 133      28.776  30.570  11.214  1.00 18.94     0.276 C 
ATOM     18  OD1 ASN A 133      28.688  29.588  10.474  1.00 18.09    -0.269 OA
ATOM     19  ND2 ASN A 133      27.725  31.101  11.838  1.00 18.93    -0.107 N 
ENDBRANCH  16  17
ENDBRANCH  15  16
END_RES ASN A 133
BEGIN_RES LYS A 131
REMARK  4 active torsions:
REMARK  status: ('A' for Active; 'I' for Inactive)
REMARK   11  A    between atoms: CA   and  CB  
REMARK   12  A    between atoms: CB   and  CG  
REMARK   13  A    between atoms: CG   and  CD  
REMARK   14  A    between atoms: CD   and  CE  
ROOT
ATOM     20  CA  LYS A 131      29.867  25.555  16.977  1.00 20.52     0.186 C 
ENDROOT
BRANCH  20  21
ATOM     21  CB  LYS A 131      28.345  25.722  17.026  1.00 20.94     0.034 C 
BRANCH  21  22
ATOM     22  CG  LYS A 131      27.681  25.484  15.679  1.00 22.96     0.005 C 
BRANCH  22  23
ATOM     23  CD  LYS A 131      26.227  25.869  15.688  1.00 24.33     0.041 C 
BRANCH  23  24
ATOM     24  CE  LYS A 131      25.936  26.729  16.913  1.00 26.91     0.338 C 
ATOM     25  NZ  LYS A 131      25.304  28.008  16.511  1.00 27.40     0.618 N 
ENDBRANCH  23  24
ENDBRANCH  22  23
ENDBRANCH  21  22
ENDBRANCH  20  21
END_RES LYS A 131
