REMARK VINA RESULT:    -3.053      5.275      7.197
REMARK INTER + INTRA:          -8.194
REMARK INTER:                  -3.066
REMARK INTRA:                  -5.127
REMARK UNBOUND:                -4.516
REMARK SMILES COCC(N)C(N)=O
REMARK SMILES IDX 3 1 2 2 1 3 4 4 5 5 6 8 7 9 8 10
REMARK H PARENT 5 6 5 7 7 11 7 12
REMARK Flexibility Score: inf
ROOT
ATOM      1  C   UNL     1      25.334  29.468  15.082  1.00  0.00     0.188 C 
ENDROOT
BRANCH   1   2
ATOM      2  O   UNL     1      25.360  30.042  13.794  1.00  0.00    -0.383 OA
ATOM      3  C   UNL     1      24.099  29.987  13.210  1.00  0.00     0.194 C 
ENDBRANCH   1   2
BRANCH   1   4
ATOM      4  C   UNL     1      26.303  30.183  16.001  1.00  0.00     0.167 C 
BRANCH   4   5
ATOM      5  N   UNL     1      26.749  31.378  15.371  1.00  0.00    -0.318 NA
ATOM      6  H   UNL     1      27.008  32.144  16.000  1.00  0.00     0.119 HD
ATOM      7  H   UNL     1      27.369  31.245  14.555  1.00  0.00     0.119 HD
ENDBRANCH   4   5
BRANCH   4   8
ATOM      8  C   UNL     1      27.458  29.279  16.199  1.00  0.00     0.236 C 
ATOM      9  N   UNL     1      28.679  29.570  15.550  1.00  0.00    -0.368 N 
ATOM     10  O   UNL     1      27.373  28.276  16.922  1.00  0.00    -0.273 OA
ATOM     11  H   UNL     1      28.720  29.915  14.547  1.00  0.00     0.159 HD
ATOM     12  H   UNL     1      29.563  29.435  16.088  1.00  0.00     0.159 HD
ENDBRANCH   4   8
ENDBRANCH   1   4
TORSDOF 4
BEGIN_RES LYS A 135
REMARK  4 active torsions:
REMARK  status: ('A' for Active; 'I' for Inactive)
REMARK    1  A    between atoms: CA   and  CB  
REMARK    2  A    between atoms: CB   and  CG  
REMARK    3  A    between atoms: CG   and  CD  
REMARK    4  A    between atoms: CD   and  CE  
ROOT
ATOM      1  CA  LYS A 135      33.193  34.663   9.290  1.00 25.02     0.186 C 
ENDROOT
BRANCH   1   2
ATOM      2  CB  LYS A 135      32.060  35.360  10.034  1.00 26.63     0.034 C 
BRANCH   2   3
ATOM      3  CG  LYS A 135      30.796  35.489   9.223  1.00 29.45     0.005 C 
BRANCH   3   4
ATOM      4  CD  LYS A 135      30.167  34.124   8.990  1.00 32.00     0.041 C 
BRANCH   4   5
ATOM      5  CE  LYS A 135      28.662  34.249   8.850  1.00 34.25     0.338 C 
ATOM      6  NZ  LYS A 135      28.300  35.071   7.662  1.00 35.99     0.618 N 
ENDBRANCH   4   5
ENDBRANCH   3   4
ENDBRANCH   2   3
ENDBRANCH   1   2
END_RES LYS A 135
BEGIN_RES ARG A 124
REMARK  4 active torsions:
REMARK  status: ('A' for Active; 'I' for Inactive)
REMARK    5  A    between atoms: CA   and  CB  
REMARK    6  A    between atoms: CB   and  CG  
REMARK    7  A    between atoms: CG   and  CD  
REMARK    8  A    between atoms: CD   and  NE  
REMARK       I    between atoms: NE   and  CZ  
ROOT
ATOM      7  CA  ARG A 124      31.045  26.515   9.594  1.00 17.84     0.186 C 
ENDROOT
BRANCH   7   8
ATOM      8  CB  ARG A 124      29.529  26.705   9.647  1.00 16.18     0.036 C 
BRANCH   8   9
ATOM      9  CG  ARG A 124      29.034  28.193   9.728  1.00 16.22     0.029 C 
BRANCH   9  10
ATOM     10  CD  ARG A 124      27.881  28.388  10.739  1.00 15.09     0.145 C 
BRANCH  10  11
ATOM     11  NE  ARG A 124      28.120  27.744  12.050  1.00 16.98    -0.083 NA
ATOM     12  CZ  ARG A 124      27.198  27.107  12.763  1.00 18.21     0.782 C 
ATOM     13  NH1 ARG A 124      25.950  26.987  12.327  1.00 21.11     0.063 N 
ATOM     14  NH2 ARG A 124      27.524  26.555  13.922  1.00 21.25     0.063 N 
ENDBRANCH  10  11
ENDBRANCH   9  10
ENDBRANCH   8   9
ENDBRANCH   7   8
END_RES ARG A 124
BEGIN_RES ASN A 133
REMARK  2 active torsions:
REMARK  status: ('A' for Active; 'I' for Inactive)
REMARK    9  A    between atoms: CA   and  CB  
REMARK   10  A    between atoms: CB   and  CG  
ROOT
ATOM     15  CA  ASN A 133      31.225  30.257  11.749  1.00 18.15     0.196 C 
ENDROOT
BRANCH  15  16
ATOM     16  CB  ASN A 133      30.092  31.240  11.460  1.00 18.27     0.126 C 
BRANCH  16  17
ATOM     17  CG  ASN A 133      29.311  31.617  12.680  1.00 18.94     0.276 C 
ATOM     18  OD1 ASN A 133      28.356  30.937  13.063  1.00 18.09    -0.269 OA
ATOM     19  ND2 ASN A 133      29.711  32.721  13.310  1.00 18.93    -0.107 N 
ENDBRANCH  16  17
ENDBRANCH  15  16
END_RES ASN A 133
BEGIN_RES LYS A 131
REMARK  4 active torsions:
REMARK  status: ('A' for Active; 'I' for Inactive)
REMARK   11  A    between atoms: CA   and  CB  
REMARK   12  A    between atoms: CB   and  CG  
REMARK   13  A    between atoms: CG   and  CD  
REMARK   14  A    between atoms: CD   and  CE  
ROOT
ATOM     20  CA  LYS A 131      29.867  25.555  16.977  1.00 20.52     0.186 C 
ENDROOT
BRANCH  20  21
ATOM     21  CB  LYS A 131      28.345  25.722  17.026  1.00 20.94     0.034 C 
BRANCH  21  22
ATOM     22  CG  LYS A 131      27.601  24.404  16.877  1.00 22.96     0.005 C 
BRANCH  22  23
ATOM     23  CD  LYS A 131      26.266  24.426  17.568  1.00 24.33     0.041 C 
BRANCH  23  24
ATOM     24  CE  LYS A 131      25.298  25.300  16.777  1.00 26.91     0.338 C 
ATOM     25  NZ  LYS A 131      24.602  26.249  17.677  1.00 27.40     0.618 N 
ENDBRANCH  23  24
ENDBRANCH  22  23
ENDBRANCH  21  22
ENDBRANCH  20  21
END_RES LYS A 131
