REMARK VINA RESULT:    -2.333      5.384     11.168
REMARK INTER + INTRA:          -8.345
REMARK INTER:                  -2.799
REMARK INTRA:                  -5.546
REMARK UNBOUND:                -5.534
REMARK SMILES CC(=O)OCCN
REMARK SMILES IDX 5 1 4 2 2 3 1 4 3 5 6 6 7 7
REMARK H PARENT 7 8 7 9
REMARK Flexibility Score: inf
ROOT
ATOM      1  C   UNL     1      38.604  34.481  15.330  1.00  0.00     0.248 C 
ENDROOT
BRANCH   1   2
ATOM      2  O   UNL     1      37.801  33.801  14.417  1.00  0.00    -0.465 OA
BRANCH   2   3
ATOM      3  C   UNL     1      38.071  33.623  13.079  1.00  0.00     0.302 C 
ATOM      4  C   UNL     1      37.037  33.481  12.022  1.00  0.00     0.139 C 
ATOM      5  O   UNL     1      39.273  33.576  12.714  1.00  0.00    -0.253 OA
ENDBRANCH   2   3
ENDBRANCH   1   2
BRANCH   1   6
ATOM      6  C   UNL     1      38.115  35.860  15.683  1.00  0.00     0.119 C 
BRANCH   6   7
ATOM      7  N   UNL     1      36.718  35.704  16.113  1.00  0.00    -0.327 NA
ATOM      8  H   UNL     1      36.512  36.344  16.932  1.00  0.00     0.119 HD
ATOM      9  H   UNL     1      36.116  36.017  15.306  1.00  0.00     0.119 HD
ENDBRANCH   6   7
ENDBRANCH   1   6
TORSDOF 4
BEGIN_RES LYS A 135
REMARK  4 active torsions:
REMARK  status: ('A' for Active; 'I' for Inactive)
REMARK    1  A    between atoms: CA   and  CB  
REMARK    2  A    between atoms: CB   and  CG  
REMARK    3  A    between atoms: CG   and  CD  
REMARK    4  A    between atoms: CD   and  CE  
ROOT
ATOM      1  CA  LYS A 135      33.193  34.663   9.290  1.00 25.02     0.186 C 
ENDROOT
BRANCH   1   2
ATOM      2  CB  LYS A 135      32.060  35.360  10.034  1.00 26.63     0.034 C 
BRANCH   2   3
ATOM      3  CG  LYS A 135      30.695  34.819   9.697  1.00 29.45     0.005 C 
BRANCH   3   4
ATOM      4  CD  LYS A 135      30.583  34.535   8.207  1.00 32.00     0.041 C 
BRANCH   4   5
ATOM      5  CE  LYS A 135      29.240  34.998   7.675  1.00 34.25     0.338 C 
ATOM      6  NZ  LYS A 135      28.125  34.499   8.527  1.00 35.99     0.618 N 
ENDBRANCH   4   5
ENDBRANCH   3   4
ENDBRANCH   2   3
ENDBRANCH   1   2
END_RES LYS A 135
BEGIN_RES ARG A 124
REMARK  4 active torsions:
REMARK  status: ('A' for Active; 'I' for Inactive)
REMARK    5  A    between atoms: CA   and  CB  
REMARK    6  A    between atoms: CB   and  CG  
REMARK    7  A    between atoms: CG   and  CD  
REMARK    8  A    between atoms: CD   and  NE  
REMARK       I    between atoms: NE   and  CZ  
ROOT
ATOM      7  CA  ARG A 124      31.045  26.515   9.594  1.00 17.84     0.186 C 
ENDROOT
BRANCH   7   8
ATOM      8  CB  ARG A 124      29.529  26.705   9.647  1.00 16.18     0.036 C 
BRANCH   8   9
ATOM      9  CG  ARG A 124      28.971  27.349  10.966  1.00 16.22     0.029 C 
BRANCH   9  10
ATOM     10  CD  ARG A 124      28.424  26.300  11.961  1.00 15.09     0.145 C 
BRANCH  10  11
ATOM     11  NE  ARG A 124      27.988  26.872  13.254  1.00 16.98    -0.083 NA
ATOM     12  CZ  ARG A 124      26.757  27.293  13.522  1.00 18.21     0.782 C 
ATOM     13  NH1 ARG A 124      25.788  27.215  12.617  1.00 21.11     0.063 N 
ATOM     14  NH2 ARG A 124      26.471  27.780  14.720  1.00 21.25     0.063 N 
ENDBRANCH  10  11
ENDBRANCH   9  10
ENDBRANCH   8   9
ENDBRANCH   7   8
END_RES ARG A 124
BEGIN_RES ASN A 133
REMARK  2 active torsions:
REMARK  status: ('A' for Active; 'I' for Inactive)
REMARK    9  A    between atoms: CA   and  CB  
REMARK   10  A    between atoms: CB   and  CG  
ROOT
ATOM     15  CA  ASN A 133      31.225  30.257  11.749  1.00 18.15     0.196 C 
ENDROOT
BRANCH  15  16
ATOM     16  CB  ASN A 133      30.092  31.240  11.460  1.00 18.27     0.126 C 
BRANCH  16  17
ATOM     17  CG  ASN A 133      29.026  31.239  12.511  1.00 18.94     0.276 C 
ATOM     18  OD1 ASN A 133      29.127  31.934  13.524  1.00 18.09    -0.269 OA
ATOM     19  ND2 ASN A 133      27.979  30.448  12.279  1.00 18.93    -0.107 N 
ENDBRANCH  16  17
ENDBRANCH  15  16
END_RES ASN A 133
BEGIN_RES LYS A 131
REMARK  4 active torsions:
REMARK  status: ('A' for Active; 'I' for Inactive)
REMARK   11  A    between atoms: CA   and  CB  
REMARK   12  A    between atoms: CB   and  CG  
REMARK   13  A    between atoms: CG   and  CD  
REMARK   14  A    between atoms: CD   and  CE  
ROOT
ATOM     20  CA  LYS A 131      29.867  25.555  16.977  1.00 20.52     0.186 C 
ENDROOT
BRANCH  20  21
ATOM     21  CB  LYS A 131      28.345  25.722  17.026  1.00 20.94     0.034 C 
BRANCH  21  22
ATOM     22  CG  LYS A 131      27.599  24.446  16.669  1.00 22.96     0.005 C 
BRANCH  22  23
ATOM     23  CD  LYS A 131      26.846  23.883  17.843  1.00 24.33     0.041 C 
BRANCH  23  24
ATOM     24  CE  LYS A 131      25.397  23.624  17.442  1.00 26.91     0.338 C 
ATOM     25  NZ  LYS A 131      24.932  22.326  17.985  1.00 27.40     0.618 N 
ENDBRANCH  23  24
ENDBRANCH  22  23
ENDBRANCH  21  22
ENDBRANCH  20  21
END_RES LYS A 131
