REMARK VINA RESULT:    -3.045      5.863      7.883
REMARK INTER + INTRA:          -8.885
REMARK INTER:                  -4.192
REMARK INTRA:                  -4.694
REMARK UNBOUND:                -5.395
REMARK SMILES N#Cc1cccc(CN)c1
REMARK SMILES IDX 7 1 6 2 5 3 4 4 3 5 10 6 8 7 9 8 2 11 1 12
REMARK H PARENT 9 9 9 10
REMARK Flexibility Score: inf
ROOT
ATOM      1  C   UNL     1      26.166  35.829   8.887  1.00  0.00    -0.033 A 
ATOM      2  C   UNL     1      26.891  34.823   8.282  1.00  0.00     0.005 A 
ATOM      3  C   UNL     1      27.524  33.828   9.006  1.00  0.00     0.002 A 
ATOM      4  C   UNL     1      27.422  33.853  10.394  1.00  0.00     0.019 A 
ATOM      5  C   UNL     1      26.713  34.834  11.034  1.00  0.00     0.052 A 
ATOM      6  C   UNL     1      26.086  35.822  10.270  1.00  0.00     0.024 A 
ENDROOT
BRANCH   1   7
ATOM      7  C   UNL     1      25.504  36.874   8.088  1.00  0.00     0.113 C 
BRANCH   7   8
ATOM      8  N   UNL     1      26.158  37.131   6.824  1.00  0.00    -0.326 NA
ATOM      9  H   UNL     1      27.047  37.655   7.050  1.00  0.00     0.119 HD
ATOM     10  H   UNL     1      25.516  37.737   6.235  1.00  0.00     0.119 HD
ENDBRANCH   7   8
ENDBRANCH   1   7
BRANCH   5  11
ATOM     11  C   UNL     1      26.588  34.886  12.471  1.00  0.00     0.099 C 
ATOM     12  N   UNL     1      26.489  34.947  13.615  1.00  0.00    -0.192 NA
ENDBRANCH   5  11
TORSDOF 3
BEGIN_RES LYS A 135
REMARK  4 active torsions:
REMARK  status: ('A' for Active; 'I' for Inactive)
REMARK    1  A    between atoms: CA   and  CB  
REMARK    2  A    between atoms: CB   and  CG  
REMARK    3  A    between atoms: CG   and  CD  
REMARK    4  A    between atoms: CD   and  CE  
ROOT
ATOM      1  CA  LYS A 135      33.193  34.663   9.290  1.00 25.02     0.186 C 
ENDROOT
BRANCH   1   2
ATOM      2  CB  LYS A 135      32.060  35.360  10.034  1.00 26.63     0.034 C 
BRANCH   2   3
ATOM      3  CG  LYS A 135      30.750  35.341   9.290  1.00 29.45     0.005 C 
BRANCH   3   4
ATOM      4  CD  LYS A 135      29.994  36.644   9.502  1.00 32.00     0.041 C 
BRANCH   4   5
ATOM      5  CE  LYS A 135      30.771  37.811   8.923  1.00 34.25     0.338 C 
ATOM      6  NZ  LYS A 135      30.039  38.432   7.785  1.00 35.99     0.618 N 
ENDBRANCH   4   5
ENDBRANCH   3   4
ENDBRANCH   2   3
ENDBRANCH   1   2
END_RES LYS A 135
BEGIN_RES ARG A 124
REMARK  4 active torsions:
REMARK  status: ('A' for Active; 'I' for Inactive)
REMARK    5  A    between atoms: CA   and  CB  
REMARK    6  A    between atoms: CB   and  CG  
REMARK    7  A    between atoms: CG   and  CD  
REMARK    8  A    between atoms: CD   and  NE  
REMARK       I    between atoms: NE   and  CZ  
ROOT
ATOM      7  CA  ARG A 124      31.045  26.515   9.594  1.00 17.84     0.186 C 
ENDROOT
BRANCH   7   8
ATOM      8  CB  ARG A 124      29.529  26.705   9.647  1.00 16.18     0.036 C 
BRANCH   8   9
ATOM      9  CG  ARG A 124      28.967  27.310  10.983  1.00 16.22     0.029 C 
BRANCH   9  10
ATOM     10  CD  ARG A 124      28.387  26.235  11.931  1.00 15.09     0.145 C 
BRANCH  10  11
ATOM     11  NE  ARG A 124      27.922  26.770  13.229  1.00 16.98    -0.083 NA
ATOM     12  CZ  ARG A 124      26.703  27.242  13.464  1.00 18.21     0.782 C 
ATOM     13  NH1 ARG A 124      25.773  27.255  12.516  1.00 21.11     0.063 N 
ATOM     14  NH2 ARG A 124      26.387  27.688  14.670  1.00 21.25     0.063 N 
ENDBRANCH  10  11
ENDBRANCH   9  10
ENDBRANCH   8   9
ENDBRANCH   7   8
END_RES ARG A 124
BEGIN_RES ASN A 133
REMARK  2 active torsions:
REMARK  status: ('A' for Active; 'I' for Inactive)
REMARK    9  A    between atoms: CA   and  CB  
REMARK   10  A    between atoms: CB   and  CG  
ROOT
ATOM     15  CA  ASN A 133      31.225  30.257  11.749  1.00 18.15     0.196 C 
ENDROOT
BRANCH  15  16
ATOM     16  CB  ASN A 133      30.092  31.240  11.460  1.00 18.27     0.126 C 
BRANCH  16  17
ATOM     17  CG  ASN A 133      28.818  30.899  12.168  1.00 18.94     0.276 C 
ATOM     18  OD1 ASN A 133      28.044  30.052  11.717  1.00 18.09    -0.269 OA
ATOM     19  ND2 ASN A 133      28.583  31.565  13.298  1.00 18.93    -0.107 N 
ENDBRANCH  16  17
ENDBRANCH  15  16
END_RES ASN A 133
BEGIN_RES LYS A 131
REMARK  4 active torsions:
REMARK  status: ('A' for Active; 'I' for Inactive)
REMARK   11  A    between atoms: CA   and  CB  
REMARK   12  A    between atoms: CB   and  CG  
REMARK   13  A    between atoms: CG   and  CD  
REMARK   14  A    between atoms: CD   and  CE  
ROOT
ATOM     20  CA  LYS A 131      29.867  25.555  16.977  1.00 20.52     0.186 C 
ENDROOT
BRANCH  20  21
ATOM     21  CB  LYS A 131      28.345  25.722  17.026  1.00 20.94     0.034 C 
BRANCH  21  22
ATOM     22  CG  LYS A 131      27.599  24.424  16.755  1.00 22.96     0.005 C 
BRANCH  22  23
ATOM     23  CD  LYS A 131      26.801  23.971  17.946  1.00 24.33     0.041 C 
BRANCH  23  24
ATOM     24  CE  LYS A 131      25.415  23.526  17.490  1.00 26.91     0.338 C 
ATOM     25  NZ  LYS A 131      24.900  22.450  18.370  1.00 27.40     0.618 N 
ENDBRANCH  23  24
ENDBRANCH  22  23
ENDBRANCH  21  22
ENDBRANCH  20  21
END_RES LYS A 131
