REMARK VINA RESULT:    -3.723      3.426      6.196
REMARK INTER + INTRA:          -9.127
REMARK INTER:                  -3.760
REMARK INTRA:                  -5.367
REMARK UNBOUND:                -5.295
REMARK SMILES Cc1cc(C)c(N)c(C)c1
REMARK SMILES IDX 1 1 2 2 3 3 4 4 5 5 6 6 8 7 9 8 10 9 7 10
REMARK H PARENT 7 11 7 12
REMARK Flexibility Score: inf
ROOT
ATOM      1  C   UNL     1      24.997  30.644  13.293  1.00  0.00     0.044 C 
ATOM      2  C   UNL     1      23.539  30.809  12.972  1.00  0.00    -0.050 A 
ATOM      3  C   UNL     1      22.732  29.742  12.657  1.00  0.00     0.009 A 
ATOM      4  C   UNL     1      21.392  29.876  12.360  1.00  0.00    -0.028 A 
ATOM      5  C   UNL     1      20.533  28.701  12.020  1.00  0.00     0.046 C 
ATOM      6  C   UNL     1      20.823  31.133  12.378  1.00  0.00     0.037 A 
ATOM      7  C   UNL     1      21.611  32.222  12.691  1.00  0.00    -0.028 A 
ATOM      8  C   UNL     1      21.013  33.590  12.715  1.00  0.00     0.046 C 
ATOM      9  C   UNL     1      22.950  32.059  12.984  1.00  0.00     0.009 A 
ENDROOT
BRANCH   6  10
ATOM     10  N   UNL     1      19.444  31.306  12.077  1.00  0.00    -0.398 N 
ATOM     11  H   UNL     1      18.972  32.210  11.947  1.00  0.00     0.156 HD
ATOM     12  H   UNL     1      18.860  30.442  11.979  1.00  0.00     0.156 HD
ENDBRANCH   6  10
TORSDOF 1
BEGIN_RES LYS A 135
REMARK  4 active torsions:
REMARK  status: ('A' for Active; 'I' for Inactive)
REMARK    1  A    between atoms: CA   and  CB  
REMARK    2  A    between atoms: CB   and  CG  
REMARK    3  A    between atoms: CG   and  CD  
REMARK    4  A    between atoms: CD   and  CE  
ROOT
ATOM      1  CA  LYS A 135      33.193  34.663   9.290  1.00 25.02     0.186 C 
ENDROOT
BRANCH   1   2
ATOM      2  CB  LYS A 135      32.060  35.360  10.034  1.00 26.63     0.034 C 
BRANCH   2   3
ATOM      3  CG  LYS A 135      30.801  35.502   9.218  1.00 29.45     0.005 C 
BRANCH   3   4
ATOM      4  CD  LYS A 135      30.161  34.144   8.977  1.00 32.00     0.041 C 
BRANCH   4   5
ATOM      5  CE  LYS A 135      28.671  34.292   8.735  1.00 34.25     0.338 C 
ATOM      6  NZ  LYS A 135      27.884  33.598   9.791  1.00 35.99     0.618 N 
ENDBRANCH   4   5
ENDBRANCH   3   4
ENDBRANCH   2   3
ENDBRANCH   1   2
END_RES LYS A 135
BEGIN_RES ARG A 124
REMARK  4 active torsions:
REMARK  status: ('A' for Active; 'I' for Inactive)
REMARK    5  A    between atoms: CA   and  CB  
REMARK    6  A    between atoms: CB   and  CG  
REMARK    7  A    between atoms: CG   and  CD  
REMARK    8  A    between atoms: CD   and  NE  
REMARK       I    between atoms: NE   and  CZ  
ROOT
ATOM      7  CA  ARG A 124      31.045  26.515   9.594  1.00 17.84     0.186 C 
ENDROOT
BRANCH   7   8
ATOM      8  CB  ARG A 124      29.529  26.705   9.647  1.00 16.18     0.036 C 
BRANCH   8   9
ATOM      9  CG  ARG A 124      28.961  27.261  11.002  1.00 16.22     0.029 C 
BRANCH   9  10
ATOM     10  CD  ARG A 124      28.335  26.160  11.887  1.00 15.09     0.145 C 
BRANCH  10  11
ATOM     11  NE  ARG A 124      27.853  26.648  13.198  1.00 16.98    -0.083 NA
ATOM     12  CZ  ARG A 124      26.635  27.127  13.429  1.00 18.21     0.782 C 
ATOM     13  NH1 ARG A 124      25.725  27.193  12.465  1.00 21.11     0.063 N 
ATOM     14  NH2 ARG A 124      26.303  27.528  14.646  1.00 21.25     0.063 N 
ENDBRANCH  10  11
ENDBRANCH   9  10
ENDBRANCH   8   9
ENDBRANCH   7   8
END_RES ARG A 124
BEGIN_RES ASN A 133
REMARK  2 active torsions:
REMARK  status: ('A' for Active; 'I' for Inactive)
REMARK    9  A    between atoms: CA   and  CB  
REMARK   10  A    between atoms: CB   and  CG  
ROOT
ATOM     15  CA  ASN A 133      31.225  30.257  11.749  1.00 18.15     0.196 C 
ENDROOT
BRANCH  15  16
ATOM     16  CB  ASN A 133      30.092  31.240  11.460  1.00 18.27     0.126 C 
BRANCH  16  17
ATOM     17  CG  ASN A 133      28.814  30.891  12.157  1.00 18.94     0.276 C 
ATOM     18  OD1 ASN A 133      28.043  30.049  11.693  1.00 18.09    -0.269 OA
ATOM     19  ND2 ASN A 133      28.572  31.544  13.293  1.00 18.93    -0.107 N 
ENDBRANCH  16  17
ENDBRANCH  15  16
END_RES ASN A 133
BEGIN_RES LYS A 131
REMARK  4 active torsions:
REMARK  status: ('A' for Active; 'I' for Inactive)
REMARK   11  A    between atoms: CA   and  CB  
REMARK   12  A    between atoms: CB   and  CG  
REMARK   13  A    between atoms: CG   and  CD  
REMARK   14  A    between atoms: CD   and  CE  
ROOT
ATOM     20  CA  LYS A 131      29.867  25.555  16.977  1.00 20.52     0.186 C 
ENDROOT
BRANCH  20  21
ATOM     21  CB  LYS A 131      28.345  25.722  17.026  1.00 20.94     0.034 C 
BRANCH  21  22
ATOM     22  CG  LYS A 131      27.601  24.403  16.880  1.00 22.96     0.005 C 
BRANCH  22  23
ATOM     23  CD  LYS A 131      26.132  24.548  17.165  1.00 24.33     0.041 C 
BRANCH  23  24
ATOM     24  CE  LYS A 131      25.936  25.059  18.588  1.00 26.91     0.338 C 
ATOM     25  NZ  LYS A 131      24.620  25.725  18.724  1.00 27.40     0.618 N 
ENDBRANCH  23  24
ENDBRANCH  22  23
ENDBRANCH  21  22
ENDBRANCH  20  21
END_RES LYS A 131
