REMARK VINA RESULT:    -3.121      4.164      5.088
REMARK INTER + INTRA:          -9.632
REMARK INTER:                  -3.965
REMARK INTRA:                  -5.666
REMARK UNBOUND:                -5.872
REMARK SMILES NCC(=O)NCc1cccs1
REMARK SMILES IDX 3 1 4 2 5 3 2 5 1 6 6 9 7 10 8 11 11 12 9 13 10 14
REMARK H PARENT 5 4 1 7 1 8
REMARK Flexibility Score: inf
ROOT
ATOM      1  C   UNL     1      31.214  32.672  16.023  1.00  0.00     0.234 C 
ATOM      2  O   UNL     1      31.431  33.208  17.136  1.00  0.00    -0.274 OA
ATOM      3  N   UNL     1      31.865  33.225  14.885  1.00  0.00    -0.350 N 
ATOM      4  H   UNL     1      31.673  32.768  13.967  1.00  0.00     0.163 HD
ENDROOT
BRANCH   1   5
ATOM      5  C   UNL     1      30.302  31.491  15.894  1.00  0.00     0.178 C 
BRANCH   5   6
ATOM      6  N   UNL     1      30.278  30.772  17.133  1.00  0.00    -0.322 NA
ATOM      7  H   UNL     1      29.840  31.304  17.915  1.00  0.00     0.119 HD
ATOM      8  H   UNL     1      29.899  29.802  17.041  1.00  0.00     0.119 HD
ENDBRANCH   5   6
ENDBRANCH   1   5
BRANCH   3   9
ATOM      9  C   UNL     1      32.757  34.378  14.998  1.00  0.00     0.162 C 
BRANCH   9  10
ATOM     10  C   UNL     1      32.475  35.371  13.985  1.00  0.00     0.024 A 
ATOM     11  C   UNL     1      32.846  35.531  12.713  1.00  0.00     0.017 A 
ATOM     12  S   UNL     1      31.410  36.832  14.217  1.00  0.00    -0.147 S 
ATOM     13  C   UNL     1      32.435  36.563  11.971  1.00  0.00     0.012 A 
ATOM     14  C   UNL     1      31.586  37.493  12.573  1.00  0.00     0.065 A 
ENDBRANCH   9  10
ENDBRANCH   3   9
TORSDOF 4
BEGIN_RES LYS A 135
REMARK  4 active torsions:
REMARK  status: ('A' for Active; 'I' for Inactive)
REMARK    1  A    between atoms: CA   and  CB  
REMARK    2  A    between atoms: CB   and  CG  
REMARK    3  A    between atoms: CG   and  CD  
REMARK    4  A    between atoms: CD   and  CE  
ROOT
ATOM      1  CA  LYS A 135      33.193  34.663   9.290  1.00 25.02     0.186 C 
ENDROOT
BRANCH   1   2
ATOM      2  CB  LYS A 135      32.060  35.360  10.034  1.00 26.63     0.034 C 
BRANCH   2   3
ATOM      3  CG  LYS A 135      30.690  34.865   9.646  1.00 29.45     0.005 C 
BRANCH   3   4
ATOM      4  CD  LYS A 135      30.568  34.754   8.134  1.00 32.00     0.041 C 
BRANCH   4   5
ATOM      5  CE  LYS A 135      29.121  34.906   7.705  1.00 34.25     0.338 C 
ATOM      6  NZ  LYS A 135      28.194  34.388   8.749  1.00 35.99     0.618 N 
ENDBRANCH   4   5
ENDBRANCH   3   4
ENDBRANCH   2   3
ENDBRANCH   1   2
END_RES LYS A 135
BEGIN_RES ARG A 124
REMARK  4 active torsions:
REMARK  status: ('A' for Active; 'I' for Inactive)
REMARK    5  A    between atoms: CA   and  CB  
REMARK    6  A    between atoms: CB   and  CG  
REMARK    7  A    between atoms: CG   and  CD  
REMARK    8  A    between atoms: CD   and  NE  
REMARK       I    between atoms: NE   and  CZ  
ROOT
ATOM      7  CA  ARG A 124      31.045  26.515   9.594  1.00 17.84     0.186 C 
ENDROOT
BRANCH   7   8
ATOM      8  CB  ARG A 124      29.529  26.705   9.647  1.00 16.18     0.036 C 
BRANCH   8   9
ATOM      9  CG  ARG A 124      28.914  26.858  11.084  1.00 16.22     0.029 C 
BRANCH   9  10
ATOM     10  CD  ARG A 124      27.590  26.078  11.256  1.00 15.09     0.145 C 
BRANCH  10  11
ATOM     11  NE  ARG A 124      26.402  26.944  11.420  1.00 16.98    -0.083 NA
ATOM     12  CZ  ARG A 124      25.966  27.424  12.580  1.00 18.21     0.782 C 
ATOM     13  NH1 ARG A 124      26.598  27.161  13.717  1.00 21.11     0.063 N 
ATOM     14  NH2 ARG A 124      24.895  28.202  12.612  1.00 21.25     0.063 N 
ENDBRANCH  10  11
ENDBRANCH   9  10
ENDBRANCH   8   9
ENDBRANCH   7   8
END_RES ARG A 124
BEGIN_RES ASN A 133
REMARK  2 active torsions:
REMARK  status: ('A' for Active; 'I' for Inactive)
REMARK    9  A    between atoms: CA   and  CB  
REMARK   10  A    between atoms: CB   and  CG  
ROOT
ATOM     15  CA  ASN A 133      31.225  30.257  11.749  1.00 18.15     0.196 C 
ENDROOT
BRANCH  15  16
ATOM     16  CB  ASN A 133      30.092  31.240  11.460  1.00 18.27     0.126 C 
BRANCH  16  17
ATOM     17  CG  ASN A 133      28.731  30.640  11.628  1.00 18.94     0.276 C 
ATOM     18  OD1 ASN A 133      28.287  29.825  10.817  1.00 18.09    -0.269 OA
ATOM     19  ND2 ASN A 133      28.044  31.043  12.697  1.00 18.93    -0.107 N 
ENDBRANCH  16  17
ENDBRANCH  15  16
END_RES ASN A 133
BEGIN_RES LYS A 131
REMARK  4 active torsions:
REMARK  status: ('A' for Active; 'I' for Inactive)
REMARK   11  A    between atoms: CA   and  CB  
REMARK   12  A    between atoms: CB   and  CG  
REMARK   13  A    between atoms: CG   and  CD  
REMARK   14  A    between atoms: CD   and  CE  
ROOT
ATOM     20  CA  LYS A 131      29.867  25.555  16.977  1.00 20.52     0.186 C 
ENDROOT
BRANCH  20  21
ATOM     21  CB  LYS A 131      28.345  25.722  17.026  1.00 20.94     0.034 C 
BRANCH  21  22
ATOM     22  CG  LYS A 131      27.601  24.400  16.908  1.00 22.96     0.005 C 
BRANCH  22  23
ATOM     23  CD  LYS A 131      26.533  24.256  17.956  1.00 24.33     0.041 C 
BRANCH  23  24
ATOM     24  CE  LYS A 131      26.142  25.635  18.478  1.00 26.91     0.338 C 
ATOM     25  NZ  LYS A 131      25.743  25.557  19.903  1.00 27.40     0.618 N 
ENDBRANCH  23  24
ENDBRANCH  22  23
ENDBRANCH  21  22
ENDBRANCH  20  21
END_RES LYS A 131
