REMARK VINA RESULT:    -3.040      6.496     15.415
REMARK INTER + INTRA:          -9.998
REMARK INTER:                  -3.974
REMARK INTRA:                  -6.025
REMARK UNBOUND:                -5.981
REMARK SMILES N[C@@H](CCC(=O)O)C(=O)O
REMARK SMILES IDX 3 1 4 2 5 3 6 4 7 5 2 7 1 8 8 11 9 12 10 13
REMARK H PARENT 7 6 1 9 1 10 10 14
REMARK Flexibility Score: inf
ROOT
ATOM      1  C   UNL     1      35.903  37.958   5.038  1.00  0.00     0.042 C 
ENDROOT
BRANCH   1   2
ATOM      2  C   UNL     1      36.384  38.055   3.632  1.00  0.00     0.125 C 
BRANCH   2   3
ATOM      3  C   UNL     1      37.724  37.456   3.509  1.00  0.00     0.303 C 
ATOM      4  O   UNL     1      38.330  37.519   2.425  1.00  0.00    -0.252 OA
BRANCH   3   5
ATOM      5  O   UNL     1      38.308  36.831   4.582  1.00  0.00    -0.481 OA
ATOM      6  H   UNL     1      38.616  37.316   5.426  1.00  0.00     0.296 HD
ENDBRANCH   3   5
ENDBRANCH   2   3
ENDBRANCH   1   2
BRANCH   1   7
ATOM      7  C   UNL     1      36.045  39.234   5.814  1.00  0.00     0.162 C 
BRANCH   7   8
ATOM      8  N   UNL     1      37.273  39.147   6.616  1.00  0.00    -0.318 NA
ATOM      9  H   UNL     1      37.856  40.014   6.445  1.00  0.00     0.119 HD
ATOM     10  H   UNL     1      37.025  39.042   7.634  1.00  0.00     0.119 HD
ENDBRANCH   7   8
BRANCH   7  11
ATOM     11  C   UNL     1      34.935  39.538   6.719  1.00  0.00     0.320 C 
ATOM     12  O   UNL     1      35.088  40.285   7.711  1.00  0.00    -0.251 OA
BRANCH  11  13
ATOM     13  O   UNL     1      33.683  39.002   6.497  1.00  0.00    -0.480 OA
ATOM     14  H   UNL     1      33.004  39.443   5.859  1.00  0.00     0.296 HD
ENDBRANCH  11  13
ENDBRANCH   7  11
ENDBRANCH   1   7
TORSDOF 7
BEGIN_RES LYS A 135
REMARK  4 active torsions:
REMARK  status: ('A' for Active; 'I' for Inactive)
REMARK    1  A    between atoms: CA   and  CB  
REMARK    2  A    between atoms: CB   and  CG  
REMARK    3  A    between atoms: CG   and  CD  
REMARK    4  A    between atoms: CD   and  CE  
ROOT
ATOM      1  CA  LYS A 135      33.193  34.663   9.290  1.00 25.02     0.186 C 
ENDROOT
BRANCH   1   2
ATOM      2  CB  LYS A 135      32.060  35.360  10.034  1.00 26.63     0.034 C 
BRANCH   2   3
ATOM      3  CG  LYS A 135      30.823  35.560   9.197  1.00 29.45     0.005 C 
BRANCH   3   4
ATOM      4  CD  LYS A 135      30.301  34.226   8.685  1.00 32.00     0.041 C 
BRANCH   4   5
ATOM      5  CE  LYS A 135      28.853  34.029   9.091  1.00 34.25     0.338 C 
ATOM      6  NZ  LYS A 135      27.934  34.751   8.168  1.00 35.99     0.618 N 
ENDBRANCH   4   5
ENDBRANCH   3   4
ENDBRANCH   2   3
ENDBRANCH   1   2
END_RES LYS A 135
BEGIN_RES ARG A 124
REMARK  4 active torsions:
REMARK  status: ('A' for Active; 'I' for Inactive)
REMARK    5  A    between atoms: CA   and  CB  
REMARK    6  A    between atoms: CB   and  CG  
REMARK    7  A    between atoms: CG   and  CD  
REMARK    8  A    between atoms: CD   and  NE  
REMARK       I    between atoms: NE   and  CZ  
ROOT
ATOM      7  CA  ARG A 124      31.045  26.515   9.594  1.00 17.84     0.186 C 
ENDROOT
BRANCH   7   8
ATOM      8  CB  ARG A 124      29.529  26.705   9.647  1.00 16.18     0.036 C 
BRANCH   8   9
ATOM      9  CG  ARG A 124      28.895  26.711  11.084  1.00 16.22     0.029 C 
BRANCH   9  10
ATOM     10  CD  ARG A 124      27.491  26.067  11.123  1.00 15.09     0.145 C 
BRANCH  10  11
ATOM     11  NE  ARG A 124      26.399  27.028  11.395  1.00 16.98    -0.083 NA
ATOM     12  CZ  ARG A 124      26.070  27.484  12.598  1.00 18.21     0.782 C 
ATOM     13  NH1 ARG A 124      26.732  27.105  13.685  1.00 21.11     0.063 N 
ATOM     14  NH2 ARG A 124      25.080  28.354  12.728  1.00 21.25     0.063 N 
ENDBRANCH  10  11
ENDBRANCH   9  10
ENDBRANCH   8   9
ENDBRANCH   7   8
END_RES ARG A 124
BEGIN_RES ASN A 133
REMARK  2 active torsions:
REMARK  status: ('A' for Active; 'I' for Inactive)
REMARK    9  A    between atoms: CA   and  CB  
REMARK   10  A    between atoms: CB   and  CG  
ROOT
ATOM     15  CA  ASN A 133      31.225  30.257  11.749  1.00 18.15     0.196 C 
ENDROOT
BRANCH  15  16
ATOM     16  CB  ASN A 133      30.092  31.240  11.460  1.00 18.27     0.126 C 
BRANCH  16  17
ATOM     17  CG  ASN A 133      28.734  30.613  11.526  1.00 18.94     0.276 C 
ATOM     18  OD1 ASN A 133      28.366  29.795  10.681  1.00 18.09    -0.269 OA
ATOM     19  ND2 ASN A 133      27.964  30.997  12.544  1.00 18.93    -0.107 N 
ENDBRANCH  16  17
ENDBRANCH  15  16
END_RES ASN A 133
BEGIN_RES LYS A 131
REMARK  4 active torsions:
REMARK  status: ('A' for Active; 'I' for Inactive)
REMARK   11  A    between atoms: CA   and  CB  
REMARK   12  A    between atoms: CB   and  CG  
REMARK   13  A    between atoms: CG   and  CD  
REMARK   14  A    between atoms: CD   and  CE  
ROOT
ATOM     20  CA  LYS A 131      29.867  25.555  16.977  1.00 20.52     0.186 C 
ENDROOT
BRANCH  20  21
ATOM     21  CB  LYS A 131      28.345  25.722  17.026  1.00 20.94     0.034 C 
BRANCH  21  22
ATOM     22  CG  LYS A 131      27.599  24.435  16.711  1.00 22.96     0.005 C 
BRANCH  22  23
ATOM     23  CD  LYS A 131      26.931  23.855  17.927  1.00 24.33     0.041 C 
BRANCH  23  24
ATOM     24  CE  LYS A 131      26.203  24.961  18.684  1.00 26.91     0.338 C 
ATOM     25  NZ  LYS A 131      25.424  24.393  19.809  1.00 27.40     0.618 N 
ENDBRANCH  23  24
ENDBRANCH  22  23
ENDBRANCH  21  22
ENDBRANCH  20  21
END_RES LYS A 131
