REMARK VINA RESULT:    -4.007      6.023      8.665
REMARK INTER + INTRA:          -9.185
REMARK INTER:                  -4.476
REMARK INTRA:                  -4.709
REMARK UNBOUND:                -4.709
REMARK SMILES Nc1ccc(O)c([N+](=O)[O-])c1
REMARK SMILES IDX 2 1 3 2 4 3 5 4 7 5 11 6 1 7 8 10 9 11 10 12 6 13
REMARK H PARENT 1 8 1 9 6 14
REMARK Flexibility Score: inf
ROOT
ATOM      1  C   UNL     1      27.323  36.908   6.079  1.00  0.00     0.039 A 
ATOM      2  C   UNL     1      27.993  35.724   6.291  1.00  0.00     0.030 A 
ATOM      3  C   UNL     1      27.787  34.950   7.409  1.00  0.00     0.056 A 
ATOM      4  C   UNL     1      26.869  35.336   8.395  1.00  0.00     0.194 A 
ATOM      5  C   UNL     1      26.193  36.509   8.202  1.00  0.00     0.312 A 
ATOM      6  C   UNL     1      26.427  37.279   7.050  1.00  0.00     0.115 A 
ENDROOT
BRANCH   1   7
ATOM      7  N   UNL     1      27.580  37.668   4.911  1.00  0.00    -0.399 N 
ATOM      8  H   UNL     1      27.022  38.557   4.748  1.00  0.00     0.156 HD
ATOM      9  H   UNL     1      28.279  37.426   4.192  1.00  0.00     0.156 HD
ENDBRANCH   1   7
BRANCH   5  10
ATOM     10  N   UNL     1      25.247  36.966   9.151  1.00  0.00     0.066 N 
ATOM     11  O   UNL     1      24.045  37.161   8.962  1.00  0.00    -0.258 OA
ATOM     12  O   UNL     1      25.731  37.206  10.440  1.00  0.00    -0.258 OA
ENDBRANCH   5  10
BRANCH   4  13
ATOM     13  O   UNL     1      26.665  34.568   9.498  1.00  0.00    -0.502 OA
ATOM     14  H   UNL     1      26.439  34.812  10.432  1.00  0.00     0.293 HD
ENDBRANCH   4  13
TORSDOF 3
BEGIN_RES LYS A 135
REMARK  4 active torsions:
REMARK  status: ('A' for Active; 'I' for Inactive)
REMARK    1  A    between atoms: CA   and  CB  
REMARK    2  A    between atoms: CB   and  CG  
REMARK    3  A    between atoms: CG   and  CD  
REMARK    4  A    between atoms: CD   and  CE  
ROOT
ATOM      1  CA  LYS A 135      33.193  34.663   9.290  1.00 25.02     0.186 C 
ENDROOT
BRANCH   1   2
ATOM      2  CB  LYS A 135      32.060  35.360  10.034  1.00 26.63     0.034 C 
BRANCH   2   3
ATOM      3  CG  LYS A 135      30.811  35.528   9.208  1.00 29.45     0.005 C 
BRANCH   3   4
ATOM      4  CD  LYS A 135      30.075  36.800   9.601  1.00 32.00     0.041 C 
BRANCH   4   5
ATOM      5  CE  LYS A 135      30.124  37.814   8.474  1.00 34.25     0.338 C 
ATOM      6  NZ  LYS A 135      31.327  38.684   8.587  1.00 35.99     0.618 N 
ENDBRANCH   4   5
ENDBRANCH   3   4
ENDBRANCH   2   3
ENDBRANCH   1   2
END_RES LYS A 135
BEGIN_RES ARG A 124
REMARK  4 active torsions:
REMARK  status: ('A' for Active; 'I' for Inactive)
REMARK    5  A    between atoms: CA   and  CB  
REMARK    6  A    between atoms: CB   and  CG  
REMARK    7  A    between atoms: CG   and  CD  
REMARK    8  A    between atoms: CD   and  NE  
REMARK       I    between atoms: NE   and  CZ  
ROOT
ATOM      7  CA  ARG A 124      31.045  26.515   9.594  1.00 17.84     0.186 C 
ENDROOT
BRANCH   7   8
ATOM      8  CB  ARG A 124      29.529  26.705   9.647  1.00 16.18     0.036 C 
BRANCH   8   9
ATOM      9  CG  ARG A 124      28.970  27.341  10.970  1.00 16.22     0.029 C 
BRANCH   9  10
ATOM     10  CD  ARG A 124      28.423  26.286  11.958  1.00 15.09     0.145 C 
BRANCH  10  11
ATOM     11  NE  ARG A 124      27.983  26.850  13.253  1.00 16.98    -0.083 NA
ATOM     12  CZ  ARG A 124      26.751  27.268  13.521  1.00 18.21     0.782 C 
ATOM     13  NH1 ARG A 124      25.785  27.194  12.613  1.00 21.11     0.063 N 
ATOM     14  NH2 ARG A 124      26.461  27.747  14.720  1.00 21.25     0.063 N 
ENDBRANCH  10  11
ENDBRANCH   9  10
ENDBRANCH   8   9
ENDBRANCH   7   8
END_RES ARG A 124
BEGIN_RES ASN A 133
REMARK  2 active torsions:
REMARK  status: ('A' for Active; 'I' for Inactive)
REMARK    9  A    between atoms: CA   and  CB  
REMARK   10  A    between atoms: CB   and  CG  
ROOT
ATOM     15  CA  ASN A 133      31.225  30.257  11.749  1.00 18.15     0.196 C 
ENDROOT
BRANCH  15  16
ATOM     16  CB  ASN A 133      30.092  31.240  11.460  1.00 18.27     0.126 C 
BRANCH  16  17
ATOM     17  CG  ASN A 133      28.953  31.131  12.426  1.00 18.94     0.276 C 
ATOM     18  OD1 ASN A 133      28.955  31.758  13.487  1.00 18.09    -0.269 OA
ATOM     19  ND2 ASN A 133      27.958  30.322  12.066  1.00 18.93    -0.107 N 
ENDBRANCH  16  17
ENDBRANCH  15  16
END_RES ASN A 133
BEGIN_RES LYS A 131
REMARK  4 active torsions:
REMARK  status: ('A' for Active; 'I' for Inactive)
REMARK   11  A    between atoms: CA   and  CB  
REMARK   12  A    between atoms: CB   and  CG  
REMARK   13  A    between atoms: CG   and  CD  
REMARK   14  A    between atoms: CD   and  CE  
ROOT
ATOM     20  CA  LYS A 131      29.867  25.555  16.977  1.00 20.52     0.186 C 
ENDROOT
BRANCH  20  21
ATOM     21  CB  LYS A 131      28.345  25.722  17.026  1.00 20.94     0.034 C 
BRANCH  21  22
ATOM     22  CG  LYS A 131      27.600  24.412  16.822  1.00 22.96     0.005 C 
BRANCH  22  23
ATOM     23  CD  LYS A 131      26.693  24.090  17.977  1.00 24.33     0.041 C 
BRANCH  23  24
ATOM     24  CE  LYS A 131      26.349  25.373  18.727  1.00 26.91     0.338 C 
ATOM     25  NZ  LYS A 131      24.882  25.507  18.883  1.00 27.40     0.618 N 
ENDBRANCH  23  24
ENDBRANCH  22  23
ENDBRANCH  21  22
ENDBRANCH  20  21
END_RES LYS A 131
