REMARK VINA RESULT:    -3.173      5.082      5.776
REMARK INTER + INTRA:          -9.175
REMARK INTER:                  -2.927
REMARK INTRA:                  -6.248
REMARK UNBOUND:                -5.539
REMARK SMILES NCCC1OCCO1
REMARK SMILES IDX 2 1 1 2 3 5 4 6 5 7 8 8 6 9 7 10
REMARK H PARENT 1 3 1 4
REMARK Flexibility Score: inf
ROOT
ATOM      1  C   UNL     1      38.455  37.395   3.102  1.00  0.00     0.083 C 
ENDROOT
BRANCH   1   2
ATOM      2  N   UNL     1      38.678  36.519   4.214  1.00  0.00    -0.330 NA
ATOM      3  H   UNL     1      39.444  35.862   3.955  1.00  0.00     0.118 HD
ATOM      4  H   UNL     1      38.925  37.090   5.052  1.00  0.00     0.118 HD
ENDBRANCH   1   2
BRANCH   1   5
ATOM      5  C   UNL     1      36.969  37.688   2.914  1.00  0.00     0.077 C 
BRANCH   5   6
ATOM      6  C   UNL     1      36.525  38.487   4.101  1.00  0.00     0.251 C 
ATOM      7  O   UNL     1      37.527  39.230   4.682  1.00  0.00    -0.350 OA
ATOM      8  O   UNL     1      36.074  37.685   5.151  1.00  0.00    -0.350 OA
ATOM      9  C   UNL     1      37.148  39.461   6.006  1.00  0.00     0.192 C 
ATOM     10  C   UNL     1      35.844  38.689   6.104  1.00  0.00     0.192 C 
ENDBRANCH   5   6
ENDBRANCH   1   5
TORSDOF 3
BEGIN_RES LYS A 135
REMARK  4 active torsions:
REMARK  status: ('A' for Active; 'I' for Inactive)
REMARK    1  A    between atoms: CA   and  CB  
REMARK    2  A    between atoms: CB   and  CG  
REMARK    3  A    between atoms: CG   and  CD  
REMARK    4  A    between atoms: CD   and  CE  
ROOT
ATOM      1  CA  LYS A 135      33.193  34.663   9.290  1.00 25.02     0.186 C 
ENDROOT
BRANCH   1   2
ATOM      2  CB  LYS A 135      32.060  35.360  10.034  1.00 26.63     0.034 C 
BRANCH   2   3
ATOM      3  CG  LYS A 135      30.788  35.465   9.233  1.00 29.45     0.005 C 
BRANCH   3   4
ATOM      4  CD  LYS A 135      30.227  34.083   8.934  1.00 32.00     0.041 C 
BRANCH   4   5
ATOM      5  CE  LYS A 135      28.744  34.031   9.250  1.00 34.25     0.338 C 
ATOM      6  NZ  LYS A 135      28.197  35.396   9.486  1.00 35.99     0.618 N 
ENDBRANCH   4   5
ENDBRANCH   3   4
ENDBRANCH   2   3
ENDBRANCH   1   2
END_RES LYS A 135
BEGIN_RES ARG A 124
REMARK  4 active torsions:
REMARK  status: ('A' for Active; 'I' for Inactive)
REMARK    5  A    between atoms: CA   and  CB  
REMARK    6  A    between atoms: CB   and  CG  
REMARK    7  A    between atoms: CG   and  CD  
REMARK    8  A    between atoms: CD   and  NE  
REMARK       I    between atoms: NE   and  CZ  
ROOT
ATOM      7  CA  ARG A 124      31.045  26.515   9.594  1.00 17.84     0.186 C 
ENDROOT
BRANCH   7   8
ATOM      8  CB  ARG A 124      29.529  26.705   9.647  1.00 16.18     0.036 C 
BRANCH   8   9
ATOM      9  CG  ARG A 124      28.907  26.802  11.086  1.00 16.22     0.029 C 
BRANCH   9  10
ATOM     10  CD  ARG A 124      27.542  26.085  11.199  1.00 15.09     0.145 C 
BRANCH  10  11
ATOM     11  NE  ARG A 124      26.401  27.001  11.415  1.00 16.98    -0.083 NA
ATOM     12  CZ  ARG A 124      26.015  27.468  12.598  1.00 18.21     0.782 C 
ATOM     13  NH1 ARG A 124      26.659  27.143  13.712  1.00 21.11     0.063 N 
ATOM     14  NH2 ARG A 124      24.983  28.295  12.677  1.00 21.25     0.063 N 
ENDBRANCH  10  11
ENDBRANCH   9  10
ENDBRANCH   8   9
ENDBRANCH   7   8
END_RES ARG A 124
BEGIN_RES ASN A 133
REMARK  2 active torsions:
REMARK  status: ('A' for Active; 'I' for Inactive)
REMARK    9  A    between atoms: CA   and  CB  
REMARK   10  A    between atoms: CB   and  CG  
ROOT
ATOM     15  CA  ASN A 133      31.225  30.257  11.749  1.00 18.15     0.196 C 
ENDROOT
BRANCH  15  16
ATOM     16  CB  ASN A 133      30.092  31.240  11.460  1.00 18.27     0.126 C 
BRANCH  16  17
ATOM     17  CG  ASN A 133      28.733  30.619  11.551  1.00 18.94     0.276 C 
ATOM     18  OD1 ASN A 133      28.338  29.820  10.699  1.00 18.09    -0.269 OA
ATOM     19  ND2 ASN A 133      27.993  30.986  12.596  1.00 18.93    -0.107 N 
ENDBRANCH  16  17
ENDBRANCH  15  16
END_RES ASN A 133
BEGIN_RES LYS A 131
REMARK  4 active torsions:
REMARK  status: ('A' for Active; 'I' for Inactive)
REMARK   11  A    between atoms: CA   and  CB  
REMARK   12  A    between atoms: CB   and  CG  
REMARK   13  A    between atoms: CG   and  CD  
REMARK   14  A    between atoms: CD   and  CE  
ROOT
ATOM     20  CA  LYS A 131      29.867  25.555  16.977  1.00 20.52     0.186 C 
ENDROOT
BRANCH  20  21
ATOM     21  CB  LYS A 131      28.345  25.722  17.026  1.00 20.94     0.034 C 
BRANCH  21  22
ATOM     22  CG  LYS A 131      27.600  24.416  16.800  1.00 22.96     0.005 C 
BRANCH  22  23
ATOM     23  CD  LYS A 131      26.807  23.999  18.008  1.00 24.33     0.041 C 
BRANCH  23  24
ATOM     24  CE  LYS A 131      25.735  22.997  17.592  1.00 26.91     0.338 C 
ATOM     25  NZ  LYS A 131      24.542  23.701  17.065  1.00 27.40     0.618 N 
ENDBRANCH  23  24
ENDBRANCH  22  23
ENDBRANCH  21  22
ENDBRANCH  20  21
END_RES LYS A 131
