REMARK VINA RESULT:    -3.896      2.731      3.718
REMARK INTER + INTRA:         -11.314
REMARK INTER:                  -5.622
REMARK INTRA:                  -5.692
REMARK UNBOUND:                -4.912
REMARK SMILES NCCCCCCCCCCC(=O)O
REMARK SMILES IDX 7 1 6 2 5 3 4 4 3 5 2 6 1 7 8 10 9 11 10 12 11 13 12 14
REMARK SMILES IDX 13 15 14 16
REMARK H PARENT 1 8 1 9 14 17
REMARK Flexibility Score: inf
ROOT
ATOM      1  C   UNL     1      35.039  36.092  16.992  1.00  0.00     0.000 C 
ENDROOT
BRANCH   1   2
ATOM      2  C   UNL     1      34.225  35.733  15.755  1.00  0.00     0.000 C 
BRANCH   2   3
ATOM      3  C   UNL     1      32.761  35.820  16.092  1.00  0.00     0.000 C 
BRANCH   3   4
ATOM      4  C   UNL     1      32.219  34.573  16.731  1.00  0.00     0.001 C 
BRANCH   4   5
ATOM      5  C   UNL     1      31.852  33.581  15.682  1.00  0.00     0.015 C 
BRANCH   5   6
ATOM      6  C   UNL     1      30.539  32.880  15.975  1.00  0.00     0.077 C 
BRANCH   6   7
ATOM      7  N   UNL     1      30.764  31.460  15.765  1.00  0.00    -0.330 NA
ATOM      8  H   UNL     1      31.655  31.155  16.223  1.00  0.00     0.118 HD
ATOM      9  H   UNL     1      30.863  31.268  14.745  1.00  0.00     0.118 HD
ENDBRANCH   6   7
ENDBRANCH   5   6
ENDBRANCH   4   5
ENDBRANCH   3   4
ENDBRANCH   2   3
ENDBRANCH   1   2
BRANCH   1  10
ATOM     10  C   UNL     1      36.416  36.554  16.676  1.00  0.00     0.000 C 
BRANCH  10  11
ATOM     11  C   UNL     1      37.331  35.369  16.543  1.00  0.00     0.001 C 
BRANCH  11  12
ATOM     12  C   UNL     1      38.096  35.353  15.241  1.00  0.00     0.012 C 
BRANCH  12  13
ATOM     13  C   UNL     1      37.451  34.217  14.427  1.00  0.00     0.122 C 
BRANCH  13  14
ATOM     14  C   UNL     1      38.446  33.925  13.354  1.00  0.00     0.303 C 
ATOM     15  O   UNL     1      39.078  34.905  12.882  1.00  0.00    -0.252 OA
BRANCH  14  16
ATOM     16  O   UNL     1      38.623  32.626  12.940  1.00  0.00    -0.481 OA
ATOM     17  H   UNL     1      37.897  32.159  12.389  1.00  0.00     0.296 HD
ENDBRANCH  14  16
ENDBRANCH  13  14
ENDBRANCH  12  13
ENDBRANCH  11  12
ENDBRANCH  10  11
ENDBRANCH   1  10
TORSDOF 12
BEGIN_RES LYS A 135
REMARK  4 active torsions:
REMARK  status: ('A' for Active; 'I' for Inactive)
REMARK    1  A    between atoms: CA   and  CB  
REMARK    2  A    between atoms: CB   and  CG  
REMARK    3  A    between atoms: CG   and  CD  
REMARK    4  A    between atoms: CD   and  CE  
ROOT
ATOM      1  CA  LYS A 135      33.193  34.663   9.290  1.00 25.02     0.186 C 
ENDROOT
BRANCH   1   2
ATOM      2  CB  LYS A 135      32.060  35.360  10.034  1.00 26.63     0.034 C 
BRANCH   2   3
ATOM      3  CG  LYS A 135      30.696  34.806   9.711  1.00 29.45     0.005 C 
BRANCH   3   4
ATOM      4  CD  LYS A 135      30.579  34.500   8.226  1.00 32.00     0.041 C 
BRANCH   4   5
ATOM      5  CE  LYS A 135      29.217  34.914   7.703  1.00 34.25     0.338 C 
ATOM      6  NZ  LYS A 135      28.130  34.444   8.606  1.00 35.99     0.618 N 
ENDBRANCH   4   5
ENDBRANCH   3   4
ENDBRANCH   2   3
ENDBRANCH   1   2
END_RES LYS A 135
BEGIN_RES ARG A 124
REMARK  4 active torsions:
REMARK  status: ('A' for Active; 'I' for Inactive)
REMARK    5  A    between atoms: CA   and  CB  
REMARK    6  A    between atoms: CB   and  CG  
REMARK    7  A    between atoms: CG   and  CD  
REMARK    8  A    between atoms: CD   and  NE  
REMARK       I    between atoms: NE   and  CZ  
ROOT
ATOM      7  CA  ARG A 124      31.045  26.515   9.594  1.00 17.84     0.186 C 
ENDROOT
BRANCH   7   8
ATOM      8  CB  ARG A 124      29.529  26.705   9.647  1.00 16.18     0.036 C 
BRANCH   8   9
ATOM      9  CG  ARG A 124      28.987  27.500  10.889  1.00 16.22     0.029 C 
BRANCH   9  10
ATOM     10  CD  ARG A 124      28.463  26.575  12.011  1.00 15.09     0.145 C 
BRANCH  10  11
ATOM     11  NE  ARG A 124      27.021  26.740  12.297  1.00 16.98    -0.083 NA
ATOM     12  CZ  ARG A 124      26.524  27.374  13.353  1.00 18.21     0.782 C 
ATOM     13  NH1 ARG A 124      27.317  27.938  14.256  1.00 21.11     0.063 N 
ATOM     14  NH2 ARG A 124      25.212  27.473  13.508  1.00 21.25     0.063 N 
ENDBRANCH  10  11
ENDBRANCH   9  10
ENDBRANCH   8   9
ENDBRANCH   7   8
END_RES ARG A 124
BEGIN_RES ASN A 133
REMARK  2 active torsions:
REMARK  status: ('A' for Active; 'I' for Inactive)
REMARK    9  A    between atoms: CA   and  CB  
REMARK   10  A    between atoms: CB   and  CG  
ROOT
ATOM     15  CA  ASN A 133      31.225  30.257  11.749  1.00 18.15     0.196 C 
ENDROOT
BRANCH  15  16
ATOM     16  CB  ASN A 133      30.092  31.240  11.460  1.00 18.27     0.126 C 
BRANCH  16  17
ATOM     17  CG  ASN A 133      28.871  30.996  12.291  1.00 18.94     0.276 C 
ATOM     18  OD1 ASN A 133      28.795  31.407  13.451  1.00 18.09    -0.269 OA
ATOM     19  ND2 ASN A 133      27.890  30.314  11.701  1.00 18.93    -0.107 N 
ENDBRANCH  16  17
ENDBRANCH  15  16
END_RES ASN A 133
BEGIN_RES LYS A 131
REMARK  4 active torsions:
REMARK  status: ('A' for Active; 'I' for Inactive)
REMARK   11  A    between atoms: CA   and  CB  
REMARK   12  A    between atoms: CB   and  CG  
REMARK   13  A    between atoms: CG   and  CD  
REMARK   14  A    between atoms: CD   and  CE  
ROOT
ATOM     20  CA  LYS A 131      29.867  25.555  16.977  1.00 20.52     0.186 C 
ENDROOT
BRANCH  20  21
ATOM     21  CB  LYS A 131      28.345  25.722  17.026  1.00 20.94     0.034 C 
BRANCH  21  22
ATOM     22  CG  LYS A 131      27.600  24.407  16.850  1.00 22.96     0.005 C 
BRANCH  22  23
ATOM     23  CD  LYS A 131      26.160  24.512  17.268  1.00 24.33     0.041 C 
BRANCH  23  24
ATOM     24  CE  LYS A 131      25.928  23.663  18.514  1.00 26.91     0.338 C 
ATOM     25  NZ  LYS A 131      25.012  22.538  18.212  1.00 27.40     0.618 N 
ENDBRANCH  23  24
ENDBRANCH  22  23
ENDBRANCH  21  22
ENDBRANCH  20  21
END_RES LYS A 131
