REMARK VINA RESULT:    -2.966      1.960      2.649
REMARK INTER + INTRA:          -7.712
REMARK INTER:                  -3.512
REMARK INTRA:                  -4.200
REMARK UNBOUND:                -4.659
REMARK SMILES Nc1ccc(Cl)cc1
REMARK SMILES IDX 2 1 3 2 4 3 5 4 6 5 7 6 8 7 1 8
REMARK H PARENT 1 9 1 10
REMARK Flexibility Score: inf
ROOT
ATOM      1  C   UNL     1      38.094  33.875  12.685  1.00  0.00     0.031 A 
ATOM      2  C   UNL     1      39.206  34.708  12.522  1.00  0.00     0.027 A 
ATOM      3  C   UNL     1      39.594  35.497  13.586  1.00  0.00     0.022 A 
ATOM      4  C   UNL     1      38.881  35.441  14.765  1.00  0.00     0.041 A 
ATOM      5  Cl  UNL     1      39.376  36.443  16.114  1.00  0.00    -0.084 Cl
ATOM      6  C   UNL     1      37.784  34.621  14.931  1.00  0.00     0.022 A 
ATOM      7  C   UNL     1      37.388  33.829  13.875  1.00  0.00     0.027 A 
ENDROOT
BRANCH   1   8
ATOM      8  N   UNL     1      37.708  33.072  11.588  1.00  0.00    -0.399 N 
ATOM      9  H   UNL     1      36.937  33.334  10.940  1.00  0.00     0.156 HD
ATOM     10  H   UNL     1      38.222  32.177  11.424  1.00  0.00     0.156 HD
ENDBRANCH   1   8
TORSDOF 1
BEGIN_RES LYS A 135
REMARK  4 active torsions:
REMARK  status: ('A' for Active; 'I' for Inactive)
REMARK    1  A    between atoms: CA   and  CB  
REMARK    2  A    between atoms: CB   and  CG  
REMARK    3  A    between atoms: CG   and  CD  
REMARK    4  A    between atoms: CD   and  CE  
ROOT
ATOM      1  CA  LYS A 135      33.193  34.663   9.290  1.00 25.02     0.186 C 
ENDROOT
BRANCH   1   2
ATOM      2  CB  LYS A 135      32.060  35.360  10.034  1.00 26.63     0.034 C 
BRANCH   2   3
ATOM      3  CG  LYS A 135      32.462  35.887  11.387  1.00 29.45     0.005 C 
BRANCH   3   4
ATOM      4  CD  LYS A 135      32.101  37.359  11.519  1.00 32.00     0.041 C 
BRANCH   4   5
ATOM      5  CE  LYS A 135      31.432  37.625  12.854  1.00 34.25     0.338 C 
ATOM      6  NZ  LYS A 135      32.085  36.851  13.945  1.00 35.99     0.618 N 
ENDBRANCH   4   5
ENDBRANCH   3   4
ENDBRANCH   2   3
ENDBRANCH   1   2
END_RES LYS A 135
BEGIN_RES ARG A 124
REMARK  4 active torsions:
REMARK  status: ('A' for Active; 'I' for Inactive)
REMARK    5  A    between atoms: CA   and  CB  
REMARK    6  A    between atoms: CB   and  CG  
REMARK    7  A    between atoms: CG   and  CD  
REMARK    8  A    between atoms: CD   and  NE  
REMARK       I    between atoms: NE   and  CZ  
ROOT
ATOM      7  CA  ARG A 124      31.045  26.515   9.594  1.00 17.84     0.186 C 
ENDROOT
BRANCH   7   8
ATOM      8  CB  ARG A 124      29.529  26.705   9.647  1.00 16.18     0.036 C 
BRANCH   8   9
ATOM      9  CG  ARG A 124      28.764  25.779  10.659  1.00 16.22     0.029 C 
BRANCH   9  10
ATOM     10  CD  ARG A 124      28.588  26.428  12.051  1.00 15.09     0.145 C 
BRANCH  10  11
ATOM     11  NE  ARG A 124      27.209  26.887  12.327  1.00 16.98    -0.083 NA
ATOM     12  CZ  ARG A 124      26.855  27.656  13.351  1.00 18.21     0.782 C 
ATOM     13  NH1 ARG A 124      27.751  28.097  14.225  1.00 21.11     0.063 N 
ATOM     14  NH2 ARG A 124      25.590  28.019  13.498  1.00 21.25     0.063 N 
ENDBRANCH  10  11
ENDBRANCH   9  10
ENDBRANCH   8   9
ENDBRANCH   7   8
END_RES ARG A 124
BEGIN_RES ASN A 133
REMARK  2 active torsions:
REMARK  status: ('A' for Active; 'I' for Inactive)
REMARK    9  A    between atoms: CA   and  CB  
REMARK   10  A    between atoms: CB   and  CG  
ROOT
ATOM     15  CA  ASN A 133      31.225  30.257  11.749  1.00 18.15     0.196 C 
ENDROOT
BRANCH  15  16
ATOM     16  CB  ASN A 133      30.092  31.240  11.460  1.00 18.27     0.126 C 
BRANCH  16  17
ATOM     17  CG  ASN A 133      28.736  30.605  11.487  1.00 18.94     0.276 C 
ATOM     18  OD1 ASN A 133      28.465  29.650  10.757  1.00 18.09    -0.269 OA
ATOM     19  ND2 ASN A 133      27.860  31.137  12.338  1.00 18.93    -0.107 N 
ENDBRANCH  16  17
ENDBRANCH  15  16
END_RES ASN A 133
BEGIN_RES LYS A 131
REMARK  4 active torsions:
REMARK  status: ('A' for Active; 'I' for Inactive)
REMARK   11  A    between atoms: CA   and  CB  
REMARK   12  A    between atoms: CB   and  CG  
REMARK   13  A    between atoms: CG   and  CD  
REMARK   14  A    between atoms: CD   and  CE  
ROOT
ATOM     20  CA  LYS A 131      29.867  25.555  16.977  1.00 20.52     0.186 C 
ENDROOT
BRANCH  20  21
ATOM     21  CB  LYS A 131      28.345  25.722  17.026  1.00 20.94     0.034 C 
BRANCH  21  22
ATOM     22  CG  LYS A 131      27.600  24.408  16.847  1.00 22.96     0.005 C 
BRANCH  22  23
ATOM     23  CD  LYS A 131      26.152  24.520  17.234  1.00 24.33     0.041 C 
BRANCH  23  24
ATOM     24  CE  LYS A 131      25.669  23.185  17.792  1.00 26.91     0.338 C 
ATOM     25  NZ  LYS A 131      25.553  23.250  19.268  1.00 27.40     0.618 N 
ENDBRANCH  23  24
ENDBRANCH  22  23
ENDBRANCH  21  22
ENDBRANCH  20  21
END_RES LYS A 131
