REMARK VINA RESULT:    -3.823      2.128      3.068
REMARK INTER + INTRA:         -10.200
REMARK INTER:                  -5.296
REMARK INTRA:                  -4.904
REMARK UNBOUND:                -5.594
REMARK SMILES CCOC(=O)c1cccc(N)c1
REMARK SMILES IDX 4 1 5 2 3 3 2 4 1 5 6 6 7 7 12 8 8 9 10 10 9 11 11 12
REMARK H PARENT 11 13 11 14
REMARK Flexibility Score: inf
ROOT
ATOM      1  C   UNL     1      25.235  35.917   9.313  1.00  0.00     0.338 C 
ATOM      2  O   UNL     1      25.461  36.492  10.406  1.00  0.00    -0.246 OA
ENDROOT
BRANCH   1   3
ATOM      3  O   UNL     1      24.011  35.300   9.165  1.00  0.00    -0.462 OA
BRANCH   3   4
ATOM      4  C   UNL     1      22.774  35.880   9.433  1.00  0.00     0.230 C 
ATOM      5  C   UNL     1      22.039  36.313   8.184  1.00  0.00     0.049 C 
ENDBRANCH   3   4
ENDBRANCH   1   3
BRANCH   1   6
ATOM      6  C   UNL     1      26.255  35.932   8.279  1.00  0.00     0.062 A 
ATOM      7  C   UNL     1      27.267  34.999   8.316  1.00  0.00     0.016 A 
ATOM      8  C   UNL     1      26.269  36.838   7.246  1.00  0.00     0.041 A 
ATOM      9  C   UNL     1      28.271  34.953   7.366  1.00  0.00     0.003 A 
ATOM     10  C   UNL     1      27.262  36.808   6.287  1.00  0.00     0.032 A 
ATOM     11  C   UNL     1      28.265  35.866   6.346  1.00  0.00     0.025 A 
BRANCH  10  12
ATOM     12  N   UNL     1      27.296  37.735   5.211  1.00  0.00    -0.399 N 
ATOM     13  H   UNL     1      27.601  37.491   4.254  1.00  0.00     0.156 HD
ATOM     14  H   UNL     1      27.002  38.733   5.363  1.00  0.00     0.156 HD
ENDBRANCH  10  12
ENDBRANCH   1   6
TORSDOF 4
BEGIN_RES LYS A 135
REMARK  4 active torsions:
REMARK  status: ('A' for Active; 'I' for Inactive)
REMARK    1  A    between atoms: CA   and  CB  
REMARK    2  A    between atoms: CB   and  CG  
REMARK    3  A    between atoms: CG   and  CD  
REMARK    4  A    between atoms: CD   and  CE  
ROOT
ATOM      1  CA  LYS A 135      33.193  34.663   9.290  1.00 25.02     0.186 C 
ENDROOT
BRANCH   1   2
ATOM      2  CB  LYS A 135      32.060  35.360  10.034  1.00 26.63     0.034 C 
BRANCH   2   3
ATOM      3  CG  LYS A 135      30.721  34.693   9.854  1.00 29.45     0.005 C 
BRANCH   3   4
ATOM      4  CD  LYS A 135      29.803  35.006  11.026  1.00 32.00     0.041 C 
BRANCH   4   5
ATOM      5  CE  LYS A 135      29.853  36.484  11.361  1.00 34.25     0.338 C 
ATOM      6  NZ  LYS A 135      28.953  37.267  10.469  1.00 35.99     0.618 N 
ENDBRANCH   4   5
ENDBRANCH   3   4
ENDBRANCH   2   3
ENDBRANCH   1   2
END_RES LYS A 135
BEGIN_RES ARG A 124
REMARK  4 active torsions:
REMARK  status: ('A' for Active; 'I' for Inactive)
REMARK    5  A    between atoms: CA   and  CB  
REMARK    6  A    between atoms: CB   and  CG  
REMARK    7  A    between atoms: CG   and  CD  
REMARK    8  A    between atoms: CD   and  NE  
REMARK       I    between atoms: NE   and  CZ  
ROOT
ATOM      7  CA  ARG A 124      31.045  26.515   9.594  1.00 17.84     0.186 C 
ENDROOT
BRANCH   7   8
ATOM      8  CB  ARG A 124      29.529  26.705   9.647  1.00 16.18     0.036 C 
BRANCH   8   9
ATOM      9  CG  ARG A 124      28.908  26.812  11.086  1.00 16.22     0.029 C 
BRANCH   9  10
ATOM     10  CD  ARG A 124      27.531  26.118  11.198  1.00 15.09     0.145 C 
BRANCH  10  11
ATOM     11  NE  ARG A 124      26.410  27.051  11.446  1.00 16.98    -0.083 NA
ATOM     12  CZ  ARG A 124      26.090  27.556  12.632  1.00 18.21     0.782 C 
ATOM     13  NH1 ARG A 124      26.790  27.258  13.720  1.00 21.11     0.063 N 
ATOM     14  NH2 ARG A 124      25.070  28.394  12.740  1.00 21.25     0.063 N 
ENDBRANCH  10  11
ENDBRANCH   9  10
ENDBRANCH   8   9
ENDBRANCH   7   8
END_RES ARG A 124
BEGIN_RES ASN A 133
REMARK  2 active torsions:
REMARK  status: ('A' for Active; 'I' for Inactive)
REMARK    9  A    between atoms: CA   and  CB  
REMARK   10  A    between atoms: CB   and  CG  
ROOT
ATOM     15  CA  ASN A 133      31.225  30.257  11.749  1.00 18.15     0.196 C 
ENDROOT
BRANCH  15  16
ATOM     16  CB  ASN A 133      30.092  31.240  11.460  1.00 18.27     0.126 C 
BRANCH  16  17
ATOM     17  CG  ASN A 133      28.734  30.613  11.523  1.00 18.94     0.276 C 
ATOM     18  OD1 ASN A 133      28.345  29.843  10.642  1.00 18.09    -0.269 OA
ATOM     19  ND2 ASN A 133      27.989  30.940  12.578  1.00 18.93    -0.107 N 
ENDBRANCH  16  17
ENDBRANCH  15  16
END_RES ASN A 133
BEGIN_RES LYS A 131
REMARK  4 active torsions:
REMARK  status: ('A' for Active; 'I' for Inactive)
REMARK   11  A    between atoms: CA   and  CB  
REMARK   12  A    between atoms: CB   and  CG  
REMARK   13  A    between atoms: CG   and  CD  
REMARK   14  A    between atoms: CD   and  CE  
ROOT
ATOM     20  CA  LYS A 131      29.867  25.555  16.977  1.00 20.52     0.186 C 
ENDROOT
BRANCH  20  21
ATOM     21  CB  LYS A 131      28.345  25.722  17.026  1.00 20.94     0.034 C 
BRANCH  21  22
ATOM     22  CG  LYS A 131      27.600  24.409  16.837  1.00 22.96     0.005 C 
BRANCH  22  23
ATOM     23  CD  LYS A 131      26.154  24.517  17.234  1.00 24.33     0.041 C 
BRANCH  23  24
ATOM     24  CE  LYS A 131      25.816  23.410  18.228  1.00 26.91     0.338 C 
ATOM     25  NZ  LYS A 131      24.943  22.393  17.596  1.00 27.40     0.618 N 
ENDBRANCH  23  24
ENDBRANCH  22  23
ENDBRANCH  21  22
ENDBRANCH  20  21
END_RES LYS A 131
