REMARK VINA RESULT:    -3.801      7.425     11.478
REMARK INTER + INTRA:         -11.348
REMARK INTER:                  -6.202
REMARK INTRA:                  -5.145
REMARK UNBOUND:                -6.213
REMARK SMILES CCOCCc1c(N)nc(N)nc1-c1ccccc1
REMARK SMILES IDX 4 1 3 2 2 3 1 4 5 5 6 6 7 7 13 8 9 9 12 10 10 11 8 12 14 15
REMARK SMILES IDX 15 16 19 17 16 18 18 19 17 20 11 21
REMARK H PARENT 8 13 8 14 11 22 11 23
REMARK Flexibility Score: inf
ROOT
ATOM      1  C   UNL     1      23.396  36.663   8.989  1.00  0.00     0.165 C 
ENDROOT
BRANCH   1   2
ATOM      2  O   UNL     1      22.251  36.728   9.717  1.00  0.00    -0.381 OA
BRANCH   2   3
ATOM      3  C   UNL     1      21.192  36.032   9.192  1.00  0.00     0.156 C 
ATOM      4  C   UNL     1      20.851  36.417   7.774  1.00  0.00     0.035 C 
ENDBRANCH   2   3
ENDBRANCH   1   2
BRANCH   1   5
ATOM      5  C   UNL     1      24.148  35.390   9.095  1.00  0.00     0.070 C 
BRANCH   5   6
ATOM      6  C   UNL     1      25.215  35.323  10.081  1.00  0.00     0.023 A 
ATOM      7  C   UNL     1      24.949  35.036  11.418  1.00  0.00     0.132 A 
ATOM      8  C   UNL     1      26.512  35.591   9.752  1.00  0.00     0.081 A 
ATOM      9  N   UNL     1      25.917  35.024  12.325  1.00  0.00    -0.196 NA
ATOM     10  N   UNL     1      27.475  35.566  10.725  1.00  0.00    -0.213 NA
ATOM     11  C   UNL     1      27.207  35.289  12.002  1.00  0.00     0.222 A 
BRANCH   7  12
ATOM     12  N   UNL     1      23.617  34.761  11.765  1.00  0.00    -0.383 N 
ATOM     13  H   UNL     1      22.853  34.932  11.083  1.00  0.00     0.158 HD
ATOM     14  H   UNL     1      23.381  34.389  12.695  1.00  0.00     0.158 HD
ENDBRANCH   7  12
BRANCH   8  15
ATOM     15  C   UNL     1      27.002  35.988   8.438  1.00  0.00     0.001 A 
ATOM     16  C   UNL     1      26.931  37.348   8.079  1.00  0.00     0.010 A 
ATOM     17  C   UNL     1      27.556  35.151   7.519  1.00  0.00     0.010 A 
ATOM     18  C   UNL     1      27.391  37.818   6.872  1.00  0.00     0.001 A 
ATOM     19  C   UNL     1      28.022  35.639   6.290  1.00  0.00     0.001 A 
ATOM     20  C   UNL     1      27.950  36.966   5.946  1.00  0.00     0.000 A 
ENDBRANCH   8  15
BRANCH  11  21
ATOM     21  N   UNL     1      28.228  35.269  12.996  1.00  0.00    -0.368 N 
ATOM     22  H   UNL     1      28.272  36.013  13.703  1.00  0.00     0.159 HD
ATOM     23  H   UNL     1      28.909  34.497  12.982  1.00  0.00     0.159 HD
ENDBRANCH  11  21
ENDBRANCH   5   6
ENDBRANCH   1   5
TORSDOF 7
BEGIN_RES LYS A 135
REMARK  4 active torsions:
REMARK  status: ('A' for Active; 'I' for Inactive)
REMARK    1  A    between atoms: CA   and  CB  
REMARK    2  A    between atoms: CB   and  CG  
REMARK    3  A    between atoms: CG   and  CD  
REMARK    4  A    between atoms: CD   and  CE  
ROOT
ATOM      1  CA  LYS A 135      33.193  34.663   9.290  1.00 25.02     0.186 C 
ENDROOT
BRANCH   1   2
ATOM      2  CB  LYS A 135      32.060  35.360  10.034  1.00 26.63     0.034 C 
BRANCH   2   3
ATOM      3  CG  LYS A 135      30.818  35.548   9.201  1.00 29.45     0.005 C 
BRANCH   3   4
ATOM      4  CD  LYS A 135      30.563  37.025   8.943  1.00 32.00     0.041 C 
BRANCH   4   5
ATOM      5  CE  LYS A 135      31.232  37.875  10.006  1.00 34.25     0.338 C 
ATOM      6  NZ  LYS A 135      32.003  38.991   9.394  1.00 35.99     0.618 N 
ENDBRANCH   4   5
ENDBRANCH   3   4
ENDBRANCH   2   3
ENDBRANCH   1   2
END_RES LYS A 135
BEGIN_RES ARG A 124
REMARK  4 active torsions:
REMARK  status: ('A' for Active; 'I' for Inactive)
REMARK    5  A    between atoms: CA   and  CB  
REMARK    6  A    between atoms: CB   and  CG  
REMARK    7  A    between atoms: CG   and  CD  
REMARK    8  A    between atoms: CD   and  NE  
REMARK       I    between atoms: NE   and  CZ  
ROOT
ATOM      7  CA  ARG A 124      31.045  26.515   9.594  1.00 17.84     0.186 C 
ENDROOT
BRANCH   7   8
ATOM      8  CB  ARG A 124      29.529  26.705   9.647  1.00 16.18     0.036 C 
BRANCH   8   9
ATOM      9  CG  ARG A 124      29.022  27.867  10.575  1.00 16.22     0.029 C 
BRANCH   9  10
ATOM     10  CD  ARG A 124      28.375  27.353  11.881  1.00 15.09     0.145 C 
BRANCH  10  11
ATOM     11  NE  ARG A 124      27.399  28.292  12.475  1.00 16.98    -0.083 NA
ATOM     12  CZ  ARG A 124      26.080  28.128  12.462  1.00 18.21     0.782 C 
ATOM     13  NH1 ARG A 124      25.524  27.059  11.905  1.00 21.11     0.063 N 
ATOM     14  NH2 ARG A 124      25.297  29.028  13.035  1.00 21.25     0.063 N 
ENDBRANCH  10  11
ENDBRANCH   9  10
ENDBRANCH   8   9
ENDBRANCH   7   8
END_RES ARG A 124
BEGIN_RES ASN A 133
REMARK  2 active torsions:
REMARK  status: ('A' for Active; 'I' for Inactive)
REMARK    9  A    between atoms: CA   and  CB  
REMARK   10  A    between atoms: CB   and  CG  
ROOT
ATOM     15  CA  ASN A 133      31.225  30.257  11.749  1.00 18.15     0.196 C 
ENDROOT
BRANCH  15  16
ATOM     16  CB  ASN A 133      30.092  31.240  11.460  1.00 18.27     0.126 C 
BRANCH  16  17
ATOM     17  CG  ASN A 133      29.495  31.835  12.697  1.00 18.94     0.276 C 
ATOM     18  OD1 ASN A 133      29.994  32.826  13.234  1.00 18.09    -0.269 OA
ATOM     19  ND2 ASN A 133      28.407  31.228  13.170  1.00 18.93    -0.107 N 
ENDBRANCH  16  17
ENDBRANCH  15  16
END_RES ASN A 133
BEGIN_RES LYS A 131
REMARK  4 active torsions:
REMARK  status: ('A' for Active; 'I' for Inactive)
REMARK   11  A    between atoms: CA   and  CB  
REMARK   12  A    between atoms: CB   and  CG  
REMARK   13  A    between atoms: CG   and  CD  
REMARK   14  A    between atoms: CD   and  CE  
ROOT
ATOM     20  CA  LYS A 131      29.867  25.555  16.977  1.00 20.52     0.186 C 
ENDROOT
BRANCH  20  21
ATOM     21  CB  LYS A 131      28.345  25.722  17.026  1.00 20.94     0.034 C 
BRANCH  21  22
ATOM     22  CG  LYS A 131      27.734  25.974  15.656  1.00 22.96     0.005 C 
BRANCH  22  23
ATOM     23  CD  LYS A 131      26.437  26.730  15.745  1.00 24.33     0.041 C 
BRANCH  23  24
ATOM     24  CE  LYS A 131      26.655  28.023  16.524  1.00 26.91     0.338 C 
ATOM     25  NZ  LYS A 131      27.600  28.910  15.804  1.00 27.40     0.618 N 
ENDBRANCH  23  24
ENDBRANCH  22  23
ENDBRANCH  21  22
ENDBRANCH  20  21
END_RES LYS A 131
