REMARK VINA RESULT:    -3.422      4.249     12.008
REMARK INTER + INTRA:          -9.235
REMARK INTER:                  -4.727
REMARK INTRA:                  -4.509
REMARK UNBOUND:                -4.713
REMARK SMILES CC[N+](C)(CC)CCCN
REMARK SMILES IDX 7 1 3 2 4 3 2 4 1 5 5 6 6 7 8 8 9 9 10 10
REMARK H PARENT 10 11 10 12
REMARK Flexibility Score: inf
ROOT
ATOM      1  C   UNL     1      29.084  35.408   7.617  1.00  0.00     0.265 C 
ENDROOT
BRANCH   1   2
ATOM      2  N   UNL     1      28.149  35.065   8.669  1.00  0.00    -0.326 N 
ATOM      3  C   UNL     1      27.999  36.266   9.502  1.00  0.00     0.334 C 
BRANCH   2   4
ATOM      4  C   UNL     1      26.845  34.718   8.180  1.00  0.00     0.260 C 
ATOM      5  C   UNL     1      25.707  35.243   8.971  1.00  0.00     0.071 C 
ENDBRANCH   2   4
BRANCH   2   6
ATOM      6  C   UNL     1      28.759  34.067   9.494  1.00  0.00     0.260 C 
ATOM      7  C   UNL     1      30.201  33.838   9.113  1.00  0.00     0.071 C 
ENDBRANCH   2   6
ENDBRANCH   1   2
BRANCH   1   8
ATOM      8  C   UNL     1      28.385  35.643   6.298  1.00  0.00     0.076 C 
BRANCH   8   9
ATOM      9  C   UNL     1      28.580  37.022   5.767  1.00  0.00     0.083 C 
BRANCH   9  10
ATOM     10  N   UNL     1      27.439  37.512   5.021  1.00  0.00    -0.330 NA
ATOM     11  H   UNL     1      26.683  37.709   5.721  1.00  0.00     0.118 HD
ATOM     12  H   UNL     1      27.094  36.715   4.441  1.00  0.00     0.118 HD
ENDBRANCH   9  10
ENDBRANCH   8   9
ENDBRANCH   1   8
TORSDOF 6
BEGIN_RES LYS A 135
REMARK  4 active torsions:
REMARK  status: ('A' for Active; 'I' for Inactive)
REMARK    1  A    between atoms: CA   and  CB  
REMARK    2  A    between atoms: CB   and  CG  
REMARK    3  A    between atoms: CG   and  CD  
REMARK    4  A    between atoms: CD   and  CE  
ROOT
ATOM      1  CA  LYS A 135      33.193  34.663   9.290  1.00 25.02     0.186 C 
ENDROOT
BRANCH   1   2
ATOM      2  CB  LYS A 135      32.060  35.360  10.034  1.00 26.63     0.034 C 
BRANCH   2   3
ATOM      3  CG  LYS A 135      32.399  35.706  11.461  1.00 29.45     0.005 C 
BRANCH   3   4
ATOM      4  CD  LYS A 135      31.205  35.462  12.371  1.00 32.00     0.041 C 
BRANCH   4   5
ATOM      5  CE  LYS A 135      31.664  34.987  13.736  1.00 34.25     0.338 C 
ATOM      6  NZ  LYS A 135      33.123  35.219  13.923  1.00 35.99     0.618 N 
ENDBRANCH   4   5
ENDBRANCH   3   4
ENDBRANCH   2   3
ENDBRANCH   1   2
END_RES LYS A 135
BEGIN_RES ARG A 124
REMARK  4 active torsions:
REMARK  status: ('A' for Active; 'I' for Inactive)
REMARK    5  A    between atoms: CA   and  CB  
REMARK    6  A    between atoms: CB   and  CG  
REMARK    7  A    between atoms: CG   and  CD  
REMARK    8  A    between atoms: CD   and  NE  
REMARK       I    between atoms: NE   and  CZ  
ROOT
ATOM      7  CA  ARG A 124      31.045  26.515   9.594  1.00 17.84     0.186 C 
ENDROOT
BRANCH   7   8
ATOM      8  CB  ARG A 124      29.529  26.705   9.647  1.00 16.18     0.036 C 
BRANCH   8   9
ATOM      9  CG  ARG A 124      28.913  26.848  11.084  1.00 16.22     0.029 C 
BRANCH   9  10
ATOM     10  CD  ARG A 124      27.566  26.104  11.236  1.00 15.09     0.145 C 
BRANCH  10  11
ATOM     11  NE  ARG A 124      26.407  27.001  11.440  1.00 16.98    -0.083 NA
ATOM     12  CZ  ARG A 124      26.014  27.480  12.615  1.00 18.21     0.782 C 
ATOM     13  NH1 ARG A 124      26.666  27.186  13.733  1.00 21.11     0.063 N 
ATOM     14  NH2 ARG A 124      24.966  28.287  12.682  1.00 21.25     0.063 N 
ENDBRANCH  10  11
ENDBRANCH   9  10
ENDBRANCH   8   9
ENDBRANCH   7   8
END_RES ARG A 124
BEGIN_RES ASN A 133
REMARK  2 active torsions:
REMARK  status: ('A' for Active; 'I' for Inactive)
REMARK    9  A    between atoms: CA   and  CB  
REMARK   10  A    between atoms: CB   and  CG  
ROOT
ATOM     15  CA  ASN A 133      31.225  30.257  11.749  1.00 18.15     0.196 C 
ENDROOT
BRANCH  15  16
ATOM     16  CB  ASN A 133      30.092  31.240  11.460  1.00 18.27     0.126 C 
BRANCH  16  17
ATOM     17  CG  ASN A 133      28.739  30.598  11.451  1.00 18.94     0.276 C 
ATOM     18  OD1 ASN A 133      28.378  29.884  10.513  1.00 18.09    -0.269 OA
ATOM     19  ND2 ASN A 133      27.968  30.849  12.507  1.00 18.93    -0.107 N 
ENDBRANCH  16  17
ENDBRANCH  15  16
END_RES ASN A 133
BEGIN_RES LYS A 131
REMARK  4 active torsions:
REMARK  status: ('A' for Active; 'I' for Inactive)
REMARK   11  A    between atoms: CA   and  CB  
REMARK   12  A    between atoms: CB   and  CG  
REMARK   13  A    between atoms: CG   and  CD  
REMARK   14  A    between atoms: CD   and  CE  
ROOT
ATOM     20  CA  LYS A 131      29.867  25.555  16.977  1.00 20.52     0.186 C 
ENDROOT
BRANCH  20  21
ATOM     21  CB  LYS A 131      28.345  25.722  17.026  1.00 20.94     0.034 C 
BRANCH  21  22
ATOM     22  CG  LYS A 131      27.599  24.419  16.783  1.00 22.96     0.005 C 
BRANCH  22  23
ATOM     23  CD  LYS A 131      26.160  24.502  17.208  1.00 24.33     0.041 C 
BRANCH  23  24
ATOM     24  CE  LYS A 131      26.086  24.719  18.716  1.00 26.91     0.338 C 
ATOM     25  NZ  LYS A 131      25.623  23.486  19.396  1.00 27.40     0.618 N 
ENDBRANCH  23  24
ENDBRANCH  22  23
ENDBRANCH  21  22
ENDBRANCH  20  21
END_RES LYS A 131
