REMARK VINA RESULT:    -5.002      4.355     10.244
REMARK INTER + INTRA:          -9.754
REMARK INTER:                  -4.056
REMARK INTRA:                  -5.699
REMARK UNBOUND:                -4.314
REMARK SMILES CC(C)c1ccccc1N
REMARK SMILES IDX 4 1 5 2 6 3 7 4 8 5 9 6 2 7 1 8 3 9 10 10
REMARK H PARENT 10 11 10 12
REMARK Flexibility Score: inf
ROOT
ATOM      1  C   UNL     1      31.030  32.877  17.127  1.00  0.00    -0.022 A 
ATOM      2  C   UNL     1      31.273  33.833  18.108  1.00  0.00     0.006 A 
ATOM      3  C   UNL     1      32.053  34.942  17.838  1.00  0.00     0.000 A 
ATOM      4  C   UNL     1      32.575  35.061  16.570  1.00  0.00     0.002 A 
ATOM      5  C   UNL     1      32.340  34.108  15.572  1.00  0.00     0.026 A 
ATOM      6  C   UNL     1      31.555  33.009  15.876  1.00  0.00     0.035 A 
ENDROOT
BRANCH   1   7
ATOM      7  C   UNL     1      30.186  31.727  17.439  1.00  0.00     0.015 C 
ATOM      8  C   UNL     1      28.728  32.137  17.310  1.00  0.00     0.012 C 
ATOM      9  C   UNL     1      30.401  31.088  18.767  1.00  0.00     0.012 C 
ENDBRANCH   1   7
BRANCH   6  10
ATOM     10  N   UNL     1      31.288  32.001  14.917  1.00  0.00    -0.398 N 
ATOM     11  H   UNL     1      30.731  32.273  14.081  1.00  0.00     0.156 HD
ATOM     12  H   UNL     1      31.604  31.013  14.977  1.00  0.00     0.156 HD
ENDBRANCH   6  10
TORSDOF 2
BEGIN_RES LYS A 135
REMARK  4 active torsions:
REMARK  status: ('A' for Active; 'I' for Inactive)
REMARK    1  A    between atoms: CA   and  CB  
REMARK    2  A    between atoms: CB   and  CG  
REMARK    3  A    between atoms: CG   and  CD  
REMARK    4  A    between atoms: CD   and  CE  
ROOT
ATOM      1  CA  LYS A 135      33.193  34.663   9.290  1.00 25.02     0.186 C 
ENDROOT
BRANCH   1   2
ATOM      2  CB  LYS A 135      32.060  35.360  10.034  1.00 26.63     0.034 C 
BRANCH   2   3
ATOM      3  CG  LYS A 135      30.728  34.671   9.886  1.00 29.45     0.005 C 
BRANCH   3   4
ATOM      4  CD  LYS A 135      30.356  34.532   8.417  1.00 32.00     0.041 C 
BRANCH   4   5
ATOM      5  CE  LYS A 135      28.851  34.581   8.242  1.00 34.25     0.338 C 
ATOM      6  NZ  LYS A 135      28.157  33.891   9.365  1.00 35.99     0.618 N 
ENDBRANCH   4   5
ENDBRANCH   3   4
ENDBRANCH   2   3
ENDBRANCH   1   2
END_RES LYS A 135
BEGIN_RES ARG A 124
REMARK  4 active torsions:
REMARK  status: ('A' for Active; 'I' for Inactive)
REMARK    5  A    between atoms: CA   and  CB  
REMARK    6  A    between atoms: CB   and  CG  
REMARK    7  A    between atoms: CG   and  CD  
REMARK    8  A    between atoms: CD   and  NE  
REMARK       I    between atoms: NE   and  CZ  
ROOT
ATOM      7  CA  ARG A 124      31.045  26.515   9.594  1.00 17.84     0.186 C 
ENDROOT
BRANCH   7   8
ATOM      8  CB  ARG A 124      29.529  26.705   9.647  1.00 16.18     0.036 C 
BRANCH   8   9
ATOM      9  CG  ARG A 124      28.974  27.371  10.957  1.00 16.22     0.029 C 
BRANCH   9  10
ATOM     10  CD  ARG A 124      28.434  26.338  11.972  1.00 15.09     0.145 C 
BRANCH  10  11
ATOM     11  NE  ARG A 124      28.056  26.924  13.277  1.00 16.98    -0.083 NA
ATOM     12  CZ  ARG A 124      26.868  27.448  13.559  1.00 18.21     0.782 C 
ATOM     13  NH1 ARG A 124      25.893  27.472  12.658  1.00 21.11     0.063 N 
ATOM     14  NH2 ARG A 124      26.630  27.937  14.766  1.00 21.25     0.063 N 
ENDBRANCH  10  11
ENDBRANCH   9  10
ENDBRANCH   8   9
ENDBRANCH   7   8
END_RES ARG A 124
BEGIN_RES ASN A 133
REMARK  2 active torsions:
REMARK  status: ('A' for Active; 'I' for Inactive)
REMARK    9  A    between atoms: CA   and  CB  
REMARK   10  A    between atoms: CB   and  CG  
ROOT
ATOM     15  CA  ASN A 133      31.225  30.257  11.749  1.00 18.15     0.196 C 
ENDROOT
BRANCH  15  16
ATOM     16  CB  ASN A 133      30.092  31.240  11.460  1.00 18.27     0.126 C 
BRANCH  16  17
ATOM     17  CG  ASN A 133      28.749  30.740  11.895  1.00 18.94     0.276 C 
ATOM     18  OD1 ASN A 133      28.070  30.016  11.165  1.00 18.09    -0.269 OA
ATOM     19  ND2 ASN A 133      28.347  31.127  13.105  1.00 18.93    -0.107 N 
ENDBRANCH  16  17
ENDBRANCH  15  16
END_RES ASN A 133
BEGIN_RES LYS A 131
REMARK  4 active torsions:
REMARK  status: ('A' for Active; 'I' for Inactive)
REMARK   11  A    between atoms: CA   and  CB  
REMARK   12  A    between atoms: CB   and  CG  
REMARK   13  A    between atoms: CG   and  CD  
REMARK   14  A    between atoms: CD   and  CE  
ROOT
ATOM     20  CA  LYS A 131      29.867  25.555  16.977  1.00 20.52     0.186 C 
ENDROOT
BRANCH  20  21
ATOM     21  CB  LYS A 131      28.345  25.722  17.026  1.00 20.94     0.034 C 
BRANCH  21  22
ATOM     22  CG  LYS A 131      27.599  24.432  16.724  1.00 22.96     0.005 C 
BRANCH  22  23
ATOM     23  CD  LYS A 131      26.874  23.900  17.929  1.00 24.33     0.041 C 
BRANCH  23  24
ATOM     24  CE  LYS A 131      25.403  23.691  17.587  1.00 26.91     0.338 C 
ATOM     25  NZ  LYS A 131      25.072  22.246  17.580  1.00 27.40     0.618 N 
ENDBRANCH  23  24
ENDBRANCH  22  23
ENDBRANCH  21  22
ENDBRANCH  20  21
END_RES LYS A 131
