REMARK VINA RESULT:    -3.350      2.524      3.199
REMARK INTER + INTRA:          -9.679
REMARK INTER:                  -4.485
REMARK INTRA:                  -5.194
REMARK UNBOUND:                -5.644
REMARK SMILES CC(N)CC(=O)c1ccccc1
REMARK SMILES IDX 4 1 2 2 1 3 3 4 5 7 6 8 7 9 8 10 12 11 9 12 11 13 10 14
REMARK H PARENT 3 5 3 6
REMARK Flexibility Score: inf
ROOT
ATOM      1  C   UNL     1      24.060  37.501   9.195  1.00  0.00     0.099 C 
ENDROOT
BRANCH   1   2
ATOM      2  C   UNL     1      23.919  37.991   7.786  1.00  0.00     0.055 C 
ATOM      3  C   UNL     1      23.201  39.326   7.764  1.00  0.00     0.024 C 
BRANCH   2   4
ATOM      4  N   UNL     1      25.171  38.050   7.086  1.00  0.00    -0.328 NA
ATOM      5  H   UNL     1      25.758  38.783   7.577  1.00  0.00     0.119 HD
ATOM      6  H   UNL     1      25.044  38.297   6.068  1.00  0.00     0.119 HD
ENDBRANCH   2   4
ENDBRANCH   1   2
BRANCH   1   7
ATOM      7  C   UNL     1      24.012  36.033   9.300  1.00  0.00     0.164 C 
ATOM      8  O   UNL     1      22.954  35.379   9.126  1.00  0.00    -0.294 OA
BRANCH   7   9
ATOM      9  C   UNL     1      25.222  35.279   9.618  1.00  0.00     0.018 A 
ATOM     10  C   UNL     1      25.524  34.996  10.948  1.00  0.00     0.012 A 
ATOM     11  C   UNL     1      26.079  34.837   8.624  1.00  0.00     0.012 A 
ATOM     12  C   UNL     1      26.658  34.287  11.270  1.00  0.00     0.001 A 
ATOM     13  C   UNL     1      27.217  34.129   8.934  1.00  0.00     0.001 A 
ATOM     14  C   UNL     1      27.486  33.865  10.260  1.00  0.00     0.000 A 
ENDBRANCH   7   9
ENDBRANCH   1   7
TORSDOF 4
BEGIN_RES LYS A 135
REMARK  4 active torsions:
REMARK  status: ('A' for Active; 'I' for Inactive)
REMARK    1  A    between atoms: CA   and  CB  
REMARK    2  A    between atoms: CB   and  CG  
REMARK    3  A    between atoms: CG   and  CD  
REMARK    4  A    between atoms: CD   and  CE  
ROOT
ATOM      1  CA  LYS A 135      33.193  34.663   9.290  1.00 25.02     0.186 C 
ENDROOT
BRANCH   1   2
ATOM      2  CB  LYS A 135      32.060  35.360  10.034  1.00 26.63     0.034 C 
BRANCH   2   3
ATOM      3  CG  LYS A 135      30.699  35.093   9.445  1.00 29.45     0.005 C 
BRANCH   3   4
ATOM      4  CD  LYS A 135      30.248  36.263   8.584  1.00 32.00     0.041 C 
BRANCH   4   5
ATOM      5  CE  LYS A 135      30.725  37.575   9.176  1.00 34.25     0.338 C 
ATOM      6  NZ  LYS A 135      30.708  38.661   8.157  1.00 35.99     0.618 N 
ENDBRANCH   4   5
ENDBRANCH   3   4
ENDBRANCH   2   3
ENDBRANCH   1   2
END_RES LYS A 135
BEGIN_RES ARG A 124
REMARK  4 active torsions:
REMARK  status: ('A' for Active; 'I' for Inactive)
REMARK    5  A    between atoms: CA   and  CB  
REMARK    6  A    between atoms: CB   and  CG  
REMARK    7  A    between atoms: CG   and  CD  
REMARK    8  A    between atoms: CD   and  NE  
REMARK       I    between atoms: NE   and  CZ  
ROOT
ATOM      7  CA  ARG A 124      31.045  26.515   9.594  1.00 17.84     0.186 C 
ENDROOT
BRANCH   7   8
ATOM      8  CB  ARG A 124      29.529  26.705   9.647  1.00 16.18     0.036 C 
BRANCH   8   9
ATOM      9  CG  ARG A 124      28.907  26.801  11.086  1.00 16.22     0.029 C 
BRANCH   9  10
ATOM     10  CD  ARG A 124      27.535  26.096  11.195  1.00 15.09     0.145 C 
BRANCH  10  11
ATOM     11  NE  ARG A 124      26.407  27.019  11.448  1.00 16.98    -0.083 NA
ATOM     12  CZ  ARG A 124      26.106  27.545  12.630  1.00 18.21     0.782 C 
ATOM     13  NH1 ARG A 124      26.833  27.280  13.708  1.00 21.11     0.063 N 
ATOM     14  NH2 ARG A 124      25.078  28.372  12.743  1.00 21.25     0.063 N 
ENDBRANCH  10  11
ENDBRANCH   9  10
ENDBRANCH   8   9
ENDBRANCH   7   8
END_RES ARG A 124
BEGIN_RES ASN A 133
REMARK  2 active torsions:
REMARK  status: ('A' for Active; 'I' for Inactive)
REMARK    9  A    between atoms: CA   and  CB  
REMARK   10  A    between atoms: CB   and  CG  
ROOT
ATOM     15  CA  ASN A 133      31.225  30.257  11.749  1.00 18.15     0.196 C 
ENDROOT
BRANCH  15  16
ATOM     16  CB  ASN A 133      30.092  31.240  11.460  1.00 18.27     0.126 C 
BRANCH  16  17
ATOM     17  CG  ASN A 133      28.740  30.596  11.443  1.00 18.94     0.276 C 
ATOM     18  OD1 ASN A 133      28.405  29.839  10.530  1.00 18.09    -0.269 OA
ATOM     19  ND2 ASN A 133      27.939  30.896  12.465  1.00 18.93    -0.107 N 
ENDBRANCH  16  17
ENDBRANCH  15  16
END_RES ASN A 133
BEGIN_RES LYS A 131
REMARK  4 active torsions:
REMARK  status: ('A' for Active; 'I' for Inactive)
REMARK   11  A    between atoms: CA   and  CB  
REMARK   12  A    between atoms: CB   and  CG  
REMARK   13  A    between atoms: CG   and  CD  
REMARK   14  A    between atoms: CD   and  CE  
ROOT
ATOM     20  CA  LYS A 131      29.867  25.555  16.977  1.00 20.52     0.186 C 
ENDROOT
BRANCH  20  21
ATOM     21  CB  LYS A 131      28.345  25.722  17.026  1.00 20.94     0.034 C 
BRANCH  21  22
ATOM     22  CG  LYS A 131      27.601  24.403  16.884  1.00 22.96     0.005 C 
BRANCH  22  23
ATOM     23  CD  LYS A 131      26.149  24.529  17.253  1.00 24.33     0.041 C 
BRANCH  23  24
ATOM     24  CE  LYS A 131      25.722  25.990  17.147  1.00 26.91     0.338 C 
ATOM     25  NZ  LYS A 131      24.622  26.139  16.165  1.00 27.40     0.618 N 
ENDBRANCH  23  24
ENDBRANCH  22  23
ENDBRANCH  21  22
ENDBRANCH  20  21
END_RES LYS A 131
