REMARK VINA RESULT:    -4.068      4.887      7.200
REMARK INTER + INTRA:         -10.058
REMARK INTER:                  -5.746
REMARK INTRA:                  -4.311
REMARK UNBOUND:                -5.395
REMARK SMILES N#Cc1cccc(CN)c1
REMARK SMILES IDX 7 1 6 2 5 3 4 4 3 5 10 6 8 7 9 8 2 11 1 12
REMARK H PARENT 9 9 9 10
REMARK Flexibility Score: inf
ROOT
ATOM      1  C   UNL     1      28.642  35.194   7.526  1.00  0.00    -0.033 A 
ATOM      2  C   UNL     1      29.963  34.824   7.682  1.00  0.00     0.005 A 
ATOM      3  C   UNL     1      30.424  34.186   8.820  1.00  0.00     0.002 A 
ATOM      4  C   UNL     1      29.516  33.913   9.839  1.00  0.00     0.019 A 
ATOM      5  C   UNL     1      28.197  34.263   9.726  1.00  0.00     0.052 A 
ATOM      6  C   UNL     1      27.767  34.906   8.562  1.00  0.00     0.024 A 
ENDROOT
BRANCH   1   7
ATOM      7  C   UNL     1      28.182  35.872   6.303  1.00  0.00     0.113 C 
BRANCH   7   8
ATOM      8  N   UNL     1      29.126  36.845   5.798  1.00  0.00    -0.326 NA
ATOM      9  H   UNL     1      29.922  36.295   5.374  1.00  0.00     0.119 HD
ATOM     10  H   UNL     1      29.476  37.423   6.616  1.00  0.00     0.119 HD
ENDBRANCH   7   8
ENDBRANCH   1   7
BRANCH   5  11
ATOM     11  C   UNL     1      27.233  33.993  10.765  1.00  0.00     0.099 C 
ATOM     12  N   UNL     1      26.465  33.758  11.587  1.00  0.00    -0.192 NA
ENDBRANCH   5  11
TORSDOF 3
BEGIN_RES LYS A 135
REMARK  4 active torsions:
REMARK  status: ('A' for Active; 'I' for Inactive)
REMARK    1  A    between atoms: CA   and  CB  
REMARK    2  A    between atoms: CB   and  CG  
REMARK    3  A    between atoms: CG   and  CD  
REMARK    4  A    between atoms: CD   and  CE  
ROOT
ATOM      1  CA  LYS A 135      33.193  34.663   9.290  1.00 25.02     0.186 C 
ENDROOT
BRANCH   1   2
ATOM      2  CB  LYS A 135      32.060  35.360  10.034  1.00 26.63     0.034 C 
BRANCH   2   3
ATOM      3  CG  LYS A 135      32.527  36.194  11.198  1.00 29.45     0.005 C 
BRANCH   3   4
ATOM      4  CD  LYS A 135      31.795  37.527  11.232  1.00 32.00     0.041 C 
BRANCH   4   5
ATOM      5  CE  LYS A 135      30.945  37.699   9.988  1.00 34.25     0.338 C 
ATOM      6  NZ  LYS A 135      29.498  37.761  10.331  1.00 35.99     0.618 N 
ENDBRANCH   4   5
ENDBRANCH   3   4
ENDBRANCH   2   3
ENDBRANCH   1   2
END_RES LYS A 135
BEGIN_RES ARG A 124
REMARK  4 active torsions:
REMARK  status: ('A' for Active; 'I' for Inactive)
REMARK    5  A    between atoms: CA   and  CB  
REMARK    6  A    between atoms: CB   and  CG  
REMARK    7  A    between atoms: CG   and  CD  
REMARK    8  A    between atoms: CD   and  NE  
REMARK       I    between atoms: NE   and  CZ  
ROOT
ATOM      7  CA  ARG A 124      31.045  26.515   9.594  1.00 17.84     0.186 C 
ENDROOT
BRANCH   7   8
ATOM      8  CB  ARG A 124      29.529  26.705   9.647  1.00 16.18     0.036 C 
BRANCH   8   9
ATOM      9  CG  ARG A 124      28.913  26.851  11.084  1.00 16.22     0.029 C 
BRANCH   9  10
ATOM     10  CD  ARG A 124      27.576  26.091  11.244  1.00 15.09     0.145 C 
BRANCH  10  11
ATOM     11  NE  ARG A 124      26.406  26.974  11.445  1.00 16.98    -0.083 NA
ATOM     12  CZ  ARG A 124      26.023  27.473  12.615  1.00 18.21     0.782 C 
ATOM     13  NH1 ARG A 124      26.697  27.215  13.730  1.00 21.11     0.063 N 
ATOM     14  NH2 ARG A 124      24.964  28.264  12.681  1.00 21.25     0.063 N 
ENDBRANCH  10  11
ENDBRANCH   9  10
ENDBRANCH   8   9
ENDBRANCH   7   8
END_RES ARG A 124
BEGIN_RES ASN A 133
REMARK  2 active torsions:
REMARK  status: ('A' for Active; 'I' for Inactive)
REMARK    9  A    between atoms: CA   and  CB  
REMARK   10  A    between atoms: CB   and  CG  
ROOT
ATOM     15  CA  ASN A 133      31.225  30.257  11.749  1.00 18.15     0.196 C 
ENDROOT
BRANCH  15  16
ATOM     16  CB  ASN A 133      30.092  31.240  11.460  1.00 18.27     0.126 C 
BRANCH  16  17
ATOM     17  CG  ASN A 133      28.735  30.610  11.509  1.00 18.94     0.276 C 
ATOM     18  OD1 ASN A 133      28.319  29.915  10.580  1.00 18.09    -0.269 OA
ATOM     19  ND2 ASN A 133      28.020  30.850  12.608  1.00 18.93    -0.107 N 
ENDBRANCH  16  17
ENDBRANCH  15  16
END_RES ASN A 133
BEGIN_RES LYS A 131
REMARK  4 active torsions:
REMARK  status: ('A' for Active; 'I' for Inactive)
REMARK   11  A    between atoms: CA   and  CB  
REMARK   12  A    between atoms: CB   and  CG  
REMARK   13  A    between atoms: CG   and  CD  
REMARK   14  A    between atoms: CD   and  CE  
ROOT
ATOM     20  CA  LYS A 131      29.867  25.555  16.977  1.00 20.52     0.186 C 
ENDROOT
BRANCH  20  21
ATOM     21  CB  LYS A 131      28.345  25.722  17.026  1.00 20.94     0.034 C 
BRANCH  21  22
ATOM     22  CG  LYS A 131      27.601  24.402  16.897  1.00 22.96     0.005 C 
BRANCH  22  23
ATOM     23  CD  LYS A 131      26.139  24.541  17.220  1.00 24.33     0.041 C 
BRANCH  23  24
ATOM     24  CE  LYS A 131      25.712  25.993  17.030  1.00 26.91     0.338 C 
ATOM     25  NZ  LYS A 131      24.475  26.068  16.217  1.00 27.40     0.618 N 
ENDBRANCH  23  24
ENDBRANCH  22  23
ENDBRANCH  21  22
ENDBRANCH  20  21
END_RES LYS A 131
