REMARK VINA RESULT:    -2.644      4.684     15.270
REMARK INTER + INTRA:          -8.109
REMARK INTER:                  -2.639
REMARK INTRA:                  -5.470
REMARK UNBOUND:                -5.311
REMARK SMILES Cc1nc(N)nc(N)n1
REMARK SMILES IDX 1 1 2 2 3 3 4 4 6 5 7 6 9 7 5 8 8 11
REMARK H PARENT 5 9 5 10 8 12 8 13
REMARK Flexibility Score: inf
ROOT
ATOM      1  C   UNL     1      35.979  40.960   7.839  1.00  0.00     0.090 C 
ATOM      2  C   UNL     1      35.719  40.102   6.652  1.00  0.00     0.133 A 
ATOM      3  N   UNL     1      34.657  40.394   5.888  1.00  0.00    -0.198 NA
ATOM      4  C   UNL     1      34.311  39.706   4.797  1.00  0.00     0.225 A 
ATOM      5  N   UNL     1      35.080  38.658   4.452  1.00  0.00    -0.177 NA
ATOM      6  C   UNL     1      36.164  38.333   5.203  1.00  0.00     0.225 A 
ATOM      7  N   UNL     1      36.486  39.056   6.308  1.00  0.00    -0.198 NA
ENDROOT
BRANCH   4   8
ATOM      8  N   UNL     1      33.162  40.113   4.068  1.00  0.00    -0.368 N 
ATOM      9  H   UNL     1      32.872  41.116   4.137  1.00  0.00     0.159 HD
ATOM     10  H   UNL     1      32.637  39.419   3.491  1.00  0.00     0.159 HD
ENDBRANCH   4   8
BRANCH   6  11
ATOM     11  N   UNL     1      36.933  37.219   4.788  1.00  0.00    -0.368 N 
ATOM     12  H   UNL     1      37.740  36.915   5.361  1.00  0.00     0.159 HD
ATOM     13  H   UNL     1      36.679  36.722   3.919  1.00  0.00     0.159 HD
ENDBRANCH   6  11
TORSDOF 2
BEGIN_RES LYS A 135
REMARK  4 active torsions:
REMARK  status: ('A' for Active; 'I' for Inactive)
REMARK    1  A    between atoms: CA   and  CB  
REMARK    2  A    between atoms: CB   and  CG  
REMARK    3  A    between atoms: CG   and  CD  
REMARK    4  A    between atoms: CD   and  CE  
ROOT
ATOM      1  CA  LYS A 135      33.193  34.663   9.290  1.00 25.02     0.186 C 
ENDROOT
BRANCH   1   2
ATOM      2  CB  LYS A 135      32.060  35.360  10.034  1.00 26.63     0.034 C 
BRANCH   2   3
ATOM      3  CG  LYS A 135      30.724  34.682   9.870  1.00 29.45     0.005 C 
BRANCH   3   4
ATOM      4  CD  LYS A 135      30.360  34.562   8.398  1.00 32.00     0.041 C 
BRANCH   4   5
ATOM      5  CE  LYS A 135      28.855  34.602   8.217  1.00 34.25     0.338 C 
ATOM      6  NZ  LYS A 135      28.162  33.902   9.334  1.00 35.99     0.618 N 
ENDBRANCH   4   5
ENDBRANCH   3   4
ENDBRANCH   2   3
ENDBRANCH   1   2
END_RES LYS A 135
BEGIN_RES ARG A 124
REMARK  4 active torsions:
REMARK  status: ('A' for Active; 'I' for Inactive)
REMARK    5  A    between atoms: CA   and  CB  
REMARK    6  A    between atoms: CB   and  CG  
REMARK    7  A    between atoms: CG   and  CD  
REMARK    8  A    between atoms: CD   and  NE  
REMARK       I    between atoms: NE   and  CZ  
ROOT
ATOM      7  CA  ARG A 124      31.045  26.515   9.594  1.00 17.84     0.186 C 
ENDROOT
BRANCH   7   8
ATOM      8  CB  ARG A 124      29.529  26.705   9.647  1.00 16.18     0.036 C 
BRANCH   8   9
ATOM      9  CG  ARG A 124      28.752  25.708  10.580  1.00 16.22     0.029 C 
BRANCH   9  10
ATOM     10  CD  ARG A 124      27.613  26.391  11.371  1.00 15.09     0.145 C 
BRANCH  10  11
ATOM     11  NE  ARG A 124      28.044  26.964  12.665  1.00 16.98    -0.083 NA
ATOM     12  CZ  ARG A 124      27.306  27.766  13.425  1.00 18.21     0.782 C 
ATOM     13  NH1 ARG A 124      26.075  28.113  13.069  1.00 21.11     0.063 N 
ATOM     14  NH2 ARG A 124      27.787  28.215  14.574  1.00 21.25     0.063 N 
ENDBRANCH  10  11
ENDBRANCH   9  10
ENDBRANCH   8   9
ENDBRANCH   7   8
END_RES ARG A 124
BEGIN_RES ASN A 133
REMARK  2 active torsions:
REMARK  status: ('A' for Active; 'I' for Inactive)
REMARK    9  A    between atoms: CA   and  CB  
REMARK   10  A    between atoms: CB   and  CG  
ROOT
ATOM     15  CA  ASN A 133      31.225  30.257  11.749  1.00 18.15     0.196 C 
ENDROOT
BRANCH  15  16
ATOM     16  CB  ASN A 133      30.092  31.240  11.460  1.00 18.27     0.126 C 
BRANCH  16  17
ATOM     17  CG  ASN A 133      28.738  30.601  11.470  1.00 18.94     0.276 C 
ATOM     18  OD1 ASN A 133      28.464  29.674  10.706  1.00 18.09    -0.269 OA
ATOM     19  ND2 ASN A 133      27.865  31.099  12.346  1.00 18.93    -0.107 N 
ENDBRANCH  16  17
ENDBRANCH  15  16
END_RES ASN A 133
BEGIN_RES LYS A 131
REMARK  4 active torsions:
REMARK  status: ('A' for Active; 'I' for Inactive)
REMARK   11  A    between atoms: CA   and  CB  
REMARK   12  A    between atoms: CB   and  CG  
REMARK   13  A    between atoms: CG   and  CD  
REMARK   14  A    between atoms: CD   and  CE  
ROOT
ATOM     20  CA  LYS A 131      29.867  25.555  16.977  1.00 20.52     0.186 C 
ENDROOT
BRANCH  20  21
ATOM     21  CB  LYS A 131      28.345  25.722  17.026  1.00 20.94     0.034 C 
BRANCH  21  22
ATOM     22  CG  LYS A 131      27.600  24.409  16.843  1.00 22.96     0.005 C 
BRANCH  22  23
ATOM     23  CD  LYS A 131      26.153  24.519  17.233  1.00 24.33     0.041 C 
BRANCH  23  24
ATOM     24  CE  LYS A 131      25.675  23.186  17.800  1.00 26.91     0.338 C 
ATOM     25  NZ  LYS A 131      25.561  23.260  19.276  1.00 27.40     0.618 N 
ENDBRANCH  23  24
ENDBRANCH  22  23
ENDBRANCH  21  22
ENDBRANCH  20  21
END_RES LYS A 131
