REMARK VINA RESULT:    -3.015      4.865     12.959
REMARK INTER + INTRA:          -9.069
REMARK INTER:                  -3.602
REMARK INTRA:                  -5.467
REMARK UNBOUND:                -5.966
REMARK SMILES Nc1cnc2ccccc2c1
REMARK SMILES IDX 2 1 3 2 4 3 5 4 6 5 7 6 8 7 9 8 10 9 11 10 1 11
REMARK H PARENT 1 12 1 13
REMARK Flexibility Score: inf
ROOT
ATOM      1  C   UNL     1      26.179  19.127  16.628  1.00  0.00     0.051 A 
ATOM      2  C   UNL     1      27.301  18.759  15.908  1.00  0.00     0.137 A 
ATOM      3  N   UNL     1      27.685  17.476  15.765  1.00  0.00    -0.254 NA
ATOM      4  C   UNL     1      27.005  16.451  16.313  1.00  0.00     0.070 A 
ATOM      5  C   UNL     1      27.439  15.141  16.139  1.00  0.00     0.029 A 
ATOM      6  C   UNL     1      26.735  14.100  16.704  1.00  0.00     0.002 A 
ATOM      7  C   UNL     1      25.609  14.410  17.432  1.00  0.00     0.001 A 
ATOM      8  C   UNL     1      25.172  15.708  17.610  1.00  0.00     0.010 A 
ATOM      9  C   UNL     1      25.876  16.760  17.043  1.00  0.00     0.002 A 
ATOM     10  C   UNL     1      25.473  18.080  17.196  1.00  0.00     0.037 A 
ENDROOT
BRANCH   1  11
ATOM     11  N   UNL     1      25.776  20.489  16.777  1.00  0.00    -0.397 N 
ATOM     12  H   UNL     1      26.078  21.020  17.645  1.00  0.00     0.156 HD
ATOM     13  H   UNL     1      25.208  21.010  16.101  1.00  0.00     0.156 HD
ENDBRANCH   1  11
TORSDOF 1
BEGIN_RES LYS A 135
REMARK  4 active torsions:
REMARK  status: ('A' for Active; 'I' for Inactive)
REMARK    1  A    between atoms: CA   and  CB  
REMARK    2  A    between atoms: CB   and  CG  
REMARK    3  A    between atoms: CG   and  CD  
REMARK    4  A    between atoms: CD   and  CE  
ROOT
ATOM      1  CA  LYS A 135      33.193  34.663   9.290  1.00 25.02     0.186 C 
ENDROOT
BRANCH   1   2
ATOM      2  CB  LYS A 135      32.060  35.360  10.034  1.00 26.63     0.034 C 
BRANCH   2   3
ATOM      3  CG  LYS A 135      30.695  34.817   9.698  1.00 29.45     0.005 C 
BRANCH   3   4
ATOM      4  CD  LYS A 135      30.584  34.526   8.210  1.00 32.00     0.041 C 
BRANCH   4   5
ATOM      5  CE  LYS A 135      29.248  35.002   7.672  1.00 34.25     0.338 C 
ATOM      6  NZ  LYS A 135      28.302  35.310   8.781  1.00 35.99     0.618 N 
ENDBRANCH   4   5
ENDBRANCH   3   4
ENDBRANCH   2   3
ENDBRANCH   1   2
END_RES LYS A 135
BEGIN_RES ARG A 124
REMARK  4 active torsions:
REMARK  status: ('A' for Active; 'I' for Inactive)
REMARK    5  A    between atoms: CA   and  CB  
REMARK    6  A    between atoms: CB   and  CG  
REMARK    7  A    between atoms: CG   and  CD  
REMARK    8  A    between atoms: CD   and  NE  
REMARK       I    between atoms: NE   and  CZ  
ROOT
ATOM      7  CA  ARG A 124      31.045  26.515   9.594  1.00 17.84     0.186 C 
ENDROOT
BRANCH   7   8
ATOM      8  CB  ARG A 124      29.529  26.705   9.647  1.00 16.18     0.036 C 
BRANCH   8   9
ATOM      9  CG  ARG A 124      28.913  26.852  11.084  1.00 16.22     0.029 C 
BRANCH   9  10
ATOM     10  CD  ARG A 124      27.571  26.101  11.242  1.00 15.09     0.145 C 
BRANCH  10  11
ATOM     11  NE  ARG A 124      26.407  26.991  11.442  1.00 16.98    -0.083 NA
ATOM     12  CZ  ARG A 124      26.006  27.464  12.617  1.00 18.21     0.782 C 
ATOM     13  NH1 ARG A 124      26.654  27.170  13.738  1.00 21.11     0.063 N 
ATOM     14  NH2 ARG A 124      24.953  28.265  12.682  1.00 21.25     0.063 N 
ENDBRANCH  10  11
ENDBRANCH   9  10
ENDBRANCH   8   9
ENDBRANCH   7   8
END_RES ARG A 124
BEGIN_RES ASN A 133
REMARK  2 active torsions:
REMARK  status: ('A' for Active; 'I' for Inactive)
REMARK    9  A    between atoms: CA   and  CB  
REMARK   10  A    between atoms: CB   and  CG  
ROOT
ATOM     15  CA  ASN A 133      31.225  30.257  11.749  1.00 18.15     0.196 C 
ENDROOT
BRANCH  15  16
ATOM     16  CB  ASN A 133      30.092  31.240  11.460  1.00 18.27     0.126 C 
BRANCH  16  17
ATOM     17  CG  ASN A 133      28.735  30.608  11.503  1.00 18.94     0.276 C 
ATOM     18  OD1 ASN A 133      28.331  29.900  10.579  1.00 18.09    -0.269 OA
ATOM     19  ND2 ASN A 133      28.008  30.863  12.590  1.00 18.93    -0.107 N 
ENDBRANCH  16  17
ENDBRANCH  15  16
END_RES ASN A 133
BEGIN_RES LYS A 131
REMARK  4 active torsions:
REMARK  status: ('A' for Active; 'I' for Inactive)
REMARK   11  A    between atoms: CA   and  CB  
REMARK   12  A    between atoms: CB   and  CG  
REMARK   13  A    between atoms: CG   and  CD  
REMARK   14  A    between atoms: CD   and  CE  
ROOT
ATOM     20  CA  LYS A 131      29.867  25.555  16.977  1.00 20.52     0.186 C 
ENDROOT
BRANCH  20  21
ATOM     21  CB  LYS A 131      28.345  25.722  17.026  1.00 20.94     0.034 C 
BRANCH  21  22
ATOM     22  CG  LYS A 131      27.600  24.410  16.832  1.00 22.96     0.005 C 
BRANCH  22  23
ATOM     23  CD  LYS A 131      26.184  24.484  17.332  1.00 24.33     0.041 C 
BRANCH  23  24
ATOM     24  CE  LYS A 131      26.163  25.146  18.706  1.00 26.91     0.338 C 
ATOM     25  NZ  LYS A 131      25.008  26.068  18.820  1.00 27.40     0.618 N 
ENDBRANCH  23  24
ENDBRANCH  22  23
ENDBRANCH  21  22
ENDBRANCH  20  21
END_RES LYS A 131
