REMARK VINA RESULT:    -5.526      9.081     12.193
REMARK INTER + INTRA:         -11.299
REMARK INTER:                  -5.525
REMARK INTRA:                  -5.775
REMARK UNBOUND:                -4.804
REMARK SMILES Nc1ccc(S(=O)(=O)c2ccc(N)cc2)cc1
REMARK SMILES IDX 6 1 7 2 8 3 5 4 2 5 3 6 17 7 4 8 16 9 1 10 9 13 10 14 15 15
REMARK SMILES IDX 11 16 14 17 12 18 13 19
REMARK H PARENT 1 11 1 12 13 20 13 21
REMARK Flexibility Score: inf
ROOT
ATOM      1  S   UNL     1      36.143  20.222  21.644  1.00  0.00     0.206 S 
ATOM      2  O   UNL     1      36.621  21.329  22.537  1.00  0.00    -0.219 OA
ATOM      3  O   UNL     1      35.922  20.809  20.278  1.00  0.00    -0.219 OA
ENDROOT
BRANCH   1   4
ATOM      4  C   UNL     1      37.440  19.062  21.506  1.00  0.00     0.072 A 
ATOM      5  C   UNL     1      39.487  17.154  21.315  1.00  0.00     0.031 A 
ATOM      6  C   UNL     1      39.650  18.426  20.796  1.00  0.00     0.027 A 
ATOM      7  C   UNL     1      38.294  16.841  21.931  1.00  0.00     0.027 A 
ATOM      8  C   UNL     1      38.641  19.361  20.892  1.00  0.00     0.023 A 
ATOM      9  C   UNL     1      37.300  17.780  22.018  1.00  0.00     0.023 A 
BRANCH   5  10
ATOM     10  N   UNL     1      40.547  16.222  21.195  1.00  0.00    -0.399 N 
ATOM     11  H   UNL     1      41.121  15.926  22.010  1.00  0.00     0.156 HD
ATOM     12  H   UNL     1      40.786  15.799  20.271  1.00  0.00     0.156 HD
ENDBRANCH   5  10
ENDBRANCH   1   4
BRANCH   1  13
ATOM     13  C   UNL     1      34.684  19.473  22.268  1.00  0.00     0.072 A 
ATOM     14  C   UNL     1      33.725  18.951  21.424  1.00  0.00     0.023 A 
ATOM     15  C   UNL     1      34.444  19.382  23.624  1.00  0.00     0.023 A 
ATOM     16  C   UNL     1      32.578  18.362  21.916  1.00  0.00     0.027 A 
ATOM     17  C   UNL     1      33.296  18.793  24.117  1.00  0.00     0.027 A 
ATOM     18  C   UNL     1      32.338  18.270  23.271  1.00  0.00     0.031 A 
BRANCH  18  19
ATOM     19  N   UNL     1      31.145  17.657  23.758  1.00  0.00    -0.399 N 
ATOM     20  H   UNL     1      30.329  18.271  23.935  1.00  0.00     0.156 HD
ATOM     21  H   UNL     1      31.054  16.640  23.940  1.00  0.00     0.156 HD
ENDBRANCH  18  19
ENDBRANCH   1  13
TORSDOF 4
BEGIN_RES LYS A 135
REMARK  4 active torsions:
REMARK  status: ('A' for Active; 'I' for Inactive)
REMARK    1  A    between atoms: CA   and  CB  
REMARK    2  A    between atoms: CB   and  CG  
REMARK    3  A    between atoms: CG   and  CD  
REMARK    4  A    between atoms: CD   and  CE  
ROOT
ATOM      1  CA  LYS A 135      33.193  34.663   9.290  1.00 25.02     0.186 C 
ENDROOT
BRANCH   1   2
ATOM      2  CB  LYS A 135      32.060  35.360  10.034  1.00 26.63     0.034 C 
BRANCH   2   3
ATOM      3  CG  LYS A 135      30.705  34.753   9.774  1.00 29.45     0.005 C 
BRANCH   3   4
ATOM      4  CD  LYS A 135      30.474  34.578   8.281  1.00 32.00     0.041 C 
BRANCH   4   5
ATOM      5  CE  LYS A 135      29.020  34.838   7.933  1.00 34.25     0.338 C 
ATOM      6  NZ  LYS A 135      28.900  35.578   6.647  1.00 35.99     0.618 N 
ENDBRANCH   4   5
ENDBRANCH   3   4
ENDBRANCH   2   3
ENDBRANCH   1   2
END_RES LYS A 135
BEGIN_RES ARG A 124
REMARK  4 active torsions:
REMARK  status: ('A' for Active; 'I' for Inactive)
REMARK    5  A    between atoms: CA   and  CB  
REMARK    6  A    between atoms: CB   and  CG  
REMARK    7  A    between atoms: CG   and  CD  
REMARK    8  A    between atoms: CD   and  NE  
REMARK       I    between atoms: NE   and  CZ  
ROOT
ATOM      7  CA  ARG A 124      31.045  26.515   9.594  1.00 17.84     0.186 C 
ENDROOT
BRANCH   7   8
ATOM      8  CB  ARG A 124      29.529  26.705   9.647  1.00 16.18     0.036 C 
BRANCH   8   9
ATOM      9  CG  ARG A 124      28.775  25.853  10.730  1.00 16.22     0.029 C 
BRANCH   9  10
ATOM     10  CD  ARG A 124      28.335  26.690  11.953  1.00 15.09     0.145 C 
BRANCH  10  11
ATOM     11  NE  ARG A 124      26.920  27.117  11.907  1.00 16.98    -0.083 NA
ATOM     12  CZ  ARG A 124      26.222  27.547  12.953  1.00 18.21     0.782 C 
ATOM     13  NH1 ARG A 124      26.770  27.640  14.158  1.00 21.11     0.063 N 
ATOM     14  NH2 ARG A 124      24.960  27.916  12.798  1.00 21.25     0.063 N 
ENDBRANCH  10  11
ENDBRANCH   9  10
ENDBRANCH   8   9
ENDBRANCH   7   8
END_RES ARG A 124
BEGIN_RES ASN A 133
REMARK  2 active torsions:
REMARK  status: ('A' for Active; 'I' for Inactive)
REMARK    9  A    between atoms: CA   and  CB  
REMARK   10  A    between atoms: CB   and  CG  
ROOT
ATOM     15  CA  ASN A 133      31.225  30.257  11.749  1.00 18.15     0.196 C 
ENDROOT
BRANCH  15  16
ATOM     16  CB  ASN A 133      30.092  31.240  11.460  1.00 18.27     0.126 C 
BRANCH  16  17
ATOM     17  CG  ASN A 133      28.742  30.594  11.427  1.00 18.94     0.276 C 
ATOM     18  OD1 ASN A 133      28.433  29.805  10.532  1.00 18.09    -0.269 OA
ATOM     19  ND2 ASN A 133      27.912  30.927  12.415  1.00 18.93    -0.107 N 
ENDBRANCH  16  17
ENDBRANCH  15  16
END_RES ASN A 133
BEGIN_RES LYS A 131
REMARK  4 active torsions:
REMARK  status: ('A' for Active; 'I' for Inactive)
REMARK   11  A    between atoms: CA   and  CB  
REMARK   12  A    between atoms: CB   and  CG  
REMARK   13  A    between atoms: CG   and  CD  
REMARK   14  A    between atoms: CD   and  CE  
ROOT
ATOM     20  CA  LYS A 131      29.867  25.555  16.977  1.00 20.52     0.186 C 
ENDROOT
BRANCH  20  21
ATOM     21  CB  LYS A 131      28.345  25.722  17.026  1.00 20.94     0.034 C 
BRANCH  21  22
ATOM     22  CG  LYS A 131      27.601  24.406  16.864  1.00 22.96     0.005 C 
BRANCH  22  23
ATOM     23  CD  LYS A 131      26.156  24.519  17.264  1.00 24.33     0.041 C 
BRANCH  23  24
ATOM     24  CE  LYS A 131      25.821  23.431  18.279  1.00 26.91     0.338 C 
ATOM     25  NZ  LYS A 131      25.075  22.327  17.630  1.00 27.40     0.618 N 
ENDBRANCH  23  24
ENDBRANCH  22  23
ENDBRANCH  21  22
ENDBRANCH  20  21
END_RES LYS A 131
