REMARK VINA RESULT:    -1.793      5.314     10.986
REMARK INTER + INTRA:          -7.694
REMARK INTER:                  -2.697
REMARK INTRA:                  -4.997
REMARK UNBOUND:                -5.534
REMARK SMILES CC(=O)OCCN
REMARK SMILES IDX 5 1 4 2 2 3 1 4 3 5 6 6 7 7
REMARK H PARENT 7 8 7 9
REMARK Flexibility Score: inf
ROOT
ATOM      1  C   UNL     1      25.310  37.175   7.823  1.00  0.00     0.248 C 
ENDROOT
BRANCH   1   2
ATOM      2  O   UNL     1      26.681  36.927   7.814  1.00  0.00    -0.465 OA
BRANCH   2   3
ATOM      3  C   UNL     1      27.290  35.774   7.372  1.00  0.00     0.302 C 
ATOM      4  C   UNL     1      28.321  35.722   6.304  1.00  0.00     0.139 C 
ATOM      5  O   UNL     1      26.958  34.683   7.901  1.00  0.00    -0.253 OA
ENDBRANCH   2   3
ENDBRANCH   1   2
BRANCH   1   6
ATOM      6  C   UNL     1      24.661  37.030   9.173  1.00  0.00     0.119 C 
BRANCH   6   7
ATOM      7  N   UNL     1      24.258  35.621   9.289  1.00  0.00    -0.327 NA
ATOM      8  H   UNL     1      24.183  35.181   8.329  1.00  0.00     0.119 HD
ATOM      9  H   UNL     1      25.033  35.126   9.805  1.00  0.00     0.119 HD
ENDBRANCH   6   7
ENDBRANCH   1   6
TORSDOF 4
BEGIN_RES LYS A 135
REMARK  4 active torsions:
REMARK  status: ('A' for Active; 'I' for Inactive)
REMARK    1  A    between atoms: CA   and  CB  
REMARK    2  A    between atoms: CB   and  CG  
REMARK    3  A    between atoms: CG   and  CD  
REMARK    4  A    between atoms: CD   and  CE  
ROOT
ATOM      1  CA  LYS A 135      33.193  34.663   9.290  1.00 25.02     0.186 C 
ENDROOT
BRANCH   1   2
ATOM      2  CB  LYS A 135      32.060  35.360  10.034  1.00 26.63     0.034 C 
BRANCH   2   3
ATOM      3  CG  LYS A 135      30.761  35.383   9.270  1.00 29.45     0.005 C 
BRANCH   3   4
ATOM      4  CD  LYS A 135      29.978  36.649   9.580  1.00 32.00     0.041 C 
BRANCH   4   5
ATOM      5  CE  LYS A 135      30.436  37.790   8.692  1.00 34.25     0.338 C 
ATOM      6  NZ  LYS A 135      30.701  39.019   9.490  1.00 35.99     0.618 N 
ENDBRANCH   4   5
ENDBRANCH   3   4
ENDBRANCH   2   3
ENDBRANCH   1   2
END_RES LYS A 135
BEGIN_RES ARG A 124
REMARK  4 active torsions:
REMARK  status: ('A' for Active; 'I' for Inactive)
REMARK    5  A    between atoms: CA   and  CB  
REMARK    6  A    between atoms: CB   and  CG  
REMARK    7  A    between atoms: CG   and  CD  
REMARK    8  A    between atoms: CD   and  NE  
REMARK       I    between atoms: NE   and  CZ  
ROOT
ATOM      7  CA  ARG A 124      31.045  26.515   9.594  1.00 17.84     0.186 C 
ENDROOT
BRANCH   7   8
ATOM      8  CB  ARG A 124      29.529  26.705   9.647  1.00 16.18     0.036 C 
BRANCH   8   9
ATOM      9  CG  ARG A 124      28.905  26.790  11.086  1.00 16.22     0.029 C 
BRANCH   9  10
ATOM     10  CD  ARG A 124      27.545  26.064  11.194  1.00 15.09     0.145 C 
BRANCH  10  11
ATOM     11  NE  ARG A 124      26.401  26.970  11.437  1.00 16.98    -0.083 NA
ATOM     12  CZ  ARG A 124      26.074  27.481  12.620  1.00 18.21     0.782 C 
ATOM     13  NH1 ARG A 124      26.786  27.213  13.708  1.00 21.11     0.063 N 
ATOM     14  NH2 ARG A 124      25.034  28.293  12.724  1.00 21.25     0.063 N 
ENDBRANCH  10  11
ENDBRANCH   9  10
ENDBRANCH   8   9
ENDBRANCH   7   8
END_RES ARG A 124
BEGIN_RES ASN A 133
REMARK  2 active torsions:
REMARK  status: ('A' for Active; 'I' for Inactive)
REMARK    9  A    between atoms: CA   and  CB  
REMARK   10  A    between atoms: CB   and  CG  
ROOT
ATOM     15  CA  ASN A 133      31.225  30.257  11.749  1.00 18.15     0.196 C 
ENDROOT
BRANCH  15  16
ATOM     16  CB  ASN A 133      30.092  31.240  11.460  1.00 18.27     0.126 C 
BRANCH  16  17
ATOM     17  CG  ASN A 133      28.732  30.622  11.563  1.00 18.94     0.276 C 
ATOM     18  OD1 ASN A 133      28.327  29.826  10.714  1.00 18.09    -0.269 OA
ATOM     19  ND2 ASN A 133      28.003  30.989  12.616  1.00 18.93    -0.107 N 
ENDBRANCH  16  17
ENDBRANCH  15  16
END_RES ASN A 133
BEGIN_RES LYS A 131
REMARK  4 active torsions:
REMARK  status: ('A' for Active; 'I' for Inactive)
REMARK   11  A    between atoms: CA   and  CB  
REMARK   12  A    between atoms: CB   and  CG  
REMARK   13  A    between atoms: CG   and  CD  
REMARK   14  A    between atoms: CD   and  CE  
ROOT
ATOM     20  CA  LYS A 131      29.867  25.555  16.977  1.00 20.52     0.186 C 
ENDROOT
BRANCH  20  21
ATOM     21  CB  LYS A 131      28.345  25.722  17.026  1.00 20.94     0.034 C 
BRANCH  21  22
ATOM     22  CG  LYS A 131      27.600  24.408  16.845  1.00 22.96     0.005 C 
BRANCH  22  23
ATOM     23  CD  LYS A 131      26.161  24.510  17.267  1.00 24.33     0.041 C 
BRANCH  23  24
ATOM     24  CE  LYS A 131      25.672  25.941  17.065  1.00 26.91     0.338 C 
ATOM     25  NZ  LYS A 131      24.532  25.971  16.118  1.00 27.40     0.618 N 
ENDBRANCH  23  24
ENDBRANCH  22  23
ENDBRANCH  21  22
ENDBRANCH  20  21
END_RES LYS A 131
