REMARK VINA RESULT:    -5.695      0.000      0.000
REMARK INTER + INTRA:         -13.102
REMARK INTER:                  -8.056
REMARK INTRA:                  -5.046
REMARK UNBOUND:                -6.408
REMARK SMILES Nc1ccc(-c2c3ccc(=O)cc-3oc3cc(O)ccc23)c(C(=O)[O-])c1
REMARK SMILES IDX 17 1 19 2 20 3 21 4 6 5 7 6 8 7 9 8 10 9 11 10 12 11 13 12
REMARK SMILES IDX 14 13 15 14 16 15 18 16 5 18 4 19 22 20 3 21 26 22 2 23
REMARK SMILES IDX 23 24 24 25 25 26 1 27
REMARK H PARENT 18 17 1 28 1 29
REMARK Flexibility Score: inf
ROOT
ATOM      1  C   UNL     1      29.869  33.891   9.321  1.00  0.00     0.119 A 
ATOM      2  C   UNL     1      30.260  34.907   8.475  1.00  0.00     0.047 A 
ATOM      3  C   UNL     1      29.352  35.812   7.984  1.00  0.00     0.016 A 
ATOM      4  C   UNL     1      28.017  35.699   8.348  1.00  0.00     0.026 A 
ATOM      5  C   UNL     1      27.075  36.605   7.862  1.00  0.00     0.004 A 
ATOM      6  C   UNL     1      25.771  36.454   8.249  1.00  0.00     0.026 A 
ATOM      7  C   UNL     1      24.796  37.318   7.802  1.00  0.00     0.016 A 
ATOM      8  C   UNL     1      23.506  37.107   8.230  1.00  0.00     0.053 A 
ATOM      9  C   UNL     1      23.198  36.076   9.071  1.00  0.00     0.182 A 
ATOM     10  O   UNL     1      22.007  35.906   9.447  1.00  0.00    -0.290 OA
ATOM     11  C   UNL     1      24.146  35.202   9.531  1.00  0.00     0.099 A 
ATOM     12  C   UNL     1      25.466  35.352   9.142  1.00  0.00     0.139 A 
ATOM     13  O   UNL     1      26.378  34.520   9.577  1.00  0.00    -0.456 OA
ATOM     14  C   UNL     1      27.636  34.682   9.193  1.00  0.00     0.139 A 
ATOM     15  C   UNL     1      28.554  33.753   9.700  1.00  0.00     0.093 A 
ENDROOT
BRANCH   1  16
ATOM     16  O   UNL     1      30.770  32.959   9.836  1.00  0.00    -0.508 OA
ATOM     17  H   UNL     1      31.552  33.335  10.355  1.00  0.00     0.293 HD
ENDBRANCH   1  16
BRANCH   5  18
ATOM     18  C   UNL     1      27.511  37.666   6.973  1.00  0.00    -0.008 A 
ATOM     19  C   UNL     1      27.555  37.472   5.613  1.00  0.00     0.011 A 
ATOM     20  C   UNL     1      27.889  38.897   7.502  1.00  0.00     0.007 A 
ATOM     21  C   UNL     1      27.966  38.470   4.768  1.00  0.00     0.026 A 
ATOM     22  C   UNL     1      28.298  39.885   6.628  1.00  0.00     0.036 A 
ATOM     23  C   UNL     1      28.344  39.690   5.244  1.00  0.00     0.032 A 
BRANCH  20  24
ATOM     24  C   UNL     1      27.853  39.132   8.933  1.00  0.00     0.072 C 
ATOM     25  O   UNL     1      28.835  38.874   9.658  1.00  0.00    -0.545 OA
ATOM     26  O   UNL     1      26.711  39.649   9.511  1.00  0.00    -0.545 OA
ENDBRANCH  20  24
BRANCH  23  27
ATOM     27  N   UNL     1      28.774  40.746   4.414  1.00  0.00    -0.399 N 
ATOM     28  H   UNL     1      28.572  41.721   4.683  1.00  0.00     0.156 HD
ATOM     29  H   UNL     1      29.285  40.548   3.542  1.00  0.00     0.156 HD
ENDBRANCH  23  27
ENDBRANCH   5  18
TORSDOF 4
BEGIN_RES LYS A 135
REMARK  4 active torsions:
REMARK  status: ('A' for Active; 'I' for Inactive)
REMARK    1  A    between atoms: CA   and  CB  
REMARK    2  A    between atoms: CB   and  CG  
REMARK    3  A    between atoms: CG   and  CD  
REMARK    4  A    between atoms: CD   and  CE  
ROOT
ATOM      1  CA  LYS A 135      33.193  34.663   9.290  1.00 25.02     0.186 C 
ENDROOT
BRANCH   1   2
ATOM      2  CB  LYS A 135      32.060  35.360  10.034  1.00 26.63     0.034 C 
BRANCH   2   3
ATOM      3  CG  LYS A 135      32.525  36.178  11.211  1.00 29.45     0.005 C 
BRANCH   3   4
ATOM      4  CD  LYS A 135      31.944  35.632  12.507  1.00 32.00     0.041 C 
BRANCH   4   5
ATOM      5  CE  LYS A 135      30.429  35.655  12.462  1.00 34.25     0.338 C 
ATOM      6  NZ  LYS A 135      29.855  34.417  13.058  1.00 35.99     0.618 N 
ENDBRANCH   4   5
ENDBRANCH   3   4
ENDBRANCH   2   3
ENDBRANCH   1   2
END_RES LYS A 135
BEGIN_RES ARG A 124
REMARK  4 active torsions:
REMARK  status: ('A' for Active; 'I' for Inactive)
REMARK    5  A    between atoms: CA   and  CB  
REMARK    6  A    between atoms: CB   and  CG  
REMARK    7  A    between atoms: CG   and  CD  
REMARK    8  A    between atoms: CD   and  NE  
REMARK       I    between atoms: NE   and  CZ  
ROOT
ATOM      7  CA  ARG A 124      31.045  26.515   9.594  1.00 17.84     0.186 C 
ENDROOT
BRANCH   7   8
ATOM      8  CB  ARG A 124      29.529  26.705   9.647  1.00 16.18     0.036 C 
BRANCH   8   9
ATOM      9  CG  ARG A 124      28.904  26.778  11.086  1.00 16.22     0.029 C 
BRANCH   9  10
ATOM     10  CD  ARG A 124      27.530  26.075  11.180  1.00 15.09     0.145 C 
BRANCH  10  11
ATOM     11  NE  ARG A 124      26.401  26.999  11.422  1.00 16.98    -0.083 NA
ATOM     12  CZ  ARG A 124      26.052  27.476  12.612  1.00 18.21     0.782 C 
ATOM     13  NH1 ARG A 124      26.726  27.155  13.709  1.00 21.11     0.063 N 
ATOM     14  NH2 ARG A 124      25.027  28.308  12.716  1.00 21.25     0.063 N 
ENDBRANCH  10  11
ENDBRANCH   9  10
ENDBRANCH   8   9
ENDBRANCH   7   8
END_RES ARG A 124
BEGIN_RES ASN A 133
REMARK  2 active torsions:
REMARK  status: ('A' for Active; 'I' for Inactive)
REMARK    9  A    between atoms: CA   and  CB  
REMARK   10  A    between atoms: CB   and  CG  
ROOT
ATOM     15  CA  ASN A 133      31.225  30.257  11.749  1.00 18.15     0.196 C 
ENDROOT
BRANCH  15  16
ATOM     16  CB  ASN A 133      30.092  31.240  11.460  1.00 18.27     0.126 C 
BRANCH  16  17
ATOM     17  CG  ASN A 133      28.731  30.634  11.607  1.00 18.94     0.276 C 
ATOM     18  OD1 ASN A 133      28.320  29.788  10.810  1.00 18.09    -0.269 OA
ATOM     19  ND2 ASN A 133      28.008  31.066  12.639  1.00 18.93    -0.107 N 
ENDBRANCH  16  17
ENDBRANCH  15  16
END_RES ASN A 133
BEGIN_RES LYS A 131
REMARK  4 active torsions:
REMARK  status: ('A' for Active; 'I' for Inactive)
REMARK   11  A    between atoms: CA   and  CB  
REMARK   12  A    between atoms: CB   and  CG  
REMARK   13  A    between atoms: CG   and  CD  
REMARK   14  A    between atoms: CD   and  CE  
ROOT
ATOM     20  CA  LYS A 131      29.867  25.555  16.977  1.00 20.52     0.186 C 
ENDROOT
BRANCH  20  21
ATOM     21  CB  LYS A 131      28.345  25.722  17.026  1.00 20.94     0.034 C 
BRANCH  21  22
ATOM     22  CG  LYS A 131      27.600  24.410  16.831  1.00 22.96     0.005 C 
BRANCH  22  23
ATOM     23  CD  LYS A 131      26.155  24.514  17.233  1.00 24.33     0.041 C 
BRANCH  23  24
ATOM     24  CE  LYS A 131      25.651  25.928  16.959  1.00 26.91     0.338 C 
ATOM     25  NZ  LYS A 131      24.423  25.889  16.130  1.00 27.40     0.618 N 
ENDBRANCH  23  24
ENDBRANCH  22  23
ENDBRANCH  21  22
ENDBRANCH  20  21
END_RES LYS A 131
