REMARK VINA RESULT:    -3.578      4.696     13.170
REMARK INTER + INTRA:          -9.949
REMARK INTER:                  -4.902
REMARK INTRA:                  -5.047
REMARK UNBOUND:                -6.057
REMARK SMILES NC(=O)c1ccccc1N
REMARK SMILES IDX 4 1 5 2 6 3 7 4 8 5 9 6 2 7 1 8 3 11 10 12
REMARK H PARENT 1 9 1 10 10 13 10 14
REMARK Flexibility Score: inf
ROOT
ATOM      1  C   UNL     1      25.988  36.971   7.733  1.00  0.00     0.062 A 
ATOM      2  C   UNL     1      25.767  36.259   8.877  1.00  0.00     0.016 A 
ATOM      3  C   UNL     1      26.441  35.078   9.163  1.00  0.00     0.001 A 
ATOM      4  C   UNL     1      27.377  34.596   8.256  1.00  0.00     0.002 A 
ATOM      5  C   UNL     1      27.596  35.315   7.110  1.00  0.00     0.026 A 
ATOM      6  C   UNL     1      26.917  36.498   6.828  1.00  0.00     0.044 A 
ENDROOT
BRANCH   1   7
ATOM      7  C   UNL     1      25.265  38.219   7.450  1.00  0.00     0.250 C 
ATOM      8  N   UNL     1      23.880  38.195   7.176  1.00  0.00    -0.366 N 
ATOM      9  H   UNL     1      23.241  37.497   7.590  1.00  0.00     0.159 HD
ATOM     10  H   UNL     1      23.500  38.910   6.532  1.00  0.00     0.159 HD
ATOM     11  O   UNL     1      25.878  39.307   7.452  1.00  0.00    -0.269 OA
ENDBRANCH   1   7
BRANCH   6  12
ATOM     12  N   UNL     1      27.180  37.202   5.631  1.00  0.00    -0.398 N 
ATOM     13  H   UNL     1      27.789  38.033   5.661  1.00  0.00     0.156 HD
ATOM     14  H   UNL     1      26.763  36.879   4.750  1.00  0.00     0.156 HD
ENDBRANCH   6  12
TORSDOF 2
BEGIN_RES LYS A 135
REMARK  4 active torsions:
REMARK  status: ('A' for Active; 'I' for Inactive)
REMARK    1  A    between atoms: CA   and  CB  
REMARK    2  A    between atoms: CB   and  CG  
REMARK    3  A    between atoms: CG   and  CD  
REMARK    4  A    between atoms: CD   and  CE  
ROOT
ATOM      1  CA  LYS A 135      33.193  34.663   9.290  1.00 25.02     0.186 C 
ENDROOT
BRANCH   1   2
ATOM      2  CB  LYS A 135      32.060  35.360  10.034  1.00 26.63     0.034 C 
BRANCH   2   3
ATOM      3  CG  LYS A 135      30.771  35.412   9.256  1.00 29.45     0.005 C 
BRANCH   3   4
ATOM      4  CD  LYS A 135      30.362  36.853   8.990  1.00 32.00     0.041 C 
BRANCH   4   5
ATOM      5  CE  LYS A 135      29.337  37.313  10.009  1.00 34.25     0.338 C 
ATOM      6  NZ  LYS A 135      28.643  38.548   9.551  1.00 35.99     0.618 N 
ENDBRANCH   4   5
ENDBRANCH   3   4
ENDBRANCH   2   3
ENDBRANCH   1   2
END_RES LYS A 135
BEGIN_RES ARG A 124
REMARK  4 active torsions:
REMARK  status: ('A' for Active; 'I' for Inactive)
REMARK    5  A    between atoms: CA   and  CB  
REMARK    6  A    between atoms: CB   and  CG  
REMARK    7  A    between atoms: CG   and  CD  
REMARK    8  A    between atoms: CD   and  NE  
REMARK       I    between atoms: NE   and  CZ  
ROOT
ATOM      7  CA  ARG A 124      31.045  26.515   9.594  1.00 17.84     0.186 C 
ENDROOT
BRANCH   7   8
ATOM      8  CB  ARG A 124      29.529  26.705   9.647  1.00 16.18     0.036 C 
BRANCH   8   9
ATOM      9  CG  ARG A 124      28.906  26.798  11.086  1.00 16.22     0.029 C 
BRANCH   9  10
ATOM     10  CD  ARG A 124      27.549  26.067  11.201  1.00 15.09     0.145 C 
BRANCH  10  11
ATOM     11  NE  ARG A 124      26.399  26.972  11.418  1.00 16.98    -0.083 NA
ATOM     12  CZ  ARG A 124      26.013  27.439  12.600  1.00 18.21     0.782 C 
ATOM     13  NH1 ARG A 124      26.665  27.125  13.713  1.00 21.11     0.063 N 
ATOM     14  NH2 ARG A 124      24.973  28.254  12.681  1.00 21.25     0.063 N 
ENDBRANCH  10  11
ENDBRANCH   9  10
ENDBRANCH   8   9
ENDBRANCH   7   8
END_RES ARG A 124
BEGIN_RES ASN A 133
REMARK  2 active torsions:
REMARK  status: ('A' for Active; 'I' for Inactive)
REMARK    9  A    between atoms: CA   and  CB  
REMARK   10  A    between atoms: CB   and  CG  
ROOT
ATOM     15  CA  ASN A 133      31.225  30.257  11.749  1.00 18.15     0.196 C 
ENDROOT
BRANCH  15  16
ATOM     16  CB  ASN A 133      30.092  31.240  11.460  1.00 18.27     0.126 C 
BRANCH  16  17
ATOM     17  CG  ASN A 133      28.732  30.620  11.554  1.00 18.94     0.276 C 
ATOM     18  OD1 ASN A 133      28.332  29.827  10.700  1.00 18.09    -0.269 OA
ATOM     19  ND2 ASN A 133      27.999  30.981  12.606  1.00 18.93    -0.107 N 
ENDBRANCH  16  17
ENDBRANCH  15  16
END_RES ASN A 133
BEGIN_RES LYS A 131
REMARK  4 active torsions:
REMARK  status: ('A' for Active; 'I' for Inactive)
REMARK   11  A    between atoms: CA   and  CB  
REMARK   12  A    between atoms: CB   and  CG  
REMARK   13  A    between atoms: CG   and  CD  
REMARK   14  A    between atoms: CD   and  CE  
ROOT
ATOM     20  CA  LYS A 131      29.867  25.555  16.977  1.00 20.52     0.186 C 
ENDROOT
BRANCH  20  21
ATOM     21  CB  LYS A 131      28.345  25.722  17.026  1.00 20.94     0.034 C 
BRANCH  21  22
ATOM     22  CG  LYS A 131      27.600  24.407  16.852  1.00 22.96     0.005 C 
BRANCH  22  23
ATOM     23  CD  LYS A 131      26.152  24.521  17.241  1.00 24.33     0.041 C 
BRANCH  23  24
ATOM     24  CE  LYS A 131      25.679  23.196  17.832  1.00 26.91     0.338 C 
ATOM     25  NZ  LYS A 131      25.548  23.302  19.304  1.00 27.40     0.618 N 
ENDBRANCH  23  24
ENDBRANCH  22  23
ENDBRANCH  21  22
ENDBRANCH  20  21
END_RES LYS A 131
