REMARK VINA RESULT:    -4.173      7.670     10.845
REMARK INTER + INTRA:          -9.371
REMARK INTER:                  -3.636
REMARK INTRA:                  -5.735
REMARK UNBOUND:                -4.709
REMARK SMILES Nc1ccc(O)c([N+](=O)[O-])c1
REMARK SMILES IDX 2 1 3 2 4 3 5 4 7 5 11 6 1 7 8 10 9 11 10 12 6 13
REMARK H PARENT 1 8 1 9 6 14
REMARK Flexibility Score: inf
ROOT
ATOM      1  C   UNL     1      33.119  18.967  22.752  1.00  0.00     0.039 A 
ATOM      2  C   UNL     1      33.843  18.964  21.581  1.00  0.00     0.030 A 
ATOM      3  C   UNL     1      35.025  19.655  21.442  1.00  0.00     0.056 A 
ATOM      4  C   UNL     1      35.554  20.401  22.504  1.00  0.00     0.194 A 
ATOM      5  C   UNL     1      34.849  20.416  23.676  1.00  0.00     0.312 A 
ATOM      6  C   UNL     1      33.644  19.701  23.786  1.00  0.00     0.115 A 
ENDROOT
BRANCH   1   7
ATOM      7  N   UNL     1      31.906  18.242  22.836  1.00  0.00    -0.399 N 
ATOM      8  H   UNL     1      31.052  18.616  22.326  1.00  0.00     0.156 HD
ATOM      9  H   UNL     1      31.779  17.362  23.359  1.00  0.00     0.156 HD
ENDBRANCH   1   7
BRANCH   5  10
ATOM     10  N   UNL     1      35.318  21.144  24.796  1.00  0.00     0.066 N 
ATOM     11  O   UNL     1      34.751  22.082  25.358  1.00  0.00    -0.258 OA
ATOM     12  O   UNL     1      36.549  20.743  25.322  1.00  0.00    -0.258 OA
ENDBRANCH   5  10
BRANCH   4  13
ATOM     13  O   UNL     1      36.723  21.081  22.366  1.00  0.00    -0.502 OA
ATOM     14  H   UNL     1      37.246  21.324  21.560  1.00  0.00     0.293 HD
ENDBRANCH   4  13
TORSDOF 3
BEGIN_RES LYS A 135
REMARK  4 active torsions:
REMARK  status: ('A' for Active; 'I' for Inactive)
REMARK    1  A    between atoms: CA   and  CB  
REMARK    2  A    between atoms: CB   and  CG  
REMARK    3  A    between atoms: CG   and  CD  
REMARK    4  A    between atoms: CD   and  CE  
ROOT
ATOM      1  CA  LYS A 135      33.193  34.663   9.290  1.00 25.02     0.186 C 
ENDROOT
BRANCH   1   2
ATOM      2  CB  LYS A 135      32.060  35.360  10.034  1.00 26.63     0.034 C 
BRANCH   2   3
ATOM      3  CG  LYS A 135      30.882  35.699   9.157  1.00 29.45     0.005 C 
BRANCH   3   4
ATOM      4  CD  LYS A 135      30.394  34.465   8.414  1.00 32.00     0.041 C 
BRANCH   4   5
ATOM      5  CE  LYS A 135      28.878  34.422   8.391  1.00 34.25     0.338 C 
ATOM      6  NZ  LYS A 135      28.335  35.253   7.281  1.00 35.99     0.618 N 
ENDBRANCH   4   5
ENDBRANCH   3   4
ENDBRANCH   2   3
ENDBRANCH   1   2
END_RES LYS A 135
BEGIN_RES ARG A 124
REMARK  4 active torsions:
REMARK  status: ('A' for Active; 'I' for Inactive)
REMARK    5  A    between atoms: CA   and  CB  
REMARK    6  A    between atoms: CB   and  CG  
REMARK    7  A    between atoms: CG   and  CD  
REMARK    8  A    between atoms: CD   and  NE  
REMARK       I    between atoms: NE   and  CZ  
ROOT
ATOM      7  CA  ARG A 124      31.045  26.515   9.594  1.00 17.84     0.186 C 
ENDROOT
BRANCH   7   8
ATOM      8  CB  ARG A 124      29.529  26.705   9.647  1.00 16.18     0.036 C 
BRANCH   8   9
ATOM      9  CG  ARG A 124      28.971  27.348  10.967  1.00 16.22     0.029 C 
BRANCH   9  10
ATOM     10  CD  ARG A 124      28.429  26.298  11.963  1.00 15.09     0.145 C 
BRANCH  10  11
ATOM     11  NE  ARG A 124      27.987  26.871  13.254  1.00 16.98    -0.083 NA
ATOM     12  CZ  ARG A 124      26.755  27.296  13.514  1.00 18.21     0.782 C 
ATOM     13  NH1 ARG A 124      25.793  27.223  12.603  1.00 21.11     0.063 N 
ATOM     14  NH2 ARG A 124      26.463  27.782  14.711  1.00 21.25     0.063 N 
ENDBRANCH  10  11
ENDBRANCH   9  10
ENDBRANCH   8   9
ENDBRANCH   7   8
END_RES ARG A 124
BEGIN_RES ASN A 133
REMARK  2 active torsions:
REMARK  status: ('A' for Active; 'I' for Inactive)
REMARK    9  A    between atoms: CA   and  CB  
REMARK   10  A    between atoms: CB   and  CG  
ROOT
ATOM     15  CA  ASN A 133      31.225  30.257  11.749  1.00 18.15     0.196 C 
ENDROOT
BRANCH  15  16
ATOM     16  CB  ASN A 133      30.092  31.240  11.460  1.00 18.27     0.126 C 
BRANCH  16  17
ATOM     17  CG  ASN A 133      28.934  31.101  12.399  1.00 18.94     0.276 C 
ATOM     18  OD1 ASN A 133      28.045  30.271  12.198  1.00 18.09    -0.269 OA
ATOM     19  ND2 ASN A 133      28.932  31.924  13.447  1.00 18.93    -0.107 N 
ENDBRANCH  16  17
ENDBRANCH  15  16
END_RES ASN A 133
BEGIN_RES LYS A 131
REMARK  4 active torsions:
REMARK  status: ('A' for Active; 'I' for Inactive)
REMARK   11  A    between atoms: CA   and  CB  
REMARK   12  A    between atoms: CB   and  CG  
REMARK   13  A    between atoms: CG   and  CD  
REMARK   14  A    between atoms: CD   and  CE  
ROOT
ATOM     20  CA  LYS A 131      29.867  25.555  16.977  1.00 20.52     0.186 C 
ENDROOT
BRANCH  20  21
ATOM     21  CB  LYS A 131      28.345  25.722  17.026  1.00 20.94     0.034 C 
BRANCH  21  22
ATOM     22  CG  LYS A 131      27.601  24.406  16.860  1.00 22.96     0.005 C 
BRANCH  22  23
ATOM     23  CD  LYS A 131      26.151  24.523  17.243  1.00 24.33     0.041 C 
BRANCH  23  24
ATOM     24  CE  LYS A 131      25.645  23.172  17.737  1.00 26.91     0.338 C 
ATOM     25  NZ  LYS A 131      25.512  23.175  19.213  1.00 27.40     0.618 N 
ENDBRANCH  23  24
ENDBRANCH  22  23
ENDBRANCH  21  22
ENDBRANCH  20  21
END_RES LYS A 131
