REMARK VINA RESULT:    -2.919      5.381     11.812
REMARK INTER + INTRA:          -9.169
REMARK INTER:                  -3.389
REMARK INTRA:                  -5.780
REMARK UNBOUND:                -5.482
REMARK SMILES CCN(CC)CCN
REMARK SMILES IDX 6 1 3 2 2 3 1 4 4 5 5 6 7 7 8 8
REMARK H PARENT 8 9 8 10
REMARK Flexibility Score: inf
ROOT
ATOM      1  C   UNL     1      26.254  17.355  15.901  1.00  0.00     0.099 C 
ENDROOT
BRANCH   1   2
ATOM      2  N   UNL     1      25.002  18.070  15.827  1.00  0.00    -0.303 NA
BRANCH   2   3
ATOM      3  C   UNL     1      25.041  19.293  16.615  1.00  0.00     0.081 C 
ATOM      4  C   UNL     1      23.776  20.033  16.739  1.00  0.00     0.021 C 
ENDBRANCH   2   3
BRANCH   2   5
ATOM      5  C   UNL     1      24.763  18.412  14.424  1.00  0.00     0.081 C 
ATOM      6  C   UNL     1      24.014  17.321  13.711  1.00  0.00     0.021 C 
ENDBRANCH   2   5
ENDBRANCH   1   2
BRANCH   1   7
ATOM      7  C   UNL     1      27.381  18.358  15.760  1.00  0.00     0.093 C 
BRANCH   7   8
ATOM      8  N   UNL     1      28.587  17.613  15.333  1.00  0.00    -0.329 NA
ATOM      9  H   UNL     1      28.404  17.292  14.365  1.00  0.00     0.118 HD
ATOM     10  H   UNL     1      29.353  18.317  15.285  1.00  0.00     0.118 HD
ENDBRANCH   7   8
ENDBRANCH   1   7
TORSDOF 5
BEGIN_RES LYS A 135
REMARK  4 active torsions:
REMARK  status: ('A' for Active; 'I' for Inactive)
REMARK    1  A    between atoms: CA   and  CB  
REMARK    2  A    between atoms: CB   and  CG  
REMARK    3  A    between atoms: CG   and  CD  
REMARK    4  A    between atoms: CD   and  CE  
ROOT
ATOM      1  CA  LYS A 135      33.193  34.663   9.290  1.00 25.02     0.186 C 
ENDROOT
BRANCH   1   2
ATOM      2  CB  LYS A 135      32.060  35.360  10.034  1.00 26.63     0.034 C 
BRANCH   2   3
ATOM      3  CG  LYS A 135      30.816  35.543   9.203  1.00 29.45     0.005 C 
BRANCH   3   4
ATOM      4  CD  LYS A 135      30.068  34.227   9.059  1.00 32.00     0.041 C 
BRANCH   4   5
ATOM      5  CE  LYS A 135      28.728  34.447   8.383  1.00 34.25     0.338 C 
ATOM      6  NZ  LYS A 135      28.862  35.352   7.208  1.00 35.99     0.618 N 
ENDBRANCH   4   5
ENDBRANCH   3   4
ENDBRANCH   2   3
ENDBRANCH   1   2
END_RES LYS A 135
BEGIN_RES ARG A 124
REMARK  4 active torsions:
REMARK  status: ('A' for Active; 'I' for Inactive)
REMARK    5  A    between atoms: CA   and  CB  
REMARK    6  A    between atoms: CB   and  CG  
REMARK    7  A    between atoms: CG   and  CD  
REMARK    8  A    between atoms: CD   and  NE  
REMARK       I    between atoms: NE   and  CZ  
ROOT
ATOM      7  CA  ARG A 124      31.045  26.515   9.594  1.00 17.84     0.186 C 
ENDROOT
BRANCH   7   8
ATOM      8  CB  ARG A 124      29.529  26.705   9.647  1.00 16.18     0.036 C 
BRANCH   8   9
ATOM      9  CG  ARG A 124      28.777  25.865  10.740  1.00 16.22     0.029 C 
BRANCH   9  10
ATOM     10  CD  ARG A 124      28.660  26.606  12.091  1.00 15.09     0.145 C 
BRANCH  10  11
ATOM     11  NE  ARG A 124      27.268  26.765  12.567  1.00 16.98    -0.083 NA
ATOM     12  CZ  ARG A 124      26.903  27.489  13.620  1.00 18.21     0.782 C 
ATOM     13  NH1 ARG A 124      27.795  28.158  14.341  1.00 21.11     0.063 N 
ATOM     14  NH2 ARG A 124      25.624  27.572  13.953  1.00 21.25     0.063 N 
ENDBRANCH  10  11
ENDBRANCH   9  10
ENDBRANCH   8   9
ENDBRANCH   7   8
END_RES ARG A 124
BEGIN_RES ASN A 133
REMARK  2 active torsions:
REMARK  status: ('A' for Active; 'I' for Inactive)
REMARK    9  A    between atoms: CA   and  CB  
REMARK   10  A    between atoms: CB   and  CG  
ROOT
ATOM     15  CA  ASN A 133      31.225  30.257  11.749  1.00 18.15     0.196 C 
ENDROOT
BRANCH  15  16
ATOM     16  CB  ASN A 133      30.092  31.240  11.460  1.00 18.27     0.126 C 
BRANCH  16  17
ATOM     17  CG  ASN A 133      28.733  30.619  11.549  1.00 18.94     0.276 C 
ATOM     18  OD1 ASN A 133      28.406  29.689  10.808  1.00 18.09    -0.269 OA
ATOM     19  ND2 ASN A 133      27.916  31.133  12.467  1.00 18.93    -0.107 N 
ENDBRANCH  16  17
ENDBRANCH  15  16
END_RES ASN A 133
BEGIN_RES LYS A 131
REMARK  4 active torsions:
REMARK  status: ('A' for Active; 'I' for Inactive)
REMARK   11  A    between atoms: CA   and  CB  
REMARK   12  A    between atoms: CB   and  CG  
REMARK   13  A    between atoms: CG   and  CD  
REMARK   14  A    between atoms: CD   and  CE  
ROOT
ATOM     20  CA  LYS A 131      29.867  25.555  16.977  1.00 20.52     0.186 C 
ENDROOT
BRANCH  20  21
ATOM     21  CB  LYS A 131      28.345  25.722  17.026  1.00 20.94     0.034 C 
BRANCH  21  22
ATOM     22  CG  LYS A 131      27.599  24.439  16.692  1.00 22.96     0.005 C 
BRANCH  22  23
ATOM     23  CD  LYS A 131      27.014  23.790  17.916  1.00 24.33     0.041 C 
BRANCH  23  24
ATOM     24  CE  LYS A 131      25.661  23.177  17.569  1.00 26.91     0.338 C 
ATOM     25  NZ  LYS A 131      24.761  24.200  16.986  1.00 27.40     0.618 N 
ENDBRANCH  23  24
ENDBRANCH  22  23
ENDBRANCH  21  22
ENDBRANCH  20  21
END_RES LYS A 131
