REMARK VINA RESULT:    -4.054      3.968      5.167
REMARK INTER + INTRA:          -9.539
REMARK INTER:                  -3.545
REMARK INTRA:                  -5.994
REMARK UNBOUND:                -4.892
REMARK SMILES COc1ccc(CN)cc1
REMARK SMILES IDX 3 1 4 2 5 3 6 4 9 5 10 6 2 7 1 8 7 9 8 10
REMARK H PARENT 8 11 8 12
REMARK Flexibility Score: inf
ROOT
ATOM      1  C   UNL     1      32.065  34.114  16.020  1.00  0.00     0.118 A 
ATOM      2  C   UNL     1      31.700  34.267  17.335  1.00  0.00     0.047 A 
ATOM      3  C   UNL     1      30.940  33.295  17.989  1.00  0.00     0.009 A 
ATOM      4  C   UNL     1      30.557  32.180  17.308  1.00  0.00    -0.034 A 
ATOM      5  C   UNL     1      30.907  31.998  15.990  1.00  0.00     0.009 A 
ATOM      6  C   UNL     1      31.668  32.982  15.352  1.00  0.00     0.047 A 
ENDROOT
BRANCH   1   7
ATOM      7  O   UNL     1      32.809  35.065  15.376  1.00  0.00    -0.497 OA
ATOM      8  C   UNL     1      33.581  34.818  14.218  1.00  0.00     0.278 C 
ENDBRANCH   1   7
BRANCH   4   9
ATOM      9  C   UNL     1      29.756  31.134  17.964  1.00  0.00     0.113 C 
BRANCH   9  10
ATOM     10  N   UNL     1      29.906  31.135  19.409  1.00  0.00    -0.326 NA
ATOM     11  H   UNL     1      30.691  31.819  19.614  1.00  0.00     0.119 HD
ATOM     12  H   UNL     1      29.042  31.426  19.907  1.00  0.00     0.119 HD
ENDBRANCH   9  10
ENDBRANCH   4   9
TORSDOF 3
BEGIN_RES LYS A 135
REMARK  4 active torsions:
REMARK  status: ('A' for Active; 'I' for Inactive)
REMARK    1  A    between atoms: CA   and  CB  
REMARK    2  A    between atoms: CB   and  CG  
REMARK    3  A    between atoms: CG   and  CD  
REMARK    4  A    between atoms: CD   and  CE  
ROOT
ATOM      1  CA  LYS A 135      33.193  34.663   9.290  1.00 25.02     0.186 C 
ENDROOT
BRANCH   1   2
ATOM      2  CB  LYS A 135      32.060  35.360  10.034  1.00 26.63     0.034 C 
BRANCH   2   3
ATOM      3  CG  LYS A 135      30.822  35.556   9.198  1.00 29.45     0.005 C 
BRANCH   3   4
ATOM      4  CD  LYS A 135      30.175  34.218   8.874  1.00 32.00     0.041 C 
BRANCH   4   5
ATOM      5  CE  LYS A 135      28.704  34.402   8.554  1.00 34.25     0.338 C 
ATOM      6  NZ  LYS A 135      27.846  33.719   9.562  1.00 35.99     0.618 N 
ENDBRANCH   4   5
ENDBRANCH   3   4
ENDBRANCH   2   3
ENDBRANCH   1   2
END_RES LYS A 135
BEGIN_RES ARG A 124
REMARK  4 active torsions:
REMARK  status: ('A' for Active; 'I' for Inactive)
REMARK    5  A    between atoms: CA   and  CB  
REMARK    6  A    between atoms: CB   and  CG  
REMARK    7  A    between atoms: CG   and  CD  
REMARK    8  A    between atoms: CD   and  NE  
REMARK       I    between atoms: NE   and  CZ  
ROOT
ATOM      7  CA  ARG A 124      31.045  26.515   9.594  1.00 17.84     0.186 C 
ENDROOT
BRANCH   7   8
ATOM      8  CB  ARG A 124      29.529  26.705   9.647  1.00 16.18     0.036 C 
BRANCH   8   9
ATOM      9  CG  ARG A 124      28.910  26.827  11.085  1.00 16.22     0.029 C 
BRANCH   9  10
ATOM     10  CD  ARG A 124      27.531  26.138  11.206  1.00 15.09     0.145 C 
BRANCH  10  11
ATOM     11  NE  ARG A 124      26.413  27.076  11.446  1.00 16.98    -0.083 NA
ATOM     12  CZ  ARG A 124      26.037  27.520  12.641  1.00 18.21     0.782 C 
ATOM     13  NH1 ARG A 124      26.672  27.149  13.746  1.00 21.11     0.063 N 
ATOM     14  NH2 ARG A 124      25.026  28.369  12.742  1.00 21.25     0.063 N 
ENDBRANCH  10  11
ENDBRANCH   9  10
ENDBRANCH   8   9
ENDBRANCH   7   8
END_RES ARG A 124
BEGIN_RES ASN A 133
REMARK  2 active torsions:
REMARK  status: ('A' for Active; 'I' for Inactive)
REMARK    9  A    between atoms: CA   and  CB  
REMARK   10  A    between atoms: CB   and  CG  
ROOT
ATOM     15  CA  ASN A 133      31.225  30.257  11.749  1.00 18.15     0.196 C 
ENDROOT
BRANCH  15  16
ATOM     16  CB  ASN A 133      30.092  31.240  11.460  1.00 18.27     0.126 C 
BRANCH  16  17
ATOM     17  CG  ASN A 133      28.740  30.597  11.449  1.00 18.94     0.276 C 
ATOM     18  OD1 ASN A 133      28.415  29.809  10.559  1.00 18.09    -0.269 OA
ATOM     19  ND2 ASN A 133      27.926  30.933  12.449  1.00 18.93    -0.107 N 
ENDBRANCH  16  17
ENDBRANCH  15  16
END_RES ASN A 133
BEGIN_RES LYS A 131
REMARK  4 active torsions:
REMARK  status: ('A' for Active; 'I' for Inactive)
REMARK   11  A    between atoms: CA   and  CB  
REMARK   12  A    between atoms: CB   and  CG  
REMARK   13  A    between atoms: CG   and  CD  
REMARK   14  A    between atoms: CD   and  CE  
ROOT
ATOM     20  CA  LYS A 131      29.867  25.555  16.977  1.00 20.52     0.186 C 
ENDROOT
BRANCH  20  21
ATOM     21  CB  LYS A 131      28.345  25.722  17.026  1.00 20.94     0.034 C 
BRANCH  21  22
ATOM     22  CG  LYS A 131      27.599  24.447  16.663  1.00 22.96     0.005 C 
BRANCH  22  23
ATOM     23  CD  LYS A 131      26.992  23.784  17.868  1.00 24.33     0.041 C 
BRANCH  23  24
ATOM     24  CE  LYS A 131      25.550  23.392  17.561  1.00 26.91     0.338 C 
ATOM     25  NZ  LYS A 131      24.837  24.512  16.901  1.00 27.40     0.618 N 
ENDBRANCH  23  24
ENDBRANCH  22  23
ENDBRANCH  21  22
ENDBRANCH  20  21
END_RES LYS A 131
