REMARK VINA RESULT:    -4.168      2.361      2.911
REMARK INTER + INTRA:         -10.585
REMARK INTER:                  -6.015
REMARK INTRA:                  -4.570
REMARK UNBOUND:                -5.686
REMARK SMILES Nc1cccc(C=CC(=O)O)c1
REMARK SMILES IDX 8 1 7 2 9 3 10 4 11 5 6 7 5 8 12 9 4 10 2 11 3 12 1 13
REMARK H PARENT 11 6 1 14 1 15
REMARK Flexibility Score: inf
ROOT
ATOM      1  C   UNL     1      25.159  36.014   8.982  1.00  0.00     0.094 C 
ATOM      2  C   UNL     1      25.896  34.925   9.039  1.00  0.00     0.015 C 
ENDROOT
BRANCH   1   3
ATOM      3  C   UNL     1      23.769  35.920   9.479  1.00  0.00     0.328 C 
ATOM      4  O   UNL     1      23.352  36.640  10.413  1.00  0.00    -0.247 OA
BRANCH   3   5
ATOM      5  O   UNL     1      22.864  35.021   8.924  1.00  0.00    -0.478 OA
ATOM      6  H   UNL     1      22.928  34.038   9.169  1.00  0.00     0.297 HD
ENDBRANCH   3   5
ENDBRANCH   1   3
BRANCH   2   7
ATOM      7  C   UNL     1      27.279  34.881   8.583  1.00  0.00    -0.023 A 
ATOM      8  C   UNL     1      27.687  35.503   7.418  1.00  0.00     0.008 A 
ATOM      9  C   UNL     1      28.209  34.194   9.347  1.00  0.00     0.033 A 
ATOM     10  C   UNL     1      29.000  35.454   6.997  1.00  0.00     0.003 A 
ATOM     11  C   UNL     1      29.519  34.133   8.949  1.00  0.00     0.032 A 
ATOM     12  C   UNL     1      29.892  34.763   7.781  1.00  0.00     0.025 A 
BRANCH  11  13
ATOM     13  N   UNL     1      30.441  33.419   9.761  1.00  0.00    -0.399 N 
ATOM     14  H   UNL     1      30.160  32.506  10.133  1.00  0.00     0.156 HD
ATOM     15  H   UNL     1      31.371  33.882   9.931  1.00  0.00     0.156 HD
ENDBRANCH  11  13
ENDBRANCH   2   7
TORSDOF 4
BEGIN_RES LYS A 135
REMARK  4 active torsions:
REMARK  status: ('A' for Active; 'I' for Inactive)
REMARK    1  A    between atoms: CA   and  CB  
REMARK    2  A    between atoms: CB   and  CG  
REMARK    3  A    between atoms: CG   and  CD  
REMARK    4  A    between atoms: CD   and  CE  
ROOT
ATOM      1  CA  LYS A 135      33.193  34.663   9.290  1.00 25.02     0.186 C 
ENDROOT
BRANCH   1   2
ATOM      2  CB  LYS A 135      32.060  35.360  10.034  1.00 26.63     0.034 C 
BRANCH   2   3
ATOM      3  CG  LYS A 135      32.501  36.036  11.307  1.00 29.45     0.005 C 
BRANCH   3   4
ATOM      4  CD  LYS A 135      31.901  37.429  11.410  1.00 32.00     0.041 C 
BRANCH   4   5
ATOM      5  CE  LYS A 135      31.465  37.717  12.834  1.00 34.25     0.338 C 
ATOM      6  NZ  LYS A 135      32.011  36.703  13.778  1.00 35.99     0.618 N 
ENDBRANCH   4   5
ENDBRANCH   3   4
ENDBRANCH   2   3
ENDBRANCH   1   2
END_RES LYS A 135
BEGIN_RES ARG A 124
REMARK  4 active torsions:
REMARK  status: ('A' for Active; 'I' for Inactive)
REMARK    5  A    between atoms: CA   and  CB  
REMARK    6  A    between atoms: CB   and  CG  
REMARK    7  A    between atoms: CG   and  CD  
REMARK    8  A    between atoms: CD   and  NE  
REMARK       I    between atoms: NE   and  CZ  
ROOT
ATOM      7  CA  ARG A 124      31.045  26.515   9.594  1.00 17.84     0.186 C 
ENDROOT
BRANCH   7   8
ATOM      8  CB  ARG A 124      29.529  26.705   9.647  1.00 16.18     0.036 C 
BRANCH   8   9
ATOM      9  CG  ARG A 124      28.912  26.840  11.085  1.00 16.22     0.029 C 
BRANCH   9  10
ATOM     10  CD  ARG A 124      27.557  26.109  11.227  1.00 15.09     0.145 C 
BRANCH  10  11
ATOM     11  NE  ARG A 124      26.407  27.017  11.434  1.00 16.98    -0.083 NA
ATOM     12  CZ  ARG A 124      26.002  27.474  12.613  1.00 18.21     0.782 C 
ATOM     13  NH1 ARG A 124      26.634  27.147  13.734  1.00 21.11     0.063 N 
ATOM     14  NH2 ARG A 124      24.964  28.293  12.684  1.00 21.25     0.063 N 
ENDBRANCH  10  11
ENDBRANCH   9  10
ENDBRANCH   8   9
ENDBRANCH   7   8
END_RES ARG A 124
BEGIN_RES ASN A 133
REMARK  2 active torsions:
REMARK  status: ('A' for Active; 'I' for Inactive)
REMARK    9  A    between atoms: CA   and  CB  
REMARK   10  A    between atoms: CB   and  CG  
ROOT
ATOM     15  CA  ASN A 133      31.225  30.257  11.749  1.00 18.15     0.196 C 
ENDROOT
BRANCH  15  16
ATOM     16  CB  ASN A 133      30.092  31.240  11.460  1.00 18.27     0.126 C 
BRANCH  16  17
ATOM     17  CG  ASN A 133      28.743  30.592  11.416  1.00 18.94     0.276 C 
ATOM     18  OD1 ASN A 133      28.405  29.887  10.463  1.00 18.09    -0.269 OA
ATOM     19  ND2 ASN A 133      27.948  30.827  12.459  1.00 18.93    -0.107 N 
ENDBRANCH  16  17
ENDBRANCH  15  16
END_RES ASN A 133
BEGIN_RES LYS A 131
REMARK  4 active torsions:
REMARK  status: ('A' for Active; 'I' for Inactive)
REMARK   11  A    between atoms: CA   and  CB  
REMARK   12  A    between atoms: CB   and  CG  
REMARK   13  A    between atoms: CG   and  CD  
REMARK   14  A    between atoms: CD   and  CE  
ROOT
ATOM     20  CA  LYS A 131      29.867  25.555  16.977  1.00 20.52     0.186 C 
ENDROOT
BRANCH  20  21
ATOM     21  CB  LYS A 131      28.345  25.722  17.026  1.00 20.94     0.034 C 
BRANCH  21  22
ATOM     22  CG  LYS A 131      27.600  24.416  16.799  1.00 22.96     0.005 C 
BRANCH  22  23
ATOM     23  CD  LYS A 131      26.694  24.073  17.949  1.00 24.33     0.041 C 
BRANCH  23  24
ATOM     24  CE  LYS A 131      25.240  24.182  17.502  1.00 26.91     0.338 C 
ATOM     25  NZ  LYS A 131      24.632  22.836  17.381  1.00 27.40     0.618 N 
ENDBRANCH  23  24
ENDBRANCH  22  23
ENDBRANCH  21  22
ENDBRANCH  20  21
END_RES LYS A 131
