REMARK VINA RESULT:    -3.525      1.416      2.042
REMARK INTER + INTRA:          -8.975
REMARK INTER:                  -5.081
REMARK INTRA:                  -3.894
REMARK UNBOUND:                -5.347
REMARK SMILES NC12CC3CC(CC(C3)C1)C2
REMARK SMILES IDX 2 1 11 2 6 3 5 4 4 5 9 6 8 7 7 8 10 9 3 10 1 11
REMARK H PARENT 1 12 1 13
REMARK Flexibility Score: inf
ROOT
ATOM      1  C   UNL     1      28.200  36.742   9.537  1.00  0.00     0.016 C 
ATOM      2  C   UNL     1      27.266  36.931   8.336  1.00  0.00     0.025 C 
ATOM      3  C   UNL     1      27.356  35.747   7.423  1.00  0.00    -0.009 C 
ATOM      4  C   UNL     1      26.825  34.542   8.182  1.00  0.00     0.007 C 
ATOM      5  C   UNL     1      27.678  34.346   9.401  1.00  0.00    -0.009 C 
ATOM      6  C   UNL     1      29.105  34.074   8.955  1.00  0.00     0.007 C 
ATOM      7  C   UNL     1      29.632  35.245   8.195  1.00  0.00    -0.009 C 
ATOM      8  C   UNL     1      28.738  35.425   6.965  1.00  0.00     0.007 C 
ATOM      9  C   UNL     1      29.580  36.541   8.949  1.00  0.00     0.025 C 
ATOM     10  C   UNL     1      27.714  35.544  10.305  1.00  0.00     0.025 C 
ENDROOT
BRANCH   1  11
ATOM     11  N   UNL     1      28.136  37.880  10.409  1.00  0.00    -0.325 NA
ATOM     12  H   UNL     1      29.031  38.399  10.452  1.00  0.00     0.119 HD
ATOM     13  H   UNL     1      27.663  37.727  11.302  1.00  0.00     0.119 HD
ENDBRANCH   1  11
TORSDOF 1
BEGIN_RES LYS A 135
REMARK  4 active torsions:
REMARK  status: ('A' for Active; 'I' for Inactive)
REMARK    1  A    between atoms: CA   and  CB  
REMARK    2  A    between atoms: CB   and  CG  
REMARK    3  A    between atoms: CG   and  CD  
REMARK    4  A    between atoms: CD   and  CE  
ROOT
ATOM      1  CA  LYS A 135      33.193  34.663   9.290  1.00 25.02     0.186 C 
ENDROOT
BRANCH   1   2
ATOM      2  CB  LYS A 135      32.060  35.360  10.034  1.00 26.63     0.034 C 
BRANCH   2   3
ATOM      3  CG  LYS A 135      32.531  36.231  11.170  1.00 29.45     0.005 C 
BRANCH   3   4
ATOM      4  CD  LYS A 135      32.061  35.674  12.504  1.00 32.00     0.041 C 
BRANCH   4   5
ATOM      5  CE  LYS A 135      30.749  34.932  12.339  1.00 34.25     0.338 C 
ATOM      6  NZ  LYS A 135      29.730  35.423  13.308  1.00 35.99     0.618 N 
ENDBRANCH   4   5
ENDBRANCH   3   4
ENDBRANCH   2   3
ENDBRANCH   1   2
END_RES LYS A 135
BEGIN_RES ARG A 124
REMARK  4 active torsions:
REMARK  status: ('A' for Active; 'I' for Inactive)
REMARK    5  A    between atoms: CA   and  CB  
REMARK    6  A    between atoms: CB   and  CG  
REMARK    7  A    between atoms: CG   and  CD  
REMARK    8  A    between atoms: CD   and  NE  
REMARK       I    between atoms: NE   and  CZ  
ROOT
ATOM      7  CA  ARG A 124      31.045  26.515   9.594  1.00 17.84     0.186 C 
ENDROOT
BRANCH   7   8
ATOM      8  CB  ARG A 124      29.529  26.705   9.647  1.00 16.18     0.036 C 
BRANCH   8   9
ATOM      9  CG  ARG A 124      29.014  27.768  10.682  1.00 16.22     0.029 C 
BRANCH   9  10
ATOM     10  CD  ARG A 124      28.219  27.135  11.847  1.00 15.09     0.145 C 
BRANCH  10  11
ATOM     11  NE  ARG A 124      26.770  27.429  11.812  1.00 16.98    -0.083 NA
ATOM     12  CZ  ARG A 124      25.988  27.527  12.881  1.00 18.21     0.782 C 
ATOM     13  NH1 ARG A 124      26.474  27.375  14.107  1.00 21.11     0.063 N 
ATOM     14  NH2 ARG A 124      24.701  27.806  12.736  1.00 21.25     0.063 N 
ENDBRANCH  10  11
ENDBRANCH   9  10
ENDBRANCH   8   9
ENDBRANCH   7   8
END_RES ARG A 124
BEGIN_RES ASN A 133
REMARK  2 active torsions:
REMARK  status: ('A' for Active; 'I' for Inactive)
REMARK    9  A    between atoms: CA   and  CB  
REMARK   10  A    between atoms: CB   and  CG  
ROOT
ATOM     15  CA  ASN A 133      31.225  30.257  11.749  1.00 18.15     0.196 C 
ENDROOT
BRANCH  15  16
ATOM     16  CB  ASN A 133      30.092  31.240  11.460  1.00 18.27     0.126 C 
BRANCH  16  17
ATOM     17  CG  ASN A 133      29.103  31.348  12.579  1.00 18.94     0.276 C 
ATOM     18  OD1 ASN A 133      29.366  31.980  13.604  1.00 18.09    -0.269 OA
ATOM     19  ND2 ASN A 133      27.941  30.723  12.392  1.00 18.93    -0.107 N 
ENDBRANCH  16  17
ENDBRANCH  15  16
END_RES ASN A 133
BEGIN_RES LYS A 131
REMARK  4 active torsions:
REMARK  status: ('A' for Active; 'I' for Inactive)
REMARK   11  A    between atoms: CA   and  CB  
REMARK   12  A    between atoms: CB   and  CG  
REMARK   13  A    between atoms: CG   and  CD  
REMARK   14  A    between atoms: CD   and  CE  
ROOT
ATOM     20  CA  LYS A 131      29.867  25.555  16.977  1.00 20.52     0.186 C 
ENDROOT
BRANCH  20  21
ATOM     21  CB  LYS A 131      28.345  25.722  17.026  1.00 20.94     0.034 C 
BRANCH  21  22
ATOM     22  CG  LYS A 131      27.600  24.412  16.820  1.00 22.96     0.005 C 
BRANCH  22  23
ATOM     23  CD  LYS A 131      26.199  24.466  17.363  1.00 24.33     0.041 C 
BRANCH  23  24
ATOM     24  CE  LYS A 131      26.197  25.212  18.694  1.00 26.91     0.338 C 
ATOM     25  NZ  LYS A 131      25.093  26.200  18.733  1.00 27.40     0.618 N 
ENDBRANCH  23  24
ENDBRANCH  22  23
ENDBRANCH  21  22
ENDBRANCH  20  21
END_RES LYS A 131
