REMARK VINA RESULT:    -4.440      5.130     12.739
REMARK INTER + INTRA:         -10.160
REMARK INTER:                  -4.181
REMARK INTRA:                  -5.979
REMARK UNBOUND:                -4.812
REMARK SMILES CC(=O)Oc1ccccc1CN
REMARK SMILES IDX 5 1 6 2 7 3 8 4 9 5 10 6 4 7 2 8 1 9 3 10 11 11 12 12
REMARK H PARENT 12 13 12 14
REMARK Flexibility Score: inf
ROOT
ATOM      1  C   UNL     1      25.184  17.819  16.226  1.00  0.00     0.135 A 
ATOM      2  C   UNL     1      25.051  17.991  17.590  1.00  0.00     0.047 A 
ATOM      3  C   UNL     1      24.178  18.950  18.033  1.00  0.00     0.004 A 
ATOM      4  C   UNL     1      23.430  19.746  17.180  1.00  0.00     0.001 A 
ATOM      5  C   UNL     1      23.587  19.547  15.823  1.00  0.00     0.009 A 
ATOM      6  C   UNL     1      24.454  18.593  15.332  1.00  0.00     0.008 A 
ENDROOT
BRANCH   1   7
ATOM      7  O   UNL     1      26.037  16.879  15.670  1.00  0.00    -0.426 OA
BRANCH   7   8
ATOM      8  C   UNL     1      27.394  16.943  15.952  1.00  0.00     0.308 C 
ATOM      9  C   UNL     1      28.103  15.864  16.717  1.00  0.00     0.139 C 
ATOM     10  O   UNL     1      28.021  17.949  15.541  1.00  0.00    -0.252 OA
ENDBRANCH   7   8
ENDBRANCH   1   7
BRANCH   6  11
ATOM     11  C   UNL     1      24.581  18.425  13.867  1.00  0.00     0.117 C 
BRANCH  11  12
ATOM     12  N   UNL     1      25.811  19.012  13.398  1.00  0.00    -0.326 NA
ATOM     13  H   UNL     1      26.291  19.576  14.126  1.00  0.00     0.119 HD
ATOM     14  H   UNL     1      26.474  18.293  13.069  1.00  0.00     0.119 HD
ENDBRANCH  11  12
ENDBRANCH   6  11
TORSDOF 4
BEGIN_RES LYS A 135
REMARK  4 active torsions:
REMARK  status: ('A' for Active; 'I' for Inactive)
REMARK    1  A    between atoms: CA   and  CB  
REMARK    2  A    between atoms: CB   and  CG  
REMARK    3  A    between atoms: CG   and  CD  
REMARK    4  A    between atoms: CD   and  CE  
ROOT
ATOM      1  CA  LYS A 135      33.193  34.663   9.290  1.00 25.02     0.186 C 
ENDROOT
BRANCH   1   2
ATOM      2  CB  LYS A 135      32.060  35.360  10.034  1.00 26.63     0.034 C 
BRANCH   2   3
ATOM      3  CG  LYS A 135      30.696  34.806   9.711  1.00 29.45     0.005 C 
BRANCH   3   4
ATOM      4  CD  LYS A 135      30.572  34.521   8.222  1.00 32.00     0.041 C 
BRANCH   4   5
ATOM      5  CE  LYS A 135      29.244  35.028   7.692  1.00 34.25     0.338 C 
ATOM      6  NZ  LYS A 135      28.673  36.072   8.587  1.00 35.99     0.618 N 
ENDBRANCH   4   5
ENDBRANCH   3   4
ENDBRANCH   2   3
ENDBRANCH   1   2
END_RES LYS A 135
BEGIN_RES ARG A 124
REMARK  4 active torsions:
REMARK  status: ('A' for Active; 'I' for Inactive)
REMARK    5  A    between atoms: CA   and  CB  
REMARK    6  A    between atoms: CB   and  CG  
REMARK    7  A    between atoms: CG   and  CD  
REMARK    8  A    between atoms: CD   and  NE  
REMARK       I    between atoms: NE   and  CZ  
ROOT
ATOM      7  CA  ARG A 124      31.045  26.515   9.594  1.00 17.84     0.186 C 
ENDROOT
BRANCH   7   8
ATOM      8  CB  ARG A 124      29.529  26.705   9.647  1.00 16.18     0.036 C 
BRANCH   8   9
ATOM      9  CG  ARG A 124      28.967  27.307  10.984  1.00 16.22     0.029 C 
BRANCH   9  10
ATOM     10  CD  ARG A 124      28.397  26.229  11.935  1.00 15.09     0.145 C 
BRANCH  10  11
ATOM     11  NE  ARG A 124      27.936  26.761  13.236  1.00 16.98    -0.083 NA
ATOM     12  CZ  ARG A 124      26.718  27.233  13.475  1.00 18.21     0.782 C 
ATOM     13  NH1 ARG A 124      25.786  27.250  12.530  1.00 21.11     0.063 N 
ATOM     14  NH2 ARG A 124      26.407  27.677  14.683  1.00 21.25     0.063 N 
ENDBRANCH  10  11
ENDBRANCH   9  10
ENDBRANCH   8   9
ENDBRANCH   7   8
END_RES ARG A 124
BEGIN_RES ASN A 133
REMARK  2 active torsions:
REMARK  status: ('A' for Active; 'I' for Inactive)
REMARK    9  A    between atoms: CA   and  CB  
REMARK   10  A    between atoms: CB   and  CG  
ROOT
ATOM     15  CA  ASN A 133      31.225  30.257  11.749  1.00 18.15     0.196 C 
ENDROOT
BRANCH  15  16
ATOM     16  CB  ASN A 133      30.092  31.240  11.460  1.00 18.27     0.126 C 
BRANCH  16  17
ATOM     17  CG  ASN A 133      28.812  30.888  12.153  1.00 18.94     0.276 C 
ATOM     18  OD1 ASN A 133      28.034  30.061  11.674  1.00 18.09    -0.269 OA
ATOM     19  ND2 ASN A 133      28.578  31.522  13.301  1.00 18.93    -0.107 N 
ENDBRANCH  16  17
ENDBRANCH  15  16
END_RES ASN A 133
BEGIN_RES LYS A 131
REMARK  4 active torsions:
REMARK  status: ('A' for Active; 'I' for Inactive)
REMARK   11  A    between atoms: CA   and  CB  
REMARK   12  A    between atoms: CB   and  CG  
REMARK   13  A    between atoms: CG   and  CD  
REMARK   14  A    between atoms: CD   and  CE  
ROOT
ATOM     20  CA  LYS A 131      29.867  25.555  16.977  1.00 20.52     0.186 C 
ENDROOT
BRANCH  20  21
ATOM     21  CB  LYS A 131      28.345  25.722  17.026  1.00 20.94     0.034 C 
BRANCH  21  22
ATOM     22  CG  LYS A 131      27.599  24.419  16.783  1.00 22.96     0.005 C 
BRANCH  22  23
ATOM     23  CD  LYS A 131      26.457  24.232  17.743  1.00 24.33     0.041 C 
BRANCH  23  24
ATOM     24  CE  LYS A 131      25.496  25.411  17.626  1.00 26.91     0.338 C 
ATOM     25  NZ  LYS A 131      24.415  25.105  16.661  1.00 27.40     0.618 N 
ENDBRANCH  23  24
ENDBRANCH  22  23
ENDBRANCH  21  22
ENDBRANCH  20  21
END_RES LYS A 131
