REMARK VINA RESULT:    -4.160      7.682     10.547
REMARK INTER + INTRA:          -9.448
REMARK INTER:                  -3.617
REMARK INTRA:                  -5.831
REMARK UNBOUND:                -5.166
REMARK SMILES Nc1ccc2c(c1)OCO2
REMARK SMILES IDX 2 1 3 2 4 3 5 4 6 5 7 6 8 7 9 8 10 9 1 10
REMARK H PARENT 1 11 1 12
REMARK Flexibility Score: inf
ROOT
ATOM      1  C   UNL     1      36.276  21.984  22.533  1.00  0.00     0.035 A 
ATOM      2  C   UNL     1      36.239  21.497  21.243  1.00  0.00     0.029 A 
ATOM      3  C   UNL     1      35.667  20.284  20.928  1.00  0.00     0.053 A 
ATOM      4  C   UNL     1      35.105  19.508  21.919  1.00  0.00     0.165 A 
ATOM      5  C   UNL     1      35.126  19.966  23.217  1.00  0.00     0.167 A 
ATOM      6  C   UNL     1      35.709  21.196  23.514  1.00  0.00     0.076 A 
ATOM      7  O   UNL     1      34.504  19.010  24.012  1.00  0.00    -0.454 OA
ATOM      8  C   UNL     1      34.336  17.818  23.287  1.00  0.00     0.468 C 
ATOM      9  O   UNL     1      34.466  18.275  21.956  1.00  0.00    -0.454 OA
ENDROOT
BRANCH   1  10
ATOM     10  N   UNL     1      36.864  23.235  22.868  1.00  0.00    -0.399 N 
ATOM     11  H   UNL     1      36.464  24.162  22.619  1.00  0.00     0.156 HD
ATOM     12  H   UNL     1      37.760  23.237  23.401  1.00  0.00     0.156 HD
ENDBRANCH   1  10
TORSDOF 1
BEGIN_RES LYS A 135
REMARK  4 active torsions:
REMARK  status: ('A' for Active; 'I' for Inactive)
REMARK    1  A    between atoms: CA   and  CB  
REMARK    2  A    between atoms: CB   and  CG  
REMARK    3  A    between atoms: CG   and  CD  
REMARK    4  A    between atoms: CD   and  CE  
ROOT
ATOM      1  CA  LYS A 135      33.193  34.663   9.290  1.00 25.02     0.186 C 
ENDROOT
BRANCH   1   2
ATOM      2  CB  LYS A 135      32.060  35.360  10.034  1.00 26.63     0.034 C 
BRANCH   2   3
ATOM      3  CG  LYS A 135      30.709  34.736   9.796  1.00 29.45     0.005 C 
BRANCH   3   4
ATOM      4  CD  LYS A 135      30.471  34.524   8.309  1.00 32.00     0.041 C 
BRANCH   4   5
ATOM      5  CE  LYS A 135      29.024  34.810   7.955  1.00 34.25     0.338 C 
ATOM      6  NZ  LYS A 135      28.921  35.532   6.657  1.00 35.99     0.618 N 
ENDBRANCH   4   5
ENDBRANCH   3   4
ENDBRANCH   2   3
ENDBRANCH   1   2
END_RES LYS A 135
BEGIN_RES ARG A 124
REMARK  4 active torsions:
REMARK  status: ('A' for Active; 'I' for Inactive)
REMARK    5  A    between atoms: CA   and  CB  
REMARK    6  A    between atoms: CB   and  CG  
REMARK    7  A    between atoms: CG   and  CD  
REMARK    8  A    between atoms: CD   and  NE  
REMARK       I    between atoms: NE   and  CZ  
ROOT
ATOM      7  CA  ARG A 124      31.045  26.515   9.594  1.00 17.84     0.186 C 
ENDROOT
BRANCH   7   8
ATOM      8  CB  ARG A 124      29.529  26.705   9.647  1.00 16.18     0.036 C 
BRANCH   8   9
ATOM      9  CG  ARG A 124      28.899  26.741  11.085  1.00 16.22     0.029 C 
BRANCH   9  10
ATOM     10  CD  ARG A 124      27.512  26.061  11.150  1.00 15.09     0.145 C 
BRANCH  10  11
ATOM     11  NE  ARG A 124      26.396  27.002  11.388  1.00 16.98    -0.083 NA
ATOM     12  CZ  ARG A 124      26.037  27.470  12.579  1.00 18.21     0.782 C 
ATOM     13  NH1 ARG A 124      26.690  27.122  13.682  1.00 21.11     0.063 N 
ATOM     14  NH2 ARG A 124      25.026  28.319  12.679  1.00 21.25     0.063 N 
ENDBRANCH  10  11
ENDBRANCH   9  10
ENDBRANCH   8   9
ENDBRANCH   7   8
END_RES ARG A 124
BEGIN_RES ASN A 133
REMARK  2 active torsions:
REMARK  status: ('A' for Active; 'I' for Inactive)
REMARK    9  A    between atoms: CA   and  CB  
REMARK   10  A    between atoms: CB   and  CG  
ROOT
ATOM     15  CA  ASN A 133      31.225  30.257  11.749  1.00 18.15     0.196 C 
ENDROOT
BRANCH  15  16
ATOM     16  CB  ASN A 133      30.092  31.240  11.460  1.00 18.27     0.126 C 
BRANCH  16  17
ATOM     17  CG  ASN A 133      28.733  30.619  11.550  1.00 18.94     0.276 C 
ATOM     18  OD1 ASN A 133      28.348  29.800  10.713  1.00 18.09    -0.269 OA
ATOM     19  ND2 ASN A 133      27.981  31.009  12.579  1.00 18.93    -0.107 N 
ENDBRANCH  16  17
ENDBRANCH  15  16
END_RES ASN A 133
BEGIN_RES LYS A 131
REMARK  4 active torsions:
REMARK  status: ('A' for Active; 'I' for Inactive)
REMARK   11  A    between atoms: CA   and  CB  
REMARK   12  A    between atoms: CB   and  CG  
REMARK   13  A    between atoms: CG   and  CD  
REMARK   14  A    between atoms: CD   and  CE  
ROOT
ATOM     20  CA  LYS A 131      29.867  25.555  16.977  1.00 20.52     0.186 C 
ENDROOT
BRANCH  20  21
ATOM     21  CB  LYS A 131      28.345  25.722  17.026  1.00 20.94     0.034 C 
BRANCH  21  22
ATOM     22  CG  LYS A 131      27.600  24.415  16.802  1.00 22.96     0.005 C 
BRANCH  22  23
ATOM     23  CD  LYS A 131      26.765  24.028  17.991  1.00 24.33     0.041 C 
BRANCH  23  24
ATOM     24  CE  LYS A 131      25.326  23.788  17.545  1.00 26.91     0.338 C 
ATOM     25  NZ  LYS A 131      25.020  22.338  17.539  1.00 27.40     0.618 N 
ENDBRANCH  23  24
ENDBRANCH  22  23
ENDBRANCH  21  22
ENDBRANCH  20  21
END_RES LYS A 131
