REMARK VINA RESULT:    -4.233      2.608      4.033
REMARK INTER + INTRA:         -10.453
REMARK INTER:                  -4.221
REMARK INTRA:                  -6.233
REMARK UNBOUND:                -5.849
REMARK SMILES CN(C)C(=O)c1ccc(Cl)cc1N
REMARK SMILES IDX 6 1 7 2 8 3 9 4 10 5 11 6 12 7 4 8 1 9 2 10 3 11 5 12 13 13
REMARK H PARENT 13 14 13 15
REMARK Flexibility Score: inf
ROOT
ATOM      1  C   UNL     1      31.735  33.689  15.527  1.00  0.00     0.063 A 
ATOM      2  C   UNL     1      31.242  32.427  15.367  1.00  0.00     0.017 A 
ATOM      3  C   UNL     1      30.692  31.653  16.408  1.00  0.00     0.021 A 
ATOM      4  C   UNL     1      30.651  32.204  17.654  1.00  0.00     0.043 A 
ATOM      5  Cl  UNL     1      29.968  31.262  18.975  1.00  0.00    -0.084 Cl
ATOM      6  C   UNL     1      31.135  33.477  17.868  1.00  0.00     0.046 A 
ATOM      7  C   UNL     1      31.660  34.201  16.853  1.00  0.00     0.046 A 
ENDROOT
BRANCH   1   8
ATOM      8  C   UNL     1      32.303  34.511  14.498  1.00  0.00     0.255 C 
ATOM      9  C   UNL     1      30.318  35.085  13.056  1.00  0.00     0.146 C 
ATOM     10  N   UNL     1      31.703  35.125  13.421  1.00  0.00    -0.345 N 
ATOM     11  C   UNL     1      32.598  35.931  12.520  1.00  0.00     0.146 C 
ATOM     12  O   UNL     1      33.586  34.721  14.583  1.00  0.00    -0.269 OA
ENDBRANCH   1   8
BRANCH   7  13
ATOM     13  N   UNL     1      32.151  35.504  17.100  1.00  0.00    -0.398 N 
ATOM     14  H   UNL     1      31.850  35.990  17.975  1.00  0.00     0.156 HD
ATOM     15  H   UNL     1      32.804  36.018  16.456  1.00  0.00     0.156 HD
ENDBRANCH   7  13
TORSDOF 2
BEGIN_RES LYS A 135
REMARK  4 active torsions:
REMARK  status: ('A' for Active; 'I' for Inactive)
REMARK    1  A    between atoms: CA   and  CB  
REMARK    2  A    between atoms: CB   and  CG  
REMARK    3  A    between atoms: CG   and  CD  
REMARK    4  A    between atoms: CD   and  CE  
ROOT
ATOM      1  CA  LYS A 135      33.193  34.663   9.290  1.00 25.02     0.186 C 
ENDROOT
BRANCH   1   2
ATOM      2  CB  LYS A 135      32.060  35.360  10.034  1.00 26.63     0.034 C 
BRANCH   2   3
ATOM      3  CG  LYS A 135      30.800  35.500   9.219  1.00 29.45     0.005 C 
BRANCH   3   4
ATOM      4  CD  LYS A 135      30.161  34.140   8.982  1.00 32.00     0.041 C 
BRANCH   4   5
ATOM      5  CE  LYS A 135      28.686  34.293   8.662  1.00 34.25     0.338 C 
ATOM      6  NZ  LYS A 135      27.842  33.633   9.696  1.00 35.99     0.618 N 
ENDBRANCH   4   5
ENDBRANCH   3   4
ENDBRANCH   2   3
ENDBRANCH   1   2
END_RES LYS A 135
BEGIN_RES ARG A 124
REMARK  4 active torsions:
REMARK  status: ('A' for Active; 'I' for Inactive)
REMARK    5  A    between atoms: CA   and  CB  
REMARK    6  A    between atoms: CB   and  CG  
REMARK    7  A    between atoms: CG   and  CD  
REMARK    8  A    between atoms: CD   and  NE  
REMARK       I    between atoms: NE   and  CZ  
ROOT
ATOM      7  CA  ARG A 124      31.045  26.515   9.594  1.00 17.84     0.186 C 
ENDROOT
BRANCH   7   8
ATOM      8  CB  ARG A 124      29.529  26.705   9.647  1.00 16.18     0.036 C 
BRANCH   8   9
ATOM      9  CG  ARG A 124      28.900  26.748  11.086  1.00 16.22     0.029 C 
BRANCH   9  10
ATOM     10  CD  ARG A 124      27.507  26.081  11.151  1.00 15.09     0.145 C 
BRANCH  10  11
ATOM     11  NE  ARG A 124      26.401  27.030  11.403  1.00 16.98    -0.083 NA
ATOM     12  CZ  ARG A 124      26.058  27.497  12.599  1.00 18.21     0.782 C 
ATOM     13  NH1 ARG A 124      26.718  27.141  13.694  1.00 21.11     0.063 N 
ATOM     14  NH2 ARG A 124      25.055  28.355  12.711  1.00 21.25     0.063 N 
ENDBRANCH  10  11
ENDBRANCH   9  10
ENDBRANCH   8   9
ENDBRANCH   7   8
END_RES ARG A 124
BEGIN_RES ASN A 133
REMARK  2 active torsions:
REMARK  status: ('A' for Active; 'I' for Inactive)
REMARK    9  A    between atoms: CA   and  CB  
REMARK   10  A    between atoms: CB   and  CG  
ROOT
ATOM     15  CA  ASN A 133      31.225  30.257  11.749  1.00 18.15     0.196 C 
ENDROOT
BRANCH  15  16
ATOM     16  CB  ASN A 133      30.092  31.240  11.460  1.00 18.27     0.126 C 
BRANCH  16  17
ATOM     17  CG  ASN A 133      28.734  30.611  11.515  1.00 18.94     0.276 C 
ATOM     18  OD1 ASN A 133      28.368  29.807  10.655  1.00 18.09    -0.269 OA
ATOM     19  ND2 ASN A 133      27.964  30.976  12.538  1.00 18.93    -0.107 N 
ENDBRANCH  16  17
ENDBRANCH  15  16
END_RES ASN A 133
BEGIN_RES LYS A 131
REMARK  4 active torsions:
REMARK  status: ('A' for Active; 'I' for Inactive)
REMARK   11  A    between atoms: CA   and  CB  
REMARK   12  A    between atoms: CB   and  CG  
REMARK   13  A    between atoms: CG   and  CD  
REMARK   14  A    between atoms: CD   and  CE  
ROOT
ATOM     20  CA  LYS A 131      29.867  25.555  16.977  1.00 20.52     0.186 C 
ENDROOT
BRANCH  20  21
ATOM     21  CB  LYS A 131      28.345  25.722  17.026  1.00 20.94     0.034 C 
BRANCH  21  22
ATOM     22  CG  LYS A 131      27.599  24.420  16.777  1.00 22.96     0.005 C 
BRANCH  22  23
ATOM     23  CD  LYS A 131      26.791  23.993  17.971  1.00 24.33     0.041 C 
BRANCH  23  24
ATOM     24  CE  LYS A 131      25.358  23.700  17.537  1.00 26.91     0.338 C 
ATOM     25  NZ  LYS A 131      25.080  22.247  17.611  1.00 27.40     0.618 N 
ENDBRANCH  23  24
ENDBRANCH  22  23
ENDBRANCH  21  22
ENDBRANCH  20  21
END_RES LYS A 131
