REMARK VINA RESULT:    -2.504      5.349      7.289
REMARK INTER + INTRA:          -8.607
REMARK INTER:                  -2.797
REMARK INTRA:                  -5.810
REMARK UNBOUND:                -5.810
REMARK SMILES Nc1ccc(CO)cn1
REMARK SMILES IDX 2 1 3 2 4 3 5 4 8 5 9 6 1 7 6 10 7 11
REMARK H PARENT 1 8 1 9 7 12
REMARK Flexibility Score: inf
ROOT
ATOM      1  C   UNL     1      34.025  29.334  22.647  1.00  0.00     0.123 A 
ATOM      2  C   UNL     1      33.226  29.670  21.568  1.00  0.00     0.047 A 
ATOM      3  C   UNL     1      32.191  28.869  21.182  1.00  0.00     0.011 A 
ATOM      4  C   UNL     1      31.930  27.708  21.870  1.00  0.00    -0.004 A 
ATOM      5  C   UNL     1      32.739  27.393  22.942  1.00  0.00     0.119 A 
ATOM      6  N   UNL     1      33.751  28.205  23.297  1.00  0.00    -0.239 NA
ENDROOT
BRANCH   1   7
ATOM      7  N   UNL     1      35.098  30.190  23.026  1.00  0.00    -0.384 N 
ATOM      8  H   UNL     1      36.063  29.972  22.694  1.00  0.00     0.158 HD
ATOM      9  H   UNL     1      34.882  31.002  23.618  1.00  0.00     0.158 HD
ENDBRANCH   1   7
BRANCH   4  10
ATOM     10  C   UNL     1      30.802  26.859  21.430  1.00  0.00     0.193 C 
BRANCH  10  11
ATOM     11  O   UNL     1      30.282  27.371  20.247  1.00  0.00    -0.392 OA
ATOM     12  H   UNL     1      29.479  26.825  20.007  1.00  0.00     0.211 HD
ENDBRANCH  10  11
ENDBRANCH   4  10
TORSDOF 3
BEGIN_RES LYS A 135
REMARK  4 active torsions:
REMARK  status: ('A' for Active; 'I' for Inactive)
REMARK    1  A    between atoms: CA   and  CB  
REMARK    2  A    between atoms: CB   and  CG  
REMARK    3  A    between atoms: CG   and  CD  
REMARK    4  A    between atoms: CD   and  CE  
ROOT
ATOM      1  CA  LYS A 135      33.193  34.663   9.290  1.00 25.02     0.186 C 
ENDROOT
BRANCH   1   2
ATOM      2  CB  LYS A 135      32.060  35.360  10.034  1.00 26.63     0.034 C 
BRANCH   2   3
ATOM      3  CG  LYS A 135      30.706  34.749   9.779  1.00 29.45     0.005 C 
BRANCH   3   4
ATOM      4  CD  LYS A 135      30.476  34.556   8.289  1.00 32.00     0.041 C 
BRANCH   4   5
ATOM      5  CE  LYS A 135      29.025  34.819   7.935  1.00 34.25     0.338 C 
ATOM      6  NZ  LYS A 135      28.911  35.531   6.632  1.00 35.99     0.618 N 
ENDBRANCH   4   5
ENDBRANCH   3   4
ENDBRANCH   2   3
ENDBRANCH   1   2
END_RES LYS A 135
BEGIN_RES ARG A 124
REMARK  4 active torsions:
REMARK  status: ('A' for Active; 'I' for Inactive)
REMARK    5  A    between atoms: CA   and  CB  
REMARK    6  A    between atoms: CB   and  CG  
REMARK    7  A    between atoms: CG   and  CD  
REMARK    8  A    between atoms: CD   and  NE  
REMARK       I    between atoms: NE   and  CZ  
ROOT
ATOM      7  CA  ARG A 124      31.045  26.515   9.594  1.00 17.84     0.186 C 
ENDROOT
BRANCH   7   8
ATOM      8  CB  ARG A 124      29.529  26.705   9.647  1.00 16.18     0.036 C 
BRANCH   8   9
ATOM      9  CG  ARG A 124      28.913  26.853  11.084  1.00 16.22     0.029 C 
BRANCH   9  10
ATOM     10  CD  ARG A 124      27.577  26.093  11.245  1.00 15.09     0.145 C 
BRANCH  10  11
ATOM     11  NE  ARG A 124      26.407  26.976  11.446  1.00 16.98    -0.083 NA
ATOM     12  CZ  ARG A 124      26.008  27.455  12.619  1.00 18.21     0.782 C 
ATOM     13  NH1 ARG A 124      26.665  27.174  13.738  1.00 21.11     0.063 N 
ATOM     14  NH2 ARG A 124      24.950  28.248  12.684  1.00 21.25     0.063 N 
ENDBRANCH  10  11
ENDBRANCH   9  10
ENDBRANCH   8   9
ENDBRANCH   7   8
END_RES ARG A 124
BEGIN_RES ASN A 133
REMARK  2 active torsions:
REMARK  status: ('A' for Active; 'I' for Inactive)
REMARK    9  A    between atoms: CA   and  CB  
REMARK   10  A    between atoms: CB   and  CG  
ROOT
ATOM     15  CA  ASN A 133      31.225  30.257  11.749  1.00 18.15     0.196 C 
ENDROOT
BRANCH  15  16
ATOM     16  CB  ASN A 133      30.092  31.240  11.460  1.00 18.27     0.126 C 
BRANCH  16  17
ATOM     17  CG  ASN A 133      28.733  30.615  11.532  1.00 18.94     0.276 C 
ATOM     18  OD1 ASN A 133      28.331  29.858  10.646  1.00 18.09    -0.269 OA
ATOM     19  ND2 ASN A 133      28.003  30.930  12.601  1.00 18.93    -0.107 N 
ENDBRANCH  16  17
ENDBRANCH  15  16
END_RES ASN A 133
BEGIN_RES LYS A 131
REMARK  4 active torsions:
REMARK  status: ('A' for Active; 'I' for Inactive)
REMARK   11  A    between atoms: CA   and  CB  
REMARK   12  A    between atoms: CB   and  CG  
REMARK   13  A    between atoms: CG   and  CD  
REMARK   14  A    between atoms: CD   and  CE  
ROOT
ATOM     20  CA  LYS A 131      29.867  25.555  16.977  1.00 20.52     0.186 C 
ENDROOT
BRANCH  20  21
ATOM     21  CB  LYS A 131      28.345  25.722  17.026  1.00 20.94     0.034 C 
BRANCH  21  22
ATOM     22  CG  LYS A 131      27.601  24.406  16.859  1.00 22.96     0.005 C 
BRANCH  22  23
ATOM     23  CD  LYS A 131      26.151  24.523  17.241  1.00 24.33     0.041 C 
BRANCH  23  24
ATOM     24  CE  LYS A 131      26.034  24.673  18.755  1.00 26.91     0.338 C 
ATOM     25  NZ  LYS A 131      25.586  23.401  19.369  1.00 27.40     0.618 N 
ENDBRANCH  23  24
ENDBRANCH  22  23
ENDBRANCH  21  22
ENDBRANCH  20  21
END_RES LYS A 131
