REMARK VINA RESULT:    -3.623      5.843     11.714
REMARK INTER + INTRA:          -9.527
REMARK INTER:                  -3.129
REMARK INTRA:                  -6.399
REMARK UNBOUND:                -4.951
REMARK SMILES N[C@@H](CC(=O)O)C(=O)O
REMARK SMILES IDX 3 1 2 2 1 3 7 6 8 7 9 8 4 10 5 11 6 12
REMARK H PARENT 1 4 1 5 9 9 6 13
REMARK Flexibility Score: inf
ROOT
ATOM      1  C   UNL     1      19.502  36.024   9.228  1.00  0.00     0.153 C 
ENDROOT
BRANCH   1   2
ATOM      2  C   UNL     1      20.213  35.783   7.936  1.00  0.00     0.173 C 
BRANCH   2   3
ATOM      3  N   UNL     1      20.021  34.449   7.426  1.00  0.00    -0.318 NA
ATOM      4  H   UNL     1      19.315  33.948   7.997  1.00  0.00     0.119 HD
ATOM      5  H   UNL     1      20.975  33.970   7.520  1.00  0.00     0.119 HD
ENDBRANCH   2   3
BRANCH   2   6
ATOM      6  C   UNL     1      21.666  36.125   8.007  1.00  0.00     0.321 C 
ATOM      7  O   UNL     1      22.401  35.534   8.814  1.00  0.00    -0.251 OA
BRANCH   6   8
ATOM      8  O   UNL     1      22.153  37.116   7.149  1.00  0.00    -0.480 OA
ATOM      9  H   UNL     1      21.602  37.959   7.049  1.00  0.00     0.296 HD
ENDBRANCH   6   8
ENDBRANCH   2   6
ENDBRANCH   1   2
BRANCH   1  10
ATOM     10  C   UNL     1      19.273  34.783   9.998  1.00  0.00     0.305 C 
ATOM     11  O   UNL     1      18.139  34.282  10.049  1.00  0.00    -0.252 OA
BRANCH  10  12
ATOM     12  O   UNL     1      20.323  34.149  10.681  1.00  0.00    -0.481 OA
ATOM     13  H   UNL     1      20.454  34.457  11.649  1.00  0.00     0.296 HD
ENDBRANCH  10  12
ENDBRANCH   1  10
TORSDOF 6
BEGIN_RES LYS A 135
REMARK  4 active torsions:
REMARK  status: ('A' for Active; 'I' for Inactive)
REMARK    1  A    between atoms: CA   and  CB  
REMARK    2  A    between atoms: CB   and  CG  
REMARK    3  A    between atoms: CG   and  CD  
REMARK    4  A    between atoms: CD   and  CE  
ROOT
ATOM      1  CA  LYS A 135      33.193  34.663   9.290  1.00 25.02     0.186 C 
ENDROOT
BRANCH   1   2
ATOM      2  CB  LYS A 135      32.060  35.360  10.034  1.00 26.63     0.034 C 
BRANCH   2   3
ATOM      3  CG  LYS A 135      30.695  34.818   9.698  1.00 29.45     0.005 C 
BRANCH   3   4
ATOM      4  CD  LYS A 135      30.579  34.544   8.206  1.00 32.00     0.041 C 
BRANCH   4   5
ATOM      5  CE  LYS A 135      29.227  34.994   7.686  1.00 34.25     0.338 C 
ATOM      6  NZ  LYS A 135      28.124  34.483   8.546  1.00 35.99     0.618 N 
ENDBRANCH   4   5
ENDBRANCH   3   4
ENDBRANCH   2   3
ENDBRANCH   1   2
END_RES LYS A 135
BEGIN_RES ARG A 124
REMARK  4 active torsions:
REMARK  status: ('A' for Active; 'I' for Inactive)
REMARK    5  A    between atoms: CA   and  CB  
REMARK    6  A    between atoms: CB   and  CG  
REMARK    7  A    between atoms: CG   and  CD  
REMARK    8  A    between atoms: CD   and  NE  
REMARK       I    between atoms: NE   and  CZ  
ROOT
ATOM      7  CA  ARG A 124      31.045  26.515   9.594  1.00 17.84     0.186 C 
ENDROOT
BRANCH   7   8
ATOM      8  CB  ARG A 124      29.529  26.705   9.647  1.00 16.18     0.036 C 
BRANCH   8   9
ATOM      9  CG  ARG A 124      28.916  26.877  11.083  1.00 16.22     0.029 C 
BRANCH   9  10
ATOM     10  CD  ARG A 124      27.633  26.042  11.292  1.00 15.09     0.145 C 
BRANCH  10  11
ATOM     11  NE  ARG A 124      26.406  26.856  11.439  1.00 16.98    -0.083 NA
ATOM     12  CZ  ARG A 124      25.954  27.347  12.588  1.00 18.21     0.782 C 
ATOM     13  NH1 ARG A 124      26.603  27.145  13.728  1.00 21.11     0.063 N 
ATOM     14  NH2 ARG A 124      24.848  28.075  12.605  1.00 21.25     0.063 N 
ENDBRANCH  10  11
ENDBRANCH   9  10
ENDBRANCH   8   9
ENDBRANCH   7   8
END_RES ARG A 124
BEGIN_RES ASN A 133
REMARK  2 active torsions:
REMARK  status: ('A' for Active; 'I' for Inactive)
REMARK    9  A    between atoms: CA   and  CB  
REMARK   10  A    between atoms: CB   and  CG  
ROOT
ATOM     15  CA  ASN A 133      31.225  30.257  11.749  1.00 18.15     0.196 C 
ENDROOT
BRANCH  15  16
ATOM     16  CB  ASN A 133      30.092  31.240  11.460  1.00 18.27     0.126 C 
BRANCH  16  17
ATOM     17  CG  ASN A 133      28.731  30.645  11.646  1.00 18.94     0.276 C 
ATOM     18  OD1 ASN A 133      28.264  29.851  10.827  1.00 18.09    -0.269 OA
ATOM     19  ND2 ASN A 133      28.071  31.028  12.738  1.00 18.93    -0.107 N 
ENDBRANCH  16  17
ENDBRANCH  15  16
END_RES ASN A 133
BEGIN_RES LYS A 131
REMARK  4 active torsions:
REMARK  status: ('A' for Active; 'I' for Inactive)
REMARK   11  A    between atoms: CA   and  CB  
REMARK   12  A    between atoms: CB   and  CG  
REMARK   13  A    between atoms: CG   and  CD  
REMARK   14  A    between atoms: CD   and  CE  
ROOT
ATOM     20  CA  LYS A 131      29.867  25.555  16.977  1.00 20.52     0.186 C 
ENDROOT
BRANCH  20  21
ATOM     21  CB  LYS A 131      28.345  25.722  17.026  1.00 20.94     0.034 C 
BRANCH  21  22
ATOM     22  CG  LYS A 131      27.599  24.425  16.752  1.00 22.96     0.005 C 
BRANCH  22  23
ATOM     23  CD  LYS A 131      26.831  23.949  17.954  1.00 24.33     0.041 C 
BRANCH  23  24
ATOM     24  CE  LYS A 131      25.368  23.745  17.574  1.00 26.91     0.338 C 
ATOM     25  NZ  LYS A 131      25.025  22.303  17.588  1.00 27.40     0.618 N 
ENDBRANCH  23  24
ENDBRANCH  22  23
ENDBRANCH  21  22
ENDBRANCH  20  21
END_RES LYS A 131
