REMARK VINA RESULT:    -2.907      4.608      5.535
REMARK INTER + INTRA:          -8.727
REMARK INTER:                  -3.524
REMARK INTRA:                  -5.203
REMARK UNBOUND:                -5.395
REMARK SMILES N#Cc1cccc(CN)c1
REMARK SMILES IDX 7 1 6 2 5 3 4 4 3 5 10 6 8 7 9 8 2 11 1 12
REMARK H PARENT 9 9 9 10
REMARK Flexibility Score: inf
ROOT
ATOM      1  C   UNL     1      31.342  33.116  16.599  1.00  0.00    -0.033 A 
ATOM      2  C   UNL     1      31.769  34.120  17.445  1.00  0.00     0.005 A 
ATOM      3  C   UNL     1      31.535  34.089  18.808  1.00  0.00     0.002 A 
ATOM      4  C   UNL     1      30.842  33.004  19.336  1.00  0.00     0.019 A 
ATOM      5  C   UNL     1      30.400  31.987  18.532  1.00  0.00     0.052 A 
ATOM      6  C   UNL     1      30.656  32.051  17.160  1.00  0.00     0.024 A 
ENDROOT
BRANCH   1   7
ATOM      7  C   UNL     1      31.607  33.178  15.152  1.00  0.00     0.113 C 
BRANCH   7   8
ATOM      8  N   UNL     1      30.571  32.562  14.353  1.00  0.00    -0.326 NA
ATOM      9  H   UNL     1      30.837  31.545  14.253  1.00  0.00     0.119 HD
ATOM     10  H   UNL     1      30.562  33.032  13.401  1.00  0.00     0.119 HD
ENDBRANCH   7   8
ENDBRANCH   1   7
BRANCH   5  11
ATOM     11  C   UNL     1      29.680  30.848  19.051  1.00  0.00     0.099 C 
ATOM     12  N   UNL     1      29.097  29.953  19.476  1.00  0.00    -0.192 NA
ENDBRANCH   5  11
TORSDOF 3
BEGIN_RES LYS A 135
REMARK  4 active torsions:
REMARK  status: ('A' for Active; 'I' for Inactive)
REMARK    1  A    between atoms: CA   and  CB  
REMARK    2  A    between atoms: CB   and  CG  
REMARK    3  A    between atoms: CG   and  CD  
REMARK    4  A    between atoms: CD   and  CE  
ROOT
ATOM      1  CA  LYS A 135      33.193  34.663   9.290  1.00 25.02     0.186 C 
ENDROOT
BRANCH   1   2
ATOM      2  CB  LYS A 135      32.060  35.360  10.034  1.00 26.63     0.034 C 
BRANCH   2   3
ATOM      3  CG  LYS A 135      30.694  35.050   9.479  1.00 29.45     0.005 C 
BRANCH   3   4
ATOM      4  CD  LYS A 135      30.096  36.276   8.808  1.00 32.00     0.041 C 
BRANCH   4   5
ATOM      5  CE  LYS A 135      30.664  37.545   9.414  1.00 34.25     0.338 C 
ATOM      6  NZ  LYS A 135      31.035  38.525   8.356  1.00 35.99     0.618 N 
ENDBRANCH   4   5
ENDBRANCH   3   4
ENDBRANCH   2   3
ENDBRANCH   1   2
END_RES LYS A 135
BEGIN_RES ARG A 124
REMARK  4 active torsions:
REMARK  status: ('A' for Active; 'I' for Inactive)
REMARK    5  A    between atoms: CA   and  CB  
REMARK    6  A    between atoms: CB   and  CG  
REMARK    7  A    between atoms: CG   and  CD  
REMARK    8  A    between atoms: CD   and  NE  
REMARK       I    between atoms: NE   and  CZ  
ROOT
ATOM      7  CA  ARG A 124      31.045  26.515   9.594  1.00 17.84     0.186 C 
ENDROOT
BRANCH   7   8
ATOM      8  CB  ARG A 124      29.529  26.705   9.647  1.00 16.18     0.036 C 
BRANCH   8   9
ATOM      9  CG  ARG A 124      28.912  26.847  11.085  1.00 16.22     0.029 C 
BRANCH   9  10
ATOM     10  CD  ARG A 124      27.572  26.093  11.239  1.00 15.09     0.145 C 
BRANCH  10  11
ATOM     11  NE  ARG A 124      26.403  26.981  11.422  1.00 16.98    -0.083 NA
ATOM     12  CZ  ARG A 124      25.986  27.457  12.591  1.00 18.21     0.782 C 
ATOM     13  NH1 ARG A 124      26.621  27.168  13.720  1.00 21.11     0.063 N 
ATOM     14  NH2 ARG A 124      24.932  28.256  12.640  1.00 21.25     0.063 N 
ENDBRANCH  10  11
ENDBRANCH   9  10
ENDBRANCH   8   9
ENDBRANCH   7   8
END_RES ARG A 124
BEGIN_RES ASN A 133
REMARK  2 active torsions:
REMARK  status: ('A' for Active; 'I' for Inactive)
REMARK    9  A    between atoms: CA   and  CB  
REMARK   10  A    between atoms: CB   and  CG  
ROOT
ATOM     15  CA  ASN A 133      31.225  30.257  11.749  1.00 18.15     0.196 C 
ENDROOT
BRANCH  15  16
ATOM     16  CB  ASN A 133      30.092  31.240  11.460  1.00 18.27     0.126 C 
BRANCH  16  17
ATOM     17  CG  ASN A 133      28.734  30.612  11.520  1.00 18.94     0.276 C 
ATOM     18  OD1 ASN A 133      28.344  29.849  10.634  1.00 18.09    -0.269 OA
ATOM     19  ND2 ASN A 133      27.990  30.931  12.578  1.00 18.93    -0.107 N 
ENDBRANCH  16  17
ENDBRANCH  15  16
END_RES ASN A 133
BEGIN_RES LYS A 131
REMARK  4 active torsions:
REMARK  status: ('A' for Active; 'I' for Inactive)
REMARK   11  A    between atoms: CA   and  CB  
REMARK   12  A    between atoms: CB   and  CG  
REMARK   13  A    between atoms: CG   and  CD  
REMARK   14  A    between atoms: CD   and  CE  
ROOT
ATOM     20  CA  LYS A 131      29.867  25.555  16.977  1.00 20.52     0.186 C 
ENDROOT
BRANCH  20  21
ATOM     21  CB  LYS A 131      28.345  25.722  17.026  1.00 20.94     0.034 C 
BRANCH  21  22
ATOM     22  CG  LYS A 131      27.599  24.438  16.699  1.00 22.96     0.005 C 
BRANCH  22  23
ATOM     23  CD  LYS A 131      27.000  23.803  17.924  1.00 24.33     0.041 C 
BRANCH  23  24
ATOM     24  CE  LYS A 131      25.695  23.107  17.550  1.00 26.91     0.338 C 
ATOM     25  NZ  LYS A 131      24.724  24.084  17.003  1.00 27.40     0.618 N 
ENDBRANCH  23  24
ENDBRANCH  22  23
ENDBRANCH  21  22
ENDBRANCH  20  21
END_RES LYS A 131
