REMARK VINA RESULT:    -2.895      6.829      9.931
REMARK INTER + INTRA:          -8.566
REMARK INTER:                  -3.364
REMARK INTRA:                  -5.203
REMARK UNBOUND:                -5.417
REMARK SMILES NCc1ccc(Br)cc1
REMARK SMILES IDX 2 1 1 2 3 5 4 6 9 7 5 8 8 9 6 10 7 11
REMARK H PARENT 1 3 1 4
REMARK Flexibility Score: inf
ROOT
ATOM      1  C   UNL     1      24.663  32.536  13.438  1.00  0.00     0.113 C 
ENDROOT
BRANCH   1   2
ATOM      2  N   UNL     1      24.710  33.664  12.516  1.00  0.00    -0.326 NA
ATOM      3  H   UNL     1      24.602  34.575  13.014  1.00  0.00     0.119 HD
ATOM      4  H   UNL     1      25.593  33.635  11.953  1.00  0.00     0.119 HD
ENDBRANCH   1   2
BRANCH   1   5
ATOM      5  C   UNL     1      23.559  31.594  13.084  1.00  0.00    -0.034 A 
ATOM      6  C   UNL     1      22.271  32.024  12.875  1.00  0.00     0.006 A 
ATOM      7  C   UNL     1      23.796  30.233  12.952  1.00  0.00     0.006 A 
ATOM      8  C   UNL     1      21.252  31.148  12.547  1.00  0.00     0.016 A 
ATOM      9  C   UNL     1      22.781  29.360  12.626  1.00  0.00     0.016 A 
ATOM     10  C   UNL     1      21.491  29.798  12.418  1.00  0.00     0.017 A 
ATOM     11  Br  UNL     1      20.064  28.621  11.967  1.00  0.00    -0.051 Br
ENDBRANCH   1   5
TORSDOF 2
BEGIN_RES LYS A 135
REMARK  4 active torsions:
REMARK  status: ('A' for Active; 'I' for Inactive)
REMARK    1  A    between atoms: CA   and  CB  
REMARK    2  A    between atoms: CB   and  CG  
REMARK    3  A    between atoms: CG   and  CD  
REMARK    4  A    between atoms: CD   and  CE  
ROOT
ATOM      1  CA  LYS A 135      33.193  34.663   9.290  1.00 25.02     0.186 C 
ENDROOT
BRANCH   1   2
ATOM      2  CB  LYS A 135      32.060  35.360  10.034  1.00 26.63     0.034 C 
BRANCH   2   3
ATOM      3  CG  LYS A 135      30.806  35.515   9.213  1.00 29.45     0.005 C 
BRANCH   3   4
ATOM      4  CD  LYS A 135      30.229  34.154   8.853  1.00 32.00     0.041 C 
BRANCH   4   5
ATOM      5  CE  LYS A 135      28.716  34.173   8.958  1.00 34.25     0.338 C 
ATOM      6  NZ  LYS A 135      28.243  35.379   9.692  1.00 35.99     0.618 N 
ENDBRANCH   4   5
ENDBRANCH   3   4
ENDBRANCH   2   3
ENDBRANCH   1   2
END_RES LYS A 135
BEGIN_RES ARG A 124
REMARK  4 active torsions:
REMARK  status: ('A' for Active; 'I' for Inactive)
REMARK    5  A    between atoms: CA   and  CB  
REMARK    6  A    between atoms: CB   and  CG  
REMARK    7  A    between atoms: CG   and  CD  
REMARK    8  A    between atoms: CD   and  NE  
REMARK       I    between atoms: NE   and  CZ  
ROOT
ATOM      7  CA  ARG A 124      31.045  26.515   9.594  1.00 17.84     0.186 C 
ENDROOT
BRANCH   7   8
ATOM      8  CB  ARG A 124      29.529  26.705   9.647  1.00 16.18     0.036 C 
BRANCH   8   9
ATOM      9  CG  ARG A 124      28.781  25.888  10.760  1.00 16.22     0.029 C 
BRANCH   9  10
ATOM     10  CD  ARG A 124      28.720  26.633  12.113  1.00 15.09     0.145 C 
BRANCH  10  11
ATOM     11  NE  ARG A 124      27.382  26.621  12.743  1.00 16.98    -0.083 NA
ATOM     12  CZ  ARG A 124      27.026  27.364  13.786  1.00 18.21     0.782 C 
ATOM     13  NH1 ARG A 124      27.876  28.213  14.351  1.00 21.11     0.063 N 
ATOM     14  NH2 ARG A 124      25.794  27.283  14.265  1.00 21.25     0.063 N 
ENDBRANCH  10  11
ENDBRANCH   9  10
ENDBRANCH   8   9
ENDBRANCH   7   8
END_RES ARG A 124
BEGIN_RES ASN A 133
REMARK  2 active torsions:
REMARK  status: ('A' for Active; 'I' for Inactive)
REMARK    9  A    between atoms: CA   and  CB  
REMARK   10  A    between atoms: CB   and  CG  
ROOT
ATOM     15  CA  ASN A 133      31.225  30.257  11.749  1.00 18.15     0.196 C 
ENDROOT
BRANCH  15  16
ATOM     16  CB  ASN A 133      30.092  31.240  11.460  1.00 18.27     0.126 C 
BRANCH  16  17
ATOM     17  CG  ASN A 133      28.734  30.612  11.518  1.00 18.94     0.276 C 
ATOM     18  OD1 ASN A 133      28.443  29.653  10.801  1.00 18.09    -0.269 OA
ATOM     19  ND2 ASN A 133      27.878  31.153  12.383  1.00 18.93    -0.107 N 
ENDBRANCH  16  17
ENDBRANCH  15  16
END_RES ASN A 133
BEGIN_RES LYS A 131
REMARK  4 active torsions:
REMARK  status: ('A' for Active; 'I' for Inactive)
REMARK   11  A    between atoms: CA   and  CB  
REMARK   12  A    between atoms: CB   and  CG  
REMARK   13  A    between atoms: CG   and  CD  
REMARK   14  A    between atoms: CD   and  CE  
ROOT
ATOM     20  CA  LYS A 131      29.867  25.555  16.977  1.00 20.52     0.186 C 
ENDROOT
BRANCH  20  21
ATOM     21  CB  LYS A 131      28.345  25.722  17.026  1.00 20.94     0.034 C 
BRANCH  21  22
ATOM     22  CG  LYS A 131      27.600  24.408  16.844  1.00 22.96     0.005 C 
BRANCH  22  23
ATOM     23  CD  LYS A 131      26.151  24.521  17.229  1.00 24.33     0.041 C 
BRANCH  23  24
ATOM     24  CE  LYS A 131      25.922  25.833  17.970  1.00 26.91     0.338 C 
ATOM     25  NZ  LYS A 131      24.653  26.461  17.534  1.00 27.40     0.618 N 
ENDBRANCH  23  24
ENDBRANCH  22  23
ENDBRANCH  21  22
ENDBRANCH  20  21
END_RES LYS A 131
