REMARK VINA RESULT:    -3.159      7.262     13.076
REMARK INTER + INTRA:          -9.678
REMARK INTER:                  -4.177
REMARK INTRA:                  -5.501
REMARK UNBOUND:                -5.872
REMARK SMILES NCC(=O)NCc1cccs1
REMARK SMILES IDX 3 1 4 2 5 3 2 5 1 6 6 9 7 10 8 11 11 12 9 13 10 14
REMARK H PARENT 5 4 1 7 1 8
REMARK Flexibility Score: inf
ROOT
ATOM      1  C   UNL     1      26.109  18.012  15.205  1.00  0.00     0.234 C 
ATOM      2  O   UNL     1      25.560  16.943  15.564  1.00  0.00    -0.274 OA
ATOM      3  N   UNL     1      25.500  18.746  14.151  1.00  0.00    -0.350 N 
ATOM      4  H   UNL     1      25.969  19.633  13.864  1.00  0.00     0.163 HD
ENDROOT
BRANCH   1   5
ATOM      5  C   UNL     1      27.363  18.500  15.863  1.00  0.00     0.178 C 
BRANCH   5   6
ATOM      6  N   UNL     1      28.472  17.706  15.422  1.00  0.00    -0.322 NA
ATOM      7  H   UNL     1      28.240  17.073  14.626  1.00  0.00     0.119 HD
ATOM      8  H   UNL     1      29.340  18.264  15.257  1.00  0.00     0.119 HD
ENDBRANCH   5   6
ENDBRANCH   1   5
BRANCH   3   9
ATOM      9  C   UNL     1      24.275  18.279  13.500  1.00  0.00     0.162 C 
BRANCH   9  10
ATOM     10  C   UNL     1      23.115  19.007  13.966  1.00  0.00     0.024 A 
ATOM     11  C   UNL     1      21.926  19.298  13.434  1.00  0.00     0.017 A 
ATOM     12  S   UNL     1      22.965  19.806  15.597  1.00  0.00    -0.147 S 
ATOM     13  C   UNL     1      21.002  20.005  14.090  1.00  0.00     0.012 A 
ATOM     14  C   UNL     1      21.316  20.443  15.377  1.00  0.00     0.065 A 
ENDBRANCH   9  10
ENDBRANCH   3   9
TORSDOF 4
BEGIN_RES LYS A 135
REMARK  4 active torsions:
REMARK  status: ('A' for Active; 'I' for Inactive)
REMARK    1  A    between atoms: CA   and  CB  
REMARK    2  A    between atoms: CB   and  CG  
REMARK    3  A    between atoms: CG   and  CD  
REMARK    4  A    between atoms: CD   and  CE  
ROOT
ATOM      1  CA  LYS A 135      33.193  34.663   9.290  1.00 25.02     0.186 C 
ENDROOT
BRANCH   1   2
ATOM      2  CB  LYS A 135      32.060  35.360  10.034  1.00 26.63     0.034 C 
BRANCH   2   3
ATOM      3  CG  LYS A 135      30.801  35.503   9.218  1.00 29.45     0.005 C 
BRANCH   3   4
ATOM      4  CD  LYS A 135      30.166  34.144   8.969  1.00 32.00     0.041 C 
BRANCH   4   5
ATOM      5  CE  LYS A 135      28.680  34.292   8.701  1.00 34.25     0.338 C 
ATOM      6  NZ  LYS A 135      27.875  33.615   9.755  1.00 35.99     0.618 N 
ENDBRANCH   4   5
ENDBRANCH   3   4
ENDBRANCH   2   3
ENDBRANCH   1   2
END_RES LYS A 135
BEGIN_RES ARG A 124
REMARK  4 active torsions:
REMARK  status: ('A' for Active; 'I' for Inactive)
REMARK    5  A    between atoms: CA   and  CB  
REMARK    6  A    between atoms: CB   and  CG  
REMARK    7  A    between atoms: CG   and  CD  
REMARK    8  A    between atoms: CD   and  NE  
REMARK       I    between atoms: NE   and  CZ  
ROOT
ATOM      7  CA  ARG A 124      31.045  26.515   9.594  1.00 17.84     0.186 C 
ENDROOT
BRANCH   7   8
ATOM      8  CB  ARG A 124      29.529  26.705   9.647  1.00 16.18     0.036 C 
BRANCH   8   9
ATOM      9  CG  ARG A 124      29.020  27.840  10.606  1.00 16.22     0.029 C 
BRANCH   9  10
ATOM     10  CD  ARG A 124      28.245  27.292  11.826  1.00 15.09     0.145 C 
BRANCH  10  11
ATOM     11  NE  ARG A 124      26.796  27.584  11.795  1.00 16.98    -0.083 NA
ATOM     12  CZ  ARG A 124      25.990  27.547  12.850  1.00 18.21     0.782 C 
ATOM     13  NH1 ARG A 124      26.449  27.245  14.059  1.00 21.11     0.063 N 
ATOM     14  NH2 ARG A 124      24.705  27.838  12.712  1.00 21.25     0.063 N 
ENDBRANCH  10  11
ENDBRANCH   9  10
ENDBRANCH   8   9
ENDBRANCH   7   8
END_RES ARG A 124
BEGIN_RES ASN A 133
REMARK  2 active torsions:
REMARK  status: ('A' for Active; 'I' for Inactive)
REMARK    9  A    between atoms: CA   and  CB  
REMARK   10  A    between atoms: CB   and  CG  
ROOT
ATOM     15  CA  ASN A 133      31.225  30.257  11.749  1.00 18.15     0.196 C 
ENDROOT
BRANCH  15  16
ATOM     16  CB  ASN A 133      30.092  31.240  11.460  1.00 18.27     0.126 C 
BRANCH  16  17
ATOM     17  CG  ASN A 133      29.144  31.404  12.607  1.00 18.94     0.276 C 
ATOM     18  OD1 ASN A 133      28.211  30.618  12.782  1.00 18.09    -0.269 OA
ATOM     19  ND2 ASN A 133      29.375  32.442  13.410  1.00 18.93    -0.107 N 
ENDBRANCH  16  17
ENDBRANCH  15  16
END_RES ASN A 133
BEGIN_RES LYS A 131
REMARK  4 active torsions:
REMARK  status: ('A' for Active; 'I' for Inactive)
REMARK   11  A    between atoms: CA   and  CB  
REMARK   12  A    between atoms: CB   and  CG  
REMARK   13  A    between atoms: CG   and  CD  
REMARK   14  A    between atoms: CD   and  CE  
ROOT
ATOM     20  CA  LYS A 131      29.867  25.555  16.977  1.00 20.52     0.186 C 
ENDROOT
BRANCH  20  21
ATOM     21  CB  LYS A 131      28.345  25.722  17.026  1.00 20.94     0.034 C 
BRANCH  21  22
ATOM     22  CG  LYS A 131      27.600  24.409  16.837  1.00 22.96     0.005 C 
BRANCH  22  23
ATOM     23  CD  LYS A 131      26.151  24.520  17.221  1.00 24.33     0.041 C 
BRANCH  23  24
ATOM     24  CE  LYS A 131      25.802  23.419  18.218  1.00 26.91     0.338 C 
ATOM     25  NZ  LYS A 131      24.994  22.364  17.563  1.00 27.40     0.618 N 
ENDBRANCH  23  24
ENDBRANCH  22  23
ENDBRANCH  21  22
ENDBRANCH  20  21
END_RES LYS A 131
