REMARK VINA RESULT:    -4.349      5.371      8.004
REMARK INTER + INTRA:         -10.143
REMARK INTER:                  -5.659
REMARK INTRA:                  -4.484
REMARK UNBOUND:                -5.285
REMARK SMILES NCc1cc(Br)cc(Br)c1O
REMARK SMILES IDX 3 1 4 2 5 3 6 4 7 5 8 6 9 7 10 8 2 9 1 10 11 13
REMARK H PARENT 1 11 1 12 11 14
REMARK Flexibility Score: inf
ROOT
ATOM      1  C   UNL     1      28.104  35.894   7.015  1.00  0.00     0.010 A 
ATOM      2  C   UNL     1      26.839  35.982   7.494  1.00  0.00     0.024 A 
ATOM      3  C   UNL     1      26.487  35.280   8.687  1.00  0.00     0.019 A 
ATOM      4  Br  UNL     1      24.727  35.516   9.421  1.00  0.00    -0.051 Br
ATOM      5  C   UNL     1      27.435  34.526   9.322  1.00  0.00     0.035 A 
ATOM      6  C   UNL     1      28.743  34.398   8.886  1.00  0.00     0.061 A 
ATOM      7  Br  UNL     1      30.083  33.534   9.851  1.00  0.00    -0.047 Br
ATOM      8  C   UNL     1      29.015  35.093   7.745  1.00  0.00     0.134 A 
ENDROOT
BRANCH   1   9
ATOM      9  C   UNL     1      28.543  36.592   5.794  1.00  0.00     0.117 C 
BRANCH   9  10
ATOM     10  N   UNL     1      27.291  37.111   5.283  1.00  0.00    -0.326 NA
ATOM     11  H   UNL     1      26.441  36.763   5.601  1.00  0.00     0.119 HD
ATOM     12  H   UNL     1      27.427  37.340   4.235  1.00  0.00     0.119 HD
ENDBRANCH   9  10
ENDBRANCH   1   9
BRANCH   8  13
ATOM     13  O   UNL     1      30.286  35.052   7.218  1.00  0.00    -0.506 OA
ATOM     14  H   UNL     1      30.839  34.590   6.638  1.00  0.00     0.293 HD
ENDBRANCH   8  13
TORSDOF 3
BEGIN_RES LYS A 135
REMARK  4 active torsions:
REMARK  status: ('A' for Active; 'I' for Inactive)
REMARK    1  A    between atoms: CA   and  CB  
REMARK    2  A    between atoms: CB   and  CG  
REMARK    3  A    between atoms: CG   and  CD  
REMARK    4  A    between atoms: CD   and  CE  
ROOT
ATOM      1  CA  LYS A 135      33.193  34.663   9.290  1.00 25.02     0.186 C 
ENDROOT
BRANCH   1   2
ATOM      2  CB  LYS A 135      32.060  35.360  10.034  1.00 26.63     0.034 C 
BRANCH   2   3
ATOM      3  CG  LYS A 135      32.534  36.262  11.144  1.00 29.45     0.005 C 
BRANCH   3   4
ATOM      4  CD  LYS A 135      31.925  37.649  11.006  1.00 32.00     0.041 C 
BRANCH   4   5
ATOM      5  CE  LYS A 135      30.950  37.689   9.845  1.00 34.25     0.338 C 
ATOM      6  NZ  LYS A 135      31.389  38.665   8.809  1.00 35.99     0.618 N 
ENDBRANCH   4   5
ENDBRANCH   3   4
ENDBRANCH   2   3
ENDBRANCH   1   2
END_RES LYS A 135
BEGIN_RES ARG A 124
REMARK  4 active torsions:
REMARK  status: ('A' for Active; 'I' for Inactive)
REMARK    5  A    between atoms: CA   and  CB  
REMARK    6  A    between atoms: CB   and  CG  
REMARK    7  A    between atoms: CG   and  CD  
REMARK    8  A    between atoms: CD   and  NE  
REMARK       I    between atoms: NE   and  CZ  
ROOT
ATOM      7  CA  ARG A 124      31.045  26.515   9.594  1.00 17.84     0.186 C 
ENDROOT
BRANCH   7   8
ATOM      8  CB  ARG A 124      29.529  26.705   9.647  1.00 16.18     0.036 C 
BRANCH   8   9
ATOM      9  CG  ARG A 124      28.903  26.768  11.086  1.00 16.22     0.029 C 
BRANCH   9  10
ATOM     10  CD  ARG A 124      27.502  26.119  11.160  1.00 15.09     0.145 C 
BRANCH  10  11
ATOM     11  NE  ARG A 124      26.409  27.081  11.422  1.00 16.98    -0.083 NA
ATOM     12  CZ  ARG A 124      26.063  27.528  12.625  1.00 18.21     0.782 C 
ATOM     13  NH1 ARG A 124      26.707  27.137  13.718  1.00 21.11     0.063 N 
ATOM     14  NH2 ARG A 124      25.074  28.399  12.746  1.00 21.25     0.063 N 
ENDBRANCH  10  11
ENDBRANCH   9  10
ENDBRANCH   8   9
ENDBRANCH   7   8
END_RES ARG A 124
BEGIN_RES ASN A 133
REMARK  2 active torsions:
REMARK  status: ('A' for Active; 'I' for Inactive)
REMARK    9  A    between atoms: CA   and  CB  
REMARK   10  A    between atoms: CB   and  CG  
ROOT
ATOM     15  CA  ASN A 133      31.225  30.257  11.749  1.00 18.15     0.196 C 
ENDROOT
BRANCH  15  16
ATOM     16  CB  ASN A 133      30.092  31.240  11.460  1.00 18.27     0.126 C 
BRANCH  16  17
ATOM     17  CG  ASN A 133      28.732  30.621  11.557  1.00 18.94     0.276 C 
ATOM     18  OD1 ASN A 133      28.334  29.819  10.710  1.00 18.09    -0.269 OA
ATOM     19  ND2 ASN A 133      27.996  30.993  12.604  1.00 18.93    -0.107 N 
ENDBRANCH  16  17
ENDBRANCH  15  16
END_RES ASN A 133
BEGIN_RES LYS A 131
REMARK  4 active torsions:
REMARK  status: ('A' for Active; 'I' for Inactive)
REMARK   11  A    between atoms: CA   and  CB  
REMARK   12  A    between atoms: CB   and  CG  
REMARK   13  A    between atoms: CG   and  CD  
REMARK   14  A    between atoms: CD   and  CE  
ROOT
ATOM     20  CA  LYS A 131      29.867  25.555  16.977  1.00 20.52     0.186 C 
ENDROOT
BRANCH  20  21
ATOM     21  CB  LYS A 131      28.345  25.722  17.026  1.00 20.94     0.034 C 
BRANCH  21  22
ATOM     22  CG  LYS A 131      27.599  24.424  16.755  1.00 22.96     0.005 C 
BRANCH  22  23
ATOM     23  CD  LYS A 131      26.742  24.011  17.919  1.00 24.33     0.041 C 
BRANCH  23  24
ATOM     24  CE  LYS A 131      25.329  23.711  17.429  1.00 26.91     0.338 C 
ATOM     25  NZ  LYS A 131      25.001  22.280  17.633  1.00 27.40     0.618 N 
ENDBRANCH  23  24
ENDBRANCH  22  23
ENDBRANCH  21  22
ENDBRANCH  20  21
END_RES LYS A 131
