REMARK VINA RESULT:    -2.868      1.726      2.095
REMARK INTER + INTRA:          -7.970
REMARK INTER:                  -3.455
REMARK INTRA:                  -4.516
REMARK UNBOUND:                -4.516
REMARK SMILES COCC(N)C(N)=O
REMARK SMILES IDX 3 1 2 2 1 3 4 4 5 5 6 8 7 9 8 10
REMARK H PARENT 5 6 5 7 7 11 7 12
REMARK Flexibility Score: inf
ROOT
ATOM      1  C   UNL     1      26.333  17.613  15.807  1.00  0.00     0.188 C 
ENDROOT
BRANCH   1   2
ATOM      2  O   UNL     1      25.517  17.132  16.852  1.00  0.00    -0.383 OA
ATOM      3  C   UNL     1      25.203  18.159  17.737  1.00  0.00     0.194 C 
ENDBRANCH   1   2
BRANCH   1   4
ATOM      4  C   UNL     1      27.796  17.389  16.130  1.00  0.00     0.167 C 
BRANCH   4   5
ATOM      5  N   UNL     1      28.577  17.658  14.971  1.00  0.00    -0.318 NA
ATOM      6  H   UNL     1      28.808  16.846  14.391  1.00  0.00     0.119 HD
ATOM      7  H   UNL     1      28.324  18.516  14.454  1.00  0.00     0.119 HD
ENDBRANCH   4   5
BRANCH   4   8
ATOM      8  C   UNL     1      27.945  15.964  16.495  1.00  0.00     0.236 C 
ATOM      9  N   UNL     1      28.120  15.614  17.852  1.00  0.00    -0.368 N 
ATOM     10  O   UNL     1      27.920  15.073  15.632  1.00  0.00    -0.273 OA
ATOM     11  H   UNL     1      28.745  16.171  18.506  1.00  0.00     0.159 HD
ATOM     12  H   UNL     1      27.611  14.776  18.212  1.00  0.00     0.159 HD
ENDBRANCH   4   8
ENDBRANCH   1   4
TORSDOF 4
BEGIN_RES LYS A 135
REMARK  4 active torsions:
REMARK  status: ('A' for Active; 'I' for Inactive)
REMARK    1  A    between atoms: CA   and  CB  
REMARK    2  A    between atoms: CB   and  CG  
REMARK    3  A    between atoms: CG   and  CD  
REMARK    4  A    between atoms: CD   and  CE  
ROOT
ATOM      1  CA  LYS A 135      33.193  34.663   9.290  1.00 25.02     0.186 C 
ENDROOT
BRANCH   1   2
ATOM      2  CB  LYS A 135      32.060  35.360  10.034  1.00 26.63     0.034 C 
BRANCH   2   3
ATOM      3  CG  LYS A 135      30.700  35.105   9.437  1.00 29.45     0.005 C 
BRANCH   3   4
ATOM      4  CD  LYS A 135      29.674  34.845  10.529  1.00 32.00     0.041 C 
BRANCH   4   5
ATOM      5  CE  LYS A 135      28.717  36.015  10.650  1.00 34.25     0.338 C 
ATOM      6  NZ  LYS A 135      29.189  36.992  11.669  1.00 35.99     0.618 N 
ENDBRANCH   4   5
ENDBRANCH   3   4
ENDBRANCH   2   3
ENDBRANCH   1   2
END_RES LYS A 135
BEGIN_RES ARG A 124
REMARK  4 active torsions:
REMARK  status: ('A' for Active; 'I' for Inactive)
REMARK    5  A    between atoms: CA   and  CB  
REMARK    6  A    between atoms: CB   and  CG  
REMARK    7  A    between atoms: CG   and  CD  
REMARK    8  A    between atoms: CD   and  NE  
REMARK       I    between atoms: NE   and  CZ  
ROOT
ATOM      7  CA  ARG A 124      31.045  26.515   9.594  1.00 17.84     0.186 C 
ENDROOT
BRANCH   7   8
ATOM      8  CB  ARG A 124      29.529  26.705   9.647  1.00 16.18     0.036 C 
BRANCH   8   9
ATOM      9  CG  ARG A 124      28.974  27.370  10.957  1.00 16.22     0.029 C 
BRANCH   9  10
ATOM     10  CD  ARG A 124      27.961  26.472  11.703  1.00 15.09     0.145 C 
BRANCH  10  11
ATOM     11  NE  ARG A 124      27.653  26.930  13.076  1.00 16.98    -0.083 NA
ATOM     12  CZ  ARG A 124      26.455  27.324  13.494  1.00 18.21     0.782 C 
ATOM     13  NH1 ARG A 124      25.405  27.322  12.682  1.00 21.11     0.063 N 
ATOM     14  NH2 ARG A 124      26.287  27.705  14.751  1.00 21.25     0.063 N 
ENDBRANCH  10  11
ENDBRANCH   9  10
ENDBRANCH   8   9
ENDBRANCH   7   8
END_RES ARG A 124
BEGIN_RES ASN A 133
REMARK  2 active torsions:
REMARK  status: ('A' for Active; 'I' for Inactive)
REMARK    9  A    between atoms: CA   and  CB  
REMARK   10  A    between atoms: CB   and  CG  
ROOT
ATOM     15  CA  ASN A 133      31.225  30.257  11.749  1.00 18.15     0.196 C 
ENDROOT
BRANCH  15  16
ATOM     16  CB  ASN A 133      30.092  31.240  11.460  1.00 18.27     0.126 C 
BRANCH  16  17
ATOM     17  CG  ASN A 133      29.040  31.259  12.525  1.00 18.94     0.276 C 
ATOM     18  OD1 ASN A 133      29.142  31.993  13.510  1.00 18.09    -0.269 OA
ATOM     19  ND2 ASN A 133      28.005  30.441  12.336  1.00 18.93    -0.107 N 
ENDBRANCH  16  17
ENDBRANCH  15  16
END_RES ASN A 133
BEGIN_RES LYS A 131
REMARK  4 active torsions:
REMARK  status: ('A' for Active; 'I' for Inactive)
REMARK   11  A    between atoms: CA   and  CB  
REMARK   12  A    between atoms: CB   and  CG  
REMARK   13  A    between atoms: CG   and  CD  
REMARK   14  A    between atoms: CD   and  CE  
ROOT
ATOM     20  CA  LYS A 131      29.867  25.555  16.977  1.00 20.52     0.186 C 
ENDROOT
BRANCH  20  21
ATOM     21  CB  LYS A 131      28.345  25.722  17.026  1.00 20.94     0.034 C 
BRANCH  21  22
ATOM     22  CG  LYS A 131      27.599  24.445  16.673  1.00 22.96     0.005 C 
BRANCH  22  23
ATOM     23  CD  LYS A 131      27.060  23.748  17.891  1.00 24.33     0.041 C 
BRANCH  23  24
ATOM     24  CE  LYS A 131      25.631  24.212  18.153  1.00 26.91     0.338 C 
ATOM     25  NZ  LYS A 131      24.755  23.054  18.448  1.00 27.40     0.618 N 
ENDBRANCH  23  24
ENDBRANCH  22  23
ENDBRANCH  21  22
ENDBRANCH  20  21
END_RES LYS A 131
