REMARK VINA RESULT:    -5.019      4.112      6.672
REMARK INTER + INTRA:         -10.215
REMARK INTER:                  -4.852
REMARK INTRA:                  -5.363
REMARK UNBOUND:                -5.049
REMARK SMILES NC1c2ccccc2-c2ccccc21
REMARK SMILES IDX 2 1 3 2 4 3 5 4 6 5 7 6 8 7 9 8 10 9 11 10 12 11 13 12 14 13
REMARK SMILES IDX 1 14
REMARK H PARENT 1 15 1 16
REMARK Flexibility Score: inf
ROOT
ATOM      1  C   UNL     1      20.993  32.306  12.573  1.00  0.00     0.113 C 
ATOM      2  C   UNL     1      22.370  31.882  12.830  1.00  0.00    -0.019 A 
ATOM      3  C   UNL     1      23.525  32.541  13.184  1.00  0.00     0.006 A 
ATOM      4  C   UNL     1      24.729  31.902  13.371  1.00  0.00     0.000 A 
ATOM      5  C   UNL     1      24.802  30.548  13.202  1.00  0.00     0.001 A 
ATOM      6  C   UNL     1      23.656  29.868  12.847  1.00  0.00     0.009 A 
ATOM      7  C   UNL     1      22.438  30.496  12.656  1.00  0.00    -0.013 A 
ATOM      8  C   UNL     1      21.103  30.042  12.288  1.00  0.00    -0.013 A 
ATOM      9  C   UNL     1      20.633  28.777  12.007  1.00  0.00     0.009 A 
ATOM     10  C   UNL     1      19.299  28.564  11.673  1.00  0.00     0.001 A 
ATOM     11  C   UNL     1      18.407  29.626  11.615  1.00  0.00     0.000 A 
ATOM     12  C   UNL     1      18.902  30.885  11.901  1.00  0.00     0.006 A 
ATOM     13  C   UNL     1      20.219  31.101  12.231  1.00  0.00    -0.019 A 
ENDROOT
BRANCH   1  14
ATOM     14  N   UNL     1      20.412  33.067  13.651  1.00  0.00    -0.320 NA
ATOM     15  H   UNL     1      20.151  32.473  14.481  1.00  0.00     0.119 HD
ATOM     16  H   UNL     1      19.551  33.586  13.374  1.00  0.00     0.119 HD
ENDBRANCH   1  14
TORSDOF 1
BEGIN_RES LYS A 135
REMARK  4 active torsions:
REMARK  status: ('A' for Active; 'I' for Inactive)
REMARK    1  A    between atoms: CA   and  CB  
REMARK    2  A    between atoms: CB   and  CG  
REMARK    3  A    between atoms: CG   and  CD  
REMARK    4  A    between atoms: CD   and  CE  
ROOT
ATOM      1  CA  LYS A 135      33.193  34.663   9.290  1.00 25.02     0.186 C 
ENDROOT
BRANCH   1   2
ATOM      2  CB  LYS A 135      32.060  35.360  10.034  1.00 26.63     0.034 C 
BRANCH   2   3
ATOM      3  CG  LYS A 135      30.725  34.681   9.871  1.00 29.45     0.005 C 
BRANCH   3   4
ATOM      4  CD  LYS A 135      30.370  34.541   8.399  1.00 32.00     0.041 C 
BRANCH   4   5
ATOM      5  CE  LYS A 135      28.867  34.614   8.204  1.00 34.25     0.338 C 
ATOM      6  NZ  LYS A 135      28.148  33.940   9.320  1.00 35.99     0.618 N 
ENDBRANCH   4   5
ENDBRANCH   3   4
ENDBRANCH   2   3
ENDBRANCH   1   2
END_RES LYS A 135
BEGIN_RES ARG A 124
REMARK  4 active torsions:
REMARK  status: ('A' for Active; 'I' for Inactive)
REMARK    5  A    between atoms: CA   and  CB  
REMARK    6  A    between atoms: CB   and  CG  
REMARK    7  A    between atoms: CG   and  CD  
REMARK    8  A    between atoms: CD   and  NE  
REMARK       I    between atoms: NE   and  CZ  
ROOT
ATOM      7  CA  ARG A 124      31.045  26.515   9.594  1.00 17.84     0.186 C 
ENDROOT
BRANCH   7   8
ATOM      8  CB  ARG A 124      29.529  26.705   9.647  1.00 16.18     0.036 C 
BRANCH   8   9
ATOM      9  CG  ARG A 124      28.965  27.296  10.989  1.00 16.22     0.029 C 
BRANCH   9  10
ATOM     10  CD  ARG A 124      28.425  26.206  11.943  1.00 15.09     0.145 C 
BRANCH  10  11
ATOM     11  NE  ARG A 124      27.929  26.734  13.233  1.00 16.98    -0.083 NA
ATOM     12  CZ  ARG A 124      26.684  27.137  13.462  1.00 18.21     0.782 C 
ATOM     13  NH1 ARG A 124      25.756  27.082  12.514  1.00 21.11     0.063 N 
ATOM     14  NH2 ARG A 124      26.343  27.584  14.661  1.00 21.25     0.063 N 
ENDBRANCH  10  11
ENDBRANCH   9  10
ENDBRANCH   8   9
ENDBRANCH   7   8
END_RES ARG A 124
BEGIN_RES ASN A 133
REMARK  2 active torsions:
REMARK  status: ('A' for Active; 'I' for Inactive)
REMARK    9  A    between atoms: CA   and  CB  
REMARK   10  A    between atoms: CB   and  CG  
ROOT
ATOM     15  CA  ASN A 133      31.225  30.257  11.749  1.00 18.15     0.196 C 
ENDROOT
BRANCH  15  16
ATOM     16  CB  ASN A 133      30.092  31.240  11.460  1.00 18.27     0.126 C 
BRANCH  16  17
ATOM     17  CG  ASN A 133      28.876  31.005  12.301  1.00 18.94     0.276 C 
ATOM     18  OD1 ASN A 133      28.730  31.572  13.385  1.00 18.09    -0.269 OA
ATOM     19  ND2 ASN A 133      27.980  30.152  11.804  1.00 18.93    -0.107 N 
ENDBRANCH  16  17
ENDBRANCH  15  16
END_RES ASN A 133
BEGIN_RES LYS A 131
REMARK  4 active torsions:
REMARK  status: ('A' for Active; 'I' for Inactive)
REMARK   11  A    between atoms: CA   and  CB  
REMARK   12  A    between atoms: CB   and  CG  
REMARK   13  A    between atoms: CG   and  CD  
REMARK   14  A    between atoms: CD   and  CE  
ROOT
ATOM     20  CA  LYS A 131      29.867  25.555  16.977  1.00 20.52     0.186 C 
ENDROOT
BRANCH  20  21
ATOM     21  CB  LYS A 131      28.345  25.722  17.026  1.00 20.94     0.034 C 
BRANCH  21  22
ATOM     22  CG  LYS A 131      27.603  24.396  16.955  1.00 22.96     0.005 C 
BRANCH  22  23
ATOM     23  CD  LYS A 131      26.115  24.572  17.090  1.00 24.33     0.041 C 
BRANCH  23  24
ATOM     24  CE  LYS A 131      25.750  24.704  18.564  1.00 26.91     0.338 C 
ATOM     25  NZ  LYS A 131      25.725  23.373  19.214  1.00 27.40     0.618 N 
ENDBRANCH  23  24
ENDBRANCH  22  23
ENDBRANCH  21  22
ENDBRANCH  20  21
END_RES LYS A 131
