REMARK VINA RESULT:    -3.271      2.002      2.580
REMARK INTER + INTRA:          -9.165
REMARK INTER:                  -3.478
REMARK INTRA:                  -5.688
REMARK UNBOUND:                -5.034
REMARK SMILES C=CCCCCN
REMARK SMILES IDX 4 1 3 2 2 3 1 4 5 5 6 6 7 7
REMARK H PARENT 7 8 7 9
REMARK Flexibility Score: inf
ROOT
ATOM      1  C   UNL     1      38.234  33.687  15.320  1.00  0.00     0.005 C 
ENDROOT
BRANCH   1   2
ATOM      2  C   UNL     1      37.466  34.184  14.099  1.00  0.00     0.027 C 
BRANCH   2   3
ATOM      3  C   UNL     1      37.874  33.411  12.916  1.00  0.00    -0.035 C 
ATOM      4  C   UNL     1      37.127  33.370  11.820  1.00  0.00     0.004 C 
ENDBRANCH   2   3
ENDBRANCH   1   2
BRANCH   1   5
ATOM      5  C   UNL     1      38.303  34.751  16.366  1.00  0.00     0.015 C 
BRANCH   5   6
ATOM      6  C   UNL     1      38.516  34.092  17.714  1.00  0.00     0.077 C 
BRANCH   6   7
ATOM      7  N   UNL     1      39.100  32.776  17.526  1.00  0.00    -0.330 NA
ATOM      8  H   UNL     1      38.381  32.017  17.536  1.00  0.00     0.118 HD
ATOM      9  H   UNL     1      39.772  32.563  18.299  1.00  0.00     0.118 HD
ENDBRANCH   6   7
ENDBRANCH   5   6
ENDBRANCH   1   5
TORSDOF 5
BEGIN_RES LYS A 135
REMARK  4 active torsions:
REMARK  status: ('A' for Active; 'I' for Inactive)
REMARK    1  A    between atoms: CA   and  CB  
REMARK    2  A    between atoms: CB   and  CG  
REMARK    3  A    between atoms: CG   and  CD  
REMARK    4  A    between atoms: CD   and  CE  
ROOT
ATOM      1  CA  LYS A 135      33.193  34.663   9.290  1.00 25.02     0.186 C 
ENDROOT
BRANCH   1   2
ATOM      2  CB  LYS A 135      32.060  35.360  10.034  1.00 26.63     0.034 C 
BRANCH   2   3
ATOM      3  CG  LYS A 135      30.877  35.687   9.160  1.00 29.45     0.005 C 
BRANCH   3   4
ATOM      4  CD  LYS A 135      30.397  34.447   8.421  1.00 32.00     0.041 C 
BRANCH   4   5
ATOM      5  CE  LYS A 135      28.881  34.407   8.377  1.00 34.25     0.338 C 
ATOM      6  NZ  LYS A 135      28.325  33.788   9.612  1.00 35.99     0.618 N 
ENDBRANCH   4   5
ENDBRANCH   3   4
ENDBRANCH   2   3
ENDBRANCH   1   2
END_RES LYS A 135
BEGIN_RES ARG A 124
REMARK  4 active torsions:
REMARK  status: ('A' for Active; 'I' for Inactive)
REMARK    5  A    between atoms: CA   and  CB  
REMARK    6  A    between atoms: CB   and  CG  
REMARK    7  A    between atoms: CG   and  CD  
REMARK    8  A    between atoms: CD   and  NE  
REMARK       I    between atoms: NE   and  CZ  
ROOT
ATOM      7  CA  ARG A 124      31.045  26.515   9.594  1.00 17.84     0.186 C 
ENDROOT
BRANCH   7   8
ATOM      8  CB  ARG A 124      29.529  26.705   9.647  1.00 16.18     0.036 C 
BRANCH   8   9
ATOM      9  CG  ARG A 124      28.910  26.828  11.085  1.00 16.22     0.029 C 
BRANCH   9  10
ATOM     10  CD  ARG A 124      27.549  26.107  11.216  1.00 15.09     0.145 C 
BRANCH  10  11
ATOM     11  NE  ARG A 124      26.406  27.022  11.431  1.00 16.98    -0.083 NA
ATOM     12  CZ  ARG A 124      26.116  27.618  12.582  1.00 18.21     0.782 C 
ATOM     13  NH1 ARG A 124      26.869  27.439  13.661  1.00 21.11     0.063 N 
ATOM     14  NH2 ARG A 124      25.073  28.429  12.662  1.00 21.25     0.063 N 
ENDBRANCH  10  11
ENDBRANCH   9  10
ENDBRANCH   8   9
ENDBRANCH   7   8
END_RES ARG A 124
BEGIN_RES ASN A 133
REMARK  2 active torsions:
REMARK  status: ('A' for Active; 'I' for Inactive)
REMARK    9  A    between atoms: CA   and  CB  
REMARK   10  A    between atoms: CB   and  CG  
ROOT
ATOM     15  CA  ASN A 133      31.225  30.257  11.749  1.00 18.15     0.196 C 
ENDROOT
BRANCH  15  16
ATOM     16  CB  ASN A 133      30.092  31.240  11.460  1.00 18.27     0.126 C 
BRANCH  16  17
ATOM     17  CG  ASN A 133      28.733  30.619  11.548  1.00 18.94     0.276 C 
ATOM     18  OD1 ASN A 133      28.328  29.843  10.680  1.00 18.09    -0.269 OA
ATOM     19  ND2 ASN A 133      28.004  30.959  12.611  1.00 18.93    -0.107 N 
ENDBRANCH  16  17
ENDBRANCH  15  16
END_RES ASN A 133
BEGIN_RES LYS A 131
REMARK  4 active torsions:
REMARK  status: ('A' for Active; 'I' for Inactive)
REMARK   11  A    between atoms: CA   and  CB  
REMARK   12  A    between atoms: CB   and  CG  
REMARK   13  A    between atoms: CG   and  CD  
REMARK   14  A    between atoms: CD   and  CE  
ROOT
ATOM     20  CA  LYS A 131      29.867  25.555  16.977  1.00 20.52     0.186 C 
ENDROOT
BRANCH  20  21
ATOM     21  CB  LYS A 131      28.345  25.722  17.026  1.00 20.94     0.034 C 
BRANCH  21  22
ATOM     22  CG  LYS A 131      27.601  24.401  16.905  1.00 22.96     0.005 C 
BRANCH  22  23
ATOM     23  CD  LYS A 131      26.148  24.533  17.267  1.00 24.33     0.041 C 
BRANCH  23  24
ATOM     24  CE  LYS A 131      25.567  25.772  16.593  1.00 26.91     0.338 C 
ATOM     25  NZ  LYS A 131      24.794  26.578  17.567  1.00 27.40     0.618 N 
ENDBRANCH  23  24
ENDBRANCH  22  23
ENDBRANCH  21  22
ENDBRANCH  20  21
END_RES LYS A 131
