REMARK VINA RESULT:    -4.099      0.000      0.000
REMARK INTER + INTRA:         -10.283
REMARK INTER:                  -6.087
REMARK INTRA:                  -4.197
REMARK UNBOUND:                -5.466
REMARK SMILES NCc1ccc(CN)cc1
REMARK SMILES IDX 3 1 4 2 5 3 6 4 9 5 10 6 2 7 1 8 7 11 8 12
REMARK H PARENT 1 9 1 10 8 13 8 14
REMARK Flexibility Score: inf
ROOT
ATOM      1  C   UNL     1      27.734  35.723   7.402  1.00  0.00    -0.034 A 
ATOM      2  C   UNL     1      27.246  34.993   8.487  1.00  0.00     0.005 A 
ATOM      3  C   UNL     1      28.107  34.214   9.208  1.00  0.00     0.005 A 
ATOM      4  C   UNL     1      29.440  34.152   8.867  1.00  0.00    -0.034 A 
ATOM      5  C   UNL     1      29.924  34.882   7.782  1.00  0.00     0.005 A 
ATOM      6  C   UNL     1      29.063  35.680   7.036  1.00  0.00     0.005 A 
ENDROOT
BRANCH   1   7
ATOM      7  C   UNL     1      26.838  36.581   6.591  1.00  0.00     0.113 C 
BRANCH   7   8
ATOM      8  N   UNL     1      27.409  36.924   5.312  1.00  0.00    -0.326 NA
ATOM      9  H   UNL     1      26.876  36.611   4.501  1.00  0.00     0.119 HD
ATOM     10  H   UNL     1      28.424  36.818   5.275  1.00  0.00     0.119 HD
ENDBRANCH   7   8
ENDBRANCH   1   7
BRANCH   4  11
ATOM     11  C   UNL     1      30.324  33.292   9.684  1.00  0.00     0.113 C 
BRANCH  11  12
ATOM     12  N   UNL     1      30.429  33.762  11.039  1.00  0.00    -0.326 NA
ATOM     13  H   UNL     1      29.718  34.476  11.224  1.00  0.00     0.119 HD
ATOM     14  H   UNL     1      31.417  34.076  11.189  1.00  0.00     0.119 HD
ENDBRANCH  11  12
ENDBRANCH   4  11
TORSDOF 4
BEGIN_RES LYS A 135
REMARK  4 active torsions:
REMARK  status: ('A' for Active; 'I' for Inactive)
REMARK    1  A    between atoms: CA   and  CB  
REMARK    2  A    between atoms: CB   and  CG  
REMARK    3  A    between atoms: CG   and  CD  
REMARK    4  A    between atoms: CD   and  CE  
ROOT
ATOM      1  CA  LYS A 135      33.193  34.663   9.290  1.00 25.02     0.186 C 
ENDROOT
BRANCH   1   2
ATOM      2  CB  LYS A 135      32.060  35.360  10.034  1.00 26.63     0.034 C 
BRANCH   2   3
ATOM      3  CG  LYS A 135      32.535  36.301  11.110  1.00 29.45     0.005 C 
BRANCH   3   4
ATOM      4  CD  LYS A 135      31.595  37.490  11.238  1.00 32.00     0.041 C 
BRANCH   4   5
ATOM      5  CE  LYS A 135      30.671  37.568  10.038  1.00 34.25     0.338 C 
ATOM      6  NZ  LYS A 135      29.243  37.519  10.457  1.00 35.99     0.618 N 
ENDBRANCH   4   5
ENDBRANCH   3   4
ENDBRANCH   2   3
ENDBRANCH   1   2
END_RES LYS A 135
BEGIN_RES ARG A 124
REMARK  4 active torsions:
REMARK  status: ('A' for Active; 'I' for Inactive)
REMARK    5  A    between atoms: CA   and  CB  
REMARK    6  A    between atoms: CB   and  CG  
REMARK    7  A    between atoms: CG   and  CD  
REMARK    8  A    between atoms: CD   and  NE  
REMARK       I    between atoms: NE   and  CZ  
ROOT
ATOM      7  CA  ARG A 124      31.045  26.515   9.594  1.00 17.84     0.186 C 
ENDROOT
BRANCH   7   8
ATOM      8  CB  ARG A 124      29.529  26.705   9.647  1.00 16.18     0.036 C 
BRANCH   8   9
ATOM      9  CG  ARG A 124      28.907  26.802  11.086  1.00 16.22     0.029 C 
BRANCH   9  10
ATOM     10  CD  ARG A 124      27.550  26.070  11.203  1.00 15.09     0.145 C 
BRANCH  10  11
ATOM     11  NE  ARG A 124      26.400  26.975  11.419  1.00 16.98    -0.083 NA
ATOM     12  CZ  ARG A 124      26.018  27.451  12.599  1.00 18.21     0.782 C 
ATOM     13  NH1 ARG A 124      26.676  27.146  13.712  1.00 21.11     0.063 N 
ATOM     14  NH2 ARG A 124      24.977  28.265  12.678  1.00 21.25     0.063 N 
ENDBRANCH  10  11
ENDBRANCH   9  10
ENDBRANCH   8   9
ENDBRANCH   7   8
END_RES ARG A 124
BEGIN_RES ASN A 133
REMARK  2 active torsions:
REMARK  status: ('A' for Active; 'I' for Inactive)
REMARK    9  A    between atoms: CA   and  CB  
REMARK   10  A    between atoms: CB   and  CG  
ROOT
ATOM     15  CA  ASN A 133      31.225  30.257  11.749  1.00 18.15     0.196 C 
ENDROOT
BRANCH  15  16
ATOM     16  CB  ASN A 133      30.092  31.240  11.460  1.00 18.27     0.126 C 
BRANCH  16  17
ATOM     17  CG  ASN A 133      28.731  30.626  11.579  1.00 18.94     0.276 C 
ATOM     18  OD1 ASN A 133      28.328  29.802  10.756  1.00 18.09    -0.269 OA
ATOM     19  ND2 ASN A 133      28.000  31.028  12.618  1.00 18.93    -0.107 N 
ENDBRANCH  16  17
ENDBRANCH  15  16
END_RES ASN A 133
BEGIN_RES LYS A 131
REMARK  4 active torsions:
REMARK  status: ('A' for Active; 'I' for Inactive)
REMARK   11  A    between atoms: CA   and  CB  
REMARK   12  A    between atoms: CB   and  CG  
REMARK   13  A    between atoms: CG   and  CD  
REMARK   14  A    between atoms: CD   and  CE  
ROOT
ATOM     20  CA  LYS A 131      29.867  25.555  16.977  1.00 20.52     0.186 C 
ENDROOT
BRANCH  20  21
ATOM     21  CB  LYS A 131      28.345  25.722  17.026  1.00 20.94     0.034 C 
BRANCH  21  22
ATOM     22  CG  LYS A 131      27.600  24.413  16.815  1.00 22.96     0.005 C 
BRANCH  22  23
ATOM     23  CD  LYS A 131      26.794  24.019  18.021  1.00 24.33     0.041 C 
BRANCH  23  24
ATOM     24  CE  LYS A 131      26.308  25.273  18.741  1.00 26.91     0.338 C 
ATOM     25  NZ  LYS A 131      24.868  25.499  18.473  1.00 27.40     0.618 N 
ENDBRANCH  23  24
ENDBRANCH  22  23
ENDBRANCH  21  22
ENDBRANCH  20  21
END_RES LYS A 131
