REMARK VINA RESULT:    -3.647      4.714      7.108
REMARK INTER + INTRA:          -9.191
REMARK INTER:                  -4.960
REMARK INTRA:                  -4.231
REMARK UNBOUND:                -5.224
REMARK SMILES NCc1cccc(Br)c1
REMARK SMILES IDX 2 1 1 2 3 5 4 6 9 7 5 8 7 9 6 10 8 11
REMARK H PARENT 1 3 1 4
REMARK Flexibility Score: inf
ROOT
ATOM      1  C   UNL     1      30.669  33.926   8.887  1.00  0.00     0.113 C 
ENDROOT
BRANCH   1   2
ATOM      2  N   UNL     1      31.346  34.633   7.844  1.00  0.00    -0.326 NA
ATOM      3  H   UNL     1      32.256  35.043   8.116  1.00  0.00     0.119 HD
ATOM      4  H   UNL     1      31.293  34.222   6.915  1.00  0.00     0.119 HD
ENDBRANCH   1   2
BRANCH   1   5
ATOM      5  C   UNL     1      29.219  34.231   8.963  1.00  0.00    -0.033 A 
ATOM      6  C   UNL     1      28.529  34.737   7.878  1.00  0.00     0.005 A 
ATOM      7  C   UNL     1      28.486  34.027  10.118  1.00  0.00     0.020 A 
ATOM      8  C   UNL     1      27.177  35.029   7.924  1.00  0.00     0.001 A 
ATOM      9  C   UNL     1      27.144  34.313  10.176  1.00  0.00     0.018 A 
ATOM     10  C   UNL     1      26.466  34.817   9.087  1.00  0.00     0.016 A 
ATOM     11  Br  UNL     1      26.167  34.015  11.794  1.00  0.00    -0.051 Br
ENDBRANCH   1   5
TORSDOF 2
BEGIN_RES LYS A 135
REMARK  4 active torsions:
REMARK  status: ('A' for Active; 'I' for Inactive)
REMARK    1  A    between atoms: CA   and  CB  
REMARK    2  A    between atoms: CB   and  CG  
REMARK    3  A    between atoms: CG   and  CD  
REMARK    4  A    between atoms: CD   and  CE  
ROOT
ATOM      1  CA  LYS A 135      33.193  34.663   9.290  1.00 25.02     0.186 C 
ENDROOT
BRANCH   1   2
ATOM      2  CB  LYS A 135      32.060  35.360  10.034  1.00 26.63     0.034 C 
BRANCH   2   3
ATOM      3  CG  LYS A 135      32.536  36.334  11.081  1.00 29.45     0.005 C 
BRANCH   3   4
ATOM      4  CD  LYS A 135      32.324  35.768  12.476  1.00 32.00     0.041 C 
BRANCH   4   5
ATOM      5  CE  LYS A 135      31.079  34.902  12.516  1.00 34.25     0.338 C 
ATOM      6  NZ  LYS A 135      29.933  35.637  13.119  1.00 35.99     0.618 N 
ENDBRANCH   4   5
ENDBRANCH   3   4
ENDBRANCH   2   3
ENDBRANCH   1   2
END_RES LYS A 135
BEGIN_RES ARG A 124
REMARK  4 active torsions:
REMARK  status: ('A' for Active; 'I' for Inactive)
REMARK    5  A    between atoms: CA   and  CB  
REMARK    6  A    between atoms: CB   and  CG  
REMARK    7  A    between atoms: CG   and  CD  
REMARK    8  A    between atoms: CD   and  NE  
REMARK       I    between atoms: NE   and  CZ  
ROOT
ATOM      7  CA  ARG A 124      31.045  26.515   9.594  1.00 17.84     0.186 C 
ENDROOT
BRANCH   7   8
ATOM      8  CB  ARG A 124      29.529  26.705   9.647  1.00 16.18     0.036 C 
BRANCH   8   9
ATOM      9  CG  ARG A 124      28.975  27.386  10.950  1.00 16.22     0.029 C 
BRANCH   9  10
ATOM     10  CD  ARG A 124      28.459  26.363  11.988  1.00 15.09     0.145 C 
BRANCH  10  11
ATOM     11  NE  ARG A 124      28.041  26.971  13.270  1.00 16.98    -0.083 NA
ATOM     12  CZ  ARG A 124      26.802  27.351  13.562  1.00 18.21     0.782 C 
ATOM     13  NH1 ARG A 124      25.809  27.194  12.695  1.00 21.11     0.063 N 
ATOM     14  NH2 ARG A 124      26.534  27.876  14.748  1.00 21.25     0.063 N 
ENDBRANCH  10  11
ENDBRANCH   9  10
ENDBRANCH   8   9
ENDBRANCH   7   8
END_RES ARG A 124
BEGIN_RES ASN A 133
REMARK  2 active torsions:
REMARK  status: ('A' for Active; 'I' for Inactive)
REMARK    9  A    between atoms: CA   and  CB  
REMARK   10  A    between atoms: CB   and  CG  
ROOT
ATOM     15  CA  ASN A 133      31.225  30.257  11.749  1.00 18.15     0.196 C 
ENDROOT
BRANCH  15  16
ATOM     16  CB  ASN A 133      30.092  31.240  11.460  1.00 18.27     0.126 C 
BRANCH  16  17
ATOM     17  CG  ASN A 133      29.070  31.302  12.552  1.00 18.94     0.276 C 
ATOM     18  OD1 ASN A 133      29.226  32.032  13.533  1.00 18.09    -0.269 OA
ATOM     19  ND2 ASN A 133      27.999  30.525  12.393  1.00 18.93    -0.107 N 
ENDBRANCH  16  17
ENDBRANCH  15  16
END_RES ASN A 133
BEGIN_RES LYS A 131
REMARK  4 active torsions:
REMARK  status: ('A' for Active; 'I' for Inactive)
REMARK   11  A    between atoms: CA   and  CB  
REMARK   12  A    between atoms: CB   and  CG  
REMARK   13  A    between atoms: CG   and  CD  
REMARK   14  A    between atoms: CD   and  CE  
ROOT
ATOM     20  CA  LYS A 131      29.867  25.555  16.977  1.00 20.52     0.186 C 
ENDROOT
BRANCH  20  21
ATOM     21  CB  LYS A 131      28.345  25.722  17.026  1.00 20.94     0.034 C 
BRANCH  21  22
ATOM     22  CG  LYS A 131      27.599  24.426  16.747  1.00 22.96     0.005 C 
BRANCH  22  23
ATOM     23  CD  LYS A 131      26.846  23.935  17.952  1.00 24.33     0.041 C 
BRANCH  23  24
ATOM     24  CE  LYS A 131      25.391  23.678  17.573  1.00 26.91     0.338 C 
ATOM     25  NZ  LYS A 131      25.102  22.225  17.579  1.00 27.40     0.618 N 
ENDBRANCH  23  24
ENDBRANCH  22  23
ENDBRANCH  21  22
ENDBRANCH  20  21
END_RES LYS A 131
