REMARK VINA RESULT:    -3.576      5.726      8.664
REMARK INTER + INTRA:          -9.889
REMARK INTER:                  -3.880
REMARK INTRA:                  -6.009
REMARK UNBOUND:                -5.686
REMARK SMILES Nc1cccc(C=CC(=O)O)c1
REMARK SMILES IDX 8 1 7 2 9 3 10 4 11 5 6 7 5 8 12 9 4 10 2 11 3 12 1 13
REMARK H PARENT 11 6 1 14 1 15
REMARK Flexibility Score: inf
ROOT
ATOM      1  C   UNL     1      37.751  35.088  17.081  1.00  0.00     0.094 C 
ATOM      2  C   UNL     1      37.400  35.315  15.832  1.00  0.00     0.015 C 
ENDROOT
BRANCH   1   3
ATOM      3  C   UNL     1      36.960  35.754  18.139  1.00  0.00     0.328 C 
ATOM      4  O   UNL     1      36.541  36.925  18.010  1.00  0.00    -0.247 OA
BRANCH   3   5
ATOM      5  O   UNL     1      36.647  35.100  19.326  1.00  0.00    -0.478 OA
ATOM      6  H   UNL     1      35.929  35.485  19.930  1.00  0.00     0.297 HD
ENDBRANCH   3   5
ENDBRANCH   1   3
BRANCH   2   7
ATOM      7  C   UNL     1      38.095  34.725  14.697  1.00  0.00    -0.023 A 
ATOM      8  C   UNL     1      37.489  33.800  13.866  1.00  0.00     0.008 A 
ATOM      9  C   UNL     1      39.404  35.107  14.447  1.00  0.00     0.033 A 
ATOM     10  C   UNL     1      38.159  33.249  12.793  1.00  0.00     0.003 A 
ATOM     11  C   UNL     1      40.088  34.572  13.386  1.00  0.00     0.032 A 
ATOM     12  C   UNL     1      39.455  33.652  12.578  1.00  0.00     0.025 A 
BRANCH  11  13
ATOM     13  N   UNL     1      41.427  34.991  13.164  1.00  0.00    -0.399 N 
ATOM     14  H   UNL     1      42.051  35.083  13.973  1.00  0.00     0.156 HD
ATOM     15  H   UNL     1      41.699  35.182  12.165  1.00  0.00     0.156 HD
ENDBRANCH  11  13
ENDBRANCH   2   7
TORSDOF 4
BEGIN_RES LYS A 135
REMARK  4 active torsions:
REMARK  status: ('A' for Active; 'I' for Inactive)
REMARK    1  A    between atoms: CA   and  CB  
REMARK    2  A    between atoms: CB   and  CG  
REMARK    3  A    between atoms: CG   and  CD  
REMARK    4  A    between atoms: CD   and  CE  
ROOT
ATOM      1  CA  LYS A 135      33.193  34.663   9.290  1.00 25.02     0.186 C 
ENDROOT
BRANCH   1   2
ATOM      2  CB  LYS A 135      32.060  35.360  10.034  1.00 26.63     0.034 C 
BRANCH   2   3
ATOM      3  CG  LYS A 135      30.801  35.503   9.218  1.00 29.45     0.005 C 
BRANCH   3   4
ATOM      4  CD  LYS A 135      30.149  34.147   8.995  1.00 32.00     0.041 C 
BRANCH   4   5
ATOM      5  CE  LYS A 135      28.674  34.310   8.684  1.00 34.25     0.338 C 
ATOM      6  NZ  LYS A 135      27.832  33.613   9.695  1.00 35.99     0.618 N 
ENDBRANCH   4   5
ENDBRANCH   3   4
ENDBRANCH   2   3
ENDBRANCH   1   2
END_RES LYS A 135
BEGIN_RES ARG A 124
REMARK  4 active torsions:
REMARK  status: ('A' for Active; 'I' for Inactive)
REMARK    5  A    between atoms: CA   and  CB  
REMARK    6  A    between atoms: CB   and  CG  
REMARK    7  A    between atoms: CG   and  CD  
REMARK    8  A    between atoms: CD   and  NE  
REMARK       I    between atoms: NE   and  CZ  
ROOT
ATOM      7  CA  ARG A 124      31.045  26.515   9.594  1.00 17.84     0.186 C 
ENDROOT
BRANCH   7   8
ATOM      8  CB  ARG A 124      29.529  26.705   9.647  1.00 16.18     0.036 C 
BRANCH   8   9
ATOM      9  CG  ARG A 124      28.906  26.799  11.086  1.00 16.22     0.029 C 
BRANCH   9  10
ATOM     10  CD  ARG A 124      27.542  26.082  11.197  1.00 15.09     0.145 C 
BRANCH  10  11
ATOM     11  NE  ARG A 124      26.401  26.998  11.419  1.00 16.98    -0.083 NA
ATOM     12  CZ  ARG A 124      26.017  27.460  12.604  1.00 18.21     0.782 C 
ATOM     13  NH1 ARG A 124      26.663  27.131  13.716  1.00 21.11     0.063 N 
ATOM     14  NH2 ARG A 124      24.986  28.287  12.688  1.00 21.25     0.063 N 
ENDBRANCH  10  11
ENDBRANCH   9  10
ENDBRANCH   8   9
ENDBRANCH   7   8
END_RES ARG A 124
BEGIN_RES ASN A 133
REMARK  2 active torsions:
REMARK  status: ('A' for Active; 'I' for Inactive)
REMARK    9  A    between atoms: CA   and  CB  
REMARK   10  A    between atoms: CB   and  CG  
ROOT
ATOM     15  CA  ASN A 133      31.225  30.257  11.749  1.00 18.15     0.196 C 
ENDROOT
BRANCH  15  16
ATOM     16  CB  ASN A 133      30.092  31.240  11.460  1.00 18.27     0.126 C 
BRANCH  16  17
ATOM     17  CG  ASN A 133      28.738  30.600  11.464  1.00 18.94     0.276 C 
ATOM     18  OD1 ASN A 133      28.402  29.812  10.579  1.00 18.09    -0.269 OA
ATOM     19  ND2 ASN A 133      27.937  30.939  12.473  1.00 18.93    -0.107 N 
ENDBRANCH  16  17
ENDBRANCH  15  16
END_RES ASN A 133
BEGIN_RES LYS A 131
REMARK  4 active torsions:
REMARK  status: ('A' for Active; 'I' for Inactive)
REMARK   11  A    between atoms: CA   and  CB  
REMARK   12  A    between atoms: CB   and  CG  
REMARK   13  A    between atoms: CG   and  CD  
REMARK   14  A    between atoms: CD   and  CE  
ROOT
ATOM     20  CA  LYS A 131      29.867  25.555  16.977  1.00 20.52     0.186 C 
ENDROOT
BRANCH  20  21
ATOM     21  CB  LYS A 131      28.345  25.722  17.026  1.00 20.94     0.034 C 
BRANCH  21  22
ATOM     22  CG  LYS A 131      27.600  24.408  16.850  1.00 22.96     0.005 C 
BRANCH  22  23
ATOM     23  CD  LYS A 131      26.569  24.192  17.923  1.00 24.33     0.041 C 
BRANCH  23  24
ATOM     24  CE  LYS A 131      25.738  22.958  17.590  1.00 26.91     0.338 C 
ATOM     25  NZ  LYS A 131      24.387  23.352  17.124  1.00 27.40     0.618 N 
ENDBRANCH  23  24
ENDBRANCH  22  23
ENDBRANCH  21  22
ENDBRANCH  20  21
END_RES LYS A 131
