REMARK VINA RESULT:    -3.807      5.498      9.783
REMARK INTER + INTRA:          -9.768
REMARK INTER:                  -4.104
REMARK INTRA:                  -5.664
REMARK UNBOUND:                -5.627
REMARK SMILES CC(=O)c1ccccc1N
REMARK SMILES IDX 4 1 5 2 6 3 7 4 8 5 9 6 2 7 1 8 3 9 10 10
REMARK H PARENT 10 11 10 12
REMARK Flexibility Score: inf
ROOT
ATOM      1  C   UNL     1      30.622  32.309  17.680  1.00  0.00     0.040 A 
ATOM      2  C   UNL     1      31.232  33.515  17.965  1.00  0.00     0.014 A 
ATOM      3  C   UNL     1      31.889  34.236  16.989  1.00  0.00     0.001 A 
ATOM      4  C   UNL     1      31.968  33.793  15.690  1.00  0.00     0.002 A 
ATOM      5  C   UNL     1      31.363  32.588  15.387  1.00  0.00     0.026 A 
ATOM      6  C   UNL     1      30.701  31.867  16.385  1.00  0.00     0.042 A 
ENDROOT
BRANCH   1   7
ATOM      7  C   UNL     1      29.935  31.549  18.687  1.00  0.00     0.161 C 
ATOM      8  C   UNL     1      30.596  30.824  19.791  1.00  0.00     0.093 C 
ATOM      9  O   UNL     1      28.659  31.484  18.638  1.00  0.00    -0.294 OA
ENDBRANCH   1   7
BRANCH   6  10
ATOM     10  N   UNL     1      30.084  30.633  16.067  1.00  0.00    -0.398 N 
ATOM     11  H   UNL     1      30.409  29.720  16.456  1.00  0.00     0.156 HD
ATOM     12  H   UNL     1      29.254  30.558  15.414  1.00  0.00     0.156 HD
ENDBRANCH   6  10
TORSDOF 2
BEGIN_RES LYS A 135
REMARK  4 active torsions:
REMARK  status: ('A' for Active; 'I' for Inactive)
REMARK    1  A    between atoms: CA   and  CB  
REMARK    2  A    between atoms: CB   and  CG  
REMARK    3  A    between atoms: CG   and  CD  
REMARK    4  A    between atoms: CD   and  CE  
ROOT
ATOM      1  CA  LYS A 135      33.193  34.663   9.290  1.00 25.02     0.186 C 
ENDROOT
BRANCH   1   2
ATOM      2  CB  LYS A 135      32.060  35.360  10.034  1.00 26.63     0.034 C 
BRANCH   2   3
ATOM      3  CG  LYS A 135      30.711  34.728   9.806  1.00 29.45     0.005 C 
BRANCH   3   4
ATOM      4  CD  LYS A 135      30.462  34.515   8.321  1.00 32.00     0.041 C 
BRANCH   4   5
ATOM      5  CE  LYS A 135      29.016  34.811   7.975  1.00 34.25     0.338 C 
ATOM      6  NZ  LYS A 135      28.910  35.514   6.667  1.00 35.99     0.618 N 
ENDBRANCH   4   5
ENDBRANCH   3   4
ENDBRANCH   2   3
ENDBRANCH   1   2
END_RES LYS A 135
BEGIN_RES ARG A 124
REMARK  4 active torsions:
REMARK  status: ('A' for Active; 'I' for Inactive)
REMARK    5  A    between atoms: CA   and  CB  
REMARK    6  A    between atoms: CB   and  CG  
REMARK    7  A    between atoms: CG   and  CD  
REMARK    8  A    between atoms: CD   and  NE  
REMARK       I    between atoms: NE   and  CZ  
ROOT
ATOM      7  CA  ARG A 124      31.045  26.515   9.594  1.00 17.84     0.186 C 
ENDROOT
BRANCH   7   8
ATOM      8  CB  ARG A 124      29.529  26.705   9.647  1.00 16.18     0.036 C 
BRANCH   8   9
ATOM      9  CG  ARG A 124      28.975  27.387  10.949  1.00 16.22     0.029 C 
BRANCH   9  10
ATOM     10  CD  ARG A 124      28.456  26.366  11.987  1.00 15.09     0.145 C 
BRANCH  10  11
ATOM     11  NE  ARG A 124      28.085  26.969  13.286  1.00 16.98    -0.083 NA
ATOM     12  CZ  ARG A 124      26.867  27.391  13.607  1.00 18.21     0.782 C 
ATOM     13  NH1 ARG A 124      25.853  27.285  12.756  1.00 21.11     0.063 N 
ATOM     14  NH2 ARG A 124      26.641  27.907  14.805  1.00 21.25     0.063 N 
ENDBRANCH  10  11
ENDBRANCH   9  10
ENDBRANCH   8   9
ENDBRANCH   7   8
END_RES ARG A 124
BEGIN_RES ASN A 133
REMARK  2 active torsions:
REMARK  status: ('A' for Active; 'I' for Inactive)
REMARK    9  A    between atoms: CA   and  CB  
REMARK   10  A    between atoms: CB   and  CG  
ROOT
ATOM     15  CA  ASN A 133      31.225  30.257  11.749  1.00 18.15     0.196 C 
ENDROOT
BRANCH  15  16
ATOM     16  CB  ASN A 133      30.092  31.240  11.460  1.00 18.27     0.126 C 
BRANCH  16  17
ATOM     17  CG  ASN A 133      28.874  31.002  12.298  1.00 18.94     0.276 C 
ATOM     18  OD1 ASN A 133      28.773  31.484  13.428  1.00 18.09    -0.269 OA
ATOM     19  ND2 ASN A 133      27.926  30.246  11.747  1.00 18.93    -0.107 N 
ENDBRANCH  16  17
ENDBRANCH  15  16
END_RES ASN A 133
BEGIN_RES LYS A 131
REMARK  4 active torsions:
REMARK  status: ('A' for Active; 'I' for Inactive)
REMARK   11  A    between atoms: CA   and  CB  
REMARK   12  A    between atoms: CB   and  CG  
REMARK   13  A    between atoms: CG   and  CD  
REMARK   14  A    between atoms: CD   and  CE  
ROOT
ATOM     20  CA  LYS A 131      29.867  25.555  16.977  1.00 20.52     0.186 C 
ENDROOT
BRANCH  20  21
ATOM     21  CB  LYS A 131      28.345  25.722  17.026  1.00 20.94     0.034 C 
BRANCH  21  22
ATOM     22  CG  LYS A 131      27.600  24.412  16.819  1.00 22.96     0.005 C 
BRANCH  22  23
ATOM     23  CD  LYS A 131      26.339  24.343  17.634  1.00 24.33     0.041 C 
BRANCH  23  24
ATOM     24  CE  LYS A 131      25.568  25.651  17.493  1.00 26.91     0.338 C 
ATOM     25  NZ  LYS A 131      24.541  25.536  16.431  1.00 27.40     0.618 N 
ENDBRANCH  23  24
ENDBRANCH  22  23
ENDBRANCH  21  22
ENDBRANCH  20  21
END_RES LYS A 131
