REMARK VINA RESULT:    -2.814      1.462      2.401
REMARK INTER + INTRA:          -9.036
REMARK INTER:                  -3.421
REMARK INTRA:                  -5.615
REMARK UNBOUND:                -5.482
REMARK SMILES CCN(CC)CCN
REMARK SMILES IDX 6 1 3 2 2 3 1 4 4 5 5 6 7 7 8 8
REMARK H PARENT 8 9 8 10
REMARK Flexibility Score: inf
ROOT
ATOM      1  C   UNL     1      39.354  34.593  15.197  1.00  0.00     0.099 C 
ENDROOT
BRANCH   1   2
ATOM      2  N   UNL     1      38.638  34.760  13.953  1.00  0.00    -0.303 NA
BRANCH   2   3
ATOM      3  C   UNL     1      39.521  34.599  12.806  1.00  0.00     0.081 C 
ATOM      4  C   UNL     1      40.276  35.790  12.389  1.00  0.00     0.021 C 
ENDBRANCH   2   3
BRANCH   2   5
ATOM      5  C   UNL     1      37.590  33.740  13.897  1.00  0.00     0.081 C 
ATOM      6  C   UNL     1      37.180  33.449  12.481  1.00  0.00     0.021 C 
ENDBRANCH   2   5
ENDBRANCH   1   2
BRANCH   1   7
ATOM      7  C   UNL     1      38.397  34.017  16.220  1.00  0.00     0.093 C 
BRANCH   7   8
ATOM      8  N   UNL     1      39.156  33.044  17.038  1.00  0.00    -0.329 NA
ATOM      9  H   UNL     1      38.710  33.038  17.973  1.00  0.00     0.118 HD
ATOM     10  H   UNL     1      38.980  32.113  16.606  1.00  0.00     0.118 HD
ENDBRANCH   7   8
ENDBRANCH   1   7
TORSDOF 5
BEGIN_RES LYS A 135
REMARK  4 active torsions:
REMARK  status: ('A' for Active; 'I' for Inactive)
REMARK    1  A    between atoms: CA   and  CB  
REMARK    2  A    between atoms: CB   and  CG  
REMARK    3  A    between atoms: CG   and  CD  
REMARK    4  A    between atoms: CD   and  CE  
ROOT
ATOM      1  CA  LYS A 135      33.193  34.663   9.290  1.00 25.02     0.186 C 
ENDROOT
BRANCH   1   2
ATOM      2  CB  LYS A 135      32.060  35.360  10.034  1.00 26.63     0.034 C 
BRANCH   2   3
ATOM      3  CG  LYS A 135      30.728  34.670   9.887  1.00 29.45     0.005 C 
BRANCH   3   4
ATOM      4  CD  LYS A 135      30.345  34.549   8.420  1.00 32.00     0.041 C 
BRANCH   4   5
ATOM      5  CE  LYS A 135      28.837  34.537   8.263  1.00 34.25     0.338 C 
ATOM      6  NZ  LYS A 135      28.185  33.824   9.397  1.00 35.99     0.618 N 
ENDBRANCH   4   5
ENDBRANCH   3   4
ENDBRANCH   2   3
ENDBRANCH   1   2
END_RES LYS A 135
BEGIN_RES ARG A 124
REMARK  4 active torsions:
REMARK  status: ('A' for Active; 'I' for Inactive)
REMARK    5  A    between atoms: CA   and  CB  
REMARK    6  A    between atoms: CB   and  CG  
REMARK    7  A    between atoms: CG   and  CD  
REMARK    8  A    between atoms: CD   and  NE  
REMARK       I    between atoms: NE   and  CZ  
ROOT
ATOM      7  CA  ARG A 124      31.045  26.515   9.594  1.00 17.84     0.186 C 
ENDROOT
BRANCH   7   8
ATOM      8  CB  ARG A 124      29.529  26.705   9.647  1.00 16.18     0.036 C 
BRANCH   8   9
ATOM      9  CG  ARG A 124      28.961  27.261  11.002  1.00 16.22     0.029 C 
BRANCH   9  10
ATOM     10  CD  ARG A 124      28.348  26.157  11.893  1.00 15.09     0.145 C 
BRANCH  10  11
ATOM     11  NE  ARG A 124      27.877  26.643  13.208  1.00 16.98    -0.083 NA
ATOM     12  CZ  ARG A 124      26.667  27.140  13.446  1.00 18.21     0.782 C 
ATOM     13  NH1 ARG A 124      25.756  27.227  12.485  1.00 21.11     0.063 N 
ATOM     14  NH2 ARG A 124      26.345  27.538  14.667  1.00 21.25     0.063 N 
ENDBRANCH  10  11
ENDBRANCH   9  10
ENDBRANCH   8   9
ENDBRANCH   7   8
END_RES ARG A 124
BEGIN_RES ASN A 133
REMARK  2 active torsions:
REMARK  status: ('A' for Active; 'I' for Inactive)
REMARK    9  A    between atoms: CA   and  CB  
REMARK   10  A    between atoms: CB   and  CG  
ROOT
ATOM     15  CA  ASN A 133      31.225  30.257  11.749  1.00 18.15     0.196 C 
ENDROOT
BRANCH  15  16
ATOM     16  CB  ASN A 133      30.092  31.240  11.460  1.00 18.27     0.126 C 
BRANCH  16  17
ATOM     17  CG  ASN A 133      28.947  31.121  12.418  1.00 18.94     0.276 C 
ATOM     18  OD1 ASN A 133      28.917  31.777  13.461  1.00 18.09    -0.269 OA
ATOM     19  ND2 ASN A 133      27.982  30.271  12.069  1.00 18.93    -0.107 N 
ENDBRANCH  16  17
ENDBRANCH  15  16
END_RES ASN A 133
BEGIN_RES LYS A 131
REMARK  4 active torsions:
REMARK  status: ('A' for Active; 'I' for Inactive)
REMARK   11  A    between atoms: CA   and  CB  
REMARK   12  A    between atoms: CB   and  CG  
REMARK   13  A    between atoms: CG   and  CD  
REMARK   14  A    between atoms: CD   and  CE  
ROOT
ATOM     20  CA  LYS A 131      29.867  25.555  16.977  1.00 20.52     0.186 C 
ENDROOT
BRANCH  20  21
ATOM     21  CB  LYS A 131      28.345  25.722  17.026  1.00 20.94     0.034 C 
BRANCH  21  22
ATOM     22  CG  LYS A 131      27.600  24.411  16.829  1.00 22.96     0.005 C 
BRANCH  22  23
ATOM     23  CD  LYS A 131      26.143  24.529  17.179  1.00 24.33     0.041 C 
BRANCH  23  24
ATOM     24  CE  LYS A 131      25.647  23.204  17.749  1.00 26.91     0.338 C 
ATOM     25  NZ  LYS A 131      25.583  23.267  19.228  1.00 27.40     0.618 N 
ENDBRANCH  23  24
ENDBRANCH  22  23
ENDBRANCH  21  22
ENDBRANCH  20  21
END_RES LYS A 131
