REMARK VINA RESULT:    -4.409      4.507      7.481
REMARK INTER + INTRA:         -10.723
REMARK INTER:                  -6.072
REMARK INTRA:                  -4.651
REMARK UNBOUND:                -5.541
REMARK SMILES NCC(O)c1ccccc1
REMARK SMILES IDX 2 1 1 2 3 5 4 6 5 8 6 9 10 10 7 11 9 12 8 13
REMARK H PARENT 1 3 1 4 4 7
REMARK Flexibility Score: inf
ROOT
ATOM      1  C   UNL     1      27.355  36.594   5.876  1.00  0.00     0.114 C 
ENDROOT
BRANCH   1   2
ATOM      2  N   UNL     1      27.300  37.789   5.095  1.00  0.00    -0.328 NA
ATOM      3  H   UNL     1      26.628  37.656   4.323  1.00  0.00     0.118 HD
ATOM      4  H   UNL     1      28.224  38.020   4.650  1.00  0.00     0.118 HD
ENDBRANCH   1   2
BRANCH   1   5
ATOM      5  C   UNL     1      28.779  36.194   6.226  1.00  0.00     0.158 C 
BRANCH   5   6
ATOM      6  O   UNL     1      29.572  37.284   6.501  1.00  0.00    -0.387 OA
ATOM      7  H   UNL     1      29.024  37.908   7.070  1.00  0.00     0.211 HD
ENDBRANCH   5   6
BRANCH   5   8
ATOM      8  C   UNL     1      28.761  35.321   7.434  1.00  0.00    -0.018 A 
ATOM      9  C   UNL     1      27.590  34.915   8.041  1.00  0.00     0.006 A 
ATOM     10  C   UNL     1      29.947  34.885   7.991  1.00  0.00     0.006 A 
ATOM     11  C   UNL     1      27.617  34.105   9.160  1.00  0.00     0.000 A 
ATOM     12  C   UNL     1      29.972  34.074   9.110  1.00  0.00     0.000 A 
ATOM     13  C   UNL     1      28.803  33.670   9.715  1.00  0.00     0.000 A 
ENDBRANCH   5   8
ENDBRANCH   1   5
TORSDOF 4
BEGIN_RES LYS A 135
REMARK  4 active torsions:
REMARK  status: ('A' for Active; 'I' for Inactive)
REMARK    1  A    between atoms: CA   and  CB  
REMARK    2  A    between atoms: CB   and  CG  
REMARK    3  A    between atoms: CG   and  CD  
REMARK    4  A    between atoms: CD   and  CE  
ROOT
ATOM      1  CA  LYS A 135      33.193  34.663   9.290  1.00 25.02     0.186 C 
ENDROOT
BRANCH   1   2
ATOM      2  CB  LYS A 135      32.060  35.360  10.034  1.00 26.63     0.034 C 
BRANCH   2   3
ATOM      3  CG  LYS A 135      32.535  36.301  11.111  1.00 29.45     0.005 C 
BRANCH   3   4
ATOM      4  CD  LYS A 135      32.295  35.705  12.489  1.00 32.00     0.041 C 
BRANCH   4   5
ATOM      5  CE  LYS A 135      30.973  34.962  12.525  1.00 34.25     0.338 C 
ATOM      6  NZ  LYS A 135      30.662  34.488  13.902  1.00 35.99     0.618 N 
ENDBRANCH   4   5
ENDBRANCH   3   4
ENDBRANCH   2   3
ENDBRANCH   1   2
END_RES LYS A 135
BEGIN_RES ARG A 124
REMARK  4 active torsions:
REMARK  status: ('A' for Active; 'I' for Inactive)
REMARK    5  A    between atoms: CA   and  CB  
REMARK    6  A    between atoms: CB   and  CG  
REMARK    7  A    between atoms: CG   and  CD  
REMARK    8  A    between atoms: CD   and  NE  
REMARK       I    between atoms: NE   and  CZ  
ROOT
ATOM      7  CA  ARG A 124      31.045  26.515   9.594  1.00 17.84     0.186 C 
ENDROOT
BRANCH   7   8
ATOM      8  CB  ARG A 124      29.529  26.705   9.647  1.00 16.18     0.036 C 
BRANCH   8   9
ATOM      9  CG  ARG A 124      28.894  26.699  11.083  1.00 16.22     0.029 C 
BRANCH   9  10
ATOM     10  CD  ARG A 124      27.487  26.060  11.115  1.00 15.09     0.145 C 
BRANCH  10  11
ATOM     11  NE  ARG A 124      26.398  27.024  11.387  1.00 16.98    -0.083 NA
ATOM     12  CZ  ARG A 124      26.071  27.481  12.590  1.00 18.21     0.782 C 
ATOM     13  NH1 ARG A 124      26.732  27.100  13.677  1.00 21.11     0.063 N 
ATOM     14  NH2 ARG A 124      25.083  28.354  12.720  1.00 21.25     0.063 N 
ENDBRANCH  10  11
ENDBRANCH   9  10
ENDBRANCH   8   9
ENDBRANCH   7   8
END_RES ARG A 124
BEGIN_RES ASN A 133
REMARK  2 active torsions:
REMARK  status: ('A' for Active; 'I' for Inactive)
REMARK    9  A    between atoms: CA   and  CB  
REMARK   10  A    between atoms: CB   and  CG  
ROOT
ATOM     15  CA  ASN A 133      31.225  30.257  11.749  1.00 18.15     0.196 C 
ENDROOT
BRANCH  15  16
ATOM     16  CB  ASN A 133      30.092  31.240  11.460  1.00 18.27     0.126 C 
BRANCH  16  17
ATOM     17  CG  ASN A 133      28.733  30.615  11.534  1.00 18.94     0.276 C 
ATOM     18  OD1 ASN A 133      28.373  29.772  10.710  1.00 18.09    -0.269 OA
ATOM     19  ND2 ASN A 133      27.955  31.029  12.533  1.00 18.93    -0.107 N 
ENDBRANCH  16  17
ENDBRANCH  15  16
END_RES ASN A 133
BEGIN_RES LYS A 131
REMARK  4 active torsions:
REMARK  status: ('A' for Active; 'I' for Inactive)
REMARK   11  A    between atoms: CA   and  CB  
REMARK   12  A    between atoms: CB   and  CG  
REMARK   13  A    between atoms: CG   and  CD  
REMARK   14  A    between atoms: CD   and  CE  
ROOT
ATOM     20  CA  LYS A 131      29.867  25.555  16.977  1.00 20.52     0.186 C 
ENDROOT
BRANCH  20  21
ATOM     21  CB  LYS A 131      28.345  25.722  17.026  1.00 20.94     0.034 C 
BRANCH  21  22
ATOM     22  CG  LYS A 131      27.599  24.431  16.727  1.00 22.96     0.005 C 
BRANCH  22  23
ATOM     23  CD  LYS A 131      26.949  23.855  17.955  1.00 24.33     0.041 C 
BRANCH  23  24
ATOM     24  CE  LYS A 131      25.617  23.216  17.573  1.00 26.91     0.338 C 
ATOM     25  NZ  LYS A 131      24.724  24.215  16.940  1.00 27.40     0.618 N 
ENDBRANCH  23  24
ENDBRANCH  22  23
ENDBRANCH  21  22
ENDBRANCH  20  21
END_RES LYS A 131
