REMARK VINA RESULT:    -4.557      3.074      6.265
REMARK INTER + INTRA:         -11.477
REMARK INTER:                  -6.559
REMARK INTRA:                  -4.918
REMARK UNBOUND:                -6.254
REMARK SMILES NC(c1ccccc1)c1ccccc1
REMARK SMILES IDX 2 1 1 2 3 5 4 6 8 7 5 8 7 9 6 10 9 11 10 12 14 13 11 14
REMARK SMILES IDX 13 15 12 16
REMARK H PARENT 1 3 1 4
REMARK Flexibility Score: inf
ROOT
ATOM      1  C   UNL     1      27.751  35.832   6.788  1.00  0.00     0.112 C 
ENDROOT
BRANCH   1   2
ATOM      2  N   UNL     1      28.598  36.368   5.745  1.00  0.00    -0.320 NA
ATOM      3  H   UNL     1      28.744  37.382   5.814  1.00  0.00     0.119 HD
ATOM      4  H   UNL     1      28.328  36.019   4.810  1.00  0.00     0.119 HD
ENDBRANCH   1   2
BRANCH   1   5
ATOM      5  C   UNL     1      27.001  36.951   7.381  1.00  0.00    -0.027 A 
ATOM      6  C   UNL     1      27.708  38.100   7.689  1.00  0.00     0.006 A 
ATOM      7  C   UNL     1      25.668  36.935   7.645  1.00  0.00     0.006 A 
ATOM      8  C   UNL     1      27.092  39.206   8.249  1.00  0.00     0.000 A 
ATOM      9  C   UNL     1      25.022  38.015   8.201  1.00  0.00     0.000 A 
ATOM     10  C   UNL     1      25.737  39.137   8.497  1.00  0.00     0.000 A 
ENDBRANCH   1   5
BRANCH   1  11
ATOM     11  C   UNL     1      28.536  35.075   7.798  1.00  0.00    -0.027 A 
ATOM     12  C   UNL     1      29.907  34.942   7.699  1.00  0.00     0.006 A 
ATOM     13  C   UNL     1      27.945  34.464   8.887  1.00  0.00     0.006 A 
ATOM     14  C   UNL     1      30.666  34.247   8.620  1.00  0.00     0.000 A 
ATOM     15  C   UNL     1      28.690  33.766   9.814  1.00  0.00     0.000 A 
ATOM     16  C   UNL     1      30.059  33.641   9.704  1.00  0.00     0.000 A 
ENDBRANCH   1  11
TORSDOF 3
BEGIN_RES LYS A 135
REMARK  4 active torsions:
REMARK  status: ('A' for Active; 'I' for Inactive)
REMARK    1  A    between atoms: CA   and  CB  
REMARK    2  A    between atoms: CB   and  CG  
REMARK    3  A    between atoms: CG   and  CD  
REMARK    4  A    between atoms: CD   and  CE  
ROOT
ATOM      1  CA  LYS A 135      33.193  34.663   9.290  1.00 25.02     0.186 C 
ENDROOT
BRANCH   1   2
ATOM      2  CB  LYS A 135      32.060  35.360  10.034  1.00 26.63     0.034 C 
BRANCH   2   3
ATOM      3  CG  LYS A 135      32.523  36.159  11.225  1.00 29.45     0.005 C 
BRANCH   3   4
ATOM      4  CD  LYS A 135      31.723  37.446  11.352  1.00 32.00     0.041 C 
BRANCH   4   5
ATOM      5  CE  LYS A 135      30.667  37.526  10.266  1.00 34.25     0.338 C 
ATOM      6  NZ  LYS A 135      29.299  37.372  10.836  1.00 35.99     0.618 N 
ENDBRANCH   4   5
ENDBRANCH   3   4
ENDBRANCH   2   3
ENDBRANCH   1   2
END_RES LYS A 135
BEGIN_RES ARG A 124
REMARK  4 active torsions:
REMARK  status: ('A' for Active; 'I' for Inactive)
REMARK    5  A    between atoms: CA   and  CB  
REMARK    6  A    between atoms: CB   and  CG  
REMARK    7  A    between atoms: CG   and  CD  
REMARK    8  A    between atoms: CD   and  NE  
REMARK       I    between atoms: NE   and  CZ  
ROOT
ATOM      7  CA  ARG A 124      31.045  26.515   9.594  1.00 17.84     0.186 C 
ENDROOT
BRANCH   7   8
ATOM      8  CB  ARG A 124      29.529  26.705   9.647  1.00 16.18     0.036 C 
BRANCH   8   9
ATOM      9  CG  ARG A 124      28.910  26.824  11.085  1.00 16.22     0.029 C 
BRANCH   9  10
ATOM     10  CD  ARG A 124      27.535  26.126  11.206  1.00 15.09     0.145 C 
BRANCH  10  11
ATOM     11  NE  ARG A 124      26.410  27.058  11.435  1.00 16.98    -0.083 NA
ATOM     12  CZ  ARG A 124      26.024  27.506  12.625  1.00 18.21     0.782 C 
ATOM     13  NH1 ARG A 124      26.654  27.145  13.736  1.00 21.11     0.063 N 
ATOM     14  NH2 ARG A 124      25.007  28.349  12.716  1.00 21.25     0.063 N 
ENDBRANCH  10  11
ENDBRANCH   9  10
ENDBRANCH   8   9
ENDBRANCH   7   8
END_RES ARG A 124
BEGIN_RES ASN A 133
REMARK  2 active torsions:
REMARK  status: ('A' for Active; 'I' for Inactive)
REMARK    9  A    between atoms: CA   and  CB  
REMARK   10  A    between atoms: CB   and  CG  
ROOT
ATOM     15  CA  ASN A 133      31.225  30.257  11.749  1.00 18.15     0.196 C 
ENDROOT
BRANCH  15  16
ATOM     16  CB  ASN A 133      30.092  31.240  11.460  1.00 18.27     0.126 C 
BRANCH  16  17
ATOM     17  CG  ASN A 133      28.744  30.590  11.405  1.00 18.94     0.276 C 
ATOM     18  OD1 ASN A 133      28.407  29.900  10.441  1.00 18.09    -0.269 OA
ATOM     19  ND2 ASN A 133      27.949  30.808  12.452  1.00 18.93    -0.107 N 
ENDBRANCH  16  17
ENDBRANCH  15  16
END_RES ASN A 133
BEGIN_RES LYS A 131
REMARK  4 active torsions:
REMARK  status: ('A' for Active; 'I' for Inactive)
REMARK   11  A    between atoms: CA   and  CB  
REMARK   12  A    between atoms: CB   and  CG  
REMARK   13  A    between atoms: CG   and  CD  
REMARK   14  A    between atoms: CD   and  CE  
ROOT
ATOM     20  CA  LYS A 131      29.867  25.555  16.977  1.00 20.52     0.186 C 
ENDROOT
BRANCH  20  21
ATOM     21  CB  LYS A 131      28.345  25.722  17.026  1.00 20.94     0.034 C 
BRANCH  21  22
ATOM     22  CG  LYS A 131      27.600  24.415  16.806  1.00 22.96     0.005 C 
BRANCH  22  23
ATOM     23  CD  LYS A 131      26.775  24.024  18.001  1.00 24.33     0.041 C 
BRANCH  23  24
ATOM     24  CE  LYS A 131      25.727  22.998  17.583  1.00 26.91     0.338 C 
ATOM     25  NZ  LYS A 131      24.479  23.675  17.156  1.00 27.40     0.618 N 
ENDBRANCH  23  24
ENDBRANCH  22  23
ENDBRANCH  21  22
ENDBRANCH  20  21
END_RES LYS A 131
