REMARK VINA RESULT:    -3.012      1.975      2.245
REMARK INTER + INTRA:          -8.991
REMARK INTER:                  -3.118
REMARK INTRA:                  -5.873
REMARK UNBOUND:                -5.539
REMARK SMILES NCCC1OCCO1
REMARK SMILES IDX 2 1 1 2 3 5 4 6 5 7 8 8 6 9 7 10
REMARK H PARENT 1 3 1 4
REMARK Flexibility Score: inf
ROOT
ATOM      1  C   UNL     1      38.128  32.519  12.647  1.00  0.00     0.083 C 
ENDROOT
BRANCH   1   2
ATOM      2  N   UNL     1      39.471  32.956  12.404  1.00  0.00    -0.330 NA
ATOM      3  H   UNL     1      39.897  33.208  13.321  1.00  0.00     0.118 HD
ATOM      4  H   UNL     1      39.998  32.187  11.931  1.00  0.00     0.118 HD
ENDBRANCH   1   2
BRANCH   1   5
ATOM      5  C   UNL     1      37.203  33.699  12.935  1.00  0.00     0.077 C 
BRANCH   5   6
ATOM      6  C   UNL     1      37.650  34.301  14.234  1.00  0.00     0.251 C 
ATOM      7  O   UNL     1      38.711  35.167  14.113  1.00  0.00    -0.350 OA
ATOM      8  O   UNL     1      38.121  33.344  15.135  1.00  0.00    -0.350 OA
ATOM      9  C   UNL     1      39.343  35.214  15.357  1.00  0.00     0.192 C 
ATOM     10  C   UNL     1      38.541  34.206  16.160  1.00  0.00     0.192 C 
ENDBRANCH   5   6
ENDBRANCH   1   5
TORSDOF 3
BEGIN_RES LYS A 135
REMARK  4 active torsions:
REMARK  status: ('A' for Active; 'I' for Inactive)
REMARK    1  A    between atoms: CA   and  CB  
REMARK    2  A    between atoms: CB   and  CG  
REMARK    3  A    between atoms: CG   and  CD  
REMARK    4  A    between atoms: CD   and  CE  
ROOT
ATOM      1  CA  LYS A 135      33.193  34.663   9.290  1.00 25.02     0.186 C 
ENDROOT
BRANCH   1   2
ATOM      2  CB  LYS A 135      32.060  35.360  10.034  1.00 26.63     0.034 C 
BRANCH   2   3
ATOM      3  CG  LYS A 135      30.708  34.740   9.791  1.00 29.45     0.005 C 
BRANCH   3   4
ATOM      4  CD  LYS A 135      30.467  34.544   8.302  1.00 32.00     0.041 C 
BRANCH   4   5
ATOM      5  CE  LYS A 135      29.020  34.834   7.954  1.00 34.25     0.338 C 
ATOM      6  NZ  LYS A 135      28.916  35.572   6.665  1.00 35.99     0.618 N 
ENDBRANCH   4   5
ENDBRANCH   3   4
ENDBRANCH   2   3
ENDBRANCH   1   2
END_RES LYS A 135
BEGIN_RES ARG A 124
REMARK  4 active torsions:
REMARK  status: ('A' for Active; 'I' for Inactive)
REMARK    5  A    between atoms: CA   and  CB  
REMARK    6  A    between atoms: CB   and  CG  
REMARK    7  A    between atoms: CG   and  CD  
REMARK    8  A    between atoms: CD   and  NE  
REMARK       I    between atoms: NE   and  CZ  
ROOT
ATOM      7  CA  ARG A 124      31.045  26.515   9.594  1.00 17.84     0.186 C 
ENDROOT
BRANCH   7   8
ATOM      8  CB  ARG A 124      29.529  26.705   9.647  1.00 16.18     0.036 C 
BRANCH   8   9
ATOM      9  CG  ARG A 124      29.035  28.041  10.308  1.00 16.22     0.029 C 
BRANCH   9  10
ATOM     10  CD  ARG A 124      27.661  27.895  11.002  1.00 15.09     0.145 C 
BRANCH  10  11
ATOM     11  NE  ARG A 124      27.622  28.445  12.374  1.00 16.98    -0.083 NA
ATOM     12  CZ  ARG A 124      27.816  27.737  13.482  1.00 18.21     0.782 C 
ATOM     13  NH1 ARG A 124      28.081  26.437  13.433  1.00 21.11     0.063 N 
ATOM     14  NH2 ARG A 124      27.770  28.333  14.664  1.00 21.25     0.063 N 
ENDBRANCH  10  11
ENDBRANCH   9  10
ENDBRANCH   8   9
ENDBRANCH   7   8
END_RES ARG A 124
BEGIN_RES ASN A 133
REMARK  2 active torsions:
REMARK  status: ('A' for Active; 'I' for Inactive)
REMARK    9  A    between atoms: CA   and  CB  
REMARK   10  A    between atoms: CB   and  CG  
ROOT
ATOM     15  CA  ASN A 133      31.225  30.257  11.749  1.00 18.15     0.196 C 
ENDROOT
BRANCH  15  16
ATOM     16  CB  ASN A 133      30.092  31.240  11.460  1.00 18.27     0.126 C 
BRANCH  16  17
ATOM     17  CG  ASN A 133      29.513  31.856  12.696  1.00 18.94     0.276 C 
ATOM     18  OD1 ASN A 133      28.726  31.233  13.411  1.00 18.09    -0.269 OA
ATOM     19  ND2 ASN A 133      29.901  33.103  12.962  1.00 18.93    -0.107 N 
ENDBRANCH  16  17
ENDBRANCH  15  16
END_RES ASN A 133
BEGIN_RES LYS A 131
REMARK  4 active torsions:
REMARK  status: ('A' for Active; 'I' for Inactive)
REMARK   11  A    between atoms: CA   and  CB  
REMARK   12  A    between atoms: CB   and  CG  
REMARK   13  A    between atoms: CG   and  CD  
REMARK   14  A    between atoms: CD   and  CE  
ROOT
ATOM     20  CA  LYS A 131      29.867  25.555  16.977  1.00 20.52     0.186 C 
ENDROOT
BRANCH  20  21
ATOM     21  CB  LYS A 131      28.345  25.722  17.026  1.00 20.94     0.034 C 
BRANCH  21  22
ATOM     22  CG  LYS A 131      27.601  24.401  16.898  1.00 22.96     0.005 C 
BRANCH  22  23
ATOM     23  CD  LYS A 131      26.126  24.556  17.144  1.00 24.33     0.041 C 
BRANCH  23  24
ATOM     24  CE  LYS A 131      25.666  25.919  16.637  1.00 26.91     0.338 C 
ATOM     25  NZ  LYS A 131      24.463  26.369  17.377  1.00 27.40     0.618 N 
ENDBRANCH  23  24
ENDBRANCH  22  23
ENDBRANCH  21  22
ENDBRANCH  20  21
END_RES LYS A 131
