REMARK VINA RESULT:    -4.150      7.104     17.236
REMARK INTER + INTRA:         -10.906
REMARK INTER:                  -5.440
REMARK INTRA:                  -5.466
REMARK UNBOUND:                -5.664
REMARK SMILES NCCNC(=O)NCc1ccco1
REMARK SMILES IDX 7 1 5 2 6 3 4 4 8 7 9 8 10 9 13 10 11 11 12 12 3 13 2 14
REMARK SMILES IDX 1 15
REMARK H PARENT 7 5 4 6 1 16 1 17
REMARK Flexibility Score: inf
ROOT
ATOM      1  N   UNL     1      37.385  37.176   3.248  1.00  0.00    -0.331 N 
ATOM      2  C   UNL     1      38.746  37.034   3.676  1.00  0.00     0.315 C 
ATOM      3  O   UNL     1      39.484  38.039   3.820  1.00  0.00    -0.249 OA
ATOM      4  N   UNL     1      39.301  35.760   3.950  1.00  0.00    -0.337 N 
ATOM      5  H   UNL     1      36.768  36.349   3.127  1.00  0.00     0.165 HD
ATOM      6  H   UNL     1      38.697  34.901   3.834  1.00  0.00     0.165 HD
ENDROOT
BRANCH   1   7
ATOM      7  C   UNL     1      36.861  38.497   2.981  1.00  0.00     0.193 C 
BRANCH   7   8
ATOM      8  C   UNL     1      35.841  38.817   4.026  1.00  0.00     0.122 A 
ATOM      9  C   UNL     1      35.908  38.521   5.369  1.00  0.00     0.047 A 
ATOM     10  O   UNL     1      34.701  39.435   3.845  1.00  0.00    -0.467 OA
ATOM     11  C   UNL     1      34.756  39.000   5.943  1.00  0.00     0.042 A 
ATOM     12  C   UNL     1      34.023  39.571   4.936  1.00  0.00     0.195 A 
ENDBRANCH   7   8
ENDBRANCH   1   7
BRANCH   4  13
ATOM     13  C   UNL     1      40.651  35.612   4.378  1.00  0.00     0.132 C 
BRANCH  13  14
ATOM     14  C   UNL     1      41.158  34.187   4.389  1.00  0.00     0.099 C 
BRANCH  14  15
ATOM     15  N   UNL     1      40.311  33.456   3.432  1.00  0.00    -0.329 NA
ATOM     16  H   UNL     1      40.498  33.872   2.502  1.00  0.00     0.118 HD
ATOM     17  H   UNL     1      40.708  32.478   3.399  1.00  0.00     0.118 HD
ENDBRANCH  14  15
ENDBRANCH  13  14
ENDBRANCH   4  13
TORSDOF 5
BEGIN_RES LYS A 135
REMARK  4 active torsions:
REMARK  status: ('A' for Active; 'I' for Inactive)
REMARK    1  A    between atoms: CA   and  CB  
REMARK    2  A    between atoms: CB   and  CG  
REMARK    3  A    between atoms: CG   and  CD  
REMARK    4  A    between atoms: CD   and  CE  
ROOT
ATOM      1  CA  LYS A 135      33.193  34.663   9.290  1.00 25.02     0.186 C 
ENDROOT
BRANCH   1   2
ATOM      2  CB  LYS A 135      32.060  35.360  10.034  1.00 26.63     0.034 C 
BRANCH   2   3
ATOM      3  CG  LYS A 135      30.710  34.731   9.802  1.00 29.45     0.005 C 
BRANCH   3   4
ATOM      4  CD  LYS A 135      30.463  34.524   8.316  1.00 32.00     0.041 C 
BRANCH   4   5
ATOM      5  CE  LYS A 135      29.018  34.831   7.969  1.00 34.25     0.338 C 
ATOM      6  NZ  LYS A 135      28.918  35.525   6.656  1.00 35.99     0.618 N 
ENDBRANCH   4   5
ENDBRANCH   3   4
ENDBRANCH   2   3
ENDBRANCH   1   2
END_RES LYS A 135
BEGIN_RES ARG A 124
REMARK  4 active torsions:
REMARK  status: ('A' for Active; 'I' for Inactive)
REMARK    5  A    between atoms: CA   and  CB  
REMARK    6  A    between atoms: CB   and  CG  
REMARK    7  A    between atoms: CG   and  CD  
REMARK    8  A    between atoms: CD   and  NE  
REMARK       I    between atoms: NE   and  CZ  
ROOT
ATOM      7  CA  ARG A 124      31.045  26.515   9.594  1.00 17.84     0.186 C 
ENDROOT
BRANCH   7   8
ATOM      8  CB  ARG A 124      29.529  26.705   9.647  1.00 16.18     0.036 C 
BRANCH   8   9
ATOM      9  CG  ARG A 124      29.033  28.194   9.697  1.00 16.22     0.029 C 
BRANCH   9  10
ATOM     10  CD  ARG A 124      27.873  28.407  10.696  1.00 15.09     0.145 C 
BRANCH  10  11
ATOM     11  NE  ARG A 124      28.096  27.775  12.015  1.00 16.98    -0.083 NA
ATOM     12  CZ  ARG A 124      27.152  27.198  12.751  1.00 18.21     0.782 C 
ATOM     13  NH1 ARG A 124      25.893  27.134  12.333  1.00 21.11     0.063 N 
ATOM     14  NH2 ARG A 124      27.463  26.651  13.916  1.00 21.25     0.063 N 
ENDBRANCH  10  11
ENDBRANCH   9  10
ENDBRANCH   8   9
ENDBRANCH   7   8
END_RES ARG A 124
BEGIN_RES ASN A 133
REMARK  2 active torsions:
REMARK  status: ('A' for Active; 'I' for Inactive)
REMARK    9  A    between atoms: CA   and  CB  
REMARK   10  A    between atoms: CB   and  CG  
ROOT
ATOM     15  CA  ASN A 133      31.225  30.257  11.749  1.00 18.15     0.196 C 
ENDROOT
BRANCH  15  16
ATOM     16  CB  ASN A 133      30.092  31.240  11.460  1.00 18.27     0.126 C 
BRANCH  16  17
ATOM     17  CG  ASN A 133      29.298  31.602  12.677  1.00 18.94     0.276 C 
ATOM     18  OD1 ASN A 133      28.321  30.936  13.024  1.00 18.09    -0.269 OA
ATOM     19  ND2 ASN A 133      29.714  32.678  13.345  1.00 18.93    -0.107 N 
ENDBRANCH  16  17
ENDBRANCH  15  16
END_RES ASN A 133
BEGIN_RES LYS A 131
REMARK  4 active torsions:
REMARK  status: ('A' for Active; 'I' for Inactive)
REMARK   11  A    between atoms: CA   and  CB  
REMARK   12  A    between atoms: CB   and  CG  
REMARK   13  A    between atoms: CG   and  CD  
REMARK   14  A    between atoms: CD   and  CE  
ROOT
ATOM     20  CA  LYS A 131      29.867  25.555  16.977  1.00 20.52     0.186 C 
ENDROOT
BRANCH  20  21
ATOM     21  CB  LYS A 131      28.345  25.722  17.026  1.00 20.94     0.034 C 
BRANCH  21  22
ATOM     22  CG  LYS A 131      27.600  24.417  16.790  1.00 22.96     0.005 C 
BRANCH  22  23
ATOM     23  CD  LYS A 131      26.896  23.935  18.028  1.00 24.33     0.041 C 
BRANCH  23  24
ATOM     24  CE  LYS A 131      25.675  24.811  18.294  1.00 26.91     0.338 C 
ATOM     25  NZ  LYS A 131      25.767  25.436  19.634  1.00 27.40     0.618 N 
ENDBRANCH  23  24
ENDBRANCH  22  23
ENDBRANCH  21  22
ENDBRANCH  20  21
END_RES LYS A 131
