REMARK VINA RESULT:    -5.139      1.745      2.203
REMARK INTER + INTRA:         -10.000
REMARK INTER:                  -4.973
REMARK INTRA:                  -5.027
REMARK UNBOUND:                -3.509
REMARK SMILES C[C@H](N)C(=O)OCc1ccccc1
REMARK SMILES IDX 4 1 5 2 2 3 1 4 3 5 6 8 7 9 8 10 9 11 13 12 10 13 12 14
REMARK SMILES IDX 11 15
REMARK H PARENT 3 6 3 7
REMARK Flexibility Score: inf
ROOT
ATOM      1  C   UNL     1      39.280  33.760  12.742  1.00  0.00     0.322 C 
ATOM      2  O   UNL     1      40.433  33.440  12.401  1.00  0.00    -0.250 OA
ENDROOT
BRANCH   1   3
ATOM      3  C   UNL     1      38.166  32.817  12.546  1.00  0.00     0.159 C 
ATOM      4  C   UNL     1      37.053  33.572  11.841  1.00  0.00     0.037 C 
BRANCH   3   5
ATOM      5  N   UNL     1      37.751  32.283  13.807  1.00  0.00    -0.319 NA
ATOM      6  H   UNL     1      38.539  32.093  14.449  1.00  0.00     0.119 HD
ATOM      7  H   UNL     1      37.143  31.430  13.642  1.00  0.00     0.119 HD
ENDBRANCH   3   5
ENDBRANCH   1   3
BRANCH   1   8
ATOM      8  O   UNL     1      39.059  34.999  13.302  1.00  0.00    -0.460 OA
BRANCH   8   9
ATOM      9  C   UNL     1      39.660  35.359  14.534  1.00  0.00     0.268 C 
BRANCH   9  10
ATOM     10  C   UNL     1      38.609  36.031  15.342  1.00  0.00    -0.011 A 
ATOM     11  C   UNL     1      38.693  37.353  15.732  1.00  0.00     0.007 A 
ATOM     12  C   UNL     1      37.509  35.289  15.712  1.00  0.00     0.007 A 
ATOM     13  C   UNL     1      37.713  37.967  16.482  1.00  0.00     0.000 A 
ATOM     14  C   UNL     1      36.509  35.884  16.467  1.00  0.00     0.000 A 
ATOM     15  C   UNL     1      36.611  37.206  16.845  1.00  0.00     0.000 A 
ENDBRANCH   9  10
ENDBRANCH   8   9
ENDBRANCH   1   8
TORSDOF 5
BEGIN_RES LYS A 135
REMARK  4 active torsions:
REMARK  status: ('A' for Active; 'I' for Inactive)
REMARK    1  A    between atoms: CA   and  CB  
REMARK    2  A    between atoms: CB   and  CG  
REMARK    3  A    between atoms: CG   and  CD  
REMARK    4  A    between atoms: CD   and  CE  
ROOT
ATOM      1  CA  LYS A 135      33.193  34.663   9.290  1.00 25.02     0.186 C 
ENDROOT
BRANCH   1   2
ATOM      2  CB  LYS A 135      32.060  35.360  10.034  1.00 26.63     0.034 C 
BRANCH   2   3
ATOM      3  CG  LYS A 135      30.724  35.237   9.348  1.00 29.45     0.005 C 
BRANCH   3   4
ATOM      4  CD  LYS A 135      29.672  34.711  10.313  1.00 32.00     0.041 C 
BRANCH   4   5
ATOM      5  CE  LYS A 135      28.502  34.116   9.553  1.00 34.25     0.338 C 
ATOM      6  NZ  LYS A 135      28.453  34.630   8.156  1.00 35.99     0.618 N 
ENDBRANCH   4   5
ENDBRANCH   3   4
ENDBRANCH   2   3
ENDBRANCH   1   2
END_RES LYS A 135
BEGIN_RES ARG A 124
REMARK  4 active torsions:
REMARK  status: ('A' for Active; 'I' for Inactive)
REMARK    5  A    between atoms: CA   and  CB  
REMARK    6  A    between atoms: CB   and  CG  
REMARK    7  A    between atoms: CG   and  CD  
REMARK    8  A    between atoms: CD   and  NE  
REMARK       I    between atoms: NE   and  CZ  
ROOT
ATOM      7  CA  ARG A 124      31.045  26.515   9.594  1.00 17.84     0.186 C 
ENDROOT
BRANCH   7   8
ATOM      8  CB  ARG A 124      29.529  26.705   9.647  1.00 16.18     0.036 C 
BRANCH   8   9
ATOM      9  CG  ARG A 124      29.030  27.960  10.449  1.00 16.22     0.029 C 
BRANCH   9  10
ATOM     10  CD  ARG A 124      27.576  27.811  10.952  1.00 15.09     0.145 C 
BRANCH  10  11
ATOM     11  NE  ARG A 124      27.472  27.357  12.357  1.00 16.98    -0.083 NA
ATOM     12  CZ  ARG A 124      26.424  27.562  13.146  1.00 18.21     0.782 C 
ATOM     13  NH1 ARG A 124      25.345  28.202  12.709  1.00 21.11     0.063 N 
ATOM     14  NH2 ARG A 124      26.431  27.102  14.388  1.00 21.25     0.063 N 
ENDBRANCH  10  11
ENDBRANCH   9  10
ENDBRANCH   8   9
ENDBRANCH   7   8
END_RES ARG A 124
BEGIN_RES ASN A 133
REMARK  2 active torsions:
REMARK  status: ('A' for Active; 'I' for Inactive)
REMARK    9  A    between atoms: CA   and  CB  
REMARK   10  A    between atoms: CB   and  CG  
ROOT
ATOM     15  CA  ASN A 133      31.225  30.257  11.749  1.00 18.15     0.196 C 
ENDROOT
BRANCH  15  16
ATOM     16  CB  ASN A 133      30.092  31.240  11.460  1.00 18.27     0.126 C 
BRANCH  16  17
ATOM     17  CG  ASN A 133      29.167  31.434  12.621  1.00 18.94     0.276 C 
ATOM     18  OD1 ASN A 133      28.206  30.684  12.804  1.00 18.09    -0.269 OA
ATOM     19  ND2 ASN A 133      29.449  32.458  13.426  1.00 18.93    -0.107 N 
ENDBRANCH  16  17
ENDBRANCH  15  16
END_RES ASN A 133
BEGIN_RES LYS A 131
REMARK  4 active torsions:
REMARK  status: ('A' for Active; 'I' for Inactive)
REMARK   11  A    between atoms: CA   and  CB  
REMARK   12  A    between atoms: CB   and  CG  
REMARK   13  A    between atoms: CG   and  CD  
REMARK   14  A    between atoms: CD   and  CE  
ROOT
ATOM     20  CA  LYS A 131      29.867  25.555  16.977  1.00 20.52     0.186 C 
ENDROOT
BRANCH  20  21
ATOM     21  CB  LYS A 131      28.345  25.722  17.026  1.00 20.94     0.034 C 
BRANCH  21  22
ATOM     22  CG  LYS A 131      27.600  24.410  16.833  1.00 22.96     0.005 C 
BRANCH  22  23
ATOM     23  CD  LYS A 131      26.165  24.504  17.271  1.00 24.33     0.041 C 
BRANCH  23  24
ATOM     24  CE  LYS A 131      25.949  23.629  18.501  1.00 26.91     0.338 C 
ATOM     25  NZ  LYS A 131      24.545  23.159  18.565  1.00 27.40     0.618 N 
ENDBRANCH  23  24
ENDBRANCH  22  23
ENDBRANCH  21  22
ENDBRANCH  20  21
END_RES LYS A 131
