REMARK VINA RESULT:    -3.483      5.228      6.266
REMARK INTER + INTRA:          -9.559
REMARK INTER:                  -4.185
REMARK INTRA:                  -5.374
REMARK UNBOUND:                -5.466
REMARK SMILES NCc1ccc(CN)cc1
REMARK SMILES IDX 3 1 4 2 5 3 6 4 9 5 10 6 2 7 1 8 7 11 8 12
REMARK H PARENT 1 9 1 10 8 13 8 14
REMARK Flexibility Score: inf
ROOT
ATOM      1  C   UNL     1      36.944  37.898   3.499  1.00  0.00    -0.034 A 
ATOM      2  C   UNL     1      36.809  37.868   4.888  1.00  0.00     0.005 A 
ATOM      3  C   UNL     1      35.727  38.471   5.466  1.00  0.00     0.005 A 
ATOM      4  C   UNL     1      34.782  39.098   4.686  1.00  0.00    -0.034 A 
ATOM      5  C   UNL     1      34.920  39.127   3.298  1.00  0.00     0.005 A 
ATOM      6  C   UNL     1      36.014  38.520   2.692  1.00  0.00     0.005 A 
ENDROOT
BRANCH   1   7
ATOM      7  C   UNL     1      38.100  37.259   2.828  1.00  0.00     0.113 C 
BRANCH   7   8
ATOM      8  N   UNL     1      38.797  36.334   3.687  1.00  0.00    -0.326 NA
ATOM      9  H   UNL     1      39.658  36.691   4.100  1.00  0.00     0.119 HD
ATOM     10  H   UNL     1      38.808  35.376   3.335  1.00  0.00     0.119 HD
ENDBRANCH   7   8
ENDBRANCH   1   7
BRANCH   4  11
ATOM     11  C   UNL     1      33.632  39.733   5.367  1.00  0.00     0.113 C 
BRANCH  11  12
ATOM     12  N   UNL     1      33.368  39.134   6.648  1.00  0.00    -0.326 NA
ATOM     13  H   UNL     1      32.476  39.472   7.021  1.00  0.00     0.119 HD
ATOM     14  H   UNL     1      34.198  39.318   7.260  1.00  0.00     0.119 HD
ENDBRANCH  11  12
ENDBRANCH   4  11
TORSDOF 4
BEGIN_RES LYS A 135
REMARK  4 active torsions:
REMARK  status: ('A' for Active; 'I' for Inactive)
REMARK    1  A    between atoms: CA   and  CB  
REMARK    2  A    between atoms: CB   and  CG  
REMARK    3  A    between atoms: CG   and  CD  
REMARK    4  A    between atoms: CD   and  CE  
ROOT
ATOM      1  CA  LYS A 135      33.193  34.663   9.290  1.00 25.02     0.186 C 
ENDROOT
BRANCH   1   2
ATOM      2  CB  LYS A 135      32.060  35.360  10.034  1.00 26.63     0.034 C 
BRANCH   2   3
ATOM      3  CG  LYS A 135      30.698  34.795   9.723  1.00 29.45     0.005 C 
BRANCH   3   4
ATOM      4  CD  LYS A 135      30.581  34.458   8.245  1.00 32.00     0.041 C 
BRANCH   4   5
ATOM      5  CE  LYS A 135      29.364  35.131   7.640  1.00 34.25     0.338 C 
ATOM      6  NZ  LYS A 135      28.110  34.648   8.280  1.00 35.99     0.618 N 
ENDBRANCH   4   5
ENDBRANCH   3   4
ENDBRANCH   2   3
ENDBRANCH   1   2
END_RES LYS A 135
BEGIN_RES ARG A 124
REMARK  4 active torsions:
REMARK  status: ('A' for Active; 'I' for Inactive)
REMARK    5  A    between atoms: CA   and  CB  
REMARK    6  A    between atoms: CB   and  CG  
REMARK    7  A    between atoms: CG   and  CD  
REMARK    8  A    between atoms: CD   and  NE  
REMARK       I    between atoms: NE   and  CZ  
ROOT
ATOM      7  CA  ARG A 124      31.045  26.515   9.594  1.00 17.84     0.186 C 
ENDROOT
BRANCH   7   8
ATOM      8  CB  ARG A 124      29.529  26.705   9.647  1.00 16.18     0.036 C 
BRANCH   8   9
ATOM      9  CG  ARG A 124      29.023  27.871  10.569  1.00 16.22     0.029 C 
BRANCH   9  10
ATOM     10  CD  ARG A 124      28.333  27.362  11.856  1.00 15.09     0.145 C 
BRANCH  10  11
ATOM     11  NE  ARG A 124      27.346  28.309  12.420  1.00 16.98    -0.083 NA
ATOM     12  CZ  ARG A 124      26.031  28.120  12.430  1.00 18.21     0.782 C 
ATOM     13  NH1 ARG A 124      25.489  27.018  11.926  1.00 21.11     0.063 N 
ATOM     14  NH2 ARG A 124      25.237  29.030  12.972  1.00 21.25     0.063 N 
ENDBRANCH  10  11
ENDBRANCH   9  10
ENDBRANCH   8   9
ENDBRANCH   7   8
END_RES ARG A 124
BEGIN_RES ASN A 133
REMARK  2 active torsions:
REMARK  status: ('A' for Active; 'I' for Inactive)
REMARK    9  A    between atoms: CA   and  CB  
REMARK   10  A    between atoms: CB   and  CG  
ROOT
ATOM     15  CA  ASN A 133      31.225  30.257  11.749  1.00 18.15     0.196 C 
ENDROOT
BRANCH  15  16
ATOM     16  CB  ASN A 133      30.092  31.240  11.460  1.00 18.27     0.126 C 
BRANCH  16  17
ATOM     17  CG  ASN A 133      29.411  31.738  12.697  1.00 18.94     0.276 C 
ATOM     18  OD1 ASN A 133      28.517  31.086  13.240  1.00 18.09    -0.269 OA
ATOM     19  ND2 ASN A 133      29.831  32.915  13.159  1.00 18.93    -0.107 N 
ENDBRANCH  16  17
ENDBRANCH  15  16
END_RES ASN A 133
BEGIN_RES LYS A 131
REMARK  4 active torsions:
REMARK  status: ('A' for Active; 'I' for Inactive)
REMARK   11  A    between atoms: CA   and  CB  
REMARK   12  A    between atoms: CB   and  CG  
REMARK   13  A    between atoms: CG   and  CD  
REMARK   14  A    between atoms: CD   and  CE  
ROOT
ATOM     20  CA  LYS A 131      29.867  25.555  16.977  1.00 20.52     0.186 C 
ENDROOT
BRANCH  20  21
ATOM     21  CB  LYS A 131      28.345  25.722  17.026  1.00 20.94     0.034 C 
BRANCH  21  22
ATOM     22  CG  LYS A 131      27.724  25.889  15.648  1.00 22.96     0.005 C 
BRANCH  22  23
ATOM     23  CD  LYS A 131      26.498  26.759  15.680  1.00 24.33     0.041 C 
BRANCH  23  24
ATOM     24  CE  LYS A 131      26.766  27.984  16.549  1.00 26.91     0.338 C 
ATOM     25  NZ  LYS A 131      27.597  28.968  15.816  1.00 27.40     0.618 N 
ENDBRANCH  23  24
ENDBRANCH  22  23
ENDBRANCH  21  22
ENDBRANCH  20  21
END_RES LYS A 131
