REMARK VINA RESULT:    -2.309      4.716     14.732
REMARK INTER + INTRA:          -7.856
REMARK INTER:                  -2.588
REMARK INTRA:                  -5.268
REMARK UNBOUND:                -5.479
REMARK SMILES CN1C2CCC1CC(N)C2
REMARK SMILES IDX 1 1 2 2 3 3 4 4 5 5 6 6 7 7 8 8 10 9 9 10
REMARK H PARENT 9 11 9 12
REMARK Flexibility Score: inf
ROOT
ATOM      1  C   UNL     1      28.734  41.062   4.967  1.00  0.00     0.105 C 
ATOM      2  N   UNL     1      28.931  40.195   6.009  1.00  0.00    -0.300 NA
ATOM      3  C   UNL     1      28.024  40.029   7.053  1.00  0.00     0.058 C 
ATOM      4  C   UNL     1      28.959  39.585   8.191  1.00  0.00     0.021 C 
ATOM      5  C   UNL     1      30.181  39.003   7.485  1.00  0.00     0.021 C 
ATOM      6  C   UNL     1      29.822  39.146   5.996  1.00  0.00     0.058 C 
ATOM      7  C   UNL     1      29.140  37.856   5.609  1.00  0.00     0.038 C 
ATOM      8  C   UNL     1      27.833  37.639   6.301  1.00  0.00     0.053 C 
ATOM      9  C   UNL     1      27.104  38.864   6.694  1.00  0.00     0.038 C 
ENDROOT
BRANCH   8  10
ATOM     10  N   UNL     1      26.988  36.853   5.421  1.00  0.00    -0.328 NA
ATOM     11  H   UNL     1      27.504  36.344   4.695  1.00  0.00     0.119 HD
ATOM     12  H   UNL     1      26.146  37.348   5.114  1.00  0.00     0.119 HD
ENDBRANCH   8  10
TORSDOF 1
BEGIN_RES LYS A 135
REMARK  4 active torsions:
REMARK  status: ('A' for Active; 'I' for Inactive)
REMARK    1  A    between atoms: CA   and  CB  
REMARK    2  A    between atoms: CB   and  CG  
REMARK    3  A    between atoms: CG   and  CD  
REMARK    4  A    between atoms: CD   and  CE  
ROOT
ATOM      1  CA  LYS A 135      33.193  34.663   9.290  1.00 25.02     0.186 C 
ENDROOT
BRANCH   1   2
ATOM      2  CB  LYS A 135      32.060  35.360  10.034  1.00 26.63     0.034 C 
BRANCH   2   3
ATOM      3  CG  LYS A 135      30.723  34.687   9.862  1.00 29.45     0.005 C 
BRANCH   3   4
ATOM      4  CD  LYS A 135      30.348  34.604   8.391  1.00 32.00     0.041 C 
BRANCH   4   5
ATOM      5  CE  LYS A 135      28.841  34.616   8.223  1.00 34.25     0.338 C 
ATOM      6  NZ  LYS A 135      28.172  33.887   9.336  1.00 35.99     0.618 N 
ENDBRANCH   4   5
ENDBRANCH   3   4
ENDBRANCH   2   3
ENDBRANCH   1   2
END_RES LYS A 135
BEGIN_RES ARG A 124
REMARK  4 active torsions:
REMARK  status: ('A' for Active; 'I' for Inactive)
REMARK    5  A    between atoms: CA   and  CB  
REMARK    6  A    between atoms: CB   and  CG  
REMARK    7  A    between atoms: CG   and  CD  
REMARK    8  A    between atoms: CD   and  NE  
REMARK       I    between atoms: NE   and  CZ  
ROOT
ATOM      7  CA  ARG A 124      31.045  26.515   9.594  1.00 17.84     0.186 C 
ENDROOT
BRANCH   7   8
ATOM      8  CB  ARG A 124      29.529  26.705   9.647  1.00 16.18     0.036 C 
BRANCH   8   9
ATOM      9  CG  ARG A 124      28.781  25.890  10.762  1.00 16.22     0.029 C 
BRANCH   9  10
ATOM     10  CD  ARG A 124      27.448  26.543  11.191  1.00 15.09     0.145 C 
BRANCH  10  11
ATOM     11  NE  ARG A 124      27.291  26.677  12.656  1.00 16.98    -0.083 NA
ATOM     12  CZ  ARG A 124      26.467  27.528  13.257  1.00 18.21     0.782 C 
ATOM     13  NH1 ARG A 124      25.686  28.343  12.559  1.00 21.11     0.063 N 
ATOM     14  NH2 ARG A 124      26.397  27.558  14.579  1.00 21.25     0.063 N 
ENDBRANCH  10  11
ENDBRANCH   9  10
ENDBRANCH   8   9
ENDBRANCH   7   8
END_RES ARG A 124
BEGIN_RES ASN A 133
REMARK  2 active torsions:
REMARK  status: ('A' for Active; 'I' for Inactive)
REMARK    9  A    between atoms: CA   and  CB  
REMARK   10  A    between atoms: CB   and  CG  
ROOT
ATOM     15  CA  ASN A 133      31.225  30.257  11.749  1.00 18.15     0.196 C 
ENDROOT
BRANCH  15  16
ATOM     16  CB  ASN A 133      30.092  31.240  11.460  1.00 18.27     0.126 C 
BRANCH  16  17
ATOM     17  CG  ASN A 133      28.733  30.617  11.543  1.00 18.94     0.276 C 
ATOM     18  OD1 ASN A 133      28.409  29.689  10.800  1.00 18.09    -0.269 OA
ATOM     19  ND2 ASN A 133      27.912  31.129  12.460  1.00 18.93    -0.107 N 
ENDBRANCH  16  17
ENDBRANCH  15  16
END_RES ASN A 133
BEGIN_RES LYS A 131
REMARK  4 active torsions:
REMARK  status: ('A' for Active; 'I' for Inactive)
REMARK   11  A    between atoms: CA   and  CB  
REMARK   12  A    between atoms: CB   and  CG  
REMARK   13  A    between atoms: CG   and  CD  
REMARK   14  A    between atoms: CD   and  CE  
ROOT
ATOM     20  CA  LYS A 131      29.867  25.555  16.977  1.00 20.52     0.186 C 
ENDROOT
BRANCH  20  21
ATOM     21  CB  LYS A 131      28.345  25.722  17.026  1.00 20.94     0.034 C 
BRANCH  21  22
ATOM     22  CG  LYS A 131      27.600  24.418  16.787  1.00 22.96     0.005 C 
BRANCH  22  23
ATOM     23  CD  LYS A 131      26.850  23.962  18.007  1.00 24.33     0.041 C 
BRANCH  23  24
ATOM     24  CE  LYS A 131      26.266  25.173  18.728  1.00 26.91     0.338 C 
ATOM     25  NZ  LYS A 131      24.881  25.431  18.269  1.00 27.40     0.618 N 
ENDBRANCH  23  24
ENDBRANCH  22  23
ENDBRANCH  21  22
ENDBRANCH  20  21
END_RES LYS A 131
