REMARK VINA RESULT:    -3.296      2.544      5.460
REMARK INTER + INTRA:          -8.910
REMARK INTER:                  -3.209
REMARK INTRA:                  -5.701
REMARK UNBOUND:                -5.325
REMARK SMILES CC1(C)C2CC=C(CN)C1C2
REMARK SMILES IDX 8 1 7 2 1 3 2 4 3 5 10 6 4 7 11 8 5 9 6 10 9 11
REMARK H PARENT 9 12 9 13
REMARK Flexibility Score: inf
ROOT
ATOM      1  C   UNL     1      32.296  35.828  17.850  1.00  0.00     0.109 C 
ENDROOT
BRANCH   1   2
ATOM      2  C   UNL     1      31.907  35.182  16.567  1.00  0.00    -0.057 C 
ATOM      3  C   UNL     1      32.170  36.244  12.938  1.00  0.00     0.012 C 
ATOM      4  C   UNL     1      32.311  35.309  14.118  1.00  0.00    -0.026 C 
ATOM      5  C   UNL     1      33.677  34.782  14.336  1.00  0.00     0.012 C 
ATOM      6  C   UNL     1      31.645  35.957  15.333  1.00  0.00     0.022 C 
ATOM      7  C   UNL     1      31.184  34.307  14.148  1.00  0.00    -0.000 C 
ATOM      8  C   UNL     1      30.330  35.413  14.758  1.00  0.00     0.013 C 
ATOM      9  C   UNL     1      31.375  33.254  15.203  1.00  0.00     0.031 C 
ATOM     10  C   UNL     1      31.782  33.864  16.483  1.00  0.00    -0.026 C 
ENDBRANCH   1   2
BRANCH   1  11
ATOM     11  N   UNL     1      33.749  35.859  17.903  1.00  0.00    -0.327 NA
ATOM     12  H   UNL     1      34.082  35.417  18.788  1.00  0.00     0.119 HD
ATOM     13  H   UNL     1      34.083  36.814  17.740  1.00  0.00     0.119 HD
ENDBRANCH   1  11
TORSDOF 2
BEGIN_RES LYS A 135
REMARK  4 active torsions:
REMARK  status: ('A' for Active; 'I' for Inactive)
REMARK    1  A    between atoms: CA   and  CB  
REMARK    2  A    between atoms: CB   and  CG  
REMARK    3  A    between atoms: CG   and  CD  
REMARK    4  A    between atoms: CD   and  CE  
ROOT
ATOM      1  CA  LYS A 135      33.193  34.663   9.290  1.00 25.02     0.186 C 
ENDROOT
BRANCH   1   2
ATOM      2  CB  LYS A 135      32.060  35.360  10.034  1.00 26.63     0.034 C 
BRANCH   2   3
ATOM      3  CG  LYS A 135      30.705  34.753   9.774  1.00 29.45     0.005 C 
BRANCH   3   4
ATOM      4  CD  LYS A 135      30.506  34.501   8.288  1.00 32.00     0.041 C 
BRANCH   4   5
ATOM      5  CE  LYS A 135      29.103  34.892   7.865  1.00 34.25     0.338 C 
ATOM      6  NZ  LYS A 135      28.085  34.320   8.789  1.00 35.99     0.618 N 
ENDBRANCH   4   5
ENDBRANCH   3   4
ENDBRANCH   2   3
ENDBRANCH   1   2
END_RES LYS A 135
BEGIN_RES ARG A 124
REMARK  4 active torsions:
REMARK  status: ('A' for Active; 'I' for Inactive)
REMARK    5  A    between atoms: CA   and  CB  
REMARK    6  A    between atoms: CB   and  CG  
REMARK    7  A    between atoms: CG   and  CD  
REMARK    8  A    between atoms: CD   and  NE  
REMARK       I    between atoms: NE   and  CZ  
ROOT
ATOM      7  CA  ARG A 124      31.045  26.515   9.594  1.00 17.84     0.186 C 
ENDROOT
BRANCH   7   8
ATOM      8  CB  ARG A 124      29.529  26.705   9.647  1.00 16.18     0.036 C 
BRANCH   8   9
ATOM      9  CG  ARG A 124      28.906  26.795  11.086  1.00 16.22     0.029 C 
BRANCH   9  10
ATOM     10  CD  ARG A 124      27.553  26.056  11.201  1.00 15.09     0.145 C 
BRANCH  10  11
ATOM     11  NE  ARG A 124      26.392  26.956  11.373  1.00 16.98    -0.083 NA
ATOM     12  CZ  ARG A 124      25.965  27.432  12.538  1.00 18.21     0.782 C 
ATOM     13  NH1 ARG A 124      26.583  27.132  13.674  1.00 21.11     0.063 N 
ATOM     14  NH2 ARG A 124      24.919  28.243  12.577  1.00 21.25     0.063 N 
ENDBRANCH  10  11
ENDBRANCH   9  10
ENDBRANCH   8   9
ENDBRANCH   7   8
END_RES ARG A 124
BEGIN_RES ASN A 133
REMARK  2 active torsions:
REMARK  status: ('A' for Active; 'I' for Inactive)
REMARK    9  A    between atoms: CA   and  CB  
REMARK   10  A    between atoms: CB   and  CG  
ROOT
ATOM     15  CA  ASN A 133      31.225  30.257  11.749  1.00 18.15     0.196 C 
ENDROOT
BRANCH  15  16
ATOM     16  CB  ASN A 133      30.092  31.240  11.460  1.00 18.27     0.126 C 
BRANCH  16  17
ATOM     17  CG  ASN A 133      28.732  30.622  11.561  1.00 18.94     0.276 C 
ATOM     18  OD1 ASN A 133      28.336  29.810  10.722  1.00 18.09    -0.269 OA
ATOM     19  ND2 ASN A 133      27.993  31.005  12.601  1.00 18.93    -0.107 N 
ENDBRANCH  16  17
ENDBRANCH  15  16
END_RES ASN A 133
BEGIN_RES LYS A 131
REMARK  4 active torsions:
REMARK  status: ('A' for Active; 'I' for Inactive)
REMARK   11  A    between atoms: CA   and  CB  
REMARK   12  A    between atoms: CB   and  CG  
REMARK   13  A    between atoms: CG   and  CD  
REMARK   14  A    between atoms: CD   and  CE  
ROOT
ATOM     20  CA  LYS A 131      29.867  25.555  16.977  1.00 20.52     0.186 C 
ENDROOT
BRANCH  20  21
ATOM     21  CB  LYS A 131      28.345  25.722  17.026  1.00 20.94     0.034 C 
BRANCH  21  22
ATOM     22  CG  LYS A 131      27.601  24.401  16.899  1.00 22.96     0.005 C 
BRANCH  22  23
ATOM     23  CD  LYS A 131      26.144  24.537  17.242  1.00 24.33     0.041 C 
BRANCH  23  24
ATOM     24  CE  LYS A 131      25.692  25.971  16.987  1.00 26.91     0.338 C 
ATOM     25  NZ  LYS A 131      24.703  26.393  18.007  1.00 27.40     0.618 N 
ENDBRANCH  23  24
ENDBRANCH  22  23
ENDBRANCH  21  22
ENDBRANCH  20  21
END_RES LYS A 131
