REMARK VINA RESULT:    -3.718      6.133      8.971
REMARK INTER + INTRA:          -9.734
REMARK INTER:                  -4.846
REMARK INTRA:                  -4.888
REMARK UNBOUND:                -5.691
REMARK SMILES NCc1ccc2[nH]ncc2c1
REMARK SMILES IDX 2 1 1 2 3 5 4 6 11 7 5 8 10 9 6 10 9 11 7 12 8 13
REMARK H PARENT 1 3 1 4 7 14
REMARK Flexibility Score: inf
ROOT
ATOM      1  C   UNL     1      24.416  35.655   9.886  1.00  0.00     0.113 C 
ENDROOT
BRANCH   1   2
ATOM      2  N   UNL     1      23.232  35.174   9.199  1.00  0.00    -0.326 NA
ATOM      3  H   UNL     1      22.643  35.950   8.823  1.00  0.00     0.119 HD
ATOM      4  H   UNL     1      23.483  34.475   8.464  1.00  0.00     0.119 HD
ENDBRANCH   1   2
BRANCH   1   5
ATOM      5  C   UNL     1      25.554  35.649   8.923  1.00  0.00    -0.034 A 
ATOM      6  C   UNL     1      26.426  34.576   8.854  1.00  0.00     0.007 A 
ATOM      7  C   UNL     1      25.743  36.731   8.086  1.00  0.00     0.017 A 
ATOM      8  C   UNL     1      27.482  34.552   7.971  1.00  0.00     0.028 A 
ATOM      9  C   UNL     1      26.808  36.697   7.204  1.00  0.00     0.020 A 
ATOM     10  C   UNL     1      27.685  35.634   7.124  1.00  0.00     0.065 A 
ATOM     11  C   UNL     1      27.278  37.597   6.242  1.00  0.00     0.143 A 
ATOM     12  N   UNL     1      28.625  35.872   6.177  1.00  0.00    -0.278 N 
ATOM     13  N   UNL     1      28.355  37.062   5.662  1.00  0.00    -0.183 NA
ATOM     14  H   UNL     1      29.398  35.207   5.937  1.00  0.00     0.190 HD
ENDBRANCH   1   5
TORSDOF 2
BEGIN_RES LYS A 135
REMARK  4 active torsions:
REMARK  status: ('A' for Active; 'I' for Inactive)
REMARK    1  A    between atoms: CA   and  CB  
REMARK    2  A    between atoms: CB   and  CG  
REMARK    3  A    between atoms: CG   and  CD  
REMARK    4  A    between atoms: CD   and  CE  
ROOT
ATOM      1  CA  LYS A 135      33.193  34.663   9.290  1.00 25.02     0.186 C 
ENDROOT
BRANCH   1   2
ATOM      2  CB  LYS A 135      32.060  35.360  10.034  1.00 26.63     0.034 C 
BRANCH   2   3
ATOM      3  CG  LYS A 135      30.803  35.507   9.216  1.00 29.45     0.005 C 
BRANCH   3   4
ATOM      4  CD  LYS A 135      30.306  36.944   9.250  1.00 32.00     0.041 C 
BRANCH   4   5
ATOM      5  CE  LYS A 135      29.140  37.082  10.210  1.00 34.25     0.338 C 
ATOM      6  NZ  LYS A 135      29.606  37.483  11.566  1.00 35.99     0.618 N 
ENDBRANCH   4   5
ENDBRANCH   3   4
ENDBRANCH   2   3
ENDBRANCH   1   2
END_RES LYS A 135
BEGIN_RES ARG A 124
REMARK  4 active torsions:
REMARK  status: ('A' for Active; 'I' for Inactive)
REMARK    5  A    between atoms: CA   and  CB  
REMARK    6  A    between atoms: CB   and  CG  
REMARK    7  A    between atoms: CG   and  CD  
REMARK    8  A    between atoms: CD   and  NE  
REMARK       I    between atoms: NE   and  CZ  
ROOT
ATOM      7  CA  ARG A 124      31.045  26.515   9.594  1.00 17.84     0.186 C 
ENDROOT
BRANCH   7   8
ATOM      8  CB  ARG A 124      29.529  26.705   9.647  1.00 16.18     0.036 C 
BRANCH   8   9
ATOM      9  CG  ARG A 124      28.912  26.845  11.085  1.00 16.22     0.029 C 
BRANCH   9  10
ATOM     10  CD  ARG A 124      27.559  26.112  11.231  1.00 15.09     0.145 C 
BRANCH  10  11
ATOM     11  NE  ARG A 124      26.408  27.017  11.442  1.00 16.98    -0.083 NA
ATOM     12  CZ  ARG A 124      26.023  27.495  12.621  1.00 18.21     0.782 C 
ATOM     13  NH1 ARG A 124      26.678  27.192  13.735  1.00 21.11     0.063 N 
ATOM     14  NH2 ARG A 124      24.982  28.309  12.696  1.00 21.25     0.063 N 
ENDBRANCH  10  11
ENDBRANCH   9  10
ENDBRANCH   8   9
ENDBRANCH   7   8
END_RES ARG A 124
BEGIN_RES ASN A 133
REMARK  2 active torsions:
REMARK  status: ('A' for Active; 'I' for Inactive)
REMARK    9  A    between atoms: CA   and  CB  
REMARK   10  A    between atoms: CB   and  CG  
ROOT
ATOM     15  CA  ASN A 133      31.225  30.257  11.749  1.00 18.15     0.196 C 
ENDROOT
BRANCH  15  16
ATOM     16  CB  ASN A 133      30.092  31.240  11.460  1.00 18.27     0.126 C 
BRANCH  16  17
ATOM     17  CG  ASN A 133      28.734  30.611  11.514  1.00 18.94     0.276 C 
ATOM     18  OD1 ASN A 133      28.360  29.826  10.641  1.00 18.09    -0.269 OA
ATOM     19  ND2 ASN A 133      27.974  30.954  12.552  1.00 18.93    -0.107 N 
ENDBRANCH  16  17
ENDBRANCH  15  16
END_RES ASN A 133
BEGIN_RES LYS A 131
REMARK  4 active torsions:
REMARK  status: ('A' for Active; 'I' for Inactive)
REMARK   11  A    between atoms: CA   and  CB  
REMARK   12  A    between atoms: CB   and  CG  
REMARK   13  A    between atoms: CG   and  CD  
REMARK   14  A    between atoms: CD   and  CE  
ROOT
ATOM     20  CA  LYS A 131      29.867  25.555  16.977  1.00 20.52     0.186 C 
ENDROOT
BRANCH  20  21
ATOM     21  CB  LYS A 131      28.345  25.722  17.026  1.00 20.94     0.034 C 
BRANCH  21  22
ATOM     22  CG  LYS A 131      27.599  24.450  16.653  1.00 22.96     0.005 C 
BRANCH  22  23
ATOM     23  CD  LYS A 131      26.996  23.774  17.853  1.00 24.33     0.041 C 
BRANCH  23  24
ATOM     24  CE  LYS A 131      25.550  23.396  17.551  1.00 26.91     0.338 C 
ATOM     25  NZ  LYS A 131      24.833  24.536  16.932  1.00 27.40     0.618 N 
ENDBRANCH  23  24
ENDBRANCH  22  23
ENDBRANCH  21  22
ENDBRANCH  20  21
END_RES LYS A 131
