REMARK VINA RESULT:    -2.971      5.282      7.398
REMARK INTER + INTRA:          -8.086
REMARK INTER:                  -2.531
REMARK INTRA:                  -5.555
REMARK UNBOUND:                -4.680
REMARK SMILES NCCN1CCCC1
REMARK SMILES IDX 2 1 1 2 3 5 4 6 5 7 8 8 6 9 7 10
REMARK H PARENT 1 3 1 4
REMARK Flexibility Score: inf
ROOT
ATOM      1  C   UNL     1      28.491  27.503  20.505  1.00  0.00     0.093 C 
ENDROOT
BRANCH   1   2
ATOM      2  N   UNL     1      28.105  27.249  19.121  1.00  0.00    -0.329 NA
ATOM      3  H   UNL     1      27.707  26.294  18.981  1.00  0.00     0.118 HD
ATOM      4  H   UNL     1      27.467  27.998  18.739  1.00  0.00     0.118 HD
ENDBRANCH   1   2
BRANCH   1   5
ATOM      5  C   UNL     1      29.423  28.647  20.644  1.00  0.00     0.099 C 
BRANCH   5   6
ATOM      6  N   UNL     1      30.807  28.378  20.709  1.00  0.00    -0.302 NA
ATOM      7  C   UNL     1      31.661  29.458  20.947  1.00  0.00     0.084 C 
ATOM      8  C   UNL     1      31.238  27.156  21.216  1.00  0.00     0.084 C 
ATOM      9  C   UNL     1      32.726  28.907  21.857  1.00  0.00     0.017 C 
ATOM     10  C   UNL     1      32.245  27.541  22.269  1.00  0.00     0.017 C 
ENDBRANCH   5   6
ENDBRANCH   1   5
TORSDOF 3
BEGIN_RES LYS A 135
REMARK  4 active torsions:
REMARK  status: ('A' for Active; 'I' for Inactive)
REMARK    1  A    between atoms: CA   and  CB  
REMARK    2  A    between atoms: CB   and  CG  
REMARK    3  A    between atoms: CG   and  CD  
REMARK    4  A    between atoms: CD   and  CE  
ROOT
ATOM      1  CA  LYS A 135      33.193  34.663   9.290  1.00 25.02     0.186 C 
ENDROOT
BRANCH   1   2
ATOM      2  CB  LYS A 135      32.060  35.360  10.034  1.00 26.63     0.034 C 
BRANCH   2   3
ATOM      3  CG  LYS A 135      30.824  35.563   9.196  1.00 29.45     0.005 C 
BRANCH   3   4
ATOM      4  CD  LYS A 135      30.142  34.233   8.914  1.00 32.00     0.041 C 
BRANCH   4   5
ATOM      5  CE  LYS A 135      28.715  34.453   8.452  1.00 34.25     0.338 C 
ATOM      6  NZ  LYS A 135      28.668  35.355   7.268  1.00 35.99     0.618 N 
ENDBRANCH   4   5
ENDBRANCH   3   4
ENDBRANCH   2   3
ENDBRANCH   1   2
END_RES LYS A 135
BEGIN_RES ARG A 124
REMARK  4 active torsions:
REMARK  status: ('A' for Active; 'I' for Inactive)
REMARK    5  A    between atoms: CA   and  CB  
REMARK    6  A    between atoms: CB   and  CG  
REMARK    7  A    between atoms: CG   and  CD  
REMARK    8  A    between atoms: CD   and  NE  
REMARK       I    between atoms: NE   and  CZ  
ROOT
ATOM      7  CA  ARG A 124      31.045  26.515   9.594  1.00 17.84     0.186 C 
ENDROOT
BRANCH   7   8
ATOM      8  CB  ARG A 124      29.529  26.705   9.647  1.00 16.18     0.036 C 
BRANCH   8   9
ATOM      9  CG  ARG A 124      28.973  27.364  10.959  1.00 16.22     0.029 C 
BRANCH   9  10
ATOM     10  CD  ARG A 124      28.430  26.327  11.969  1.00 15.09     0.145 C 
BRANCH  10  11
ATOM     11  NE  ARG A 124      27.985  26.916  13.251  1.00 16.98    -0.083 NA
ATOM     12  CZ  ARG A 124      26.745  27.313  13.514  1.00 18.21     0.782 C 
ATOM     13  NH1 ARG A 124      25.776  27.194  12.614  1.00 21.11     0.063 N 
ATOM     14  NH2 ARG A 124      26.451  27.818  14.702  1.00 21.25     0.063 N 
ENDBRANCH  10  11
ENDBRANCH   9  10
ENDBRANCH   8   9
ENDBRANCH   7   8
END_RES ARG A 124
BEGIN_RES ASN A 133
REMARK  2 active torsions:
REMARK  status: ('A' for Active; 'I' for Inactive)
REMARK    9  A    between atoms: CA   and  CB  
REMARK   10  A    between atoms: CB   and  CG  
ROOT
ATOM     15  CA  ASN A 133      31.225  30.257  11.749  1.00 18.15     0.196 C 
ENDROOT
BRANCH  15  16
ATOM     16  CB  ASN A 133      30.092  31.240  11.460  1.00 18.27     0.126 C 
BRANCH  16  17
ATOM     17  CG  ASN A 133      28.954  31.132  12.427  1.00 18.94     0.276 C 
ATOM     18  OD1 ASN A 133      28.064  30.293  12.274  1.00 18.09    -0.269 OA
ATOM     19  ND2 ASN A 133      28.970  31.992  13.445  1.00 18.93    -0.107 N 
ENDBRANCH  16  17
ENDBRANCH  15  16
END_RES ASN A 133
BEGIN_RES LYS A 131
REMARK  4 active torsions:
REMARK  status: ('A' for Active; 'I' for Inactive)
REMARK   11  A    between atoms: CA   and  CB  
REMARK   12  A    between atoms: CB   and  CG  
REMARK   13  A    between atoms: CG   and  CD  
REMARK   14  A    between atoms: CD   and  CE  
ROOT
ATOM     20  CA  LYS A 131      29.867  25.555  16.977  1.00 20.52     0.186 C 
ENDROOT
BRANCH  20  21
ATOM     21  CB  LYS A 131      28.345  25.722  17.026  1.00 20.94     0.034 C 
BRANCH  21  22
ATOM     22  CG  LYS A 131      27.600  24.411  16.826  1.00 22.96     0.005 C 
BRANCH  22  23
ATOM     23  CD  LYS A 131      26.613  24.147  17.929  1.00 24.33     0.041 C 
BRANCH  23  24
ATOM     24  CE  LYS A 131      25.230  23.915  17.330  1.00 26.91     0.338 C 
ATOM     25  NZ  LYS A 131      24.723  25.157  16.700  1.00 27.40     0.618 N 
ENDBRANCH  23  24
ENDBRANCH  22  23
ENDBRANCH  21  22
ENDBRANCH  20  21
END_RES LYS A 131
