REMARK VINA RESULT:    -3.162      1.252      2.014
REMARK INTER + INTRA:          -9.397
REMARK INTER:                  -3.448
REMARK INTRA:                  -5.948
REMARK UNBOUND:                -5.957
REMARK SMILES N#Cc1cccnc1N
REMARK SMILES IDX 3 1 4 2 5 3 6 4 7 5 8 6 2 7 1 8 9 9
REMARK H PARENT 9 10 9 11
REMARK Flexibility Score: inf
ROOT
ATOM      1  C   UNL     1      26.343  16.795  16.282  1.00  0.00     0.094 A 
ATOM      2  C   UNL     1      25.077  17.057  16.787  1.00  0.00     0.025 A 
ATOM      3  C   UNL     1      24.719  18.380  16.936  1.00  0.00     0.022 A 
ATOM      4  C   UNL     1      25.556  19.425  16.607  1.00  0.00     0.113 A 
ATOM      5  N   UNL     1      26.777  19.148  16.120  1.00  0.00    -0.238 NA
ATOM      6  C   UNL     1      27.158  17.859  15.963  1.00  0.00     0.141 A 
ENDROOT
BRANCH   1   7
ATOM      7  C   UNL     1      26.810  15.445  16.090  1.00  0.00     0.103 C 
ATOM      8  N   UNL     1      27.187  14.364  15.916  1.00  0.00    -0.192 NA
ENDBRANCH   1   7
BRANCH   6   9
ATOM      9  N   UNL     1      28.463  17.542  15.443  1.00  0.00    -0.383 N 
ATOM     10  H   UNL     1      29.232  17.214  16.067  1.00  0.00     0.158 HD
ATOM     11  H   UNL     1      28.686  17.628  14.437  1.00  0.00     0.158 HD
ENDBRANCH   6   9
TORSDOF 2
BEGIN_RES LYS A 135
REMARK  4 active torsions:
REMARK  status: ('A' for Active; 'I' for Inactive)
REMARK    1  A    between atoms: CA   and  CB  
REMARK    2  A    between atoms: CB   and  CG  
REMARK    3  A    between atoms: CG   and  CD  
REMARK    4  A    between atoms: CD   and  CE  
ROOT
ATOM      1  CA  LYS A 135      33.193  34.663   9.290  1.00 25.02     0.186 C 
ENDROOT
BRANCH   1   2
ATOM      2  CB  LYS A 135      32.060  35.360  10.034  1.00 26.63     0.034 C 
BRANCH   2   3
ATOM      3  CG  LYS A 135      30.730  34.665   9.895  1.00 29.45     0.005 C 
BRANCH   3   4
ATOM      4  CD  LYS A 135      30.345  34.531   8.430  1.00 32.00     0.041 C 
BRANCH   4   5
ATOM      5  CE  LYS A 135      28.837  34.543   8.272  1.00 34.25     0.338 C 
ATOM      6  NZ  LYS A 135      28.174  33.829   9.399  1.00 35.99     0.618 N 
ENDBRANCH   4   5
ENDBRANCH   3   4
ENDBRANCH   2   3
ENDBRANCH   1   2
END_RES LYS A 135
BEGIN_RES ARG A 124
REMARK  4 active torsions:
REMARK  status: ('A' for Active; 'I' for Inactive)
REMARK    5  A    between atoms: CA   and  CB  
REMARK    6  A    between atoms: CB   and  CG  
REMARK    7  A    between atoms: CG   and  CD  
REMARK    8  A    between atoms: CD   and  NE  
REMARK       I    between atoms: NE   and  CZ  
ROOT
ATOM      7  CA  ARG A 124      31.045  26.515   9.594  1.00 17.84     0.186 C 
ENDROOT
BRANCH   7   8
ATOM      8  CB  ARG A 124      29.529  26.705   9.647  1.00 16.18     0.036 C 
BRANCH   8   9
ATOM      9  CG  ARG A 124      28.908  26.812  11.086  1.00 16.22     0.029 C 
BRANCH   9  10
ATOM     10  CD  ARG A 124      27.552  26.080  11.210  1.00 15.09     0.145 C 
BRANCH  10  11
ATOM     11  NE  ARG A 124      26.402  26.985  11.425  1.00 16.98    -0.083 NA
ATOM     12  CZ  ARG A 124      26.000  27.436  12.608  1.00 18.21     0.782 C 
ATOM     13  NH1 ARG A 124      26.637  27.105  13.725  1.00 21.11     0.063 N 
ATOM     14  NH2 ARG A 124      24.961  28.253  12.686  1.00 21.25     0.063 N 
ENDBRANCH  10  11
ENDBRANCH   9  10
ENDBRANCH   8   9
ENDBRANCH   7   8
END_RES ARG A 124
BEGIN_RES ASN A 133
REMARK  2 active torsions:
REMARK  status: ('A' for Active; 'I' for Inactive)
REMARK    9  A    between atoms: CA   and  CB  
REMARK   10  A    between atoms: CB   and  CG  
ROOT
ATOM     15  CA  ASN A 133      31.225  30.257  11.749  1.00 18.15     0.196 C 
ENDROOT
BRANCH  15  16
ATOM     16  CB  ASN A 133      30.092  31.240  11.460  1.00 18.27     0.126 C 
BRANCH  16  17
ATOM     17  CG  ASN A 133      28.734  30.614  11.528  1.00 18.94     0.276 C 
ATOM     18  OD1 ASN A 133      28.349  29.829  10.659  1.00 18.09    -0.269 OA
ATOM     19  ND2 ASN A 133      27.984  30.960  12.573  1.00 18.93    -0.107 N 
ENDBRANCH  16  17
ENDBRANCH  15  16
END_RES ASN A 133
BEGIN_RES LYS A 131
REMARK  4 active torsions:
REMARK  status: ('A' for Active; 'I' for Inactive)
REMARK   11  A    between atoms: CA   and  CB  
REMARK   12  A    between atoms: CB   and  CG  
REMARK   13  A    between atoms: CG   and  CD  
REMARK   14  A    between atoms: CD   and  CE  
ROOT
ATOM     20  CA  LYS A 131      29.867  25.555  16.977  1.00 20.52     0.186 C 
ENDROOT
BRANCH  20  21
ATOM     21  CB  LYS A 131      28.345  25.722  17.026  1.00 20.94     0.034 C 
BRANCH  21  22
ATOM     22  CG  LYS A 131      27.601  24.401  16.901  1.00 22.96     0.005 C 
BRANCH  22  23
ATOM     23  CD  LYS A 131      26.113  24.574  17.030  1.00 24.33     0.041 C 
BRANCH  23  24
ATOM     24  CE  LYS A 131      25.511  23.336  17.685  1.00 26.91     0.338 C 
ATOM     25  NZ  LYS A 131      25.756  23.351  19.147  1.00 27.40     0.618 N 
ENDBRANCH  23  24
ENDBRANCH  22  23
ENDBRANCH  21  22
ENDBRANCH  20  21
END_RES LYS A 131
