REMARK VINA RESULT:    -2.590      4.852      6.402
REMARK INTER + INTRA:          -8.023
REMARK INTER:                  -3.120
REMARK INTRA:                  -4.903
REMARK UNBOUND:                -4.903
REMARK SMILES NCC(O)CO
REMARK SMILES IDX 3 1 2 2 1 3 4 6 5 8 6 9
REMARK H PARENT 1 4 1 5 4 7 6 10
REMARK Flexibility Score: inf
ROOT
ATOM      1  C   UNL     1      31.423  27.072  21.083  1.00  0.00     0.153 C 
ENDROOT
BRANCH   1   2
ATOM      2  C   UNL     1      32.158  27.827  22.168  1.00  0.00     0.112 C 
BRANCH   2   3
ATOM      3  N   UNL     1      33.291  27.134  22.686  1.00  0.00    -0.328 NA
ATOM      4  H   UNL     1      33.199  26.094  22.665  1.00  0.00     0.118 HD
ATOM      5  H   UNL     1      33.508  27.471  23.663  1.00  0.00     0.118 HD
ENDBRANCH   2   3
ENDBRANCH   1   2
BRANCH   1   6
ATOM      6  O   UNL     1      32.069  27.207  19.854  1.00  0.00    -0.389 OA
ATOM      7  H   UNL     1      32.858  26.597  19.777  1.00  0.00     0.211 HD
ENDBRANCH   1   6
BRANCH   1   8
ATOM      8  C   UNL     1      30.052  27.695  20.933  1.00  0.00     0.189 C 
BRANCH   8   9
ATOM      9  O   UNL     1      29.244  26.939  20.079  1.00  0.00    -0.394 OA
ATOM     10  H   UNL     1      29.630  26.028  20.011  1.00  0.00     0.210 HD
ENDBRANCH   8   9
ENDBRANCH   1   8
TORSDOF 5
BEGIN_RES LYS A 135
REMARK  4 active torsions:
REMARK  status: ('A' for Active; 'I' for Inactive)
REMARK    1  A    between atoms: CA   and  CB  
REMARK    2  A    between atoms: CB   and  CG  
REMARK    3  A    between atoms: CG   and  CD  
REMARK    4  A    between atoms: CD   and  CE  
ROOT
ATOM      1  CA  LYS A 135      33.193  34.663   9.290  1.00 25.02     0.186 C 
ENDROOT
BRANCH   1   2
ATOM      2  CB  LYS A 135      32.060  35.360  10.034  1.00 26.63     0.034 C 
BRANCH   2   3
ATOM      3  CG  LYS A 135      30.715  34.711   9.828  1.00 29.45     0.005 C 
BRANCH   3   4
ATOM      4  CD  LYS A 135      30.380  34.629   8.347  1.00 32.00     0.041 C 
BRANCH   4   5
ATOM      5  CE  LYS A 135      29.403  35.722   7.960  1.00 34.25     0.338 C 
ATOM      6  NZ  LYS A 135      28.898  35.524   6.573  1.00 35.99     0.618 N 
ENDBRANCH   4   5
ENDBRANCH   3   4
ENDBRANCH   2   3
ENDBRANCH   1   2
END_RES LYS A 135
BEGIN_RES ARG A 124
REMARK  4 active torsions:
REMARK  status: ('A' for Active; 'I' for Inactive)
REMARK    5  A    between atoms: CA   and  CB  
REMARK    6  A    between atoms: CB   and  CG  
REMARK    7  A    between atoms: CG   and  CD  
REMARK    8  A    between atoms: CD   and  NE  
REMARK       I    between atoms: NE   and  CZ  
ROOT
ATOM      7  CA  ARG A 124      31.045  26.515   9.594  1.00 17.84     0.186 C 
ENDROOT
BRANCH   7   8
ATOM      8  CB  ARG A 124      29.529  26.705   9.647  1.00 16.18     0.036 C 
BRANCH   8   9
ATOM      9  CG  ARG A 124      29.017  27.802  10.648  1.00 16.22     0.029 C 
BRANCH   9  10
ATOM     10  CD  ARG A 124      28.423  27.202  11.943  1.00 15.09     0.145 C 
BRANCH  10  11
ATOM     11  NE  ARG A 124      27.434  28.078  12.609  1.00 16.98    -0.083 NA
ATOM     12  CZ  ARG A 124      26.116  27.972  12.480  1.00 18.21     0.782 C 
ATOM     13  NH1 ARG A 124      25.570  27.027  11.724  1.00 21.11     0.063 N 
ATOM     14  NH2 ARG A 124      25.319  28.805  13.132  1.00 21.25     0.063 N 
ENDBRANCH  10  11
ENDBRANCH   9  10
ENDBRANCH   8   9
ENDBRANCH   7   8
END_RES ARG A 124
BEGIN_RES ASN A 133
REMARK  2 active torsions:
REMARK  status: ('A' for Active; 'I' for Inactive)
REMARK    9  A    between atoms: CA   and  CB  
REMARK   10  A    between atoms: CB   and  CG  
ROOT
ATOM     15  CA  ASN A 133      31.225  30.257  11.749  1.00 18.15     0.196 C 
ENDROOT
BRANCH  15  16
ATOM     16  CB  ASN A 133      30.092  31.240  11.460  1.00 18.27     0.126 C 
BRANCH  16  17
ATOM     17  CG  ASN A 133      29.351  31.667  12.689  1.00 18.94     0.276 C 
ATOM     18  OD1 ASN A 133      28.403  31.010  13.123  1.00 18.09    -0.269 OA
ATOM     19  ND2 ASN A 133      29.781  32.787  13.269  1.00 18.93    -0.107 N 
ENDBRANCH  16  17
ENDBRANCH  15  16
END_RES ASN A 133
BEGIN_RES LYS A 131
REMARK  4 active torsions:
REMARK  status: ('A' for Active; 'I' for Inactive)
REMARK   11  A    between atoms: CA   and  CB  
REMARK   12  A    between atoms: CB   and  CG  
REMARK   13  A    between atoms: CG   and  CD  
REMARK   14  A    between atoms: CD   and  CE  
ROOT
ATOM     20  CA  LYS A 131      29.867  25.555  16.977  1.00 20.52     0.186 C 
ENDROOT
BRANCH  20  21
ATOM     21  CB  LYS A 131      28.345  25.722  17.026  1.00 20.94     0.034 C 
BRANCH  21  22
ATOM     22  CG  LYS A 131      27.726  25.908  15.649  1.00 22.96     0.005 C 
BRANCH  22  23
ATOM     23  CD  LYS A 131      26.307  26.398  15.727  1.00 24.33     0.041 C 
BRANCH  23  24
ATOM     24  CE  LYS A 131      26.265  27.714  16.496  1.00 26.91     0.338 C 
ATOM     25  NZ  LYS A 131      24.871  28.206  16.607  1.00 27.40     0.618 N 
ENDBRANCH  23  24
ENDBRANCH  22  23
ENDBRANCH  21  22
ENDBRANCH  20  21
END_RES LYS A 131
