REMARK VINA RESULT:    -3.858      6.828     11.935
REMARK INTER + INTRA:         -10.537
REMARK INTER:                  -5.454
REMARK INTRA:                  -5.083
REMARK UNBOUND:                -5.664
REMARK SMILES NCCNC(=O)NCc1ccco1
REMARK SMILES IDX 7 1 5 2 6 3 4 4 8 7 9 8 10 9 13 10 11 11 12 12 3 13 2 14
REMARK SMILES IDX 1 15
REMARK H PARENT 7 5 4 6 1 16 1 17
REMARK Flexibility Score: inf
ROOT
ATOM      1  N   UNL     1      28.495  34.523  12.251  1.00  0.00    -0.331 N 
ATOM      2  C   UNL     1      29.450  34.900  13.251  1.00  0.00     0.315 C 
ATOM      3  O   UNL     1      29.260  35.906  13.977  1.00  0.00    -0.249 OA
ATOM      4  N   UNL     1      30.636  34.152  13.453  1.00  0.00    -0.337 N 
ATOM      5  H   UNL     1      28.645  33.692  11.647  1.00  0.00     0.165 HD
ATOM      6  H   UNL     1      30.815  33.302  12.852  1.00  0.00     0.165 HD
ENDROOT
BRANCH   1   7
ATOM      7  C   UNL     1      27.297  35.317  12.081  1.00  0.00     0.193 C 
BRANCH   7   8
ATOM      8  C   UNL     1      26.868  35.215  10.652  1.00  0.00     0.122 A 
ATOM      9  C   UNL     1      27.109  34.175   9.785  1.00  0.00     0.047 A 
ATOM     10  O   UNL     1      26.184  36.105   9.976  1.00  0.00    -0.467 OA
ATOM     11  C   UNL     1      26.533  34.511   8.584  1.00  0.00     0.042 A 
ATOM     12  C   UNL     1      25.958  35.744   8.756  1.00  0.00     0.195 A 
ENDBRANCH   7   8
ENDBRANCH   1   7
BRANCH   4  13
ATOM     13  C   UNL     1      31.587  34.519  14.447  1.00  0.00     0.132 C 
BRANCH  13  14
ATOM     14  C   UNL     1      31.774  33.500  15.550  1.00  0.00     0.099 C 
BRANCH  14  15
ATOM     15  N   UNL     1      31.411  32.202  14.958  1.00  0.00    -0.329 NA
ATOM     16  H   UNL     1      31.520  32.309  13.934  1.00  0.00     0.118 HD
ATOM     17  H   UNL     1      32.168  31.534  15.264  1.00  0.00     0.118 HD
ENDBRANCH  14  15
ENDBRANCH  13  14
ENDBRANCH   4  13
TORSDOF 5
BEGIN_RES LYS A 135
REMARK  4 active torsions:
REMARK  status: ('A' for Active; 'I' for Inactive)
REMARK    1  A    between atoms: CA   and  CB  
REMARK    2  A    between atoms: CB   and  CG  
REMARK    3  A    between atoms: CG   and  CD  
REMARK    4  A    between atoms: CD   and  CE  
ROOT
ATOM      1  CA  LYS A 135      33.193  34.663   9.290  1.00 25.02     0.186 C 
ENDROOT
BRANCH   1   2
ATOM      2  CB  LYS A 135      32.060  35.360  10.034  1.00 26.63     0.034 C 
BRANCH   2   3
ATOM      3  CG  LYS A 135      30.689  34.885   9.626  1.00 29.45     0.005 C 
BRANCH   3   4
ATOM      4  CD  LYS A 135      30.657  34.550   8.143  1.00 32.00     0.041 C 
BRANCH   4   5
ATOM      5  CE  LYS A 135      29.666  35.440   7.418  1.00 34.25     0.338 C 
ATOM      6  NZ  LYS A 135      29.399  36.686   8.189  1.00 35.99     0.618 N 
ENDBRANCH   4   5
ENDBRANCH   3   4
ENDBRANCH   2   3
ENDBRANCH   1   2
END_RES LYS A 135
BEGIN_RES ARG A 124
REMARK  4 active torsions:
REMARK  status: ('A' for Active; 'I' for Inactive)
REMARK    5  A    between atoms: CA   and  CB  
REMARK    6  A    between atoms: CB   and  CG  
REMARK    7  A    between atoms: CG   and  CD  
REMARK    8  A    between atoms: CD   and  NE  
REMARK       I    between atoms: NE   and  CZ  
ROOT
ATOM      7  CA  ARG A 124      31.045  26.515   9.594  1.00 17.84     0.186 C 
ENDROOT
BRANCH   7   8
ATOM      8  CB  ARG A 124      29.529  26.705   9.647  1.00 16.18     0.036 C 
BRANCH   8   9
ATOM      9  CG  ARG A 124      28.975  27.380  10.952  1.00 16.22     0.029 C 
BRANCH   9  10
ATOM     10  CD  ARG A 124      28.229  26.387  11.872  1.00 15.09     0.145 C 
BRANCH  10  11
ATOM     11  NE  ARG A 124      27.924  26.928  13.214  1.00 16.98    -0.083 NA
ATOM     12  CZ  ARG A 124      26.755  27.444  13.578  1.00 18.21     0.782 C 
ATOM     13  NH1 ARG A 124      25.733  27.503  12.732  1.00 21.11     0.063 N 
ATOM     14  NH2 ARG A 124      26.585  27.892  14.812  1.00 21.25     0.063 N 
ENDBRANCH  10  11
ENDBRANCH   9  10
ENDBRANCH   8   9
ENDBRANCH   7   8
END_RES ARG A 124
BEGIN_RES ASN A 133
REMARK  2 active torsions:
REMARK  status: ('A' for Active; 'I' for Inactive)
REMARK    9  A    between atoms: CA   and  CB  
REMARK   10  A    between atoms: CB   and  CG  
ROOT
ATOM     15  CA  ASN A 133      31.225  30.257  11.749  1.00 18.15     0.196 C 
ENDROOT
BRANCH  15  16
ATOM     16  CB  ASN A 133      30.092  31.240  11.460  1.00 18.27     0.126 C 
BRANCH  16  17
ATOM     17  CG  ASN A 133      28.918  31.075  12.374  1.00 18.94     0.276 C 
ATOM     18  OD1 ASN A 133      28.891  31.614  13.482  1.00 18.09    -0.269 OA
ATOM     19  ND2 ASN A 133      27.923  30.316  11.914  1.00 18.93    -0.107 N 
ENDBRANCH  16  17
ENDBRANCH  15  16
END_RES ASN A 133
BEGIN_RES LYS A 131
REMARK  4 active torsions:
REMARK  status: ('A' for Active; 'I' for Inactive)
REMARK   11  A    between atoms: CA   and  CB  
REMARK   12  A    between atoms: CB   and  CG  
REMARK   13  A    between atoms: CG   and  CD  
REMARK   14  A    between atoms: CD   and  CE  
ROOT
ATOM     20  CA  LYS A 131      29.867  25.555  16.977  1.00 20.52     0.186 C 
ENDROOT
BRANCH  20  21
ATOM     21  CB  LYS A 131      28.345  25.722  17.026  1.00 20.94     0.034 C 
BRANCH  21  22
ATOM     22  CG  LYS A 131      27.600  24.411  16.825  1.00 22.96     0.005 C 
BRANCH  22  23
ATOM     23  CD  LYS A 131      26.336  24.348  17.637  1.00 24.33     0.041 C 
BRANCH  23  24
ATOM     24  CE  LYS A 131      25.567  25.656  17.484  1.00 26.91     0.338 C 
ATOM     25  NZ  LYS A 131      24.485  25.507  16.482  1.00 27.40     0.618 N 
ENDBRANCH  23  24
ENDBRANCH  22  23
ENDBRANCH  21  22
ENDBRANCH  20  21
END_RES LYS A 131
