REMARK VINA RESULT:    -2.811      6.254      8.463
REMARK INTER + INTRA:          -9.003
REMARK INTER:                  -3.205
REMARK INTRA:                  -5.798
REMARK UNBOUND:                -5.863
REMARK SMILES Nc1cccc(S(N)(=O)=O)c1
REMARK SMILES IDX 3 1 4 2 5 3 6 4 11 5 2 6 1 7 7 10 9 11 10 12 8 13
REMARK H PARENT 1 8 1 9 8 14 8 15
REMARK Flexibility Score: inf
ROOT
ATOM      1  C   UNL     1      39.153  35.416  17.212  1.00  0.00     0.025 A 
ATOM      2  C   UNL     1      40.371  35.141  16.632  1.00  0.00     0.004 A 
ATOM      3  C   UNL     1      40.422  34.852  15.287  1.00  0.00     0.022 A 
ATOM      4  C   UNL     1      39.300  34.833  14.516  1.00  0.00     0.084 A 
ATOM      5  C   UNL     1      38.085  35.106  15.086  1.00  0.00     0.047 A 
ATOM      6  C   UNL     1      38.027  35.396  16.436  1.00  0.00     0.033 A 
ENDROOT
BRANCH   6   7
ATOM      7  N   UNL     1      36.741  35.678  17.001  1.00  0.00    -0.399 N 
ATOM      8  H   UNL     1      35.930  35.918  16.374  1.00  0.00     0.156 HD
ATOM      9  H   UNL     1      36.591  35.651  18.015  1.00  0.00     0.156 HD
ENDBRANCH   6   7
BRANCH   4  10
ATOM     10  S   UNL     1      39.360  34.465  12.795  1.00  0.00     0.238 S 
ATOM     11  O   UNL     1      37.991  34.081  12.334  1.00  0.00    -0.207 OA
ATOM     12  O   UNL     1      39.815  35.675  12.035  1.00  0.00    -0.207 OA
BRANCH  10  13
ATOM     13  N   UNL     1      40.398  33.108  12.545  1.00  0.00    -0.225 NA
ATOM     14  H   UNL     1      40.351  32.490  13.395  1.00  0.00     0.137 HD
ATOM     15  H   UNL     1      39.984  32.544  11.769  1.00  0.00     0.137 HD
ENDBRANCH  10  13
ENDBRANCH   4  10
TORSDOF 3
BEGIN_RES LYS A 135
REMARK  4 active torsions:
REMARK  status: ('A' for Active; 'I' for Inactive)
REMARK    1  A    between atoms: CA   and  CB  
REMARK    2  A    between atoms: CB   and  CG  
REMARK    3  A    between atoms: CG   and  CD  
REMARK    4  A    between atoms: CD   and  CE  
ROOT
ATOM      1  CA  LYS A 135      33.193  34.663   9.290  1.00 25.02     0.186 C 
ENDROOT
BRANCH   1   2
ATOM      2  CB  LYS A 135      32.060  35.360  10.034  1.00 26.63     0.034 C 
BRANCH   2   3
ATOM      3  CG  LYS A 135      30.695  34.814   9.702  1.00 29.45     0.005 C 
BRANCH   3   4
ATOM      4  CD  LYS A 135      30.574  34.542   8.210  1.00 32.00     0.041 C 
BRANCH   4   5
ATOM      5  CE  LYS A 135      29.186  34.899   7.715  1.00 34.25     0.338 C 
ATOM      6  NZ  LYS A 135      28.137  34.357   8.622  1.00 35.99     0.618 N 
ENDBRANCH   4   5
ENDBRANCH   3   4
ENDBRANCH   2   3
ENDBRANCH   1   2
END_RES LYS A 135
BEGIN_RES ARG A 124
REMARK  4 active torsions:
REMARK  status: ('A' for Active; 'I' for Inactive)
REMARK    5  A    between atoms: CA   and  CB  
REMARK    6  A    between atoms: CB   and  CG  
REMARK    7  A    between atoms: CG   and  CD  
REMARK    8  A    between atoms: CD   and  NE  
REMARK       I    between atoms: NE   and  CZ  
ROOT
ATOM      7  CA  ARG A 124      31.045  26.515   9.594  1.00 17.84     0.186 C 
ENDROOT
BRANCH   7   8
ATOM      8  CB  ARG A 124      29.529  26.705   9.647  1.00 16.18     0.036 C 
BRANCH   8   9
ATOM      9  CG  ARG A 124      28.899  26.743  11.085  1.00 16.22     0.029 C 
BRANCH   9  10
ATOM     10  CD  ARG A 124      27.487  26.118  11.139  1.00 15.09     0.145 C 
BRANCH  10  11
ATOM     11  NE  ARG A 124      26.411  27.095  11.416  1.00 16.98    -0.083 NA
ATOM     12  CZ  ARG A 124      26.066  27.523  12.625  1.00 18.21     0.782 C 
ATOM     13  NH1 ARG A 124      26.697  27.098  13.714  1.00 21.11     0.063 N 
ATOM     14  NH2 ARG A 124      25.092  28.410  12.760  1.00 21.25     0.063 N 
ENDBRANCH  10  11
ENDBRANCH   9  10
ENDBRANCH   8   9
ENDBRANCH   7   8
END_RES ARG A 124
BEGIN_RES ASN A 133
REMARK  2 active torsions:
REMARK  status: ('A' for Active; 'I' for Inactive)
REMARK    9  A    between atoms: CA   and  CB  
REMARK   10  A    between atoms: CB   and  CG  
ROOT
ATOM     15  CA  ASN A 133      31.225  30.257  11.749  1.00 18.15     0.196 C 
ENDROOT
BRANCH  15  16
ATOM     16  CB  ASN A 133      30.092  31.240  11.460  1.00 18.27     0.126 C 
BRANCH  16  17
ATOM     17  CG  ASN A 133      28.737  30.604  11.482  1.00 18.94     0.276 C 
ATOM     18  OD1 ASN A 133      28.390  29.809  10.606  1.00 18.09    -0.269 OA
ATOM     19  ND2 ASN A 133      27.946  30.953  12.496  1.00 18.93    -0.107 N 
ENDBRANCH  16  17
ENDBRANCH  15  16
END_RES ASN A 133
BEGIN_RES LYS A 131
REMARK  4 active torsions:
REMARK  status: ('A' for Active; 'I' for Inactive)
REMARK   11  A    between atoms: CA   and  CB  
REMARK   12  A    between atoms: CB   and  CG  
REMARK   13  A    between atoms: CG   and  CD  
REMARK   14  A    between atoms: CD   and  CE  
ROOT
ATOM     20  CA  LYS A 131      29.867  25.555  16.977  1.00 20.52     0.186 C 
ENDROOT
BRANCH  20  21
ATOM     21  CB  LYS A 131      28.345  25.722  17.026  1.00 20.94     0.034 C 
BRANCH  21  22
ATOM     22  CG  LYS A 131      27.601  24.405  16.872  1.00 22.96     0.005 C 
BRANCH  22  23
ATOM     23  CD  LYS A 131      26.138  24.540  17.191  1.00 24.33     0.041 C 
BRANCH  23  24
ATOM     24  CE  LYS A 131      25.572  23.176  17.574  1.00 26.91     0.338 C 
ATOM     25  NZ  LYS A 131      24.171  23.047  17.110  1.00 27.40     0.618 N 
ENDBRANCH  23  24
ENDBRANCH  22  23
ENDBRANCH  21  22
ENDBRANCH  20  21
END_RES LYS A 131
