REMARK VINA RESULT:    -2.493      5.577     11.881
REMARK INTER + INTRA:          -8.631
REMARK INTER:                  -3.161
REMARK INTRA:                  -5.470
REMARK UNBOUND:                -5.482
REMARK SMILES CCN(CC)CCN
REMARK SMILES IDX 6 1 3 2 2 3 1 4 4 5 5 6 7 7 8 8
REMARK H PARENT 8 9 8 10
REMARK Flexibility Score: inf
ROOT
ATOM      1  C   UNL     1      24.555  17.481  14.585  1.00  0.00     0.099 C 
ENDROOT
BRANCH   1   2
ATOM      2  N   UNL     1      25.346  18.241  15.525  1.00  0.00    -0.303 NA
BRANCH   2   3
ATOM      3  C   UNL     1      24.568  18.605  16.701  1.00  0.00     0.081 C 
ATOM      4  C   UNL     1      24.564  20.029  17.067  1.00  0.00     0.021 C 
ENDBRANCH   2   3
BRANCH   2   5
ATOM      5  C   UNL     1      26.476  17.408  15.938  1.00  0.00     0.081 C 
ATOM      6  C   UNL     1      27.789  18.059  15.608  1.00  0.00     0.021 C 
ENDBRANCH   2   5
ENDBRANCH   1   2
BRANCH   1   7
ATOM      7  C   UNL     1      24.206  18.385  13.420  1.00  0.00     0.093 C 
BRANCH   7   8
ATOM      8  N   UNL     1      25.437  19.119  13.044  1.00  0.00    -0.329 NA
ATOM      9  H   UNL     1      25.156  20.106  12.904  1.00  0.00     0.118 HD
ATOM     10  H   UNL     1      26.052  19.088  13.884  1.00  0.00     0.118 HD
ENDBRANCH   7   8
ENDBRANCH   1   7
TORSDOF 5
BEGIN_RES LYS A 135
REMARK  4 active torsions:
REMARK  status: ('A' for Active; 'I' for Inactive)
REMARK    1  A    between atoms: CA   and  CB  
REMARK    2  A    between atoms: CB   and  CG  
REMARK    3  A    between atoms: CG   and  CD  
REMARK    4  A    between atoms: CD   and  CE  
ROOT
ATOM      1  CA  LYS A 135      33.193  34.663   9.290  1.00 25.02     0.186 C 
ENDROOT
BRANCH   1   2
ATOM      2  CB  LYS A 135      32.060  35.360  10.034  1.00 26.63     0.034 C 
BRANCH   2   3
ATOM      3  CG  LYS A 135      30.800  35.500   9.219  1.00 29.45     0.005 C 
BRANCH   3   4
ATOM      4  CD  LYS A 135      30.169  34.139   8.968  1.00 32.00     0.041 C 
BRANCH   4   5
ATOM      5  CE  LYS A 135      28.680  34.281   8.719  1.00 34.25     0.338 C 
ATOM      6  NZ  LYS A 135      27.891  33.606   9.787  1.00 35.99     0.618 N 
ENDBRANCH   4   5
ENDBRANCH   3   4
ENDBRANCH   2   3
ENDBRANCH   1   2
END_RES LYS A 135
BEGIN_RES ARG A 124
REMARK  4 active torsions:
REMARK  status: ('A' for Active; 'I' for Inactive)
REMARK    5  A    between atoms: CA   and  CB  
REMARK    6  A    between atoms: CB   and  CG  
REMARK    7  A    between atoms: CG   and  CD  
REMARK    8  A    between atoms: CD   and  NE  
REMARK       I    between atoms: NE   and  CZ  
ROOT
ATOM      7  CA  ARG A 124      31.045  26.515   9.594  1.00 17.84     0.186 C 
ENDROOT
BRANCH   7   8
ATOM      8  CB  ARG A 124      29.529  26.705   9.647  1.00 16.18     0.036 C 
BRANCH   8   9
ATOM      9  CG  ARG A 124      29.021  27.854  10.590  1.00 16.22     0.029 C 
BRANCH   9  10
ATOM     10  CD  ARG A 124      28.290  27.322  11.844  1.00 15.09     0.145 C 
BRANCH  10  11
ATOM     11  NE  ARG A 124      27.321  28.279  12.421  1.00 16.98    -0.083 NA
ATOM     12  CZ  ARG A 124      26.003  28.111  12.432  1.00 18.21     0.782 C 
ATOM     13  NH1 ARG A 124      25.441  27.024  11.917  1.00 21.11     0.063 N 
ATOM     14  NH2 ARG A 124      25.225  29.028  12.987  1.00 21.25     0.063 N 
ENDBRANCH  10  11
ENDBRANCH   9  10
ENDBRANCH   8   9
ENDBRANCH   7   8
END_RES ARG A 124
BEGIN_RES ASN A 133
REMARK  2 active torsions:
REMARK  status: ('A' for Active; 'I' for Inactive)
REMARK    9  A    between atoms: CA   and  CB  
REMARK   10  A    between atoms: CB   and  CG  
ROOT
ATOM     15  CA  ASN A 133      31.225  30.257  11.749  1.00 18.15     0.196 C 
ENDROOT
BRANCH  15  16
ATOM     16  CB  ASN A 133      30.092  31.240  11.460  1.00 18.27     0.126 C 
BRANCH  16  17
ATOM     17  CG  ASN A 133      29.440  31.772  12.698  1.00 18.94     0.276 C 
ATOM     18  OD1 ASN A 133      29.968  32.664  13.365  1.00 18.09    -0.269 OA
ATOM     19  ND2 ASN A 133      28.271  31.222  13.024  1.00 18.93    -0.107 N 
ENDBRANCH  16  17
ENDBRANCH  15  16
END_RES ASN A 133
BEGIN_RES LYS A 131
REMARK  4 active torsions:
REMARK  status: ('A' for Active; 'I' for Inactive)
REMARK   11  A    between atoms: CA   and  CB  
REMARK   12  A    between atoms: CB   and  CG  
REMARK   13  A    between atoms: CG   and  CD  
REMARK   14  A    between atoms: CD   and  CE  
ROOT
ATOM     20  CA  LYS A 131      29.867  25.555  16.977  1.00 20.52     0.186 C 
ENDROOT
BRANCH  20  21
ATOM     21  CB  LYS A 131      28.345  25.722  17.026  1.00 20.94     0.034 C 
BRANCH  21  22
ATOM     22  CG  LYS A 131      27.725  25.897  15.648  1.00 22.96     0.005 C 
BRANCH  22  23
ATOM     23  CD  LYS A 131      26.500  26.768  15.685  1.00 24.33     0.041 C 
BRANCH  23  24
ATOM     24  CE  LYS A 131      26.784  28.011  16.522  1.00 26.91     0.338 C 
ATOM     25  NZ  LYS A 131      27.624  28.967  15.763  1.00 27.40     0.618 N 
ENDBRANCH  23  24
ENDBRANCH  22  23
ENDBRANCH  21  22
ENDBRANCH  20  21
END_RES LYS A 131
