REMARK VINA RESULT:    -4.784      6.874      8.463
REMARK INTER + INTRA:         -10.512
REMARK INTER:                  -4.582
REMARK INTRA:                  -5.930
REMARK UNBOUND:                -4.889
REMARK SMILES Nc1cc(C(=O)O)nc(-c2ccccc2)c1
REMARK SMILES IDX 2 1 3 2 4 3 8 4 9 5 16 6 1 7 5 10 6 11 7 12 10 14 11 15
REMARK SMILES IDX 15 16 12 17 14 18 13 19
REMARK H PARENT 1 8 1 9 7 13
REMARK Flexibility Score: inf
ROOT
ATOM      1  C   UNL     1      36.751  39.372   6.772  1.00  0.00     0.036 A 
ATOM      2  C   UNL     1      37.037  38.766   5.553  1.00  0.00     0.061 A 
ATOM      3  C   UNL     1      36.071  38.496   4.609  1.00  0.00     0.150 A 
ATOM      4  N   UNL     1      34.809  38.851   4.923  1.00  0.00    -0.241 NA
ATOM      5  C   UNL     1      34.469  39.440   6.085  1.00  0.00     0.073 A 
ATOM      6  C   UNL     1      35.433  39.705   7.017  1.00  0.00     0.054 A 
ENDROOT
BRANCH   1   7
ATOM      7  N   UNL     1      37.781  39.628   7.711  1.00  0.00    -0.399 N 
ATOM      8  H   UNL     1      38.197  40.569   7.755  1.00  0.00     0.156 HD
ATOM      9  H   UNL     1      38.094  38.868   8.333  1.00  0.00     0.156 HD
ENDBRANCH   1   7
BRANCH   3  10
ATOM     10  C   UNL     1      36.421  37.861   3.351  1.00  0.00     0.354 C 
ATOM     11  O   UNL     1      35.789  38.111   2.313  1.00  0.00    -0.245 OA
BRANCH  10  12
ATOM     12  O   UNL     1      37.472  36.969   3.310  1.00  0.00    -0.477 OA
ATOM     13  H   UNL     1      38.147  36.950   4.062  1.00  0.00     0.297 HD
ENDBRANCH  10  12
ENDBRANCH   3  10
BRANCH   5  14
ATOM     14  C   UNL     1      33.045  39.772   6.289  1.00  0.00     0.000 A 
ATOM     15  C   UNL     1      32.510  39.800   7.564  1.00  0.00     0.010 A 
ATOM     16  C   UNL     1      32.194  40.065   5.247  1.00  0.00     0.010 A 
ATOM     17  C   UNL     1      31.187  40.106   7.779  1.00  0.00     0.001 A 
ATOM     18  C   UNL     1      30.849  40.376   5.472  1.00  0.00     0.001 A 
ATOM     19  C   UNL     1      30.326  40.401   6.745  1.00  0.00     0.000 A 
ENDBRANCH   5  14
TORSDOF 4
BEGIN_RES LYS A 135
REMARK  4 active torsions:
REMARK  status: ('A' for Active; 'I' for Inactive)
REMARK    1  A    between atoms: CA   and  CB  
REMARK    2  A    between atoms: CB   and  CG  
REMARK    3  A    between atoms: CG   and  CD  
REMARK    4  A    between atoms: CD   and  CE  
ROOT
ATOM      1  CA  LYS A 135      33.193  34.663   9.290  1.00 25.02     0.186 C 
ENDROOT
BRANCH   1   2
ATOM      2  CB  LYS A 135      32.060  35.360  10.034  1.00 26.63     0.034 C 
BRANCH   2   3
ATOM      3  CG  LYS A 135      30.695  34.818   9.697  1.00 29.45     0.005 C 
BRANCH   3   4
ATOM      4  CD  LYS A 135      30.589  34.516   8.210  1.00 32.00     0.041 C 
BRANCH   4   5
ATOM      5  CE  LYS A 135      29.233  34.935   7.676  1.00 34.25     0.338 C 
ATOM      6  NZ  LYS A 135      28.136  34.450   8.559  1.00 35.99     0.618 N 
ENDBRANCH   4   5
ENDBRANCH   3   4
ENDBRANCH   2   3
ENDBRANCH   1   2
END_RES LYS A 135
BEGIN_RES ARG A 124
REMARK  4 active torsions:
REMARK  status: ('A' for Active; 'I' for Inactive)
REMARK    5  A    between atoms: CA   and  CB  
REMARK    6  A    between atoms: CB   and  CG  
REMARK    7  A    between atoms: CG   and  CD  
REMARK    8  A    between atoms: CD   and  NE  
REMARK       I    between atoms: NE   and  CZ  
ROOT
ATOM      7  CA  ARG A 124      31.045  26.515   9.594  1.00 17.84     0.186 C 
ENDROOT
BRANCH   7   8
ATOM      8  CB  ARG A 124      29.529  26.705   9.647  1.00 16.18     0.036 C 
BRANCH   8   9
ATOM      9  CG  ARG A 124      28.895  26.710  11.084  1.00 16.22     0.029 C 
BRANCH   9  10
ATOM     10  CD  ARG A 124      27.493  26.061  11.124  1.00 15.09     0.145 C 
BRANCH  10  11
ATOM     11  NE  ARG A 124      26.397  27.020  11.385  1.00 16.98    -0.083 NA
ATOM     12  CZ  ARG A 124      26.073  27.496  12.582  1.00 18.21     0.782 C 
ATOM     13  NH1 ARG A 124      26.745  27.141  13.671  1.00 21.11     0.063 N 
ATOM     14  NH2 ARG A 124      25.078  28.361  12.702  1.00 21.25     0.063 N 
ENDBRANCH  10  11
ENDBRANCH   9  10
ENDBRANCH   8   9
ENDBRANCH   7   8
END_RES ARG A 124
BEGIN_RES ASN A 133
REMARK  2 active torsions:
REMARK  status: ('A' for Active; 'I' for Inactive)
REMARK    9  A    between atoms: CA   and  CB  
REMARK   10  A    between atoms: CB   and  CG  
ROOT
ATOM     15  CA  ASN A 133      31.225  30.257  11.749  1.00 18.15     0.196 C 
ENDROOT
BRANCH  15  16
ATOM     16  CB  ASN A 133      30.092  31.240  11.460  1.00 18.27     0.126 C 
BRANCH  16  17
ATOM     17  CG  ASN A 133      28.732  30.621  11.558  1.00 18.94     0.276 C 
ATOM     18  OD1 ASN A 133      28.349  29.787  10.735  1.00 18.09    -0.269 OA
ATOM     19  ND2 ASN A 133      27.978  31.029  12.579  1.00 18.93    -0.107 N 
ENDBRANCH  16  17
ENDBRANCH  15  16
END_RES ASN A 133
BEGIN_RES LYS A 131
REMARK  4 active torsions:
REMARK  status: ('A' for Active; 'I' for Inactive)
REMARK   11  A    between atoms: CA   and  CB  
REMARK   12  A    between atoms: CB   and  CG  
REMARK   13  A    between atoms: CG   and  CD  
REMARK   14  A    between atoms: CD   and  CE  
ROOT
ATOM     20  CA  LYS A 131      29.867  25.555  16.977  1.00 20.52     0.186 C 
ENDROOT
BRANCH  20  21
ATOM     21  CB  LYS A 131      28.345  25.722  17.026  1.00 20.94     0.034 C 
BRANCH  21  22
ATOM     22  CG  LYS A 131      27.600  24.407  16.853  1.00 22.96     0.005 C 
BRANCH  22  23
ATOM     23  CD  LYS A 131      26.170  24.502  17.308  1.00 24.33     0.041 C 
BRANCH  23  24
ATOM     24  CE  LYS A 131      25.568  25.817  16.823  1.00 26.91     0.338 C 
ATOM     25  NZ  LYS A 131      24.836  26.489  17.923  1.00 27.40     0.618 N 
ENDBRANCH  23  24
ENDBRANCH  22  23
ENDBRANCH  21  22
ENDBRANCH  20  21
END_RES LYS A 131
