REMARK VINA RESULT:    -5.992      5.984      8.978
REMARK INTER + INTRA:         -11.078
REMARK INTER:                  -6.447
REMARK INTRA:                  -4.631
REMARK UNBOUND:                -3.509
REMARK SMILES C[C@H](N)C(=O)OCc1ccccc1
REMARK SMILES IDX 4 1 5 2 2 3 1 4 3 5 6 8 7 9 8 10 9 11 13 12 10 13 12 14
REMARK SMILES IDX 11 15
REMARK H PARENT 3 6 3 7
REMARK Flexibility Score: inf
ROOT
ATOM      1  C   UNL     1      28.229  38.202   6.645  1.00  0.00     0.322 C 
ATOM      2  O   UNL     1      29.273  38.410   7.289  1.00  0.00    -0.250 OA
ENDROOT
BRANCH   1   3
ATOM      3  C   UNL     1      27.749  39.203   5.679  1.00  0.00     0.159 C 
ATOM      4  C   UNL     1      26.489  39.822   6.258  1.00  0.00     0.037 C 
BRANCH   3   5
ATOM      5  N   UNL     1      27.519  38.585   4.408  1.00  0.00    -0.319 NA
ATOM      6  H   UNL     1      27.178  37.612   4.485  1.00  0.00     0.119 HD
ATOM      7  H   UNL     1      28.396  38.666   3.817  1.00  0.00     0.119 HD
ENDBRANCH   3   5
ENDBRANCH   1   3
BRANCH   1   8
ATOM      8  O   UNL     1      27.532  37.030   6.846  1.00  0.00    -0.460 OA
BRANCH   8   9
ATOM      9  C   UNL     1      28.047  35.791   6.392  1.00  0.00     0.268 C 
BRANCH   9  10
ATOM     10  C   UNL     1      28.512  35.053   7.596  1.00  0.00    -0.011 A 
ATOM     11  C   UNL     1      27.646  34.512   8.526  1.00  0.00     0.007 A 
ATOM     12  C   UNL     1      29.869  34.911   7.779  1.00  0.00     0.007 A 
ATOM     13  C   UNL     1      28.087  33.830   9.639  1.00  0.00     0.000 A 
ATOM     14  C   UNL     1      30.338  34.229   8.892  1.00  0.00     0.000 A 
ATOM     15  C   UNL     1      29.457  33.696   9.808  1.00  0.00     0.000 A 
ENDBRANCH   9  10
ENDBRANCH   8   9
ENDBRANCH   1   8
TORSDOF 5
BEGIN_RES LYS A 135
REMARK  4 active torsions:
REMARK  status: ('A' for Active; 'I' for Inactive)
REMARK    1  A    between atoms: CA   and  CB  
REMARK    2  A    between atoms: CB   and  CG  
REMARK    3  A    between atoms: CG   and  CD  
REMARK    4  A    between atoms: CD   and  CE  
ROOT
ATOM      1  CA  LYS A 135      33.193  34.663   9.290  1.00 25.02     0.186 C 
ENDROOT
BRANCH   1   2
ATOM      2  CB  LYS A 135      32.060  35.360  10.034  1.00 26.63     0.034 C 
BRANCH   2   3
ATOM      3  CG  LYS A 135      32.508  36.069  11.286  1.00 29.45     0.005 C 
BRANCH   3   4
ATOM      4  CD  LYS A 135      31.845  37.433  11.397  1.00 32.00     0.041 C 
BRANCH   4   5
ATOM      5  CE  LYS A 135      31.355  37.899  10.040  1.00 34.25     0.338 C 
ATOM      6  NZ  LYS A 135      32.191  39.018   9.523  1.00 35.99     0.618 N 
ENDBRANCH   4   5
ENDBRANCH   3   4
ENDBRANCH   2   3
ENDBRANCH   1   2
END_RES LYS A 135
BEGIN_RES ARG A 124
REMARK  4 active torsions:
REMARK  status: ('A' for Active; 'I' for Inactive)
REMARK    5  A    between atoms: CA   and  CB  
REMARK    6  A    between atoms: CB   and  CG  
REMARK    7  A    between atoms: CG   and  CD  
REMARK    8  A    between atoms: CD   and  NE  
REMARK       I    between atoms: NE   and  CZ  
ROOT
ATOM      7  CA  ARG A 124      31.045  26.515   9.594  1.00 17.84     0.186 C 
ENDROOT
BRANCH   7   8
ATOM      8  CB  ARG A 124      29.529  26.705   9.647  1.00 16.18     0.036 C 
BRANCH   8   9
ATOM      9  CG  ARG A 124      28.902  26.762  11.086  1.00 16.22     0.029 C 
BRANCH   9  10
ATOM     10  CD  ARG A 124      27.526  26.062  11.169  1.00 15.09     0.145 C 
BRANCH  10  11
ATOM     11  NE  ARG A 124      26.396  26.989  11.399  1.00 16.98    -0.083 NA
ATOM     12  CZ  ARG A 124      26.026  27.455  12.586  1.00 18.21     0.782 C 
ATOM     13  NH1 ARG A 124      26.676  27.119  13.693  1.00 21.11     0.063 N 
ATOM     14  NH2 ARG A 124      25.003  28.292  12.678  1.00 21.25     0.063 N 
ENDBRANCH  10  11
ENDBRANCH   9  10
ENDBRANCH   8   9
ENDBRANCH   7   8
END_RES ARG A 124
BEGIN_RES ASN A 133
REMARK  2 active torsions:
REMARK  status: ('A' for Active; 'I' for Inactive)
REMARK    9  A    between atoms: CA   and  CB  
REMARK   10  A    between atoms: CB   and  CG  
ROOT
ATOM     15  CA  ASN A 133      31.225  30.257  11.749  1.00 18.15     0.196 C 
ENDROOT
BRANCH  15  16
ATOM     16  CB  ASN A 133      30.092  31.240  11.460  1.00 18.27     0.126 C 
BRANCH  16  17
ATOM     17  CG  ASN A 133      28.732  30.620  11.556  1.00 18.94     0.276 C 
ATOM     18  OD1 ASN A 133      28.349  29.791  10.728  1.00 18.09    -0.269 OA
ATOM     19  ND2 ASN A 133      27.979  31.023  12.579  1.00 18.93    -0.107 N 
ENDBRANCH  16  17
ENDBRANCH  15  16
END_RES ASN A 133
BEGIN_RES LYS A 131
REMARK  4 active torsions:
REMARK  status: ('A' for Active; 'I' for Inactive)
REMARK   11  A    between atoms: CA   and  CB  
REMARK   12  A    between atoms: CB   and  CG  
REMARK   13  A    between atoms: CG   and  CD  
REMARK   14  A    between atoms: CD   and  CE  
ROOT
ATOM     20  CA  LYS A 131      29.867  25.555  16.977  1.00 20.52     0.186 C 
ENDROOT
BRANCH  20  21
ATOM     21  CB  LYS A 131      28.345  25.722  17.026  1.00 20.94     0.034 C 
BRANCH  21  22
ATOM     22  CG  LYS A 131      27.600  24.409  16.841  1.00 22.96     0.005 C 
BRANCH  22  23
ATOM     23  CD  LYS A 131      26.153  24.518  17.233  1.00 24.33     0.041 C 
BRANCH  23  24
ATOM     24  CE  LYS A 131      26.041  24.600  18.752  1.00 26.91     0.338 C 
ATOM     25  NZ  LYS A 131      25.538  23.321  19.304  1.00 27.40     0.618 N 
ENDBRANCH  23  24
ENDBRANCH  22  23
ENDBRANCH  21  22
ENDBRANCH  20  21
END_RES LYS A 131
