REMARK VINA RESULT:    -2.990      4.786      8.278
REMARK INTER + INTRA:          -8.822
REMARK INTER:                  -4.655
REMARK INTRA:                  -4.167
REMARK UNBOUND:                -5.395
REMARK SMILES N#Cc1cccc(CN)c1
REMARK SMILES IDX 7 1 6 2 5 3 4 4 3 5 10 6 8 7 9 8 2 11 1 12
REMARK H PARENT 9 9 9 10
REMARK Flexibility Score: inf
ROOT
ATOM      1  C   UNL     1      26.800  35.144   8.595  1.00  0.00    -0.033 A 
ATOM      2  C   UNL     1      27.917  34.403   8.925  1.00  0.00     0.005 A 
ATOM      3  C   UNL     1      29.111  34.517   8.234  1.00  0.00     0.002 A 
ATOM      4  C   UNL     1      29.176  35.412   7.170  1.00  0.00     0.019 A 
ATOM      5  C   UNL     1      28.092  36.165   6.810  1.00  0.00     0.052 A 
ATOM      6  C   UNL     1      26.903  36.025   7.530  1.00  0.00     0.024 A 
ENDROOT
BRANCH   1   7
ATOM      7  C   UNL     1      25.544  35.000   9.350  1.00  0.00     0.113 C 
BRANCH   7   8
ATOM      8  N   UNL     1      24.671  36.147   9.234  1.00  0.00    -0.326 NA
ATOM      9  H   UNL     1      25.223  36.891   8.728  1.00  0.00     0.119 HD
ATOM     10  H   UNL     1      24.425  36.477  10.212  1.00  0.00     0.119 HD
ENDBRANCH   7   8
ENDBRANCH   1   7
BRANCH   5  11
ATOM     11  C   UNL     1      28.130  37.101   5.712  1.00  0.00     0.099 C 
ATOM     12  N   UNL     1      28.179  37.851   4.842  1.00  0.00    -0.192 NA
ENDBRANCH   5  11
TORSDOF 3
BEGIN_RES LYS A 135
REMARK  4 active torsions:
REMARK  status: ('A' for Active; 'I' for Inactive)
REMARK    1  A    between atoms: CA   and  CB  
REMARK    2  A    between atoms: CB   and  CG  
REMARK    3  A    between atoms: CG   and  CD  
REMARK    4  A    between atoms: CD   and  CE  
ROOT
ATOM      1  CA  LYS A 135      33.193  34.663   9.290  1.00 25.02     0.186 C 
ENDROOT
BRANCH   1   2
ATOM      2  CB  LYS A 135      32.060  35.360  10.034  1.00 26.63     0.034 C 
BRANCH   2   3
ATOM      3  CG  LYS A 135      32.517  36.121  11.251  1.00 29.45     0.005 C 
BRANCH   3   4
ATOM      4  CD  LYS A 135      31.505  35.989  12.379  1.00 32.00     0.041 C 
BRANCH   4   5
ATOM      5  CE  LYS A 135      30.592  34.802  12.138  1.00 34.25     0.338 C 
ATOM      6  NZ  LYS A 135      29.162  35.185  12.291  1.00 35.99     0.618 N 
ENDBRANCH   4   5
ENDBRANCH   3   4
ENDBRANCH   2   3
ENDBRANCH   1   2
END_RES LYS A 135
BEGIN_RES ARG A 124
REMARK  4 active torsions:
REMARK  status: ('A' for Active; 'I' for Inactive)
REMARK    5  A    between atoms: CA   and  CB  
REMARK    6  A    between atoms: CB   and  CG  
REMARK    7  A    between atoms: CG   and  CD  
REMARK    8  A    between atoms: CD   and  NE  
REMARK       I    between atoms: NE   and  CZ  
ROOT
ATOM      7  CA  ARG A 124      31.045  26.515   9.594  1.00 17.84     0.186 C 
ENDROOT
BRANCH   7   8
ATOM      8  CB  ARG A 124      29.529  26.705   9.647  1.00 16.18     0.036 C 
BRANCH   8   9
ATOM      9  CG  ARG A 124      28.976  27.389  10.948  1.00 16.22     0.029 C 
BRANCH   9  10
ATOM     10  CD  ARG A 124      28.450  26.370  11.985  1.00 15.09     0.145 C 
BRANCH  10  11
ATOM     11  NE  ARG A 124      28.049  26.979  13.272  1.00 16.98    -0.083 NA
ATOM     12  CZ  ARG A 124      26.817  27.375  13.575  1.00 18.21     0.782 C 
ATOM     13  NH1 ARG A 124      25.816  27.235  12.714  1.00 21.11     0.063 N 
ATOM     14  NH2 ARG A 124      26.565  27.899  14.764  1.00 21.25     0.063 N 
ENDBRANCH  10  11
ENDBRANCH   9  10
ENDBRANCH   8   9
ENDBRANCH   7   8
END_RES ARG A 124
BEGIN_RES ASN A 133
REMARK  2 active torsions:
REMARK  status: ('A' for Active; 'I' for Inactive)
REMARK    9  A    between atoms: CA   and  CB  
REMARK   10  A    between atoms: CB   and  CG  
ROOT
ATOM     15  CA  ASN A 133      31.225  30.257  11.749  1.00 18.15     0.196 C 
ENDROOT
BRANCH  15  16
ATOM     16  CB  ASN A 133      30.092  31.240  11.460  1.00 18.27     0.126 C 
BRANCH  16  17
ATOM     17  CG  ASN A 133      29.020  31.231  12.505  1.00 18.94     0.276 C 
ATOM     18  OD1 ASN A 133      29.138  31.880  13.547  1.00 18.09    -0.269 OA
ATOM     19  ND2 ASN A 133      27.950  30.485  12.236  1.00 18.93    -0.107 N 
ENDBRANCH  16  17
ENDBRANCH  15  16
END_RES ASN A 133
BEGIN_RES LYS A 131
REMARK  4 active torsions:
REMARK  status: ('A' for Active; 'I' for Inactive)
REMARK   11  A    between atoms: CA   and  CB  
REMARK   12  A    between atoms: CB   and  CG  
REMARK   13  A    between atoms: CG   and  CD  
REMARK   14  A    between atoms: CD   and  CE  
ROOT
ATOM     20  CA  LYS A 131      29.867  25.555  16.977  1.00 20.52     0.186 C 
ENDROOT
BRANCH  20  21
ATOM     21  CB  LYS A 131      28.345  25.722  17.026  1.00 20.94     0.034 C 
BRANCH  21  22
ATOM     22  CG  LYS A 131      27.600  24.417  16.792  1.00 22.96     0.005 C 
BRANCH  22  23
ATOM     23  CD  LYS A 131      26.790  24.004  17.990  1.00 24.33     0.041 C 
BRANCH  23  24
ATOM     24  CE  LYS A 131      26.307  25.247  18.731  1.00 26.91     0.338 C 
ATOM     25  NZ  LYS A 131      25.457  24.867  19.884  1.00 27.40     0.618 N 
ENDBRANCH  23  24
ENDBRANCH  22  23
ENDBRANCH  21  22
ENDBRANCH  20  21
END_RES LYS A 131
