REMARK VINA RESULT:    -3.117      1.680      2.201
REMARK INTER + INTRA:          -8.071
REMARK INTER:                  -3.353
REMARK INTRA:                  -4.718
REMARK UNBOUND:                -4.863
REMARK SMILES Nc1ccc(Br)cc1
REMARK SMILES IDX 2 1 3 2 4 3 5 4 6 5 7 6 8 7 1 8
REMARK H PARENT 1 9 1 10
REMARK Flexibility Score: inf
ROOT
ATOM      1  C   UNL     1      38.526  33.687  12.934  1.00  0.00     0.031 A 
ATOM      2  C   UNL     1      37.738  33.679  14.066  1.00  0.00     0.026 A 
ATOM      3  C   UNL     1      37.820  34.668  15.028  1.00  0.00     0.018 A 
ATOM      4  C   UNL     1      38.705  35.717  14.893  1.00  0.00     0.018 A 
ATOM      5  Br  UNL     1      38.833  37.095  16.215  1.00  0.00    -0.051 Br
ATOM      6  C   UNL     1      39.495  35.726  13.761  1.00  0.00     0.018 A 
ATOM      7  C   UNL     1      39.411  34.735  12.800  1.00  0.00     0.026 A 
ENDROOT
BRANCH   1   8
ATOM      8  N   UNL     1      38.443  32.672  11.944  1.00  0.00    -0.399 N 
ATOM      9  H   UNL     1      39.293  32.468  11.340  1.00  0.00     0.156 HD
ATOM     10  H   UNL     1      37.606  32.097  11.752  1.00  0.00     0.156 HD
ENDBRANCH   1   8
TORSDOF 1
BEGIN_RES LYS A 135
REMARK  4 active torsions:
REMARK  status: ('A' for Active; 'I' for Inactive)
REMARK    1  A    between atoms: CA   and  CB  
REMARK    2  A    between atoms: CB   and  CG  
REMARK    3  A    between atoms: CG   and  CD  
REMARK    4  A    between atoms: CD   and  CE  
ROOT
ATOM      1  CA  LYS A 135      33.193  34.663   9.290  1.00 25.02     0.186 C 
ENDROOT
BRANCH   1   2
ATOM      2  CB  LYS A 135      32.060  35.360  10.034  1.00 26.63     0.034 C 
BRANCH   2   3
ATOM      3  CG  LYS A 135      30.691  35.007   9.514  1.00 29.45     0.005 C 
BRANCH   3   4
ATOM      4  CD  LYS A 135      29.704  34.851  10.661  1.00 32.00     0.041 C 
BRANCH   4   5
ATOM      5  CE  LYS A 135      29.982  35.874  11.745  1.00 34.25     0.338 C 
ATOM      6  NZ  LYS A 135      30.068  35.227  13.084  1.00 35.99     0.618 N 
ENDBRANCH   4   5
ENDBRANCH   3   4
ENDBRANCH   2   3
ENDBRANCH   1   2
END_RES LYS A 135
BEGIN_RES ARG A 124
REMARK  4 active torsions:
REMARK  status: ('A' for Active; 'I' for Inactive)
REMARK    5  A    between atoms: CA   and  CB  
REMARK    6  A    between atoms: CB   and  CG  
REMARK    7  A    between atoms: CG   and  CD  
REMARK    8  A    between atoms: CD   and  NE  
REMARK       I    between atoms: NE   and  CZ  
ROOT
ATOM      7  CA  ARG A 124      31.045  26.515   9.594  1.00 17.84     0.186 C 
ENDROOT
BRANCH   7   8
ATOM      8  CB  ARG A 124      29.529  26.705   9.647  1.00 16.18     0.036 C 
BRANCH   8   9
ATOM      9  CG  ARG A 124      28.970  27.340  10.970  1.00 16.22     0.029 C 
BRANCH   9  10
ATOM     10  CD  ARG A 124      28.399  26.286  11.947  1.00 15.09     0.145 C 
BRANCH  10  11
ATOM     11  NE  ARG A 124      27.963  26.847  13.244  1.00 16.98    -0.083 NA
ATOM     12  CZ  ARG A 124      26.736  27.282  13.511  1.00 18.21     0.782 C 
ATOM     13  NH1 ARG A 124      25.772  27.229  12.600  1.00 21.11     0.063 N 
ATOM     14  NH2 ARG A 124      26.450  27.756  14.714  1.00 21.25     0.063 N 
ENDBRANCH  10  11
ENDBRANCH   9  10
ENDBRANCH   8   9
ENDBRANCH   7   8
END_RES ARG A 124
BEGIN_RES ASN A 133
REMARK  2 active torsions:
REMARK  status: ('A' for Active; 'I' for Inactive)
REMARK    9  A    between atoms: CA   and  CB  
REMARK   10  A    between atoms: CB   and  CG  
ROOT
ATOM     15  CA  ASN A 133      31.225  30.257  11.749  1.00 18.15     0.196 C 
ENDROOT
BRANCH  15  16
ATOM     16  CB  ASN A 133      30.092  31.240  11.460  1.00 18.27     0.126 C 
BRANCH  16  17
ATOM     17  CG  ASN A 133      28.930  31.094  12.393  1.00 18.94     0.276 C 
ATOM     18  OD1 ASN A 133      28.038  30.270  12.177  1.00 18.09    -0.269 OA
ATOM     19  ND2 ASN A 133      28.926  31.904  13.451  1.00 18.93    -0.107 N 
ENDBRANCH  16  17
ENDBRANCH  15  16
END_RES ASN A 133
BEGIN_RES LYS A 131
REMARK  4 active torsions:
REMARK  status: ('A' for Active; 'I' for Inactive)
REMARK   11  A    between atoms: CA   and  CB  
REMARK   12  A    between atoms: CB   and  CG  
REMARK   13  A    between atoms: CG   and  CD  
REMARK   14  A    between atoms: CD   and  CE  
ROOT
ATOM     20  CA  LYS A 131      29.867  25.555  16.977  1.00 20.52     0.186 C 
ENDROOT
BRANCH  20  21
ATOM     21  CB  LYS A 131      28.345  25.722  17.026  1.00 20.94     0.034 C 
BRANCH  21  22
ATOM     22  CG  LYS A 131      27.600  24.413  16.812  1.00 22.96     0.005 C 
BRANCH  22  23
ATOM     23  CD  LYS A 131      26.155  24.512  17.217  1.00 24.33     0.041 C 
BRANCH  23  24
ATOM     24  CE  LYS A 131      26.061  24.702  18.727  1.00 26.91     0.338 C 
ATOM     25  NZ  LYS A 131      25.543  23.474  19.374  1.00 27.40     0.618 N 
ENDBRANCH  23  24
ENDBRANCH  22  23
ENDBRANCH  21  22
ENDBRANCH  20  21
END_RES LYS A 131
