REMARK VINA RESULT:    -3.253      1.521      2.548
REMARK INTER + INTRA:          -9.229
REMARK INTER:                  -3.844
REMARK INTRA:                  -5.385
REMARK UNBOUND:                -5.691
REMARK SMILES NCc1ccc2[nH]ncc2c1
REMARK SMILES IDX 2 1 1 2 3 5 4 6 11 7 5 8 10 9 6 10 9 11 7 12 8 13
REMARK H PARENT 1 3 1 4 7 14
REMARK Flexibility Score: inf
ROOT
ATOM      1  C   UNL     1      37.576  36.325  16.356  1.00  0.00     0.113 C 
ENDROOT
BRANCH   1   2
ATOM      2  N   UNL     1      38.627  36.574  17.325  1.00  0.00    -0.326 NA
ATOM      3  H   UNL     1      39.531  36.844  16.877  1.00  0.00     0.119 HD
ATOM      4  H   UNL     1      38.318  37.268  18.042  1.00  0.00     0.119 HD
ENDBRANCH   1   2
BRANCH   1   5
ATOM      5  C   UNL     1      38.124  35.448  15.282  1.00  0.00    -0.034 A 
ATOM      6  C   UNL     1      37.324  34.513  14.647  1.00  0.00     0.007 A 
ATOM      7  C   UNL     1      39.449  35.568  14.916  1.00  0.00     0.017 A 
ATOM      8  C   UNL     1      37.811  33.694  13.653  1.00  0.00     0.028 A 
ATOM      9  C   UNL     1      39.928  34.739  13.916  1.00  0.00     0.020 A 
ATOM     10  C   UNL     1      39.142  33.803  13.274  1.00  0.00     0.065 A 
ATOM     11  C   UNL     1      41.183  34.598  13.315  1.00  0.00     0.143 A 
ATOM     12  N   UNL     1      39.871  33.138  12.345  1.00  0.00    -0.278 N 
ATOM     13  N   UNL     1      41.097  33.637  12.391  1.00  0.00    -0.183 NA
ATOM     14  H   UNL     1      39.490  32.380  11.731  1.00  0.00     0.190 HD
ENDBRANCH   1   5
TORSDOF 2
BEGIN_RES LYS A 135
REMARK  4 active torsions:
REMARK  status: ('A' for Active; 'I' for Inactive)
REMARK    1  A    between atoms: CA   and  CB  
REMARK    2  A    between atoms: CB   and  CG  
REMARK    3  A    between atoms: CG   and  CD  
REMARK    4  A    between atoms: CD   and  CE  
ROOT
ATOM      1  CA  LYS A 135      33.193  34.663   9.290  1.00 25.02     0.186 C 
ENDROOT
BRANCH   1   2
ATOM      2  CB  LYS A 135      32.060  35.360  10.034  1.00 26.63     0.034 C 
BRANCH   2   3
ATOM      3  CG  LYS A 135      30.733  34.658   9.905  1.00 29.45     0.005 C 
BRANCH   3   4
ATOM      4  CD  LYS A 135      30.321  34.553   8.445  1.00 32.00     0.041 C 
BRANCH   4   5
ATOM      5  CE  LYS A 135      28.810  34.542   8.317  1.00 34.25     0.338 C 
ATOM      6  NZ  LYS A 135      28.181  33.817   9.455  1.00 35.99     0.618 N 
ENDBRANCH   4   5
ENDBRANCH   3   4
ENDBRANCH   2   3
ENDBRANCH   1   2
END_RES LYS A 135
BEGIN_RES ARG A 124
REMARK  4 active torsions:
REMARK  status: ('A' for Active; 'I' for Inactive)
REMARK    5  A    between atoms: CA   and  CB  
REMARK    6  A    between atoms: CB   and  CG  
REMARK    7  A    between atoms: CG   and  CD  
REMARK    8  A    between atoms: CD   and  NE  
REMARK       I    between atoms: NE   and  CZ  
ROOT
ATOM      7  CA  ARG A 124      31.045  26.515   9.594  1.00 17.84     0.186 C 
ENDROOT
BRANCH   7   8
ATOM      8  CB  ARG A 124      29.529  26.705   9.647  1.00 16.18     0.036 C 
BRANCH   8   9
ATOM      9  CG  ARG A 124      28.878  26.577  11.071  1.00 16.22     0.029 C 
BRANCH   9  10
ATOM     10  CD  ARG A 124      27.430  26.038  11.022  1.00 15.09     0.145 C 
BRANCH  10  11
ATOM     11  NE  ARG A 124      26.402  27.056  11.333  1.00 16.98    -0.083 NA
ATOM     12  CZ  ARG A 124      26.149  27.533  12.547  1.00 18.21     0.782 C 
ATOM     13  NH1 ARG A 124      26.835  27.124  13.607  1.00 21.11     0.063 N 
ATOM     14  NH2 ARG A 124      25.211  28.454  12.712  1.00 21.25     0.063 N 
ENDBRANCH  10  11
ENDBRANCH   9  10
ENDBRANCH   8   9
ENDBRANCH   7   8
END_RES ARG A 124
BEGIN_RES ASN A 133
REMARK  2 active torsions:
REMARK  status: ('A' for Active; 'I' for Inactive)
REMARK    9  A    between atoms: CA   and  CB  
REMARK   10  A    between atoms: CB   and  CG  
ROOT
ATOM     15  CA  ASN A 133      31.225  30.257  11.749  1.00 18.15     0.196 C 
ENDROOT
BRANCH  15  16
ATOM     16  CB  ASN A 133      30.092  31.240  11.460  1.00 18.27     0.126 C 
BRANCH  16  17
ATOM     17  CG  ASN A 133      28.731  30.629  11.588  1.00 18.94     0.276 C 
ATOM     18  OD1 ASN A 133      27.988  30.916  12.528  1.00 18.09    -0.269 OA
ATOM     19  ND2 ASN A 133      28.388  29.766  10.632  1.00 18.93    -0.107 N 
ENDBRANCH  16  17
ENDBRANCH  15  16
END_RES ASN A 133
BEGIN_RES LYS A 131
REMARK  4 active torsions:
REMARK  status: ('A' for Active; 'I' for Inactive)
REMARK   11  A    between atoms: CA   and  CB  
REMARK   12  A    between atoms: CB   and  CG  
REMARK   13  A    between atoms: CG   and  CD  
REMARK   14  A    between atoms: CD   and  CE  
ROOT
ATOM     20  CA  LYS A 131      29.867  25.555  16.977  1.00 20.52     0.186 C 
ENDROOT
BRANCH  20  21
ATOM     21  CB  LYS A 131      28.345  25.722  17.026  1.00 20.94     0.034 C 
BRANCH  21  22
ATOM     22  CG  LYS A 131      27.600  24.411  16.825  1.00 22.96     0.005 C 
BRANCH  22  23
ATOM     23  CD  LYS A 131      26.161  24.507  17.250  1.00 24.33     0.041 C 
BRANCH  23  24
ATOM     24  CE  LYS A 131      26.088  24.762  18.752  1.00 26.91     0.338 C 
ATOM     25  NZ  LYS A 131      25.489  23.599  19.447  1.00 27.40     0.618 N 
ENDBRANCH  23  24
ENDBRANCH  22  23
ENDBRANCH  21  22
ENDBRANCH  20  21
END_RES LYS A 131
