REMARK VINA RESULT:    -2.828      3.305      4.198
REMARK INTER + INTRA:          -9.133
REMARK INTER:                  -3.076
REMARK INTRA:                  -6.057
REMARK UNBOUND:                -6.057
REMARK SMILES NC(=O)c1ccccc1N
REMARK SMILES IDX 4 1 5 2 6 3 7 4 8 5 9 6 2 7 1 8 3 11 10 12
REMARK H PARENT 1 9 1 10 10 13 10 14
REMARK Flexibility Score: inf
ROOT
ATOM      1  C   UNL     1      22.555  18.558  13.186  1.00  0.00     0.062 A 
ATOM      2  C   UNL     1      22.110  19.681  13.825  1.00  0.00     0.016 A 
ATOM      3  C   UNL     1      20.815  20.161  13.674  1.00  0.00     0.001 A 
ATOM      4  C   UNL     1      19.931  19.479  12.846  1.00  0.00     0.002 A 
ATOM      5  C   UNL     1      20.383  18.352  12.209  1.00  0.00     0.026 A 
ATOM      6  C   UNL     1      21.683  17.876  12.362  1.00  0.00     0.044 A 
ENDROOT
BRANCH   1   7
ATOM      7  C   UNL     1      23.929  18.068  13.359  1.00  0.00     0.250 C 
ATOM      8  N   UNL     1      25.020  18.810  12.860  1.00  0.00    -0.366 N 
ATOM      9  H   UNL     1      25.015  19.842  12.802  1.00  0.00     0.159 HD
ATOM     10  H   UNL     1      25.856  18.291  12.542  1.00  0.00     0.159 HD
ATOM     11  O   UNL     1      24.133  16.987  13.952  1.00  0.00    -0.269 OA
ENDBRANCH   1   7
BRANCH   6  12
ATOM     12  N   UNL     1      22.097  16.709  11.682  1.00  0.00    -0.398 N 
ATOM     13  H   UNL     1      21.741  16.530  10.732  1.00  0.00     0.156 HD
ATOM     14  H   UNL     1      22.743  16.056  12.140  1.00  0.00     0.156 HD
ENDBRANCH   6  12
TORSDOF 2
BEGIN_RES LYS A 135
REMARK  4 active torsions:
REMARK  status: ('A' for Active; 'I' for Inactive)
REMARK    1  A    between atoms: CA   and  CB  
REMARK    2  A    between atoms: CB   and  CG  
REMARK    3  A    between atoms: CG   and  CD  
REMARK    4  A    between atoms: CD   and  CE  
ROOT
ATOM      1  CA  LYS A 135      33.193  34.663   9.290  1.00 25.02     0.186 C 
ENDROOT
BRANCH   1   2
ATOM      2  CB  LYS A 135      32.060  35.360  10.034  1.00 26.63     0.034 C 
BRANCH   2   3
ATOM      3  CG  LYS A 135      30.697  34.799   9.718  1.00 29.45     0.005 C 
BRANCH   3   4
ATOM      4  CD  LYS A 135      30.572  34.497   8.233  1.00 32.00     0.041 C 
BRANCH   4   5
ATOM      5  CE  LYS A 135      29.216  34.933   7.713  1.00 34.25     0.338 C 
ATOM      6  NZ  LYS A 135      28.120  34.435   8.590  1.00 35.99     0.618 N 
ENDBRANCH   4   5
ENDBRANCH   3   4
ENDBRANCH   2   3
ENDBRANCH   1   2
END_RES LYS A 135
BEGIN_RES ARG A 124
REMARK  4 active torsions:
REMARK  status: ('A' for Active; 'I' for Inactive)
REMARK    5  A    between atoms: CA   and  CB  
REMARK    6  A    between atoms: CB   and  CG  
REMARK    7  A    between atoms: CG   and  CD  
REMARK    8  A    between atoms: CD   and  NE  
REMARK       I    between atoms: NE   and  CZ  
ROOT
ATOM      7  CA  ARG A 124      31.045  26.515   9.594  1.00 17.84     0.186 C 
ENDROOT
BRANCH   7   8
ATOM      8  CB  ARG A 124      29.529  26.705   9.647  1.00 16.18     0.036 C 
BRANCH   8   9
ATOM      9  CG  ARG A 124      28.907  26.800  11.086  1.00 16.22     0.029 C 
BRANCH   9  10
ATOM     10  CD  ARG A 124      27.541  26.083  11.198  1.00 15.09     0.145 C 
BRANCH  10  11
ATOM     11  NE  ARG A 124      26.402  26.999  11.424  1.00 16.98    -0.083 NA
ATOM     12  CZ  ARG A 124      26.021  27.460  12.610  1.00 18.21     0.782 C 
ATOM     13  NH1 ARG A 124      26.670  27.128  13.720  1.00 21.11     0.063 N 
ATOM     14  NH2 ARG A 124      24.990  28.286  12.699  1.00 21.25     0.063 N 
ENDBRANCH  10  11
ENDBRANCH   9  10
ENDBRANCH   8   9
ENDBRANCH   7   8
END_RES ARG A 124
BEGIN_RES ASN A 133
REMARK  2 active torsions:
REMARK  status: ('A' for Active; 'I' for Inactive)
REMARK    9  A    between atoms: CA   and  CB  
REMARK   10  A    between atoms: CB   and  CG  
ROOT
ATOM     15  CA  ASN A 133      31.225  30.257  11.749  1.00 18.15     0.196 C 
ENDROOT
BRANCH  15  16
ATOM     16  CB  ASN A 133      30.092  31.240  11.460  1.00 18.27     0.126 C 
BRANCH  16  17
ATOM     17  CG  ASN A 133      28.732  30.619  11.551  1.00 18.94     0.276 C 
ATOM     18  OD1 ASN A 133      28.338  29.820  10.700  1.00 18.09    -0.269 OA
ATOM     19  ND2 ASN A 133      27.993  30.987  12.596  1.00 18.93    -0.107 N 
ENDBRANCH  16  17
ENDBRANCH  15  16
END_RES ASN A 133
BEGIN_RES LYS A 131
REMARK  4 active torsions:
REMARK  status: ('A' for Active; 'I' for Inactive)
REMARK   11  A    between atoms: CA   and  CB  
REMARK   12  A    between atoms: CB   and  CG  
REMARK   13  A    between atoms: CG   and  CD  
REMARK   14  A    between atoms: CD   and  CE  
ROOT
ATOM     20  CA  LYS A 131      29.867  25.555  16.977  1.00 20.52     0.186 C 
ENDROOT
BRANCH  20  21
ATOM     21  CB  LYS A 131      28.345  25.722  17.026  1.00 20.94     0.034 C 
BRANCH  21  22
ATOM     22  CG  LYS A 131      27.599  24.432  16.722  1.00 22.96     0.005 C 
BRANCH  22  23
ATOM     23  CD  LYS A 131      26.990  23.826  17.956  1.00 24.33     0.041 C 
BRANCH  23  24
ATOM     24  CE  LYS A 131      25.607  24.425  18.188  1.00 26.91     0.338 C 
ATOM     25  NZ  LYS A 131      24.851  24.493  16.915  1.00 27.40     0.618 N 
ENDBRANCH  23  24
ENDBRANCH  22  23
ENDBRANCH  21  22
ENDBRANCH  20  21
END_RES LYS A 131
