REMARK VINA RESULT:    -3.906      4.263      6.961
REMARK INTER + INTRA:          -9.139
REMARK INTER:                  -3.489
REMARK INTRA:                  -5.650
REMARK UNBOUND:                -5.119
REMARK SMILES Cc1ccc(N)cc1
REMARK SMILES IDX 1 1 2 2 3 3 4 4 5 5 7 6 8 7 6 8
REMARK H PARENT 6 9 6 10
REMARK Flexibility Score: inf
ROOT
ATOM      1  C   UNL     1      38.521  37.037  15.887  1.00  0.00     0.044 C 
ATOM      2  C   UNL     1      38.612  35.890  14.943  1.00  0.00    -0.051 A 
ATOM      3  C   UNL     1      39.541  35.842  13.923  1.00  0.00     0.005 A 
ATOM      4  C   UNL     1      39.592  34.758  13.068  1.00  0.00     0.026 A 
ATOM      5  C   UNL     1      38.737  33.682  13.179  1.00  0.00     0.031 A 
ATOM      6  C   UNL     1      37.809  33.731  14.200  1.00  0.00     0.026 A 
ATOM      7  C   UNL     1      37.758  34.816  15.055  1.00  0.00     0.005 A 
ENDROOT
BRANCH   5   8
ATOM      8  N   UNL     1      38.820  32.581  12.278  1.00  0.00    -0.399 N 
ATOM      9  H   UNL     1      39.566  32.577  11.527  1.00  0.00     0.156 HD
ATOM     10  H   UNL     1      38.184  31.759  12.308  1.00  0.00     0.156 HD
ENDBRANCH   5   8
TORSDOF 1
BEGIN_RES LYS A 135
REMARK  4 active torsions:
REMARK  status: ('A' for Active; 'I' for Inactive)
REMARK    1  A    between atoms: CA   and  CB  
REMARK    2  A    between atoms: CB   and  CG  
REMARK    3  A    between atoms: CG   and  CD  
REMARK    4  A    between atoms: CD   and  CE  
ROOT
ATOM      1  CA  LYS A 135      33.193  34.663   9.290  1.00 25.02     0.186 C 
ENDROOT
BRANCH   1   2
ATOM      2  CB  LYS A 135      32.060  35.360  10.034  1.00 26.63     0.034 C 
BRANCH   2   3
ATOM      3  CG  LYS A 135      30.696  34.812   9.704  1.00 29.45     0.005 C 
BRANCH   3   4
ATOM      4  CD  LYS A 135      30.588  34.498   8.219  1.00 32.00     0.041 C 
BRANCH   4   5
ATOM      5  CE  LYS A 135      29.317  35.090   7.640  1.00 34.25     0.338 C 
ATOM      6  NZ  LYS A 135      29.267  36.563   7.850  1.00 35.99     0.618 N 
ENDBRANCH   4   5
ENDBRANCH   3   4
ENDBRANCH   2   3
ENDBRANCH   1   2
END_RES LYS A 135
BEGIN_RES ARG A 124
REMARK  4 active torsions:
REMARK  status: ('A' for Active; 'I' for Inactive)
REMARK    5  A    between atoms: CA   and  CB  
REMARK    6  A    between atoms: CB   and  CG  
REMARK    7  A    between atoms: CG   and  CD  
REMARK    8  A    between atoms: CD   and  NE  
REMARK       I    between atoms: NE   and  CZ  
ROOT
ATOM      7  CA  ARG A 124      31.045  26.515   9.594  1.00 17.84     0.186 C 
ENDROOT
BRANCH   7   8
ATOM      8  CB  ARG A 124      29.529  26.705   9.647  1.00 16.18     0.036 C 
BRANCH   8   9
ATOM      9  CG  ARG A 124      28.906  26.798  11.086  1.00 16.22     0.029 C 
BRANCH   9  10
ATOM     10  CD  ARG A 124      27.551  26.064  11.201  1.00 15.09     0.145 C 
BRANCH  10  11
ATOM     11  NE  ARG A 124      26.398  26.967  11.412  1.00 16.98    -0.083 NA
ATOM     12  CZ  ARG A 124      26.006  27.438  12.591  1.00 18.21     0.782 C 
ATOM     13  NH1 ARG A 124      26.655  27.129  13.707  1.00 21.11     0.063 N 
ATOM     14  NH2 ARG A 124      24.964  28.252  12.665  1.00 21.25     0.063 N 
ENDBRANCH  10  11
ENDBRANCH   9  10
ENDBRANCH   8   9
ENDBRANCH   7   8
END_RES ARG A 124
BEGIN_RES ASN A 133
REMARK  2 active torsions:
REMARK  status: ('A' for Active; 'I' for Inactive)
REMARK    9  A    between atoms: CA   and  CB  
REMARK   10  A    between atoms: CB   and  CG  
ROOT
ATOM     15  CA  ASN A 133      31.225  30.257  11.749  1.00 18.15     0.196 C 
ENDROOT
BRANCH  15  16
ATOM     16  CB  ASN A 133      30.092  31.240  11.460  1.00 18.27     0.126 C 
BRANCH  16  17
ATOM     17  CG  ASN A 133      28.732  30.625  11.576  1.00 18.94     0.276 C 
ATOM     18  OD1 ASN A 133      28.331  29.802  10.751  1.00 18.09    -0.269 OA
ATOM     19  ND2 ASN A 133      27.997  31.026  12.613  1.00 18.93    -0.107 N 
ENDBRANCH  16  17
ENDBRANCH  15  16
END_RES ASN A 133
BEGIN_RES LYS A 131
REMARK  4 active torsions:
REMARK  status: ('A' for Active; 'I' for Inactive)
REMARK   11  A    between atoms: CA   and  CB  
REMARK   12  A    between atoms: CB   and  CG  
REMARK   13  A    between atoms: CG   and  CD  
REMARK   14  A    between atoms: CD   and  CE  
ROOT
ATOM     20  CA  LYS A 131      29.867  25.555  16.977  1.00 20.52     0.186 C 
ENDROOT
BRANCH  20  21
ATOM     21  CB  LYS A 131      28.345  25.722  17.026  1.00 20.94     0.034 C 
BRANCH  21  22
ATOM     22  CG  LYS A 131      27.600  24.411  16.829  1.00 22.96     0.005 C 
BRANCH  22  23
ATOM     23  CD  LYS A 131      26.154  24.515  17.229  1.00 24.33     0.041 C 
BRANCH  23  24
ATOM     24  CE  LYS A 131      26.054  24.658  18.744  1.00 26.91     0.338 C 
ATOM     25  NZ  LYS A 131      25.592  23.390  19.356  1.00 27.40     0.618 N 
ENDBRANCH  23  24
ENDBRANCH  22  23
ENDBRANCH  21  22
ENDBRANCH  20  21
END_RES LYS A 131
