REMARK VINA RESULT:    -2.910      1.721      2.348
REMARK INTER + INTRA:          -8.342
REMARK INTER:                  -5.611
REMARK INTRA:                  -2.731
REMARK UNBOUND:                -5.347
REMARK SMILES NC12CC3CC(CC(C3)C1)C2
REMARK SMILES IDX 2 1 11 2 6 3 5 4 4 5 9 6 8 7 7 8 10 9 3 10 1 11
REMARK H PARENT 1 12 1 13
REMARK Flexibility Score: inf
ROOT
ATOM      1  C   UNL     1      29.777  35.176   8.151  1.00  0.00     0.016 C 
ATOM      2  C   UNL     1      29.119  34.095   9.016  1.00  0.00     0.025 C 
ATOM      3  C   UNL     1      27.743  34.526   9.420  1.00  0.00    -0.009 C 
ATOM      4  C   UNL     1      26.904  34.622   8.156  1.00  0.00     0.007 C 
ATOM      5  C   UNL     1      27.539  35.633   7.250  1.00  0.00    -0.009 C 
ATOM      6  C   UNL     1      27.545  36.980   7.955  1.00  0.00     0.007 C 
ATOM      7  C   UNL     1      28.354  36.895   9.205  1.00  0.00    -0.009 C 
ATOM      8  C   UNL     1      27.688  35.850  10.105  1.00  0.00     0.007 C 
ATOM      9  C   UNL     1      29.766  36.432   8.995  1.00  0.00     0.025 C 
ATOM     10  C   UNL     1      28.962  35.310   6.895  1.00  0.00     0.025 C 
ENDROOT
BRANCH   1  11
ATOM     11  N   UNL     1      31.105  34.781   7.774  1.00  0.00    -0.325 NA
ATOM     12  H   UNL     1      31.522  34.106   8.439  1.00  0.00     0.119 HD
ATOM     13  H   UNL     1      31.717  35.535   7.456  1.00  0.00     0.119 HD
ENDBRANCH   1  11
TORSDOF 1
BEGIN_RES LYS A 135
REMARK  4 active torsions:
REMARK  status: ('A' for Active; 'I' for Inactive)
REMARK    1  A    between atoms: CA   and  CB  
REMARK    2  A    between atoms: CB   and  CG  
REMARK    3  A    between atoms: CG   and  CD  
REMARK    4  A    between atoms: CD   and  CE  
ROOT
ATOM      1  CA  LYS A 135      33.193  34.663   9.290  1.00 25.02     0.186 C 
ENDROOT
BRANCH   1   2
ATOM      2  CB  LYS A 135      32.060  35.360  10.034  1.00 26.63     0.034 C 
BRANCH   2   3
ATOM      3  CG  LYS A 135      32.341  35.571  11.499  1.00 29.45     0.005 C 
BRANCH   3   4
ATOM      4  CD  LYS A 135      31.064  35.924  12.246  1.00 32.00     0.041 C 
BRANCH   4   5
ATOM      5  CE  LYS A 135      30.253  34.675  12.534  1.00 34.25     0.338 C 
ATOM      6  NZ  LYS A 135      30.561  34.135  13.887  1.00 35.99     0.618 N 
ENDBRANCH   4   5
ENDBRANCH   3   4
ENDBRANCH   2   3
ENDBRANCH   1   2
END_RES LYS A 135
BEGIN_RES ARG A 124
REMARK  4 active torsions:
REMARK  status: ('A' for Active; 'I' for Inactive)
REMARK    5  A    between atoms: CA   and  CB  
REMARK    6  A    between atoms: CB   and  CG  
REMARK    7  A    between atoms: CG   and  CD  
REMARK    8  A    between atoms: CD   and  NE  
REMARK       I    between atoms: NE   and  CZ  
ROOT
ATOM      7  CA  ARG A 124      31.045  26.515   9.594  1.00 17.84     0.186 C 
ENDROOT
BRANCH   7   8
ATOM      8  CB  ARG A 124      29.529  26.705   9.647  1.00 16.18     0.036 C 
BRANCH   8   9
ATOM      9  CG  ARG A 124      28.756  25.732  10.607  1.00 16.22     0.029 C 
BRANCH   9  10
ATOM     10  CD  ARG A 124      28.552  26.321  12.022  1.00 15.09     0.145 C 
BRANCH  10  11
ATOM     11  NE  ARG A 124      27.163  26.749  12.297  1.00 16.98    -0.083 NA
ATOM     12  CZ  ARG A 124      26.794  27.533  13.304  1.00 18.21     0.782 C 
ATOM     13  NH1 ARG A 124      27.684  28.018  14.161  1.00 21.11     0.063 N 
ATOM     14  NH2 ARG A 124      25.521  27.864  13.452  1.00 21.25     0.063 N 
ENDBRANCH  10  11
ENDBRANCH   9  10
ENDBRANCH   8   9
ENDBRANCH   7   8
END_RES ARG A 124
BEGIN_RES ASN A 133
REMARK  2 active torsions:
REMARK  status: ('A' for Active; 'I' for Inactive)
REMARK    9  A    between atoms: CA   and  CB  
REMARK   10  A    between atoms: CB   and  CG  
ROOT
ATOM     15  CA  ASN A 133      31.225  30.257  11.749  1.00 18.15     0.196 C 
ENDROOT
BRANCH  15  16
ATOM     16  CB  ASN A 133      30.092  31.240  11.460  1.00 18.27     0.126 C 
BRANCH  16  17
ATOM     17  CG  ASN A 133      28.731  30.652  11.668  1.00 18.94     0.276 C 
ATOM     18  OD1 ASN A 133      27.986  31.066  12.558  1.00 18.09    -0.269 OA
ATOM     19  ND2 ASN A 133      28.389  29.666  10.840  1.00 18.93    -0.107 N 
ENDBRANCH  16  17
ENDBRANCH  15  16
END_RES ASN A 133
BEGIN_RES LYS A 131
REMARK  4 active torsions:
REMARK  status: ('A' for Active; 'I' for Inactive)
REMARK   11  A    between atoms: CA   and  CB  
REMARK   12  A    between atoms: CB   and  CG  
REMARK   13  A    between atoms: CG   and  CD  
REMARK   14  A    between atoms: CD   and  CE  
ROOT
ATOM     20  CA  LYS A 131      29.867  25.555  16.977  1.00 20.52     0.186 C 
ENDROOT
BRANCH  20  21
ATOM     21  CB  LYS A 131      28.345  25.722  17.026  1.00 20.94     0.034 C 
BRANCH  21  22
ATOM     22  CG  LYS A 131      27.836  26.099  18.409  1.00 22.96     0.005 C 
BRANCH  22  23
ATOM     23  CD  LYS A 131      26.626  26.989  18.344  1.00 24.33     0.041 C 
BRANCH  23  24
ATOM     24  CE  LYS A 131      27.013  28.330  17.730  1.00 26.91     0.338 C 
ATOM     25  NZ  LYS A 131      27.783  29.142  18.701  1.00 27.40     0.618 N 
ENDBRANCH  23  24
ENDBRANCH  22  23
ENDBRANCH  21  22
ENDBRANCH  20  21
END_RES LYS A 131
