REMARK VINA RESULT:    -3.269      5.176      6.466
REMARK INTER + INTRA:          -9.131
REMARK INTER:                  -3.309
REMARK INTRA:                  -5.822
REMARK UNBOUND:                -5.384
REMARK SMILES NCS(=O)(=O)c1ccccc1
REMARK SMILES IDX 2 1 1 2 3 5 4 6 5 7 6 8 7 9 11 10 8 11 10 12 9 13
REMARK H PARENT 1 3 1 4
REMARK Flexibility Score: inf
ROOT
ATOM      1  C   UNL     1      38.236  38.182   4.416  1.00  0.00     0.222 C 
ENDROOT
BRANCH   1   2
ATOM      2  N   UNL     1      38.117  36.741   4.276  1.00  0.00    -0.317 NA
ATOM      3  H   UNL     1      38.538  36.237   5.074  1.00  0.00     0.119 HD
ATOM      4  H   UNL     1      38.401  36.404   3.341  1.00  0.00     0.119 HD
ENDBRANCH   1   2
BRANCH   1   5
ATOM      5  S   UNL     1      36.691  38.770   5.063  1.00  0.00     0.191 S 
ATOM      6  O   UNL     1      35.913  39.539   4.025  1.00  0.00    -0.222 OA
ATOM      7  O   UNL     1      35.856  37.566   5.462  1.00  0.00    -0.222 OA
BRANCH   5   8
ATOM      8  C   UNL     1      36.926  39.772   6.470  1.00  0.00     0.068 A 
ATOM      9  C   UNL     1      38.163  39.771   7.070  1.00  0.00     0.020 A 
ATOM     10  C   UNL     1      35.915  40.548   6.981  1.00  0.00     0.020 A 
ATOM     11  C   UNL     1      38.349  40.569   8.189  1.00  0.00     0.001 A 
ATOM     12  C   UNL     1      36.097  41.349   8.102  1.00  0.00     0.001 A 
ATOM     13  C   UNL     1      37.340  41.345   8.701  1.00  0.00     0.000 A 
ENDBRANCH   5   8
ENDBRANCH   1   5
TORSDOF 3
BEGIN_RES LYS A 135
REMARK  4 active torsions:
REMARK  status: ('A' for Active; 'I' for Inactive)
REMARK    1  A    between atoms: CA   and  CB  
REMARK    2  A    between atoms: CB   and  CG  
REMARK    3  A    between atoms: CG   and  CD  
REMARK    4  A    between atoms: CD   and  CE  
ROOT
ATOM      1  CA  LYS A 135      33.193  34.663   9.290  1.00 25.02     0.186 C 
ENDROOT
BRANCH   1   2
ATOM      2  CB  LYS A 135      32.060  35.360  10.034  1.00 26.63     0.034 C 
BRANCH   2   3
ATOM      3  CG  LYS A 135      30.795  35.486   9.224  1.00 29.45     0.005 C 
BRANCH   3   4
ATOM      4  CD  LYS A 135      30.102  34.138   9.099  1.00 32.00     0.041 C 
BRANCH   4   5
ATOM      5  CE  LYS A 135      28.644  34.322   8.725  1.00 34.25     0.338 C 
ATOM      6  NZ  LYS A 135      27.753  33.565   9.648  1.00 35.99     0.618 N 
ENDBRANCH   4   5
ENDBRANCH   3   4
ENDBRANCH   2   3
ENDBRANCH   1   2
END_RES LYS A 135
BEGIN_RES ARG A 124
REMARK  4 active torsions:
REMARK  status: ('A' for Active; 'I' for Inactive)
REMARK    5  A    between atoms: CA   and  CB  
REMARK    6  A    between atoms: CB   and  CG  
REMARK    7  A    between atoms: CG   and  CD  
REMARK    8  A    between atoms: CD   and  NE  
REMARK       I    between atoms: NE   and  CZ  
ROOT
ATOM      7  CA  ARG A 124      31.045  26.515   9.594  1.00 17.84     0.186 C 
ENDROOT
BRANCH   7   8
ATOM      8  CB  ARG A 124      29.529  26.705   9.647  1.00 16.18     0.036 C 
BRANCH   8   9
ATOM      9  CG  ARG A 124      28.907  26.800  11.086  1.00 16.22     0.029 C 
BRANCH   9  10
ATOM     10  CD  ARG A 124      27.550  26.068  11.202  1.00 15.09     0.145 C 
BRANCH  10  11
ATOM     11  NE  ARG A 124      26.399  26.973  11.418  1.00 16.98    -0.083 NA
ATOM     12  CZ  ARG A 124      26.021  27.453  12.597  1.00 18.21     0.782 C 
ATOM     13  NH1 ARG A 124      26.683  27.155  13.709  1.00 21.11     0.063 N 
ATOM     14  NH2 ARG A 124      24.979  28.267  12.676  1.00 21.25     0.063 N 
ENDBRANCH  10  11
ENDBRANCH   9  10
ENDBRANCH   8   9
ENDBRANCH   7   8
END_RES ARG A 124
BEGIN_RES ASN A 133
REMARK  2 active torsions:
REMARK  status: ('A' for Active; 'I' for Inactive)
REMARK    9  A    between atoms: CA   and  CB  
REMARK   10  A    between atoms: CB   and  CG  
ROOT
ATOM     15  CA  ASN A 133      31.225  30.257  11.749  1.00 18.15     0.196 C 
ENDROOT
BRANCH  15  16
ATOM     16  CB  ASN A 133      30.092  31.240  11.460  1.00 18.27     0.126 C 
BRANCH  16  17
ATOM     17  CG  ASN A 133      28.738  30.602  11.471  1.00 18.94     0.276 C 
ATOM     18  OD1 ASN A 133      28.394  29.818  10.584  1.00 18.09    -0.269 OA
ATOM     19  ND2 ASN A 133      27.944  30.936  12.488  1.00 18.93    -0.107 N 
ENDBRANCH  16  17
ENDBRANCH  15  16
END_RES ASN A 133
BEGIN_RES LYS A 131
REMARK  4 active torsions:
REMARK  status: ('A' for Active; 'I' for Inactive)
REMARK   11  A    between atoms: CA   and  CB  
REMARK   12  A    between atoms: CB   and  CG  
REMARK   13  A    between atoms: CG   and  CD  
REMARK   14  A    between atoms: CD   and  CE  
ROOT
ATOM     20  CA  LYS A 131      29.867  25.555  16.977  1.00 20.52     0.186 C 
ENDROOT
BRANCH  20  21
ATOM     21  CB  LYS A 131      28.345  25.722  17.026  1.00 20.94     0.034 C 
BRANCH  21  22
ATOM     22  CG  LYS A 131      27.600  24.407  16.854  1.00 22.96     0.005 C 
BRANCH  22  23
ATOM     23  CD  LYS A 131      26.156  24.517  17.258  1.00 24.33     0.041 C 
BRANCH  23  24
ATOM     24  CE  LYS A 131      25.665  25.939  17.008  1.00 26.91     0.338 C 
ATOM     25  NZ  LYS A 131      24.454  25.927  16.154  1.00 27.40     0.618 N 
ENDBRANCH  23  24
ENDBRANCH  22  23
ENDBRANCH  21  22
ENDBRANCH  20  21
END_RES LYS A 131
