REMARK VINA RESULT:    -4.178      2.986      7.105
REMARK INTER + INTRA:          -9.642
REMARK INTER:                  -4.380
REMARK INTRA:                  -5.262
REMARK UNBOUND:                -5.342
REMARK SMILES Nc1c2ccccc2nc2ccccc12
REMARK SMILES IDX 2 1 3 2 4 3 5 4 6 5 7 6 8 7 9 8 10 9 11 10 12 11 13 12 14 13
REMARK SMILES IDX 15 14 1 15
REMARK H PARENT 1 16 1 17
REMARK Flexibility Score: inf
ROOT
ATOM      1  C   UNL     1      25.058  30.419  14.373  1.00  0.00     0.050 A 
ATOM      2  C   UNL     1      25.686  29.738  15.396  1.00  0.00     0.024 A 
ATOM      3  C   UNL     1      26.913  30.138  15.893  1.00  0.00     0.012 A 
ATOM      4  C   UNL     1      27.482  29.410  16.915  1.00  0.00     0.001 A 
ATOM      5  C   UNL     1      26.868  28.299  17.455  1.00  0.00     0.002 A 
ATOM      6  C   UNL     1      25.648  27.940  16.926  1.00  0.00     0.029 A 
ATOM      7  C   UNL     1      25.031  28.634  15.901  1.00  0.00     0.073 A 
ATOM      8  N   UNL     1      23.830  28.235  15.419  1.00  0.00    -0.248 NA
ATOM      9  C   UNL     1      23.196  28.884  14.421  1.00  0.00     0.073 A 
ATOM     10  C   UNL     1      21.972  28.449  13.954  1.00  0.00     0.029 A 
ATOM     11  C   UNL     1      21.326  29.117  12.932  1.00  0.00     0.002 A 
ATOM     12  C   UNL     1      21.959  30.225  12.409  1.00  0.00     0.001 A 
ATOM     13  C   UNL     1      23.184  30.659  12.875  1.00  0.00     0.012 A 
ATOM     14  C   UNL     1      23.829  29.992  13.897  1.00  0.00     0.024 A 
ENDROOT
BRANCH   1  15
ATOM     15  N   UNL     1      25.700  31.563  13.824  1.00  0.00    -0.398 N 
ATOM     16  H   UNL     1      26.296  31.558  12.981  1.00  0.00     0.156 HD
ATOM     17  H   UNL     1      25.567  32.497  14.302  1.00  0.00     0.156 HD
ENDBRANCH   1  15
TORSDOF 1
BEGIN_RES LYS A 135
REMARK  4 active torsions:
REMARK  status: ('A' for Active; 'I' for Inactive)
REMARK    1  A    between atoms: CA   and  CB  
REMARK    2  A    between atoms: CB   and  CG  
REMARK    3  A    between atoms: CG   and  CD  
REMARK    4  A    between atoms: CD   and  CE  
ROOT
ATOM      1  CA  LYS A 135      33.193  34.663   9.290  1.00 25.02     0.186 C 
ENDROOT
BRANCH   1   2
ATOM      2  CB  LYS A 135      32.060  35.360  10.034  1.00 26.63     0.034 C 
BRANCH   2   3
ATOM      3  CG  LYS A 135      30.710  34.734   9.799  1.00 29.45     0.005 C 
BRANCH   3   4
ATOM      4  CD  LYS A 135      30.467  34.524   8.312  1.00 32.00     0.041 C 
BRANCH   4   5
ATOM      5  CE  LYS A 135      29.021  34.816   7.962  1.00 34.25     0.338 C 
ATOM      6  NZ  LYS A 135      28.918  35.527   6.658  1.00 35.99     0.618 N 
ENDBRANCH   4   5
ENDBRANCH   3   4
ENDBRANCH   2   3
ENDBRANCH   1   2
END_RES LYS A 135
BEGIN_RES ARG A 124
REMARK  4 active torsions:
REMARK  status: ('A' for Active; 'I' for Inactive)
REMARK    5  A    between atoms: CA   and  CB  
REMARK    6  A    between atoms: CB   and  CG  
REMARK    7  A    between atoms: CG   and  CD  
REMARK    8  A    between atoms: CD   and  NE  
REMARK       I    between atoms: NE   and  CZ  
ROOT
ATOM      7  CA  ARG A 124      31.045  26.515   9.594  1.00 17.84     0.186 C 
ENDROOT
BRANCH   7   8
ATOM      8  CB  ARG A 124      29.529  26.705   9.647  1.00 16.18     0.036 C 
BRANCH   8   9
ATOM      9  CG  ARG A 124      29.034  28.192   9.749  1.00 16.22     0.029 C 
BRANCH   9  10
ATOM     10  CD  ARG A 124      27.874  28.371  10.754  1.00 15.09     0.145 C 
BRANCH  10  11
ATOM     11  NE  ARG A 124      28.120  27.741  12.070  1.00 16.98    -0.083 NA
ATOM     12  CZ  ARG A 124      27.176  27.256  12.869  1.00 18.21     0.782 C 
ATOM     13  NH1 ARG A 124      25.894  27.292  12.524  1.00 21.11     0.063 N 
ATOM     14  NH2 ARG A 124      27.508  26.702  14.025  1.00 21.25     0.063 N 
ENDBRANCH  10  11
ENDBRANCH   9  10
ENDBRANCH   8   9
ENDBRANCH   7   8
END_RES ARG A 124
BEGIN_RES ASN A 133
REMARK  2 active torsions:
REMARK  status: ('A' for Active; 'I' for Inactive)
REMARK    9  A    between atoms: CA   and  CB  
REMARK   10  A    between atoms: CB   and  CG  
ROOT
ATOM     15  CA  ASN A 133      31.225  30.257  11.749  1.00 18.15     0.196 C 
ENDROOT
BRANCH  15  16
ATOM     16  CB  ASN A 133      30.092  31.240  11.460  1.00 18.27     0.126 C 
BRANCH  16  17
ATOM     17  CG  ASN A 133      29.310  31.617  12.680  1.00 18.94     0.276 C 
ATOM     18  OD1 ASN A 133      28.414  30.890  13.114  1.00 18.09    -0.269 OA
ATOM     19  ND2 ASN A 133      29.644  32.773  13.252  1.00 18.93    -0.107 N 
ENDBRANCH  16  17
ENDBRANCH  15  16
END_RES ASN A 133
BEGIN_RES LYS A 131
REMARK  4 active torsions:
REMARK  status: ('A' for Active; 'I' for Inactive)
REMARK   11  A    between atoms: CA   and  CB  
REMARK   12  A    between atoms: CB   and  CG  
REMARK   13  A    between atoms: CG   and  CD  
REMARK   14  A    between atoms: CD   and  CE  
ROOT
ATOM     20  CA  LYS A 131      29.867  25.555  16.977  1.00 20.52     0.186 C 
ENDROOT
BRANCH  20  21
ATOM     21  CB  LYS A 131      28.345  25.722  17.026  1.00 20.94     0.034 C 
BRANCH  21  22
ATOM     22  CG  LYS A 131      27.600  24.408  16.850  1.00 22.96     0.005 C 
BRANCH  22  23
ATOM     23  CD  LYS A 131      26.167  24.504  17.294  1.00 24.33     0.041 C 
BRANCH  23  24
ATOM     24  CE  LYS A 131      25.810  23.280  18.130  1.00 26.91     0.338 C 
ATOM     25  NZ  LYS A 131      24.690  22.535  17.507  1.00 27.40     0.618 N 
ENDBRANCH  23  24
ENDBRANCH  22  23
ENDBRANCH  21  22
ENDBRANCH  20  21
END_RES LYS A 131
