REMARK VINA RESULT:    -2.160      4.869      6.295
REMARK INTER + INTRA:          -8.211
REMARK INTER:                  -2.716
REMARK INTRA:                  -5.495
REMARK UNBOUND:                -5.609
REMARK SMILES CCOC(=O)CN
REMARK SMILES IDX 4 1 5 2 3 3 2 4 1 5 6 6 7 7
REMARK H PARENT 7 8 7 9
REMARK Flexibility Score: inf
ROOT
ATOM      1  C   UNL     1      31.236  27.747  20.864  1.00  0.00     0.319 C 
ATOM      2  O   UNL     1      31.772  26.671  21.221  1.00  0.00    -0.251 OA
ENDROOT
BRANCH   1   3
ATOM      3  O   UNL     1      32.038  28.791  20.357  1.00  0.00    -0.465 OA
BRANCH   3   4
ATOM      4  C   UNL     1      32.264  29.880  21.225  1.00  0.00     0.229 C 
ATOM      5  C   UNL     1      33.633  29.890  21.810  1.00  0.00     0.049 C 
ENDBRANCH   3   4
ENDBRANCH   1   3
BRANCH   1   6
ATOM      6  C   UNL     1      29.780  27.891  20.986  1.00  0.00     0.201 C 
BRANCH   6   7
ATOM      7  N   UNL     1      29.115  26.975  20.117  1.00  0.00    -0.321 NA
ATOM      8  H   UNL     1      28.642  26.194  20.580  1.00  0.00     0.119 HD
ATOM      9  H   UNL     1      28.638  27.392  19.314  1.00  0.00     0.119 HD
ENDBRANCH   6   7
ENDBRANCH   1   6
TORSDOF 4
BEGIN_RES LYS A 135
REMARK  4 active torsions:
REMARK  status: ('A' for Active; 'I' for Inactive)
REMARK    1  A    between atoms: CA   and  CB  
REMARK    2  A    between atoms: CB   and  CG  
REMARK    3  A    between atoms: CG   and  CD  
REMARK    4  A    between atoms: CD   and  CE  
ROOT
ATOM      1  CA  LYS A 135      33.193  34.663   9.290  1.00 25.02     0.186 C 
ENDROOT
BRANCH   1   2
ATOM      2  CB  LYS A 135      32.060  35.360  10.034  1.00 26.63     0.034 C 
BRANCH   2   3
ATOM      3  CG  LYS A 135      30.698  34.795   9.724  1.00 29.45     0.005 C 
BRANCH   3   4
ATOM      4  CD  LYS A 135      30.537  34.574   8.227  1.00 32.00     0.041 C 
BRANCH   4   5
ATOM      5  CE  LYS A 135      29.111  34.864   7.797  1.00 34.25     0.338 C 
ATOM      6  NZ  LYS A 135      28.133  34.316   8.777  1.00 35.99     0.618 N 
ENDBRANCH   4   5
ENDBRANCH   3   4
ENDBRANCH   2   3
ENDBRANCH   1   2
END_RES LYS A 135
BEGIN_RES ARG A 124
REMARK  4 active torsions:
REMARK  status: ('A' for Active; 'I' for Inactive)
REMARK    5  A    between atoms: CA   and  CB  
REMARK    6  A    between atoms: CB   and  CG  
REMARK    7  A    between atoms: CG   and  CD  
REMARK    8  A    between atoms: CD   and  NE  
REMARK       I    between atoms: NE   and  CZ  
ROOT
ATOM      7  CA  ARG A 124      31.045  26.515   9.594  1.00 17.84     0.186 C 
ENDROOT
BRANCH   7   8
ATOM      8  CB  ARG A 124      29.529  26.705   9.647  1.00 16.18     0.036 C 
BRANCH   8   9
ATOM      9  CG  ARG A 124      28.970  27.340  10.970  1.00 16.22     0.029 C 
BRANCH   9  10
ATOM     10  CD  ARG A 124      28.416  26.285  11.955  1.00 15.09     0.145 C 
BRANCH  10  11
ATOM     11  NE  ARG A 124      27.978  26.848  13.251  1.00 16.98    -0.083 NA
ATOM     12  CZ  ARG A 124      26.750  27.279  13.516  1.00 18.21     0.782 C 
ATOM     13  NH1 ARG A 124      25.786  27.220  12.605  1.00 21.11     0.063 N 
ATOM     14  NH2 ARG A 124      26.462  27.755  14.718  1.00 21.25     0.063 N 
ENDBRANCH  10  11
ENDBRANCH   9  10
ENDBRANCH   8   9
ENDBRANCH   7   8
END_RES ARG A 124
BEGIN_RES ASN A 133
REMARK  2 active torsions:
REMARK  status: ('A' for Active; 'I' for Inactive)
REMARK    9  A    between atoms: CA   and  CB  
REMARK   10  A    between atoms: CB   and  CG  
ROOT
ATOM     15  CA  ASN A 133      31.225  30.257  11.749  1.00 18.15     0.196 C 
ENDROOT
BRANCH  15  16
ATOM     16  CB  ASN A 133      30.092  31.240  11.460  1.00 18.27     0.126 C 
BRANCH  16  17
ATOM     17  CG  ASN A 133      29.028  31.243  12.514  1.00 18.94     0.276 C 
ATOM     18  OD1 ASN A 133      29.129  31.948  13.520  1.00 18.09    -0.269 OA
ATOM     19  ND2 ASN A 133      27.985  30.445  12.292  1.00 18.93    -0.107 N 
ENDBRANCH  16  17
ENDBRANCH  15  16
END_RES ASN A 133
BEGIN_RES LYS A 131
REMARK  4 active torsions:
REMARK  status: ('A' for Active; 'I' for Inactive)
REMARK   11  A    between atoms: CA   and  CB  
REMARK   12  A    between atoms: CB   and  CG  
REMARK   13  A    between atoms: CG   and  CD  
REMARK   14  A    between atoms: CD   and  CE  
ROOT
ATOM     20  CA  LYS A 131      29.867  25.555  16.977  1.00 20.52     0.186 C 
ENDROOT
BRANCH  20  21
ATOM     21  CB  LYS A 131      28.345  25.722  17.026  1.00 20.94     0.034 C 
BRANCH  21  22
ATOM     22  CG  LYS A 131      27.600  24.414  16.808  1.00 22.96     0.005 C 
BRANCH  22  23
ATOM     23  CD  LYS A 131      26.509  24.208  17.822  1.00 24.33     0.041 C 
BRANCH  23  24
ATOM     24  CE  LYS A 131      25.153  24.452  17.168  1.00 26.91     0.338 C 
ATOM     25  NZ  LYS A 131      24.354  23.205  17.149  1.00 27.40     0.618 N 
ENDBRANCH  23  24
ENDBRANCH  22  23
ENDBRANCH  21  22
ENDBRANCH  20  21
END_RES LYS A 131
