REMARK VINA RESULT:    -4.083      9.459     17.448
REMARK INTER + INTRA:         -11.017
REMARK INTER:                  -4.820
REMARK INTRA:                  -6.197
REMARK UNBOUND:                -5.860
REMARK SMILES C[C@H](CN)CN1CCN(c2ccc(Cl)cc2)CC1
REMARK SMILES IDX 1 1 2 2 3 3 4 4 5 7 6 8 7 9 18 10 8 11 17 12 9 13 10 14
REMARK SMILES IDX 11 15 16 16 12 17 15 18 13 19 14 20
REMARK H PARENT 4 5 4 6
REMARK Flexibility Score: inf
ROOT
ATOM      1  C   UNL     1      37.143  32.968  20.628  1.00  0.00     0.010 C 
ATOM      2  C   UNL     1      37.780  33.656  19.451  1.00  0.00     0.013 C 
ENDROOT
BRANCH   2   3
ATOM      3  C   UNL     1      38.886  32.738  18.969  1.00  0.00     0.082 C 
BRANCH   3   4
ATOM      4  N   UNL     1      39.070  32.766  17.545  1.00  0.00    -0.330 NA
ATOM      5  H   UNL     1      40.062  32.645  17.241  1.00  0.00     0.118 HD
ATOM      6  H   UNL     1      38.581  33.534  17.060  1.00  0.00     0.118 HD
ENDBRANCH   3   4
ENDBRANCH   2   3
BRANCH   2   7
ATOM      7  C   UNL     1      38.248  35.045  19.683  1.00  0.00     0.089 C 
BRANCH   7   8
ATOM      8  N   UNL     1      37.671  36.091  18.937  1.00  0.00    -0.300 NA
ATOM      9  C   UNL     1      38.485  37.136  18.451  1.00  0.00     0.106 C 
ATOM     10  C   UNL     1      36.942  35.526  17.826  1.00  0.00     0.106 C 
ATOM     11  C   UNL     1      39.423  36.670  17.332  1.00  0.00     0.132 C 
ATOM     12  C   UNL     1      37.149  36.205  16.512  1.00  0.00     0.132 C 
ATOM     13  N   UNL     1      38.550  36.377  16.200  1.00  0.00    -0.369 N 
BRANCH  13  14
ATOM     14  C   UNL     1      39.094  36.275  14.881  1.00  0.00     0.037 A 
ATOM     15  C   UNL     1      39.618  37.431  14.314  1.00  0.00     0.027 A 
ATOM     16  C   UNL     1      39.121  35.113  14.175  1.00  0.00     0.027 A 
ATOM     17  C   UNL     1      40.158  37.405  13.049  1.00  0.00     0.022 A 
ATOM     18  C   UNL     1      39.661  35.067  12.901  1.00  0.00     0.022 A 
ATOM     19  C   UNL     1      40.172  36.215  12.357  1.00  0.00     0.041 A 
ATOM     20  Cl  UNL     1      40.852  36.121  10.732  1.00  0.00    -0.084 Cl
ENDBRANCH  13  14
ENDBRANCH   7   8
ENDBRANCH   2   7
TORSDOF 5
BEGIN_RES LYS A 135
REMARK  4 active torsions:
REMARK  status: ('A' for Active; 'I' for Inactive)
REMARK    1  A    between atoms: CA   and  CB  
REMARK    2  A    between atoms: CB   and  CG  
REMARK    3  A    between atoms: CG   and  CD  
REMARK    4  A    between atoms: CD   and  CE  
ROOT
ATOM      1  CA  LYS A 135      33.193  34.663   9.290  1.00 25.02     0.186 C 
ENDROOT
BRANCH   1   2
ATOM      2  CB  LYS A 135      32.060  35.360  10.034  1.00 26.63     0.034 C 
BRANCH   2   3
ATOM      3  CG  LYS A 135      30.700  34.783   9.737  1.00 29.45     0.005 C 
BRANCH   3   4
ATOM      4  CD  LYS A 135      30.523  34.567   8.242  1.00 32.00     0.041 C 
BRANCH   4   5
ATOM      5  CE  LYS A 135      29.069  34.743   7.847  1.00 34.25     0.338 C 
ATOM      6  NZ  LYS A 135      28.923  35.785   6.793  1.00 35.99     0.618 N 
ENDBRANCH   4   5
ENDBRANCH   3   4
ENDBRANCH   2   3
ENDBRANCH   1   2
END_RES LYS A 135
BEGIN_RES ARG A 124
REMARK  4 active torsions:
REMARK  status: ('A' for Active; 'I' for Inactive)
REMARK    5  A    between atoms: CA   and  CB  
REMARK    6  A    between atoms: CB   and  CG  
REMARK    7  A    between atoms: CG   and  CD  
REMARK    8  A    between atoms: CD   and  NE  
REMARK       I    between atoms: NE   and  CZ  
ROOT
ATOM      7  CA  ARG A 124      31.045  26.515   9.594  1.00 17.84     0.186 C 
ENDROOT
BRANCH   7   8
ATOM      8  CB  ARG A 124      29.529  26.705   9.647  1.00 16.18     0.036 C 
BRANCH   8   9
ATOM      9  CG  ARG A 124      28.907  26.803  11.086  1.00 16.22     0.029 C 
BRANCH   9  10
ATOM     10  CD  ARG A 124      27.532  26.105  11.194  1.00 15.09     0.145 C 
BRANCH  10  11
ATOM     11  NE  ARG A 124      26.404  27.036  11.418  1.00 16.98    -0.083 NA
ATOM     12  CZ  ARG A 124      26.010  27.480  12.606  1.00 18.21     0.782 C 
ATOM     13  NH1 ARG A 124      26.632  27.115  13.721  1.00 21.11     0.063 N 
ATOM     14  NH2 ARG A 124      24.992  28.323  12.693  1.00 21.25     0.063 N 
ENDBRANCH  10  11
ENDBRANCH   9  10
ENDBRANCH   8   9
ENDBRANCH   7   8
END_RES ARG A 124
BEGIN_RES ASN A 133
REMARK  2 active torsions:
REMARK  status: ('A' for Active; 'I' for Inactive)
REMARK    9  A    between atoms: CA   and  CB  
REMARK   10  A    between atoms: CB   and  CG  
ROOT
ATOM     15  CA  ASN A 133      31.225  30.257  11.749  1.00 18.15     0.196 C 
ENDROOT
BRANCH  15  16
ATOM     16  CB  ASN A 133      30.092  31.240  11.460  1.00 18.27     0.126 C 
BRANCH  16  17
ATOM     17  CG  ASN A 133      28.742  30.593  11.422  1.00 18.94     0.276 C 
ATOM     18  OD1 ASN A 133      28.405  29.875  10.479  1.00 18.09    -0.269 OA
ATOM     19  ND2 ASN A 133      27.946  30.845  12.460  1.00 18.93    -0.107 N 
ENDBRANCH  16  17
ENDBRANCH  15  16
END_RES ASN A 133
BEGIN_RES LYS A 131
REMARK  4 active torsions:
REMARK  status: ('A' for Active; 'I' for Inactive)
REMARK   11  A    between atoms: CA   and  CB  
REMARK   12  A    between atoms: CB   and  CG  
REMARK   13  A    between atoms: CG   and  CD  
REMARK   14  A    between atoms: CD   and  CE  
ROOT
ATOM     20  CA  LYS A 131      29.867  25.555  16.977  1.00 20.52     0.186 C 
ENDROOT
BRANCH  20  21
ATOM     21  CB  LYS A 131      28.345  25.722  17.026  1.00 20.94     0.034 C 
BRANCH  21  22
ATOM     22  CG  LYS A 131      27.599  24.422  16.766  1.00 22.96     0.005 C 
BRANCH  22  23
ATOM     23  CD  LYS A 131      26.739  24.020  17.932  1.00 24.33     0.041 C 
BRANCH  23  24
ATOM     24  CE  LYS A 131      25.335  23.686  17.437  1.00 26.91     0.338 C 
ATOM     25  NZ  LYS A 131      24.514  24.916  17.338  1.00 27.40     0.618 N 
ENDBRANCH  23  24
ENDBRANCH  22  23
ENDBRANCH  21  22
ENDBRANCH  20  21
END_RES LYS A 131
