REMARK VINA RESULT:    -3.452      0.000      0.000
REMARK INTER + INTRA:          -9.842
REMARK INTER:                  -3.707
REMARK INTRA:                  -6.135
REMARK UNBOUND:                -5.482
REMARK SMILES CCN(CC)CCN
REMARK SMILES IDX 6 1 3 2 2 3 1 4 4 5 5 6 7 7 8 8
REMARK H PARENT 8 9 8 10
REMARK Flexibility Score: inf
ROOT
ATOM      1  C   UNL     1      37.776  33.438  13.423  1.00  0.00     0.099 C 
ENDROOT
BRANCH   1   2
ATOM      2  N   UNL     1      38.634  34.596  13.326  1.00  0.00    -0.303 NA
BRANCH   2   3
ATOM      3  C   UNL     1      38.818  35.232  14.623  1.00  0.00     0.081 C 
ATOM      4  C   UNL     1      37.669  35.193  15.539  1.00  0.00     0.021 C 
ENDBRANCH   2   3
BRANCH   2   5
ATOM      5  C   UNL     1      39.935  34.151  12.823  1.00  0.00     0.081 C 
ATOM      6  C   UNL     1      40.864  35.310  12.599  1.00  0.00     0.021 C 
ENDBRANCH   2   5
ENDBRANCH   1   2
BRANCH   1   7
ATOM      7  C   UNL     1      36.809  33.466  12.258  1.00  0.00     0.093 C 
BRANCH   7   8
ATOM      8  N   UNL     1      35.453  33.684  12.812  1.00  0.00    -0.329 NA
ATOM      9  H   UNL     1      35.516  34.521  13.419  1.00  0.00     0.118 HD
ATOM     10  H   UNL     1      34.852  33.935  12.000  1.00  0.00     0.118 HD
ENDBRANCH   7   8
ENDBRANCH   1   7
TORSDOF 5
BEGIN_RES LYS A 135
REMARK  4 active torsions:
REMARK  status: ('A' for Active; 'I' for Inactive)
REMARK    1  A    between atoms: CA   and  CB  
REMARK    2  A    between atoms: CB   and  CG  
REMARK    3  A    between atoms: CG   and  CD  
REMARK    4  A    between atoms: CD   and  CE  
ROOT
ATOM      1  CA  LYS A 135      33.193  34.663   9.290  1.00 25.02     0.186 C 
ENDROOT
BRANCH   1   2
ATOM      2  CB  LYS A 135      32.060  35.360  10.034  1.00 26.63     0.034 C 
BRANCH   2   3
ATOM      3  CG  LYS A 135      30.809  35.523   9.210  1.00 29.45     0.005 C 
BRANCH   3   4
ATOM      4  CD  LYS A 135      30.165  34.172   8.939  1.00 32.00     0.041 C 
BRANCH   4   5
ATOM      5  CE  LYS A 135      28.683  34.335   8.658  1.00 34.25     0.338 C 
ATOM      6  NZ  LYS A 135      27.862  33.644   9.690  1.00 35.99     0.618 N 
ENDBRANCH   4   5
ENDBRANCH   3   4
ENDBRANCH   2   3
ENDBRANCH   1   2
END_RES LYS A 135
BEGIN_RES ARG A 124
REMARK  4 active torsions:
REMARK  status: ('A' for Active; 'I' for Inactive)
REMARK    5  A    between atoms: CA   and  CB  
REMARK    6  A    between atoms: CB   and  CG  
REMARK    7  A    between atoms: CG   and  CD  
REMARK    8  A    between atoms: CD   and  NE  
REMARK       I    between atoms: NE   and  CZ  
ROOT
ATOM      7  CA  ARG A 124      31.045  26.515   9.594  1.00 17.84     0.186 C 
ENDROOT
BRANCH   7   8
ATOM      8  CB  ARG A 124      29.529  26.705   9.647  1.00 16.18     0.036 C 
BRANCH   8   9
ATOM      9  CG  ARG A 124      28.906  26.799  11.086  1.00 16.22     0.029 C 
BRANCH   9  10
ATOM     10  CD  ARG A 124      27.544  26.077  11.198  1.00 15.09     0.145 C 
BRANCH  10  11
ATOM     11  NE  ARG A 124      26.399  26.990  11.409  1.00 16.98    -0.083 NA
ATOM     12  CZ  ARG A 124      26.013  27.464  12.589  1.00 18.21     0.782 C 
ATOM     13  NH1 ARG A 124      26.661  27.151  13.704  1.00 21.11     0.063 N 
ATOM     14  NH2 ARG A 124      24.978  28.286  12.663  1.00 21.25     0.063 N 
ENDBRANCH  10  11
ENDBRANCH   9  10
ENDBRANCH   8   9
ENDBRANCH   7   8
END_RES ARG A 124
BEGIN_RES ASN A 133
REMARK  2 active torsions:
REMARK  status: ('A' for Active; 'I' for Inactive)
REMARK    9  A    between atoms: CA   and  CB  
REMARK   10  A    between atoms: CB   and  CG  
ROOT
ATOM     15  CA  ASN A 133      31.225  30.257  11.749  1.00 18.15     0.196 C 
ENDROOT
BRANCH  15  16
ATOM     16  CB  ASN A 133      30.092  31.240  11.460  1.00 18.27     0.126 C 
BRANCH  16  17
ATOM     17  CG  ASN A 133      28.734  30.612  11.520  1.00 18.94     0.276 C 
ATOM     18  OD1 ASN A 133      28.355  29.826  10.649  1.00 18.09    -0.269 OA
ATOM     19  ND2 ASN A 133      27.978  30.957  12.561  1.00 18.93    -0.107 N 
ENDBRANCH  16  17
ENDBRANCH  15  16
END_RES ASN A 133
BEGIN_RES LYS A 131
REMARK  4 active torsions:
REMARK  status: ('A' for Active; 'I' for Inactive)
REMARK   11  A    between atoms: CA   and  CB  
REMARK   12  A    between atoms: CB   and  CG  
REMARK   13  A    between atoms: CG   and  CD  
REMARK   14  A    between atoms: CD   and  CE  
ROOT
ATOM     20  CA  LYS A 131      29.867  25.555  16.977  1.00 20.52     0.186 C 
ENDROOT
BRANCH  20  21
ATOM     21  CB  LYS A 131      28.345  25.722  17.026  1.00 20.94     0.034 C 
BRANCH  21  22
ATOM     22  CG  LYS A 131      27.599  24.435  16.707  1.00 22.96     0.005 C 
BRANCH  22  23
ATOM     23  CD  LYS A 131      26.998  23.810  17.936  1.00 24.33     0.041 C 
BRANCH  23  24
ATOM     24  CE  LYS A 131      25.690  23.118  17.567  1.00 26.91     0.338 C 
ATOM     25  NZ  LYS A 131      24.729  24.093  17.001  1.00 27.40     0.618 N 
ENDBRANCH  23  24
ENDBRANCH  22  23
ENDBRANCH  21  22
ENDBRANCH  20  21
END_RES LYS A 131
