REMARK VINA RESULT:    -3.518      4.868      5.826
REMARK INTER + INTRA:          -8.652
REMARK INTER:                  -3.456
REMARK INTRA:                  -5.196
REMARK UNBOUND:                -5.032
REMARK SMILES Nc1cccc(Cl)c1
REMARK SMILES IDX 2 1 3 2 4 3 5 4 6 5 7 6 8 7 1 8
REMARK H PARENT 1 9 1 10
REMARK Flexibility Score: inf
ROOT
ATOM      1  C   UNL     1      37.283  37.407   3.874  1.00  0.00     0.033 A 
ATOM      2  C   UNL     1      36.973  37.658   2.539  1.00  0.00     0.025 A 
ATOM      3  C   UNL     1      35.857  38.392   2.203  1.00  0.00     0.004 A 
ATOM      4  C   UNL     1      35.003  38.912   3.152  1.00  0.00     0.020 A 
ATOM      5  C   UNL     1      35.306  38.666   4.475  1.00  0.00     0.043 A 
ATOM      6  Cl  UNL     1      34.290  39.278   5.753  1.00  0.00    -0.084 Cl
ATOM      7  C   UNL     1      36.431  37.924   4.832  1.00  0.00     0.046 A 
ENDROOT
BRANCH   1   8
ATOM      8  N   UNL     1      38.423  36.654   4.238  1.00  0.00    -0.399 N 
ATOM      9  H   UNL     1      38.772  36.693   5.219  1.00  0.00     0.156 HD
ATOM     10  H   UNL     1      38.950  36.049   3.573  1.00  0.00     0.156 HD
ENDBRANCH   1   8
TORSDOF 1
BEGIN_RES LYS A 135
REMARK  4 active torsions:
REMARK  status: ('A' for Active; 'I' for Inactive)
REMARK    1  A    between atoms: CA   and  CB  
REMARK    2  A    between atoms: CB   and  CG  
REMARK    3  A    between atoms: CG   and  CD  
REMARK    4  A    between atoms: CD   and  CE  
ROOT
ATOM      1  CA  LYS A 135      33.193  34.663   9.290  1.00 25.02     0.186 C 
ENDROOT
BRANCH   1   2
ATOM      2  CB  LYS A 135      32.060  35.360  10.034  1.00 26.63     0.034 C 
BRANCH   2   3
ATOM      3  CG  LYS A 135      30.688  34.940   9.573  1.00 29.45     0.005 C 
BRANCH   3   4
ATOM      4  CD  LYS A 135      30.094  35.981   8.637  1.00 32.00     0.041 C 
BRANCH   4   5
ATOM      5  CE  LYS A 135      28.875  35.425   7.927  1.00 34.25     0.338 C 
ATOM      6  NZ  LYS A 135      28.997  35.578   6.451  1.00 35.99     0.618 N 
ENDBRANCH   4   5
ENDBRANCH   3   4
ENDBRANCH   2   3
ENDBRANCH   1   2
END_RES LYS A 135
BEGIN_RES ARG A 124
REMARK  4 active torsions:
REMARK  status: ('A' for Active; 'I' for Inactive)
REMARK    5  A    between atoms: CA   and  CB  
REMARK    6  A    between atoms: CB   and  CG  
REMARK    7  A    between atoms: CG   and  CD  
REMARK    8  A    between atoms: CD   and  NE  
REMARK       I    between atoms: NE   and  CZ  
ROOT
ATOM      7  CA  ARG A 124      31.045  26.515   9.594  1.00 17.84     0.186 C 
ENDROOT
BRANCH   7   8
ATOM      8  CB  ARG A 124      29.529  26.705   9.647  1.00 16.18     0.036 C 
BRANCH   8   9
ATOM      9  CG  ARG A 124      28.908  26.814  11.086  1.00 16.22     0.029 C 
BRANCH   9  10
ATOM     10  CD  ARG A 124      27.513  26.157  11.188  1.00 15.09     0.145 C 
BRANCH  10  11
ATOM     11  NE  ARG A 124      26.421  27.113  11.472  1.00 16.98    -0.083 NA
ATOM     12  CZ  ARG A 124      26.072  27.530  12.684  1.00 18.21     0.782 C 
ATOM     13  NH1 ARG A 124      26.712  27.112  13.769  1.00 21.11     0.063 N 
ATOM     14  NH2 ARG A 124      25.083  28.400  12.824  1.00 21.25     0.063 N 
ENDBRANCH  10  11
ENDBRANCH   9  10
ENDBRANCH   8   9
ENDBRANCH   7   8
END_RES ARG A 124
BEGIN_RES ASN A 133
REMARK  2 active torsions:
REMARK  status: ('A' for Active; 'I' for Inactive)
REMARK    9  A    between atoms: CA   and  CB  
REMARK   10  A    between atoms: CB   and  CG  
ROOT
ATOM     15  CA  ASN A 133      31.225  30.257  11.749  1.00 18.15     0.196 C 
ENDROOT
BRANCH  15  16
ATOM     16  CB  ASN A 133      30.092  31.240  11.460  1.00 18.27     0.126 C 
BRANCH  16  17
ATOM     17  CG  ASN A 133      28.736  30.607  11.497  1.00 18.94     0.276 C 
ATOM     18  OD1 ASN A 133      28.375  29.819  10.621  1.00 18.09    -0.269 OA
ATOM     19  ND2 ASN A 133      27.960  30.951  12.524  1.00 18.93    -0.107 N 
ENDBRANCH  16  17
ENDBRANCH  15  16
END_RES ASN A 133
BEGIN_RES LYS A 131
REMARK  4 active torsions:
REMARK  status: ('A' for Active; 'I' for Inactive)
REMARK   11  A    between atoms: CA   and  CB  
REMARK   12  A    between atoms: CB   and  CG  
REMARK   13  A    between atoms: CG   and  CD  
REMARK   14  A    between atoms: CD   and  CE  
ROOT
ATOM     20  CA  LYS A 131      29.867  25.555  16.977  1.00 20.52     0.186 C 
ENDROOT
BRANCH  20  21
ATOM     21  CB  LYS A 131      28.345  25.722  17.026  1.00 20.94     0.034 C 
BRANCH  21  22
ATOM     22  CG  LYS A 131      27.599  24.424  16.758  1.00 22.96     0.005 C 
BRANCH  22  23
ATOM     23  CD  LYS A 131      26.886  23.917  17.981  1.00 24.33     0.041 C 
BRANCH  23  24
ATOM     24  CE  LYS A 131      26.214  25.084  18.698  1.00 26.91     0.338 C 
ATOM     25  NZ  LYS A 131      25.421  24.597  19.851  1.00 27.40     0.618 N 
ENDBRANCH  23  24
ENDBRANCH  22  23
ENDBRANCH  21  22
ENDBRANCH  20  21
END_RES LYS A 131
