REMARK VINA RESULT:    -5.341      0.000      0.000
REMARK INTER + INTRA:         -10.840
REMARK INTER:                  -6.388
REMARK INTRA:                  -4.452
REMARK UNBOUND:                -5.342
REMARK SMILES Nc1c2ccccc2nc2ccccc12
REMARK SMILES IDX 2 1 3 2 4 3 5 4 6 5 7 6 8 7 9 8 10 9 11 10 12 11 13 12 14 13
REMARK SMILES IDX 15 14 1 15
REMARK H PARENT 1 16 1 17
REMARK Flexibility Score: inf
ROOT
ATOM      1  C   UNL     1      26.774  34.749   9.977  1.00  0.00     0.050 A 
ATOM      2  C   UNL     1      25.806  35.548   9.404  1.00  0.00     0.024 A 
ATOM      3  C   UNL     1      24.543  35.671   9.954  1.00  0.00     0.012 A 
ATOM      4  C   UNL     1      23.625  36.486   9.328  1.00  0.00     0.001 A 
ATOM      5  C   UNL     1      23.926  37.179   8.174  1.00  0.00     0.002 A 
ATOM      6  C   UNL     1      25.196  37.023   7.664  1.00  0.00     0.029 A 
ATOM      7  C   UNL     1      26.157  36.219   8.251  1.00  0.00     0.073 A 
ATOM      8  N   UNL     1      27.390  36.103   7.705  1.00  0.00    -0.248 NA
ATOM      9  C   UNL     1      28.354  35.330   8.246  1.00  0.00     0.073 A 
ATOM     10  C   UNL     1      29.601  35.235   7.663  1.00  0.00     0.029 A 
ATOM     11  C   UNL     1      30.586  34.442   8.221  1.00  0.00     0.002 A 
ATOM     12  C   UNL     1      30.261  33.759   9.374  1.00  0.00     0.001 A 
ATOM     13  C   UNL     1      29.012  33.853   9.957  1.00  0.00     0.012 A 
ATOM     14  C   UNL     1      28.031  34.646   9.400  1.00  0.00     0.024 A 
ENDROOT
BRANCH   1  15
ATOM     15  N   UNL     1      26.453  34.039  11.166  1.00  0.00    -0.398 N 
ATOM     16  H   UNL     1      27.129  33.797  11.910  1.00  0.00     0.156 HD
ATOM     17  H   UNL     1      25.454  33.729  11.317  1.00  0.00     0.156 HD
ENDBRANCH   1  15
TORSDOF 1
BEGIN_RES LYS A 135
REMARK  4 active torsions:
REMARK  status: ('A' for Active; 'I' for Inactive)
REMARK    1  A    between atoms: CA   and  CB  
REMARK    2  A    between atoms: CB   and  CG  
REMARK    3  A    between atoms: CG   and  CD  
REMARK    4  A    between atoms: CD   and  CE  
ROOT
ATOM      1  CA  LYS A 135      33.193  34.663   9.290  1.00 25.02     0.186 C 
ENDROOT
BRANCH   1   2
ATOM      2  CB  LYS A 135      32.060  35.360  10.034  1.00 26.63     0.034 C 
BRANCH   2   3
ATOM      3  CG  LYS A 135      32.513  36.099  11.267  1.00 29.45     0.005 C 
BRANCH   3   4
ATOM      4  CD  LYS A 135      31.846  37.463  11.350  1.00 32.00     0.041 C 
BRANCH   4   5
ATOM      5  CE  LYS A 135      30.831  37.629  10.235  1.00 34.25     0.338 C 
ATOM      6  NZ  LYS A 135      29.449  37.734  10.779  1.00 35.99     0.618 N 
ENDBRANCH   4   5
ENDBRANCH   3   4
ENDBRANCH   2   3
ENDBRANCH   1   2
END_RES LYS A 135
BEGIN_RES ARG A 124
REMARK  4 active torsions:
REMARK  status: ('A' for Active; 'I' for Inactive)
REMARK    5  A    between atoms: CA   and  CB  
REMARK    6  A    between atoms: CB   and  CG  
REMARK    7  A    between atoms: CG   and  CD  
REMARK    8  A    between atoms: CD   and  NE  
REMARK       I    between atoms: NE   and  CZ  
ROOT
ATOM      7  CA  ARG A 124      31.045  26.515   9.594  1.00 17.84     0.186 C 
ENDROOT
BRANCH   7   8
ATOM      8  CB  ARG A 124      29.529  26.705   9.647  1.00 16.18     0.036 C 
BRANCH   8   9
ATOM      9  CG  ARG A 124      28.899  26.742  11.085  1.00 16.22     0.029 C 
BRANCH   9  10
ATOM     10  CD  ARG A 124      27.498  26.093  11.144  1.00 15.09     0.145 C 
BRANCH  10  11
ATOM     11  NE  ARG A 124      26.403  27.055  11.402  1.00 16.98    -0.083 NA
ATOM     12  CZ  ARG A 124      26.054  27.503  12.603  1.00 18.21     0.782 C 
ATOM     13  NH1 ARG A 124      26.696  27.115  13.698  1.00 21.11     0.063 N 
ATOM     14  NH2 ARG A 124      25.064  28.374  12.721  1.00 21.25     0.063 N 
ENDBRANCH  10  11
ENDBRANCH   9  10
ENDBRANCH   8   9
ENDBRANCH   7   8
END_RES ARG A 124
BEGIN_RES ASN A 133
REMARK  2 active torsions:
REMARK  status: ('A' for Active; 'I' for Inactive)
REMARK    9  A    between atoms: CA   and  CB  
REMARK   10  A    between atoms: CB   and  CG  
ROOT
ATOM     15  CA  ASN A 133      31.225  30.257  11.749  1.00 18.15     0.196 C 
ENDROOT
BRANCH  15  16
ATOM     16  CB  ASN A 133      30.092  31.240  11.460  1.00 18.27     0.126 C 
BRANCH  16  17
ATOM     17  CG  ASN A 133      28.732  30.624  11.569  1.00 18.94     0.276 C 
ATOM     18  OD1 ASN A 133      28.338  29.797  10.745  1.00 18.09    -0.269 OA
ATOM     19  ND2 ASN A 133      27.990  31.027  12.600  1.00 18.93    -0.107 N 
ENDBRANCH  16  17
ENDBRANCH  15  16
END_RES ASN A 133
BEGIN_RES LYS A 131
REMARK  4 active torsions:
REMARK  status: ('A' for Active; 'I' for Inactive)
REMARK   11  A    between atoms: CA   and  CB  
REMARK   12  A    between atoms: CB   and  CG  
REMARK   13  A    between atoms: CG   and  CD  
REMARK   14  A    between atoms: CD   and  CE  
ROOT
ATOM     20  CA  LYS A 131      29.867  25.555  16.977  1.00 20.52     0.186 C 
ENDROOT
BRANCH  20  21
ATOM     21  CB  LYS A 131      28.345  25.722  17.026  1.00 20.94     0.034 C 
BRANCH  21  22
ATOM     22  CG  LYS A 131      27.599  24.445  16.671  1.00 22.96     0.005 C 
BRANCH  22  23
ATOM     23  CD  LYS A 131      27.007  23.779  17.882  1.00 24.33     0.041 C 
BRANCH  23  24
ATOM     24  CE  LYS A 131      25.588  23.317  17.567  1.00 26.91     0.338 C 
ATOM     25  NZ  LYS A 131      24.812  24.415  16.942  1.00 27.40     0.618 N 
ENDBRANCH  23  24
ENDBRANCH  22  23
ENDBRANCH  21  22
ENDBRANCH  20  21
END_RES LYS A 131
