REMARK VINA RESULT:    -9.055      1.870      2.248
REMARK INTER + INTRA:          -8.142
REMARK INTER:                  -3.454
REMARK INTRA:                  -4.688
REMARK UNBOUND:                 4.353
REMARK SMILES NC1CC(O)C=C[C@@H](O)C1
REMARK SMILES IDX 8 1 10 2 2 3 1 4 3 7 7 9 6 10 4 11 5 13 9 15
REMARK H PARENT 1 5 1 6 5 14 9 16
REMARK Flexibility Score: 80.00
ROOT
ATOM      1  C   UNL     1      25.977  18.901  16.213  1.00  0.00     0.138 C 
ENDROOT
BRANCH   1   2
ATOM      2  C   UNL     1      25.785  18.202  14.915  1.00  0.00     0.054 C 
BRANCH   2   3
ATOM      3  C   UNL     1      24.552  18.577  14.170  1.00  0.00     0.056 C 
BRANCH   3   4
ATOM      4  N   UNL     1      24.664  18.331  12.745  1.00  0.00    -0.327 NA
ATOM      5  H   UNL     1      23.964  17.582  12.463  1.00  0.00     0.119 HD
ATOM      6  H   UNL     1      25.601  17.906  12.523  1.00  0.00     0.119 HD
ENDBRANCH   3   4
BRANCH   3   7
ATOM      7  C   UNL     1      23.285  18.007  14.752  1.00  0.00     0.054 CG0
ATOM      8  G   UNL     1      22.844  18.672  16.011  1.00  0.00     0.000 G0
ENDBRANCH   3   7
ENDBRANCH   2   3
ENDBRANCH   1   2
BRANCH   1   9
ATOM      9  C   UNL     1      25.024  18.475  17.272  1.00  0.00     0.002 C 
ATOM     10  C   UNL     1      23.701  18.383  17.205  1.00  0.00     0.002 C 
BRANCH  10  11
ATOM     11  C   UNL     1      22.854  18.696  16.024  1.00  0.00     0.138 CG0
ATOM     12  G   UNL     1      23.297  17.997  14.784  1.00  0.00     0.000 G0
BRANCH  11  13
ATOM     13  O   UNL     1      21.534  18.389  16.320  1.00  0.00    -0.389 OA
ATOM     14  H   UNL     1      21.464  17.501  16.773  1.00  0.00     0.211 HD
ENDBRANCH  11  13
ENDBRANCH  10  11
ENDBRANCH   1   9
BRANCH   1  15
ATOM     15  O   UNL     1      27.274  18.806  16.712  1.00  0.00    -0.389 OA
ATOM     16  H   UNL     1      27.531  17.863  16.667  1.00  0.00     0.211 HD
ENDBRANCH   1  15
TORSDOF 3
BEGIN_RES LYS A 135
REMARK  4 active torsions:
REMARK  status: ('A' for Active; 'I' for Inactive)
REMARK    1  A    between atoms: CA   and  CB  
REMARK    2  A    between atoms: CB   and  CG  
REMARK    3  A    between atoms: CG   and  CD  
REMARK    4  A    between atoms: CD   and  CE  
ROOT
ATOM      1  CA  LYS A 135      33.193  34.663   9.290  1.00 25.02     0.186 C 
ENDROOT
BRANCH   1   2
ATOM      2  CB  LYS A 135      32.060  35.360  10.034  1.00 26.63     0.034 C 
BRANCH   2   3
ATOM      3  CG  LYS A 135      30.781  34.564  10.065  1.00 29.45     0.005 C 
BRANCH   3   4
ATOM      4  CD  LYS A 135      30.351  34.183   8.657  1.00 32.00     0.041 C 
BRANCH   4   5
ATOM      5  CE  LYS A 135      29.580  35.317   8.009  1.00 34.25     0.338 C 
ATOM      6  NZ  LYS A 135      28.170  34.923   7.741  1.00 35.99     0.618 N 
ENDBRANCH   4   5
ENDBRANCH   3   4
ENDBRANCH   2   3
ENDBRANCH   1   2
END_RES LYS A 135
BEGIN_RES ARG A 124
REMARK  4 active torsions:
REMARK  status: ('A' for Active; 'I' for Inactive)
REMARK    5  A    between atoms: CA   and  CB  
REMARK    6  A    between atoms: CB   and  CG  
REMARK    7  A    between atoms: CG   and  CD  
REMARK    8  A    between atoms: CD   and  NE  
REMARK       I    between atoms: NE   and  CZ  
ROOT
ATOM      7  CA  ARG A 124      31.045  26.515   9.594  1.00 17.84     0.186 C 
ENDROOT
BRANCH   7   8
ATOM      8  CB  ARG A 124      29.529  26.705   9.647  1.00 16.18     0.036 C 
BRANCH   8   9
ATOM      9  CG  ARG A 124      28.915  26.869  11.083  1.00 16.22     0.029 C 
BRANCH   9  10
ATOM     10  CD  ARG A 124      27.583  26.105  11.257  1.00 15.09     0.145 C 
BRANCH  10  11
ATOM     11  NE  ARG A 124      26.415  26.983  11.486  1.00 16.98    -0.083 NA
ATOM     12  CZ  ARG A 124      26.091  27.528  12.653  1.00 18.21     0.782 C 
ATOM     13  NH1 ARG A 124      26.828  27.325  13.738  1.00 21.11     0.063 N 
ATOM     14  NH2 ARG A 124      25.027  28.311  12.745  1.00 21.25     0.063 N 
ENDBRANCH  10  11
ENDBRANCH   9  10
ENDBRANCH   8   9
ENDBRANCH   7   8
END_RES ARG A 124
BEGIN_RES ASN A 133
REMARK  2 active torsions:
REMARK  status: ('A' for Active; 'I' for Inactive)
REMARK    9  A    between atoms: CA   and  CB  
REMARK   10  A    between atoms: CB   and  CG  
ROOT
ATOM     15  CA  ASN A 133      31.225  30.257  11.749  1.00 18.15     0.196 C 
ENDROOT
BRANCH  15  16
ATOM     16  CB  ASN A 133      30.092  31.240  11.460  1.00 18.27     0.126 C 
BRANCH  16  17
ATOM     17  CG  ASN A 133      28.738  30.601  11.467  1.00 18.94     0.276 C 
ATOM     18  OD1 ASN A 133      28.374  29.866  10.548  1.00 18.09    -0.269 OA
ATOM     19  ND2 ASN A 133      27.968  30.879  12.519  1.00 18.93    -0.107 N 
ENDBRANCH  16  17
ENDBRANCH  15  16
END_RES ASN A 133
BEGIN_RES LYS A 131
REMARK  4 active torsions:
REMARK  status: ('A' for Active; 'I' for Inactive)
REMARK   11  A    between atoms: CA   and  CB  
REMARK   12  A    between atoms: CB   and  CG  
REMARK   13  A    between atoms: CG   and  CD  
REMARK   14  A    between atoms: CD   and  CE  
ROOT
ATOM     20  CA  LYS A 131      29.867  25.555  16.977  1.00 20.52     0.186 C 
ENDROOT
BRANCH  20  21
ATOM     21  CB  LYS A 131      28.345  25.722  17.026  1.00 20.94     0.034 C 
BRANCH  21  22
ATOM     22  CG  LYS A 131      27.600  24.407  16.853  1.00 22.96     0.005 C 
BRANCH  22  23
ATOM     23  CD  LYS A 131      26.145  24.530  17.208  1.00 24.33     0.041 C 
BRANCH  23  24
ATOM     24  CE  LYS A 131      25.922  24.018  18.627  1.00 26.91     0.338 C 
ATOM     25  NZ  LYS A 131      24.570  24.389  19.106  1.00 27.40     0.618 N 
ENDBRANCH  23  24
ENDBRANCH  22  23
ENDBRANCH  21  22
ENDBRANCH  20  21
END_RES LYS A 131
