REMARK VINA RESULT:    -3.336      2.348      2.607
REMARK INTER + INTRA:          -9.117
REMARK INTER:                  -3.917
REMARK INTRA:                  -5.200
REMARK UNBOUND:                -5.488
REMARK SMILES Nc1ccc([N+](=O)[O-])cc1
REMARK SMILES IDX 2 1 3 2 4 3 5 4 9 5 10 6 1 7 6 10 7 11 8 12
REMARK H PARENT 1 8 1 9
REMARK Flexibility Score: inf
ROOT
ATOM      1  C   UNL     1      37.978  33.900  12.468  1.00  0.00     0.032 A 
ATOM      2  C   UNL     1      37.428  33.649  13.708  1.00  0.00     0.032 A 
ATOM      3  C   UNL     1      38.059  34.015  14.881  1.00  0.00     0.088 A 
ATOM      4  C   UNL     1      39.278  34.656  14.867  1.00  0.00     0.269 A 
ATOM      5  C   UNL     1      39.826  34.905  13.627  1.00  0.00     0.088 A 
ATOM      6  C   UNL     1      39.199  34.540  12.453  1.00  0.00     0.032 A 
ENDROOT
BRANCH   1   7
ATOM      7  N   UNL     1      37.308  33.511  11.267  1.00  0.00    -0.399 N 
ATOM      8  H   UNL     1      37.829  33.428  10.375  1.00  0.00     0.156 HD
ATOM      9  H   UNL     1      36.287  33.299  11.242  1.00  0.00     0.156 HD
ENDBRANCH   1   7
BRANCH   4  10
ATOM     10  N   UNL     1      39.940  35.039  16.068  1.00  0.00     0.062 N 
ATOM     11  O   UNL     1      40.546  34.163  16.750  1.00  0.00    -0.258 OA
ATOM     12  O   UNL     1      39.971  36.303  16.545  1.00  0.00    -0.258 OA
ENDBRANCH   4  10
TORSDOF 2
BEGIN_RES LYS A 135
REMARK  4 active torsions:
REMARK  status: ('A' for Active; 'I' for Inactive)
REMARK    1  A    between atoms: CA   and  CB  
REMARK    2  A    between atoms: CB   and  CG  
REMARK    3  A    between atoms: CG   and  CD  
REMARK    4  A    between atoms: CD   and  CE  
ROOT
ATOM      1  CA  LYS A 135      33.193  34.663   9.290  1.00 25.02     0.186 C 
ENDROOT
BRANCH   1   2
ATOM      2  CB  LYS A 135      32.060  35.360  10.034  1.00 26.63     0.034 C 
BRANCH   2   3
ATOM      3  CG  LYS A 135      30.698  34.793   9.725  1.00 29.45     0.005 C 
BRANCH   3   4
ATOM      4  CD  LYS A 135      30.581  34.452   8.248  1.00 32.00     0.041 C 
BRANCH   4   5
ATOM      5  CE  LYS A 135      29.376  35.140   7.636  1.00 34.25     0.338 C 
ATOM      6  NZ  LYS A 135      28.110  34.642   8.240  1.00 35.99     0.618 N 
ENDBRANCH   4   5
ENDBRANCH   3   4
ENDBRANCH   2   3
ENDBRANCH   1   2
END_RES LYS A 135
BEGIN_RES ARG A 124
REMARK  4 active torsions:
REMARK  status: ('A' for Active; 'I' for Inactive)
REMARK    5  A    between atoms: CA   and  CB  
REMARK    6  A    between atoms: CB   and  CG  
REMARK    7  A    between atoms: CG   and  CD  
REMARK    8  A    between atoms: CD   and  NE  
REMARK       I    between atoms: NE   and  CZ  
ROOT
ATOM      7  CA  ARG A 124      31.045  26.515   9.594  1.00 17.84     0.186 C 
ENDROOT
BRANCH   7   8
ATOM      8  CB  ARG A 124      29.529  26.705   9.647  1.00 16.18     0.036 C 
BRANCH   8   9
ATOM      9  CG  ARG A 124      29.019  27.829  10.618  1.00 16.22     0.029 C 
BRANCH   9  10
ATOM     10  CD  ARG A 124      28.464  27.267  11.947  1.00 15.09     0.145 C 
BRANCH  10  11
ATOM     11  NE  ARG A 124      27.054  26.829  11.869  1.00 16.98    -0.083 NA
ATOM     12  CZ  ARG A 124      26.007  27.569  12.219  1.00 18.21     0.782 C 
ATOM     13  NH1 ARG A 124      26.159  28.808  12.669  1.00 21.11     0.063 N 
ATOM     14  NH2 ARG A 124      24.782  27.081  12.097  1.00 21.25     0.063 N 
ENDBRANCH  10  11
ENDBRANCH   9  10
ENDBRANCH   8   9
ENDBRANCH   7   8
END_RES ARG A 124
BEGIN_RES ASN A 133
REMARK  2 active torsions:
REMARK  status: ('A' for Active; 'I' for Inactive)
REMARK    9  A    between atoms: CA   and  CB  
REMARK   10  A    between atoms: CB   and  CG  
ROOT
ATOM     15  CA  ASN A 133      31.225  30.257  11.749  1.00 18.15     0.196 C 
ENDROOT
BRANCH  15  16
ATOM     16  CB  ASN A 133      30.092  31.240  11.460  1.00 18.27     0.126 C 
BRANCH  16  17
ATOM     17  CG  ASN A 133      29.361  31.679  12.691  1.00 18.94     0.276 C 
ATOM     18  OD1 ASN A 133      28.459  30.993  13.176  1.00 18.09    -0.269 OA
ATOM     19  ND2 ASN A 133      29.747  32.842  13.214  1.00 18.93    -0.107 N 
ENDBRANCH  16  17
ENDBRANCH  15  16
END_RES ASN A 133
BEGIN_RES LYS A 131
REMARK  4 active torsions:
REMARK  status: ('A' for Active; 'I' for Inactive)
REMARK   11  A    between atoms: CA   and  CB  
REMARK   12  A    between atoms: CB   and  CG  
REMARK   13  A    between atoms: CG   and  CD  
REMARK   14  A    between atoms: CD   and  CE  
ROOT
ATOM     20  CA  LYS A 131      29.867  25.555  16.977  1.00 20.52     0.186 C 
ENDROOT
BRANCH  20  21
ATOM     21  CB  LYS A 131      28.345  25.722  17.026  1.00 20.94     0.034 C 
BRANCH  21  22
ATOM     22  CG  LYS A 131      27.725  25.898  15.648  1.00 22.96     0.005 C 
BRANCH  22  23
ATOM     23  CD  LYS A 131      26.479  26.738  15.691  1.00 24.33     0.041 C 
BRANCH  23  24
ATOM     24  CE  LYS A 131      26.745  28.002  16.501  1.00 26.91     0.338 C 
ATOM     25  NZ  LYS A 131      27.670  28.901  15.772  1.00 27.40     0.618 N 
ENDBRANCH  23  24
ENDBRANCH  22  23
ENDBRANCH  21  22
ENDBRANCH  20  21
END_RES LYS A 131
