REMARK VINA RESULT:    -3.419      6.199     10.291
REMARK INTER + INTRA:          -8.811
REMARK INTER:                  -3.065
REMARK INTRA:                  -5.746
REMARK UNBOUND:                -4.892
REMARK SMILES COc1ccc(CN)cc1
REMARK SMILES IDX 3 1 4 2 5 3 6 4 9 5 10 6 2 7 1 8 7 9 8 10
REMARK H PARENT 8 11 8 12
REMARK Flexibility Score: inf
ROOT
ATOM      1  C   UNL     1      23.460  35.296  10.997  1.00  0.00     0.118 A 
ATOM      2  C   UNL     1      23.848  35.616   9.719  1.00  0.00     0.047 A 
ATOM      3  C   UNL     1      22.905  35.792   8.703  1.00  0.00     0.009 A 
ATOM      4  C   UNL     1      21.582  35.642   8.990  1.00  0.00    -0.034 A 
ATOM      5  C   UNL     1      21.163  35.322  10.259  1.00  0.00     0.009 A 
ATOM      6  C   UNL     1      22.121  35.150  11.263  1.00  0.00     0.047 A 
ENDROOT
BRANCH   1   7
ATOM      7  O   UNL     1      24.380  35.123  11.994  1.00  0.00    -0.497 OA
ATOM      8  C   UNL     1      24.550  33.920  12.718  1.00  0.00     0.278 C 
ENDBRANCH   1   7
BRANCH   4   9
ATOM      9  C   UNL     1      20.561  35.820   7.945  1.00  0.00     0.113 C 
BRANCH   9  10
ATOM     10  N   UNL     1      20.042  34.558   7.445  1.00  0.00    -0.326 NA
ATOM     11  H   UNL     1      20.140  33.871   8.248  1.00  0.00     0.119 HD
ATOM     12  H   UNL     1      19.049  34.617   7.147  1.00  0.00     0.119 HD
ENDBRANCH   9  10
ENDBRANCH   4   9
TORSDOF 3
BEGIN_RES LYS A 135
REMARK  4 active torsions:
REMARK  status: ('A' for Active; 'I' for Inactive)
REMARK    1  A    between atoms: CA   and  CB  
REMARK    2  A    between atoms: CB   and  CG  
REMARK    3  A    between atoms: CG   and  CD  
REMARK    4  A    between atoms: CD   and  CE  
ROOT
ATOM      1  CA  LYS A 135      33.193  34.663   9.290  1.00 25.02     0.186 C 
ENDROOT
BRANCH   1   2
ATOM      2  CB  LYS A 135      32.060  35.360  10.034  1.00 26.63     0.034 C 
BRANCH   2   3
ATOM      3  CG  LYS A 135      30.848  35.621   9.178  1.00 29.45     0.005 C 
BRANCH   3   4
ATOM      4  CD  LYS A 135      30.289  34.319   8.627  1.00 32.00     0.041 C 
BRANCH   4   5
ATOM      5  CE  LYS A 135      28.772  34.347   8.629  1.00 34.25     0.338 C 
ATOM      6  NZ  LYS A 135      28.261  35.641   9.158  1.00 35.99     0.618 N 
ENDBRANCH   4   5
ENDBRANCH   3   4
ENDBRANCH   2   3
ENDBRANCH   1   2
END_RES LYS A 135
BEGIN_RES ARG A 124
REMARK  4 active torsions:
REMARK  status: ('A' for Active; 'I' for Inactive)
REMARK    5  A    between atoms: CA   and  CB  
REMARK    6  A    between atoms: CB   and  CG  
REMARK    7  A    between atoms: CG   and  CD  
REMARK    8  A    between atoms: CD   and  NE  
REMARK       I    between atoms: NE   and  CZ  
ROOT
ATOM      7  CA  ARG A 124      31.045  26.515   9.594  1.00 17.84     0.186 C 
ENDROOT
BRANCH   7   8
ATOM      8  CB  ARG A 124      29.529  26.705   9.647  1.00 16.18     0.036 C 
BRANCH   8   9
ATOM      9  CG  ARG A 124      28.902  26.764  11.086  1.00 16.22     0.029 C 
BRANCH   9  10
ATOM     10  CD  ARG A 124      27.490  26.137  11.151  1.00 15.09     0.145 C 
BRANCH  10  11
ATOM     11  NE  ARG A 124      26.414  27.115  11.420  1.00 16.98    -0.083 NA
ATOM     12  CZ  ARG A 124      26.071  27.556  12.625  1.00 18.21     0.782 C 
ATOM     13  NH1 ARG A 124      26.704  27.144  13.717  1.00 21.11     0.063 N 
ATOM     14  NH2 ARG A 124      25.096  28.444  12.752  1.00 21.25     0.063 N 
ENDBRANCH  10  11
ENDBRANCH   9  10
ENDBRANCH   8   9
ENDBRANCH   7   8
END_RES ARG A 124
BEGIN_RES ASN A 133
REMARK  2 active torsions:
REMARK  status: ('A' for Active; 'I' for Inactive)
REMARK    9  A    between atoms: CA   and  CB  
REMARK   10  A    between atoms: CB   and  CG  
ROOT
ATOM     15  CA  ASN A 133      31.225  30.257  11.749  1.00 18.15     0.196 C 
ENDROOT
BRANCH  15  16
ATOM     16  CB  ASN A 133      30.092  31.240  11.460  1.00 18.27     0.126 C 
BRANCH  16  17
ATOM     17  CG  ASN A 133      28.738  30.600  11.462  1.00 18.94     0.276 C 
ATOM     18  OD1 ASN A 133      28.402  29.815  10.574  1.00 18.09    -0.269 OA
ATOM     19  ND2 ASN A 133      27.937  30.935  12.473  1.00 18.93    -0.107 N 
ENDBRANCH  16  17
ENDBRANCH  15  16
END_RES ASN A 133
BEGIN_RES LYS A 131
REMARK  4 active torsions:
REMARK  status: ('A' for Active; 'I' for Inactive)
REMARK   11  A    between atoms: CA   and  CB  
REMARK   12  A    between atoms: CB   and  CG  
REMARK   13  A    between atoms: CG   and  CD  
REMARK   14  A    between atoms: CD   and  CE  
ROOT
ATOM     20  CA  LYS A 131      29.867  25.555  16.977  1.00 20.52     0.186 C 
ENDROOT
BRANCH  20  21
ATOM     21  CB  LYS A 131      28.345  25.722  17.026  1.00 20.94     0.034 C 
BRANCH  21  22
ATOM     22  CG  LYS A 131      27.599  24.435  16.708  1.00 22.96     0.005 C 
BRANCH  22  23
ATOM     23  CD  LYS A 131      26.978  23.823  17.933  1.00 24.33     0.041 C 
BRANCH  23  24
ATOM     24  CE  LYS A 131      25.623  23.224  17.572  1.00 26.91     0.338 C 
ATOM     25  NZ  LYS A 131      24.746  24.252  16.964  1.00 27.40     0.618 N 
ENDBRANCH  23  24
ENDBRANCH  22  23
ENDBRANCH  21  22
ENDBRANCH  20  21
END_RES LYS A 131
