REMARK VINA RESULT:    -4.391      7.485     11.307
REMARK INTER + INTRA:         -10.050
REMARK INTER:                  -4.179
REMARK INTRA:                  -5.870
REMARK UNBOUND:                -4.889
REMARK SMILES Nc1cc(C(=O)O)nc(-c2ccccc2)c1
REMARK SMILES IDX 2 1 3 2 4 3 8 4 9 5 16 6 1 7 5 10 6 11 7 12 10 14 11 15
REMARK SMILES IDX 15 16 12 17 14 18 13 19
REMARK H PARENT 1 8 1 9 7 13
REMARK Flexibility Score: inf
ROOT
ATOM      1  C   UNL     1      28.236  36.686   6.218  1.00  0.00     0.036 A 
ATOM      2  C   UNL     1      27.255  36.505   7.188  1.00  0.00     0.061 A 
ATOM      3  C   UNL     1      26.286  37.446   7.454  1.00  0.00     0.150 A 
ATOM      4  N   UNL     1      26.327  38.574   6.720  1.00  0.00    -0.241 NA
ATOM      5  C   UNL     1      27.250  38.809   5.766  1.00  0.00     0.073 A 
ATOM      6  C   UNL     1      28.209  37.870   5.509  1.00  0.00     0.054 A 
ENDROOT
BRANCH   1   7
ATOM      7  N   UNL     1      29.213  35.686   5.983  1.00  0.00    -0.399 N 
ATOM      8  H   UNL     1      29.081  35.030   5.200  1.00  0.00     0.156 HD
ATOM      9  H   UNL     1      30.038  35.636   6.599  1.00  0.00     0.156 HD
ENDBRANCH   1   7
BRANCH   3  10
ATOM     10  C   UNL     1      25.284  37.209   8.478  1.00  0.00     0.354 C 
ATOM     11  O   UNL     1      25.574  36.616   9.529  1.00  0.00    -0.245 OA
BRANCH  10  12
ATOM     12  O   UNL     1      23.992  37.650   8.279  1.00  0.00    -0.477 OA
ATOM     13  H   UNL     1      23.239  37.277   8.841  1.00  0.00     0.297 HD
ENDBRANCH  10  12
ENDBRANCH   3  10
BRANCH   5  14
ATOM     14  C   UNL     1      27.169  40.093   5.042  1.00  0.00     0.000 A 
ATOM     15  C   UNL     1      25.968  40.774   4.959  1.00  0.00     0.010 A 
ATOM     16  C   UNL     1      28.258  40.667   4.425  1.00  0.00     0.010 A 
ATOM     17  C   UNL     1      25.868  41.970   4.290  1.00  0.00     0.001 A 
ATOM     18  C   UNL     1      28.150  41.885   3.746  1.00  0.00     0.001 A 
ATOM     19  C   UNL     1      26.950  42.555   3.669  1.00  0.00     0.000 A 
ENDBRANCH   5  14
TORSDOF 4
BEGIN_RES LYS A 135
REMARK  4 active torsions:
REMARK  status: ('A' for Active; 'I' for Inactive)
REMARK    1  A    between atoms: CA   and  CB  
REMARK    2  A    between atoms: CB   and  CG  
REMARK    3  A    between atoms: CG   and  CD  
REMARK    4  A    between atoms: CD   and  CE  
ROOT
ATOM      1  CA  LYS A 135      33.193  34.663   9.290  1.00 25.02     0.186 C 
ENDROOT
BRANCH   1   2
ATOM      2  CB  LYS A 135      32.060  35.360  10.034  1.00 26.63     0.034 C 
BRANCH   2   3
ATOM      3  CG  LYS A 135      30.804  35.510   9.215  1.00 29.45     0.005 C 
BRANCH   3   4
ATOM      4  CD  LYS A 135      30.002  34.218   9.221  1.00 32.00     0.041 C 
BRANCH   4   5
ATOM      5  CE  LYS A 135      28.763  34.365  10.084  1.00 34.25     0.338 C 
ATOM      6  NZ  LYS A 135      27.584  33.717   9.444  1.00 35.99     0.618 N 
ENDBRANCH   4   5
ENDBRANCH   3   4
ENDBRANCH   2   3
ENDBRANCH   1   2
END_RES LYS A 135
BEGIN_RES ARG A 124
REMARK  4 active torsions:
REMARK  status: ('A' for Active; 'I' for Inactive)
REMARK    5  A    between atoms: CA   and  CB  
REMARK    6  A    between atoms: CB   and  CG  
REMARK    7  A    between atoms: CG   and  CD  
REMARK    8  A    between atoms: CD   and  NE  
REMARK       I    between atoms: NE   and  CZ  
ROOT
ATOM      7  CA  ARG A 124      31.045  26.515   9.594  1.00 17.84     0.186 C 
ENDROOT
BRANCH   7   8
ATOM      8  CB  ARG A 124      29.529  26.705   9.647  1.00 16.18     0.036 C 
BRANCH   8   9
ATOM      9  CG  ARG A 124      28.906  26.797  11.086  1.00 16.22     0.029 C 
BRANCH   9  10
ATOM     10  CD  ARG A 124      27.522  26.117  11.185  1.00 15.09     0.145 C 
BRANCH  10  11
ATOM     11  NE  ARG A 124      26.407  27.060  11.423  1.00 16.98    -0.083 NA
ATOM     12  CZ  ARG A 124      26.033  27.509  12.616  1.00 18.21     0.782 C 
ATOM     13  NH1 ARG A 124      26.667  27.138  13.723  1.00 21.11     0.063 N 
ATOM     14  NH2 ARG A 124      25.026  28.362  12.715  1.00 21.25     0.063 N 
ENDBRANCH  10  11
ENDBRANCH   9  10
ENDBRANCH   8   9
ENDBRANCH   7   8
END_RES ARG A 124
BEGIN_RES ASN A 133
REMARK  2 active torsions:
REMARK  status: ('A' for Active; 'I' for Inactive)
REMARK    9  A    between atoms: CA   and  CB  
REMARK   10  A    between atoms: CB   and  CG  
ROOT
ATOM     15  CA  ASN A 133      31.225  30.257  11.749  1.00 18.15     0.196 C 
ENDROOT
BRANCH  15  16
ATOM     16  CB  ASN A 133      30.092  31.240  11.460  1.00 18.27     0.126 C 
BRANCH  16  17
ATOM     17  CG  ASN A 133      28.739  30.599  11.460  1.00 18.94     0.276 C 
ATOM     18  OD1 ASN A 133      28.387  29.850  10.547  1.00 18.09    -0.269 OA
ATOM     19  ND2 ASN A 133      27.955  30.893  12.497  1.00 18.93    -0.107 N 
ENDBRANCH  16  17
ENDBRANCH  15  16
END_RES ASN A 133
BEGIN_RES LYS A 131
REMARK  4 active torsions:
REMARK  status: ('A' for Active; 'I' for Inactive)
REMARK   11  A    between atoms: CA   and  CB  
REMARK   12  A    between atoms: CB   and  CG  
REMARK   13  A    between atoms: CG   and  CD  
REMARK   14  A    between atoms: CD   and  CE  
ROOT
ATOM     20  CA  LYS A 131      29.867  25.555  16.977  1.00 20.52     0.186 C 
ENDROOT
BRANCH  20  21
ATOM     21  CB  LYS A 131      28.345  25.722  17.026  1.00 20.94     0.034 C 
BRANCH  21  22
ATOM     22  CG  LYS A 131      27.601  24.405  16.868  1.00 22.96     0.005 C 
BRANCH  22  23
ATOM     23  CD  LYS A 131      26.115  24.572  17.025  1.00 24.33     0.041 C 
BRANCH  23  24
ATOM     24  CE  LYS A 131      25.527  23.320  17.669  1.00 26.91     0.338 C 
ATOM     25  NZ  LYS A 131      25.736  23.344  19.136  1.00 27.40     0.618 N 
ENDBRANCH  23  24
ENDBRANCH  22  23
ENDBRANCH  21  22
ENDBRANCH  20  21
END_RES LYS A 131
