REMARK VINA RESULT:    -3.824      6.330      9.158
REMARK INTER + INTRA:          -9.850
REMARK INTER:                  -4.874
REMARK INTRA:                  -4.976
REMARK UNBOUND:                -5.691
REMARK SMILES NCc1ccc2[nH]ncc2c1
REMARK SMILES IDX 2 1 1 2 3 5 4 6 11 7 5 8 10 9 6 10 9 11 7 12 8 13
REMARK H PARENT 1 3 1 4 7 14
REMARK Flexibility Score: inf
ROOT
ATOM      1  C   UNL     1      28.063  36.439   5.931  1.00  0.00     0.113 C 
ENDROOT
BRANCH   1   2
ATOM      2  N   UNL     1      27.387  37.420   5.104  1.00  0.00    -0.326 NA
ATOM      3  H   UNL     1      26.431  37.650   5.453  1.00  0.00     0.119 HD
ATOM      4  H   UNL     1      27.978  38.273   4.975  1.00  0.00     0.119 HD
ENDBRANCH   1   2
BRANCH   1   5
ATOM      5  C   UNL     1      27.175  36.098   7.078  1.00  0.00    -0.034 A 
ATOM      6  C   UNL     1      27.350  34.924   7.792  1.00  0.00     0.007 A 
ATOM      7  C   UNL     1      26.160  36.963   7.434  1.00  0.00     0.017 A 
ATOM      8  C   UNL     1      26.540  34.591   8.854  1.00  0.00     0.028 A 
ATOM      9  C   UNL     1      25.352  36.618   8.503  1.00  0.00     0.020 A 
ATOM     10  C   UNL     1      25.515  35.452   9.224  1.00  0.00     0.065 A 
ATOM     11  C   UNL     1      24.263  37.246   9.115  1.00  0.00     0.143 A 
ATOM     12  N   UNL     1      24.587  35.376  10.209  1.00  0.00    -0.278 N 
ATOM     13  N   UNL     1      23.846  36.470  10.120  1.00  0.00    -0.183 NA
ATOM     14  H   UNL     1      24.512  34.581  10.886  1.00  0.00     0.190 HD
ENDBRANCH   1   5
TORSDOF 2
BEGIN_RES LYS A 135
REMARK  4 active torsions:
REMARK  status: ('A' for Active; 'I' for Inactive)
REMARK    1  A    between atoms: CA   and  CB  
REMARK    2  A    between atoms: CB   and  CG  
REMARK    3  A    between atoms: CG   and  CD  
REMARK    4  A    between atoms: CD   and  CE  
ROOT
ATOM      1  CA  LYS A 135      33.193  34.663   9.290  1.00 25.02     0.186 C 
ENDROOT
BRANCH   1   2
ATOM      2  CB  LYS A 135      32.060  35.360  10.034  1.00 26.63     0.034 C 
BRANCH   2   3
ATOM      3  CG  LYS A 135      30.776  35.430   9.248  1.00 29.45     0.005 C 
BRANCH   3   4
ATOM      4  CD  LYS A 135      30.038  36.727   9.541  1.00 32.00     0.041 C 
BRANCH   4   5
ATOM      5  CE  LYS A 135      31.007  37.893   9.590  1.00 34.25     0.338 C 
ATOM      6  NZ  LYS A 135      31.035  38.622   8.292  1.00 35.99     0.618 N 
ENDBRANCH   4   5
ENDBRANCH   3   4
ENDBRANCH   2   3
ENDBRANCH   1   2
END_RES LYS A 135
BEGIN_RES ARG A 124
REMARK  4 active torsions:
REMARK  status: ('A' for Active; 'I' for Inactive)
REMARK    5  A    between atoms: CA   and  CB  
REMARK    6  A    between atoms: CB   and  CG  
REMARK    7  A    between atoms: CG   and  CD  
REMARK    8  A    between atoms: CD   and  NE  
REMARK       I    between atoms: NE   and  CZ  
ROOT
ATOM      7  CA  ARG A 124      31.045  26.515   9.594  1.00 17.84     0.186 C 
ENDROOT
BRANCH   7   8
ATOM      8  CB  ARG A 124      29.529  26.705   9.647  1.00 16.18     0.036 C 
BRANCH   8   9
ATOM      9  CG  ARG A 124      28.899  26.741  11.085  1.00 16.22     0.029 C 
BRANCH   9  10
ATOM     10  CD  ARG A 124      27.497  26.091  11.143  1.00 15.09     0.145 C 
BRANCH  10  11
ATOM     11  NE  ARG A 124      26.403  27.053  11.400  1.00 16.98    -0.083 NA
ATOM     12  CZ  ARG A 124      26.047  27.496  12.601  1.00 18.21     0.782 C 
ATOM     13  NH1 ARG A 124      26.682  27.102  13.698  1.00 21.11     0.063 N 
ATOM     14  NH2 ARG A 124      25.057  28.367  12.717  1.00 21.25     0.063 N 
ENDBRANCH  10  11
ENDBRANCH   9  10
ENDBRANCH   8   9
ENDBRANCH   7   8
END_RES ARG A 124
BEGIN_RES ASN A 133
REMARK  2 active torsions:
REMARK  status: ('A' for Active; 'I' for Inactive)
REMARK    9  A    between atoms: CA   and  CB  
REMARK   10  A    between atoms: CB   and  CG  
ROOT
ATOM     15  CA  ASN A 133      31.225  30.257  11.749  1.00 18.15     0.196 C 
ENDROOT
BRANCH  15  16
ATOM     16  CB  ASN A 133      30.092  31.240  11.460  1.00 18.27     0.126 C 
BRANCH  16  17
ATOM     17  CG  ASN A 133      28.734  30.613  11.524  1.00 18.94     0.276 C 
ATOM     18  OD1 ASN A 133      28.358  29.815  10.664  1.00 18.09    -0.269 OA
ATOM     19  ND2 ASN A 133      27.974  30.974  12.558  1.00 18.93    -0.107 N 
ENDBRANCH  16  17
ENDBRANCH  15  16
END_RES ASN A 133
BEGIN_RES LYS A 131
REMARK  4 active torsions:
REMARK  status: ('A' for Active; 'I' for Inactive)
REMARK   11  A    between atoms: CA   and  CB  
REMARK   12  A    between atoms: CB   and  CG  
REMARK   13  A    between atoms: CG   and  CD  
REMARK   14  A    between atoms: CD   and  CE  
ROOT
ATOM     20  CA  LYS A 131      29.867  25.555  16.977  1.00 20.52     0.186 C 
ENDROOT
BRANCH  20  21
ATOM     21  CB  LYS A 131      28.345  25.722  17.026  1.00 20.94     0.034 C 
BRANCH  21  22
ATOM     22  CG  LYS A 131      27.599  24.426  16.748  1.00 22.96     0.005 C 
BRANCH  22  23
ATOM     23  CD  LYS A 131      26.849  23.934  17.955  1.00 24.33     0.041 C 
BRANCH  23  24
ATOM     24  CE  LYS A 131      25.388  23.700  17.586  1.00 26.91     0.338 C 
ATOM     25  NZ  LYS A 131      25.078  22.251  17.587  1.00 27.40     0.618 N 
ENDBRANCH  23  24
ENDBRANCH  22  23
ENDBRANCH  21  22
ENDBRANCH  20  21
END_RES LYS A 131
