REMARK VINA RESULT:    -3.428      5.958      8.719
REMARK INTER + INTRA:          -9.724
REMARK INTER:                  -4.061
REMARK INTRA:                  -5.663
REMARK UNBOUND:                -5.594
REMARK SMILES CCOC(=O)c1cccc(N)c1
REMARK SMILES IDX 4 1 5 2 3 3 2 4 1 5 6 6 7 7 12 8 8 9 10 10 9 11 11 12
REMARK H PARENT 11 13 11 14
REMARK Flexibility Score: inf
ROOT
ATOM      1  C   UNL     1      40.341  34.816  13.480  1.00  0.00     0.338 C 
ATOM      2  O   UNL     1      41.381  34.226  13.864  1.00  0.00    -0.246 OA
ENDROOT
BRANCH   1   3
ATOM      3  O   UNL     1      39.139  34.378  13.995  1.00  0.00    -0.462 OA
BRANCH   3   4
ATOM      4  C   UNL     1      38.014  34.038  13.248  1.00  0.00     0.230 C 
ATOM      5  C   UNL     1      38.142  32.698  12.560  1.00  0.00     0.049 C 
ENDBRANCH   3   4
ENDBRANCH   1   3
BRANCH   1   6
ATOM      6  C   UNL     1      40.455  35.911  12.532  1.00  0.00     0.062 A 
ATOM      7  C   UNL     1      40.183  37.195  12.948  1.00  0.00     0.016 A 
ATOM      8  C   UNL     1      40.827  35.738  11.220  1.00  0.00     0.041 A 
ATOM      9  C   UNL     1      40.272  38.285  12.101  1.00  0.00     0.003 A 
ATOM     10  C   UNL     1      40.922  36.812  10.360  1.00  0.00     0.032 A 
ATOM     11  C   UNL     1      40.644  38.089  10.799  1.00  0.00     0.025 A 
BRANCH  10  12
ATOM     12  N   UNL     1      41.304  36.657   9.001  1.00  0.00    -0.399 N 
ATOM     13  H   UNL     1      40.749  37.013   8.204  1.00  0.00     0.156 HD
ATOM     14  H   UNL     1      42.196  36.155   8.756  1.00  0.00     0.156 HD
ENDBRANCH  10  12
ENDBRANCH   1   6
TORSDOF 4
BEGIN_RES LYS A 135
REMARK  4 active torsions:
REMARK  status: ('A' for Active; 'I' for Inactive)
REMARK    1  A    between atoms: CA   and  CB  
REMARK    2  A    between atoms: CB   and  CG  
REMARK    3  A    between atoms: CG   and  CD  
REMARK    4  A    between atoms: CD   and  CE  
ROOT
ATOM      1  CA  LYS A 135      33.193  34.663   9.290  1.00 25.02     0.186 C 
ENDROOT
BRANCH   1   2
ATOM      2  CB  LYS A 135      32.060  35.360  10.034  1.00 26.63     0.034 C 
BRANCH   2   3
ATOM      3  CG  LYS A 135      30.696  34.811   9.705  1.00 29.45     0.005 C 
BRANCH   3   4
ATOM      4  CD  LYS A 135      30.573  34.535   8.214  1.00 32.00     0.041 C 
BRANCH   4   5
ATOM      5  CE  LYS A 135      29.192  34.912   7.715  1.00 34.25     0.338 C 
ATOM      6  NZ  LYS A 135      28.134  34.426   8.643  1.00 35.99     0.618 N 
ENDBRANCH   4   5
ENDBRANCH   3   4
ENDBRANCH   2   3
ENDBRANCH   1   2
END_RES LYS A 135
BEGIN_RES ARG A 124
REMARK  4 active torsions:
REMARK  status: ('A' for Active; 'I' for Inactive)
REMARK    5  A    between atoms: CA   and  CB  
REMARK    6  A    between atoms: CB   and  CG  
REMARK    7  A    between atoms: CG   and  CD  
REMARK    8  A    between atoms: CD   and  NE  
REMARK       I    between atoms: NE   and  CZ  
ROOT
ATOM      7  CA  ARG A 124      31.045  26.515   9.594  1.00 17.84     0.186 C 
ENDROOT
BRANCH   7   8
ATOM      8  CB  ARG A 124      29.529  26.705   9.647  1.00 16.18     0.036 C 
BRANCH   8   9
ATOM      9  CG  ARG A 124      28.968  27.322  10.978  1.00 16.22     0.029 C 
BRANCH   9  10
ATOM     10  CD  ARG A 124      27.908  26.424  11.656  1.00 15.09     0.145 C 
BRANCH  10  11
ATOM     11  NE  ARG A 124      26.546  27.000  11.652  1.00 16.98    -0.083 NA
ATOM     12  CZ  ARG A 124      25.898  27.427  12.731  1.00 18.21     0.782 C 
ATOM     13  NH1 ARG A 124      26.455  27.377  13.935  1.00 21.11     0.063 N 
ATOM     14  NH2 ARG A 124      24.682  27.937  12.613  1.00 21.25     0.063 N 
ENDBRANCH  10  11
ENDBRANCH   9  10
ENDBRANCH   8   9
ENDBRANCH   7   8
END_RES ARG A 124
BEGIN_RES ASN A 133
REMARK  2 active torsions:
REMARK  status: ('A' for Active; 'I' for Inactive)
REMARK    9  A    between atoms: CA   and  CB  
REMARK   10  A    between atoms: CB   and  CG  
ROOT
ATOM     15  CA  ASN A 133      31.225  30.257  11.749  1.00 18.15     0.196 C 
ENDROOT
BRANCH  15  16
ATOM     16  CB  ASN A 133      30.092  31.240  11.460  1.00 18.27     0.126 C 
BRANCH  16  17
ATOM     17  CG  ASN A 133      28.923  31.084  12.383  1.00 18.94     0.276 C 
ATOM     18  OD1 ASN A 133      28.041  30.252  12.161  1.00 18.09    -0.269 OA
ATOM     19  ND2 ASN A 133      28.904  31.894  13.441  1.00 18.93    -0.107 N 
ENDBRANCH  16  17
ENDBRANCH  15  16
END_RES ASN A 133
BEGIN_RES LYS A 131
REMARK  4 active torsions:
REMARK  status: ('A' for Active; 'I' for Inactive)
REMARK   11  A    between atoms: CA   and  CB  
REMARK   12  A    between atoms: CB   and  CG  
REMARK   13  A    between atoms: CG   and  CD  
REMARK   14  A    between atoms: CD   and  CE  
ROOT
ATOM     20  CA  LYS A 131      29.867  25.555  16.977  1.00 20.52     0.186 C 
ENDROOT
BRANCH  20  21
ATOM     21  CB  LYS A 131      28.345  25.722  17.026  1.00 20.94     0.034 C 
BRANCH  21  22
ATOM     22  CG  LYS A 131      27.600  24.416  16.799  1.00 22.96     0.005 C 
BRANCH  22  23
ATOM     23  CD  LYS A 131      26.834  23.981  18.018  1.00 24.33     0.041 C 
BRANCH  23  24
ATOM     24  CE  LYS A 131      25.636  23.138  17.593  1.00 26.91     0.338 C 
ATOM     25  NZ  LYS A 131      24.933  22.599  18.781  1.00 27.40     0.618 N 
ENDBRANCH  23  24
ENDBRANCH  22  23
ENDBRANCH  21  22
ENDBRANCH  20  21
END_RES LYS A 131
