REMARK VINA RESULT:    -3.532      4.550      6.475
REMARK INTER + INTRA:          -9.029
REMARK INTER:                  -3.169
REMARK INTRA:                  -5.860
REMARK UNBOUND:                -5.085
REMARK SMILES CC(C)(N)C(=O)O
REMARK SMILES IDX 1 1 2 2 3 3 4 4 5 7 6 8 7 9
REMARK H PARENT 4 5 4 6 7 10
REMARK Flexibility Score: inf
ROOT
ATOM      1  C   UNL     1      32.188  27.416  22.310  1.00  0.00     0.040 C 
ATOM      2  C   UNL     1      31.443  27.799  21.047  1.00  0.00     0.109 C 
ATOM      3  C   UNL     1      31.464  29.324  20.871  1.00  0.00     0.040 C 
ENDROOT
BRANCH   2   4
ATOM      4  N   UNL     1      32.080  27.258  19.859  1.00  0.00    -0.316 NA
ATOM      5  H   UNL     1      33.006  27.664  19.675  1.00  0.00     0.119 HD
ATOM      6  H   UNL     1      32.049  26.234  19.932  1.00  0.00     0.119 HD
ENDBRANCH   2   4
BRANCH   2   7
ATOM      7  C   UNL     1      30.042  27.316  21.178  1.00  0.00     0.323 C 
ATOM      8  O   UNL     1      29.528  27.241  22.319  1.00  0.00    -0.250 OA
BRANCH   7   9
ATOM      9  O   UNL     1      29.266  26.943  20.092  1.00  0.00    -0.480 OA
ATOM     10  H   UNL     1      29.251  25.954  19.808  1.00  0.00     0.296 HD
ENDBRANCH   7   9
ENDBRANCH   2   7
TORSDOF 3
BEGIN_RES LYS A 135
REMARK  4 active torsions:
REMARK  status: ('A' for Active; 'I' for Inactive)
REMARK    1  A    between atoms: CA   and  CB  
REMARK    2  A    between atoms: CB   and  CG  
REMARK    3  A    between atoms: CG   and  CD  
REMARK    4  A    between atoms: CD   and  CE  
ROOT
ATOM      1  CA  LYS A 135      33.193  34.663   9.290  1.00 25.02     0.186 C 
ENDROOT
BRANCH   1   2
ATOM      2  CB  LYS A 135      32.060  35.360  10.034  1.00 26.63     0.034 C 
BRANCH   2   3
ATOM      3  CG  LYS A 135      30.694  34.822   9.692  1.00 29.45     0.005 C 
BRANCH   3   4
ATOM      4  CD  LYS A 135      30.582  34.551   8.200  1.00 32.00     0.041 C 
BRANCH   4   5
ATOM      5  CE  LYS A 135      29.232  35.001   7.676  1.00 34.25     0.338 C 
ATOM      6  NZ  LYS A 135      28.127  34.488   8.532  1.00 35.99     0.618 N 
ENDBRANCH   4   5
ENDBRANCH   3   4
ENDBRANCH   2   3
ENDBRANCH   1   2
END_RES LYS A 135
BEGIN_RES ARG A 124
REMARK  4 active torsions:
REMARK  status: ('A' for Active; 'I' for Inactive)
REMARK    5  A    between atoms: CA   and  CB  
REMARK    6  A    between atoms: CB   and  CG  
REMARK    7  A    between atoms: CG   and  CD  
REMARK    8  A    between atoms: CD   and  NE  
REMARK       I    between atoms: NE   and  CZ  
ROOT
ATOM      7  CA  ARG A 124      31.045  26.515   9.594  1.00 17.84     0.186 C 
ENDROOT
BRANCH   7   8
ATOM      8  CB  ARG A 124      29.529  26.705   9.647  1.00 16.18     0.036 C 
BRANCH   8   9
ATOM      9  CG  ARG A 124      28.910  26.830  11.085  1.00 16.22     0.029 C 
BRANCH   9  10
ATOM     10  CD  ARG A 124      27.562  26.087  11.225  1.00 15.09     0.145 C 
BRANCH  10  11
ATOM     11  NE  ARG A 124      26.403  26.983  11.426  1.00 16.98    -0.083 NA
ATOM     12  CZ  ARG A 124      26.002  27.455  12.602  1.00 18.21     0.782 C 
ATOM     13  NH1 ARG A 124      26.647  27.154  13.723  1.00 21.11     0.063 N 
ATOM     14  NH2 ARG A 124      24.954  28.262  12.668  1.00 21.25     0.063 N 
ENDBRANCH  10  11
ENDBRANCH   9  10
ENDBRANCH   8   9
ENDBRANCH   7   8
END_RES ARG A 124
BEGIN_RES ASN A 133
REMARK  2 active torsions:
REMARK  status: ('A' for Active; 'I' for Inactive)
REMARK    9  A    between atoms: CA   and  CB  
REMARK   10  A    between atoms: CB   and  CG  
ROOT
ATOM     15  CA  ASN A 133      31.225  30.257  11.749  1.00 18.15     0.196 C 
ENDROOT
BRANCH  15  16
ATOM     16  CB  ASN A 133      30.092  31.240  11.460  1.00 18.27     0.126 C 
BRANCH  16  17
ATOM     17  CG  ASN A 133      28.734  30.612  11.519  1.00 18.94     0.276 C 
ATOM     18  OD1 ASN A 133      28.350  29.838  10.640  1.00 18.09    -0.269 OA
ATOM     19  ND2 ASN A 133      27.984  30.943  12.569  1.00 18.93    -0.107 N 
ENDBRANCH  16  17
ENDBRANCH  15  16
END_RES ASN A 133
BEGIN_RES LYS A 131
REMARK  4 active torsions:
REMARK  status: ('A' for Active; 'I' for Inactive)
REMARK   11  A    between atoms: CA   and  CB  
REMARK   12  A    between atoms: CB   and  CG  
REMARK   13  A    between atoms: CG   and  CD  
REMARK   14  A    between atoms: CD   and  CE  
ROOT
ATOM     20  CA  LYS A 131      29.867  25.555  16.977  1.00 20.52     0.186 C 
ENDROOT
BRANCH  20  21
ATOM     21  CB  LYS A 131      28.345  25.722  17.026  1.00 20.94     0.034 C 
BRANCH  21  22
ATOM     22  CG  LYS A 131      27.600  24.414  16.808  1.00 22.96     0.005 C 
BRANCH  22  23
ATOM     23  CD  LYS A 131      26.774  24.027  18.003  1.00 24.33     0.041 C 
BRANCH  23  24
ATOM     24  CE  LYS A 131      25.728  22.997  17.587  1.00 26.91     0.338 C 
ATOM     25  NZ  LYS A 131      24.503  23.671  17.095  1.00 27.40     0.618 N 
ENDBRANCH  23  24
ENDBRANCH  22  23
ENDBRANCH  21  22
ENDBRANCH  20  21
END_RES LYS A 131
