REMARK VINA RESULT:    -3.737      1.627      2.252
REMARK INTER + INTRA:          -9.389
REMARK INTER:                  -5.261
REMARK INTRA:                  -4.129
REMARK UNBOUND:                -5.325
REMARK SMILES CC1(C)C2CC=C(CN)C1C2
REMARK SMILES IDX 8 1 7 2 1 3 2 4 3 5 10 6 4 7 11 8 5 9 6 10 9 11
REMARK H PARENT 9 12 9 13
REMARK Flexibility Score: inf
ROOT
ATOM      1  C   UNL     1      28.095  36.210   5.571  1.00  0.00     0.109 C 
ENDROOT
BRANCH   1   2
ATOM      2  C   UNL     1      28.273  36.228   7.050  1.00  0.00    -0.057 C 
ATOM      3  C   UNL     1      27.978  33.569   9.735  1.00  0.00     0.012 C 
ATOM      4  C   UNL     1      28.624  34.715   8.990  1.00  0.00    -0.026 C 
ATOM      5  C   UNL     1      29.999  34.453   8.511  1.00  0.00     0.012 C 
ATOM      6  C   UNL     1      27.638  35.229   7.939  1.00  0.00     0.022 C 
ATOM      7  C   UNL     1      28.394  36.022   9.711  1.00  0.00    -0.000 C 
ATOM      8  C   UNL     1      27.002  36.023   9.089  1.00  0.00     0.013 C 
ATOM      9  C   UNL     1      29.160  37.161   9.099  1.00  0.00     0.031 C 
ATOM     10  C   UNL     1      29.021  37.156   7.630  1.00  0.00    -0.026 C 
ENDBRANCH   1   2
BRANCH   1  11
ATOM     11  N   UNL     1      27.250  37.339   5.218  1.00  0.00    -0.327 NA
ATOM     12  H   UNL     1      26.245  37.065   5.285  1.00  0.00     0.119 HD
ATOM     13  H   UNL     1      27.538  37.719   4.311  1.00  0.00     0.119 HD
ENDBRANCH   1  11
TORSDOF 2
BEGIN_RES LYS A 135
REMARK  4 active torsions:
REMARK  status: ('A' for Active; 'I' for Inactive)
REMARK    1  A    between atoms: CA   and  CB  
REMARK    2  A    between atoms: CB   and  CG  
REMARK    3  A    between atoms: CG   and  CD  
REMARK    4  A    between atoms: CD   and  CE  
ROOT
ATOM      1  CA  LYS A 135      33.193  34.663   9.290  1.00 25.02     0.186 C 
ENDROOT
BRANCH   1   2
ATOM      2  CB  LYS A 135      32.060  35.360  10.034  1.00 26.63     0.034 C 
BRANCH   2   3
ATOM      3  CG  LYS A 135      32.529  36.204  11.191  1.00 29.45     0.005 C 
BRANCH   3   4
ATOM      4  CD  LYS A 135      31.799  35.817  12.468  1.00 32.00     0.041 C 
BRANCH   4   5
ATOM      5  CE  LYS A 135      30.765  34.743  12.186  1.00 34.25     0.338 C 
ATOM      6  NZ  LYS A 135      29.551  34.934  13.026  1.00 35.99     0.618 N 
ENDBRANCH   4   5
ENDBRANCH   3   4
ENDBRANCH   2   3
ENDBRANCH   1   2
END_RES LYS A 135
BEGIN_RES ARG A 124
REMARK  4 active torsions:
REMARK  status: ('A' for Active; 'I' for Inactive)
REMARK    5  A    between atoms: CA   and  CB  
REMARK    6  A    between atoms: CB   and  CG  
REMARK    7  A    between atoms: CG   and  CD  
REMARK    8  A    between atoms: CD   and  NE  
REMARK       I    between atoms: NE   and  CZ  
ROOT
ATOM      7  CA  ARG A 124      31.045  26.515   9.594  1.00 17.84     0.186 C 
ENDROOT
BRANCH   7   8
ATOM      8  CB  ARG A 124      29.529  26.705   9.647  1.00 16.18     0.036 C 
BRANCH   8   9
ATOM      9  CG  ARG A 124      28.766  25.793  10.673  1.00 16.22     0.029 C 
BRANCH   9  10
ATOM     10  CD  ARG A 124      27.511  26.475  11.265  1.00 15.09     0.145 C 
BRANCH  10  11
ATOM     11  NE  ARG A 124      27.674  26.910  12.670  1.00 16.98    -0.083 NA
ATOM     12  CZ  ARG A 124      26.861  27.749  13.304  1.00 18.21     0.782 C 
ATOM     13  NH1 ARG A 124      25.797  28.267  12.703  1.00 21.11     0.063 N 
ATOM     14  NH2 ARG A 124      27.093  28.063  14.569  1.00 21.25     0.063 N 
ENDBRANCH  10  11
ENDBRANCH   9  10
ENDBRANCH   8   9
ENDBRANCH   7   8
END_RES ARG A 124
BEGIN_RES ASN A 133
REMARK  2 active torsions:
REMARK  status: ('A' for Active; 'I' for Inactive)
REMARK    9  A    between atoms: CA   and  CB  
REMARK   10  A    between atoms: CB   and  CG  
ROOT
ATOM     15  CA  ASN A 133      31.225  30.257  11.749  1.00 18.15     0.196 C 
ENDROOT
BRANCH  15  16
ATOM     16  CB  ASN A 133      30.092  31.240  11.460  1.00 18.27     0.126 C 
BRANCH  16  17
ATOM     17  CG  ASN A 133      28.733  30.614  11.531  1.00 18.94     0.276 C 
ATOM     18  OD1 ASN A 133      28.398  29.725  10.747  1.00 18.09    -0.269 OA
ATOM     19  ND2 ASN A 133      27.927  31.080  12.484  1.00 18.93    -0.107 N 
ENDBRANCH  16  17
ENDBRANCH  15  16
END_RES ASN A 133
BEGIN_RES LYS A 131
REMARK  4 active torsions:
REMARK  status: ('A' for Active; 'I' for Inactive)
REMARK   11  A    between atoms: CA   and  CB  
REMARK   12  A    between atoms: CB   and  CG  
REMARK   13  A    between atoms: CG   and  CD  
REMARK   14  A    between atoms: CD   and  CE  
ROOT
ATOM     20  CA  LYS A 131      29.867  25.555  16.977  1.00 20.52     0.186 C 
ENDROOT
BRANCH  20  21
ATOM     21  CB  LYS A 131      28.345  25.722  17.026  1.00 20.94     0.034 C 
BRANCH  21  22
ATOM     22  CG  LYS A 131      27.599  24.422  16.767  1.00 22.96     0.005 C 
BRANCH  22  23
ATOM     23  CD  LYS A 131      26.836  23.956  17.975  1.00 24.33     0.041 C 
BRANCH  23  24
ATOM     24  CE  LYS A 131      25.579  23.216  17.529  1.00 26.91     0.338 C 
ATOM     25  NZ  LYS A 131      24.602  24.162  16.939  1.00 27.40     0.618 N 
ENDBRANCH  23  24
ENDBRANCH  22  23
ENDBRANCH  21  22
ENDBRANCH  20  21
END_RES LYS A 131
