REMARK VINA RESULT:    -2.311      1.618      1.761
REMARK INTER + INTRA:          -9.328
REMARK INTER:                  -3.475
REMARK INTRA:                  -5.854
REMARK UNBOUND:                -6.207
REMARK SMILES NCCCCCC(=O)O
REMARK SMILES IDX 4 1 3 2 2 3 1 4 5 7 6 8 7 9 8 10 9 11
REMARK H PARENT 1 5 1 6 9 12
REMARK Flexibility Score: inf
ROOT
ATOM      1  C   UNL     1      25.353  17.191  15.407  1.00  0.00     0.002 C 
ENDROOT
BRANCH   1   2
ATOM      2  C   UNL     1      24.480  18.346  14.996  1.00  0.00     0.015 C 
BRANCH   2   3
ATOM      3  C   UNL     1      24.391  18.487  13.492  1.00  0.00     0.077 C 
BRANCH   3   4
ATOM      4  N   UNL     1      25.612  19.147  13.064  1.00  0.00    -0.330 NA
ATOM      5  H   UNL     1      26.353  18.906  13.764  1.00  0.00     0.118 HD
ATOM      6  H   UNL     1      25.426  20.173  13.086  1.00  0.00     0.118 HD
ENDBRANCH   3   4
ENDBRANCH   2   3
ENDBRANCH   1   2
BRANCH   1   7
ATOM      7  C   UNL     1      26.550  17.625  16.228  1.00  0.00     0.012 C 
BRANCH   7   8
ATOM      8  C   UNL     1      26.512  16.764  17.494  1.00  0.00     0.122 C 
BRANCH   8   9
ATOM      9  C   UNL     1      25.473  17.196  18.424  1.00  0.00     0.303 C 
ATOM     10  O   UNL     1      24.727  16.403  19.048  1.00  0.00    -0.252 OA
BRANCH   9  11
ATOM     11  O   UNL     1      25.299  18.568  18.631  1.00  0.00    -0.481 OA
ATOM     12  H   UNL     1      25.008  19.194  17.892  1.00  0.00     0.296 HD
ENDBRANCH   9  11
ENDBRANCH   8   9
ENDBRANCH   7   8
ENDBRANCH   1   7
TORSDOF 7
BEGIN_RES LYS A 135
REMARK  4 active torsions:
REMARK  status: ('A' for Active; 'I' for Inactive)
REMARK    1  A    between atoms: CA   and  CB  
REMARK    2  A    between atoms: CB   and  CG  
REMARK    3  A    between atoms: CG   and  CD  
REMARK    4  A    between atoms: CD   and  CE  
ROOT
ATOM      1  CA  LYS A 135      33.193  34.663   9.290  1.00 25.02     0.186 C 
ENDROOT
BRANCH   1   2
ATOM      2  CB  LYS A 135      32.060  35.360  10.034  1.00 26.63     0.034 C 
BRANCH   2   3
ATOM      3  CG  LYS A 135      30.695  34.813   9.702  1.00 29.45     0.005 C 
BRANCH   3   4
ATOM      4  CD  LYS A 135      30.593  34.489   8.220  1.00 32.00     0.041 C 
BRANCH   4   5
ATOM      5  CE  LYS A 135      29.318  35.067   7.635  1.00 34.25     0.338 C 
ATOM      6  NZ  LYS A 135      29.253  36.541   7.843  1.00 35.99     0.618 N 
ENDBRANCH   4   5
ENDBRANCH   3   4
ENDBRANCH   2   3
ENDBRANCH   1   2
END_RES LYS A 135
BEGIN_RES ARG A 124
REMARK  4 active torsions:
REMARK  status: ('A' for Active; 'I' for Inactive)
REMARK    5  A    between atoms: CA   and  CB  
REMARK    6  A    between atoms: CB   and  CG  
REMARK    7  A    between atoms: CG   and  CD  
REMARK    8  A    between atoms: CD   and  NE  
REMARK       I    between atoms: NE   and  CZ  
ROOT
ATOM      7  CA  ARG A 124      31.045  26.515   9.594  1.00 17.84     0.186 C 
ENDROOT
BRANCH   7   8
ATOM      8  CB  ARG A 124      29.529  26.705   9.647  1.00 16.18     0.036 C 
BRANCH   8   9
ATOM      9  CG  ARG A 124      28.907  26.802  11.086  1.00 16.22     0.029 C 
BRANCH   9  10
ATOM     10  CD  ARG A 124      27.538  26.092  11.197  1.00 15.09     0.145 C 
BRANCH  10  11
ATOM     11  NE  ARG A 124      26.402  27.014  11.418  1.00 16.98    -0.083 NA
ATOM     12  CZ  ARG A 124      26.015  27.473  12.603  1.00 18.21     0.782 C 
ATOM     13  NH1 ARG A 124      26.653  27.133  13.716  1.00 21.11     0.063 N 
ATOM     14  NH2 ARG A 124      24.989  28.305  12.686  1.00 21.25     0.063 N 
ENDBRANCH  10  11
ENDBRANCH   9  10
ENDBRANCH   8   9
ENDBRANCH   7   8
END_RES ARG A 124
BEGIN_RES ASN A 133
REMARK  2 active torsions:
REMARK  status: ('A' for Active; 'I' for Inactive)
REMARK    9  A    between atoms: CA   and  CB  
REMARK   10  A    between atoms: CB   and  CG  
ROOT
ATOM     15  CA  ASN A 133      31.225  30.257  11.749  1.00 18.15     0.196 C 
ENDROOT
BRANCH  15  16
ATOM     16  CB  ASN A 133      30.092  31.240  11.460  1.00 18.27     0.126 C 
BRANCH  16  17
ATOM     17  CG  ASN A 133      28.741  30.596  11.439  1.00 18.94     0.276 C 
ATOM     18  OD1 ASN A 133      28.410  29.837  10.526  1.00 18.09    -0.269 OA
ATOM     19  ND2 ASN A 133      27.935  30.896  12.457  1.00 18.93    -0.107 N 
ENDBRANCH  16  17
ENDBRANCH  15  16
END_RES ASN A 133
BEGIN_RES LYS A 131
REMARK  4 active torsions:
REMARK  status: ('A' for Active; 'I' for Inactive)
REMARK   11  A    between atoms: CA   and  CB  
REMARK   12  A    between atoms: CB   and  CG  
REMARK   13  A    between atoms: CG   and  CD  
REMARK   14  A    between atoms: CD   and  CE  
ROOT
ATOM     20  CA  LYS A 131      29.867  25.555  16.977  1.00 20.52     0.186 C 
ENDROOT
BRANCH  20  21
ATOM     21  CB  LYS A 131      28.345  25.722  17.026  1.00 20.94     0.034 C 
BRANCH  21  22
ATOM     22  CG  LYS A 131      27.601  24.406  16.861  1.00 22.96     0.005 C 
BRANCH  22  23
ATOM     23  CD  LYS A 131      26.133  24.545  17.156  1.00 24.33     0.041 C 
BRANCH  23  24
ATOM     24  CE  LYS A 131      25.927  24.681  18.661  1.00 26.91     0.338 C 
ATOM     25  NZ  LYS A 131      25.655  23.357  19.269  1.00 27.40     0.618 N 
ENDBRANCH  23  24
ENDBRANCH  22  23
ENDBRANCH  21  22
ENDBRANCH  20  21
END_RES LYS A 131
