REMARK VINA RESULT:    -2.515      2.183      3.192
REMARK INTER + INTRA:          -7.947
REMARK INTER:                  -2.589
REMARK INTRA:                  -5.358
REMARK UNBOUND:                -5.358
REMARK SMILES Nc1ccccc1
REMARK SMILES IDX 3 1 4 2 5 3 6 4 7 5 2 6 1 7
REMARK H PARENT 1 8 1 9
REMARK Flexibility Score: inf
ROOT
ATOM      1  C   UNL     1      29.812  38.249   9.193  1.00  0.00     0.025 A 
ATOM      2  C   UNL     1      29.190  38.033  10.405  1.00  0.00     0.002 A 
ATOM      3  C   UNL     1      29.922  37.939  11.566  1.00  0.00     0.000 A 
ATOM      4  C   UNL     1      31.301  38.065  11.478  1.00  0.00     0.002 A 
ATOM      5  C   UNL     1      31.922  38.280  10.270  1.00  0.00     0.025 A 
ATOM      6  C   UNL     1      31.190  38.377   9.096  1.00  0.00     0.031 A 
ENDROOT
BRANCH   6   7
ATOM      7  N   UNL     1      31.838  38.599   7.851  1.00  0.00    -0.399 N 
ATOM      8  H   UNL     1      31.344  38.774   6.953  1.00  0.00     0.156 HD
ATOM      9  H   UNL     1      32.881  38.587   7.823  1.00  0.00     0.156 HD
ENDBRANCH   6   7
TORSDOF 1
BEGIN_RES LYS A 135
REMARK  4 active torsions:
REMARK  status: ('A' for Active; 'I' for Inactive)
REMARK    1  A    between atoms: CA   and  CB  
REMARK    2  A    between atoms: CB   and  CG  
REMARK    3  A    between atoms: CG   and  CD  
REMARK    4  A    between atoms: CD   and  CE  
ROOT
ATOM      1  CA  LYS A 135      33.193  34.663   9.290  1.00 25.02     0.186 C 
ENDROOT
BRANCH   1   2
ATOM      2  CB  LYS A 135      32.060  35.360  10.034  1.00 26.63     0.034 C 
BRANCH   2   3
ATOM      3  CG  LYS A 135      30.723  34.686   9.863  1.00 29.45     0.005 C 
BRANCH   3   4
ATOM      4  CD  LYS A 135      30.362  34.576   8.390  1.00 32.00     0.041 C 
BRANCH   4   5
ATOM      5  CE  LYS A 135      28.857  34.611   8.206  1.00 34.25     0.338 C 
ATOM      6  NZ  LYS A 135      28.164  33.907   9.321  1.00 35.99     0.618 N 
ENDBRANCH   4   5
ENDBRANCH   3   4
ENDBRANCH   2   3
ENDBRANCH   1   2
END_RES LYS A 135
BEGIN_RES ARG A 124
REMARK  4 active torsions:
REMARK  status: ('A' for Active; 'I' for Inactive)
REMARK    5  A    between atoms: CA   and  CB  
REMARK    6  A    between atoms: CB   and  CG  
REMARK    7  A    between atoms: CG   and  CD  
REMARK    8  A    between atoms: CD   and  NE  
REMARK       I    between atoms: NE   and  CZ  
ROOT
ATOM      7  CA  ARG A 124      31.045  26.515   9.594  1.00 17.84     0.186 C 
ENDROOT
BRANCH   7   8
ATOM      8  CB  ARG A 124      29.529  26.705   9.647  1.00 16.18     0.036 C 
BRANCH   8   9
ATOM      9  CG  ARG A 124      29.013  27.758  10.692  1.00 16.22     0.029 C 
BRANCH   9  10
ATOM     10  CD  ARG A 124      28.203  27.115  11.841  1.00 15.09     0.145 C 
BRANCH  10  11
ATOM     11  NE  ARG A 124      26.753  27.402  11.784  1.00 16.98    -0.083 NA
ATOM     12  CZ  ARG A 124      25.974  27.594  12.843  1.00 18.21     0.782 C 
ATOM     13  NH1 ARG A 124      26.463  27.553  14.076  1.00 21.11     0.063 N 
ATOM     14  NH2 ARG A 124      24.686  27.857  12.678  1.00 21.25     0.063 N 
ENDBRANCH  10  11
ENDBRANCH   9  10
ENDBRANCH   8   9
ENDBRANCH   7   8
END_RES ARG A 124
BEGIN_RES ASN A 133
REMARK  2 active torsions:
REMARK  status: ('A' for Active; 'I' for Inactive)
REMARK    9  A    between atoms: CA   and  CB  
REMARK   10  A    between atoms: CB   and  CG  
ROOT
ATOM     15  CA  ASN A 133      31.225  30.257  11.749  1.00 18.15     0.196 C 
ENDROOT
BRANCH  15  16
ATOM     16  CB  ASN A 133      30.092  31.240  11.460  1.00 18.27     0.126 C 
BRANCH  16  17
ATOM     17  CG  ASN A 133      29.164  31.431  12.620  1.00 18.94     0.276 C 
ATOM     18  OD1 ASN A 133      29.431  32.221  13.527  1.00 18.09    -0.269 OA
ATOM     19  ND2 ASN A 133      28.051  30.699  12.603  1.00 18.93    -0.107 N 
ENDBRANCH  16  17
ENDBRANCH  15  16
END_RES ASN A 133
BEGIN_RES LYS A 131
REMARK  4 active torsions:
REMARK  status: ('A' for Active; 'I' for Inactive)
REMARK   11  A    between atoms: CA   and  CB  
REMARK   12  A    between atoms: CB   and  CG  
REMARK   13  A    between atoms: CG   and  CD  
REMARK   14  A    between atoms: CD   and  CE  
ROOT
ATOM     20  CA  LYS A 131      29.867  25.555  16.977  1.00 20.52     0.186 C 
ENDROOT
BRANCH  20  21
ATOM     21  CB  LYS A 131      28.345  25.722  17.026  1.00 20.94     0.034 C 
BRANCH  21  22
ATOM     22  CG  LYS A 131      27.602  24.398  16.934  1.00 22.96     0.005 C 
BRANCH  22  23
ATOM     23  CD  LYS A 131      26.112  24.576  17.033  1.00 24.33     0.041 C 
BRANCH  23  24
ATOM     24  CE  LYS A 131      25.492  23.336  17.669  1.00 26.91     0.338 C 
ATOM     25  NZ  LYS A 131      25.741  23.323  19.130  1.00 27.40     0.618 N 
ENDBRANCH  23  24
ENDBRANCH  22  23
ENDBRANCH  21  22
ENDBRANCH  20  21
END_RES LYS A 131
