REMARK VINA RESULT:    -3.611      7.522     11.082
REMARK INTER + INTRA:          -8.883
REMARK INTER:                  -3.642
REMARK INTRA:                  -5.241
REMARK UNBOUND:                -5.166
REMARK SMILES Nc1ccc2c(c1)OCO2
REMARK SMILES IDX 2 1 3 2 4 3 5 4 6 5 7 6 8 7 9 8 10 9 1 10
REMARK H PARENT 1 11 1 12
REMARK Flexibility Score: inf
ROOT
ATOM      1  C   UNL     1      32.771  18.986  22.310  1.00  0.00     0.035 A 
ATOM      2  C   UNL     1      33.790  19.059  21.384  1.00  0.00     0.029 A 
ATOM      3  C   UNL     1      35.048  19.520  21.705  1.00  0.00     0.053 A 
ATOM      4  C   UNL     1      35.325  19.929  22.993  1.00  0.00     0.165 A 
ATOM      5  C   UNL     1      34.328  19.869  23.941  1.00  0.00     0.167 A 
ATOM      6  C   UNL     1      33.063  19.398  23.594  1.00  0.00     0.076 A 
ATOM      7  O   UNL     1      34.857  20.332  25.139  1.00  0.00    -0.454 OA
ATOM      8  C   UNL     1      36.096  20.955  24.909  1.00  0.00     0.468 C 
ATOM      9  O   UNL     1      36.444  20.433  23.643  1.00  0.00    -0.454 OA
ENDROOT
BRANCH   1  10
ATOM     10  N   UNL     1      31.469  18.511  21.987  1.00  0.00    -0.399 N 
ATOM     11  H   UNL     1      30.859  18.915  21.249  1.00  0.00     0.156 HD
ATOM     12  H   UNL     1      31.088  17.701  22.522  1.00  0.00     0.156 HD
ENDBRANCH   1  10
TORSDOF 1
BEGIN_RES LYS A 135
REMARK  4 active torsions:
REMARK  status: ('A' for Active; 'I' for Inactive)
REMARK    1  A    between atoms: CA   and  CB  
REMARK    2  A    between atoms: CB   and  CG  
REMARK    3  A    between atoms: CG   and  CD  
REMARK    4  A    between atoms: CD   and  CE  
ROOT
ATOM      1  CA  LYS A 135      33.193  34.663   9.290  1.00 25.02     0.186 C 
ENDROOT
BRANCH   1   2
ATOM      2  CB  LYS A 135      32.060  35.360  10.034  1.00 26.63     0.034 C 
BRANCH   2   3
ATOM      3  CG  LYS A 135      30.704  34.761   9.764  1.00 29.45     0.005 C 
BRANCH   3   4
ATOM      4  CD  LYS A 135      30.478  34.597   8.269  1.00 32.00     0.041 C 
BRANCH   4   5
ATOM      5  CE  LYS A 135      29.022  34.840   7.921  1.00 34.25     0.338 C 
ATOM      6  NZ  LYS A 135      28.894  35.576   6.632  1.00 35.99     0.618 N 
ENDBRANCH   4   5
ENDBRANCH   3   4
ENDBRANCH   2   3
ENDBRANCH   1   2
END_RES LYS A 135
BEGIN_RES ARG A 124
REMARK  4 active torsions:
REMARK  status: ('A' for Active; 'I' for Inactive)
REMARK    5  A    between atoms: CA   and  CB  
REMARK    6  A    between atoms: CB   and  CG  
REMARK    7  A    between atoms: CG   and  CD  
REMARK    8  A    between atoms: CD   and  NE  
REMARK       I    between atoms: NE   and  CZ  
ROOT
ATOM      7  CA  ARG A 124      31.045  26.515   9.594  1.00 17.84     0.186 C 
ENDROOT
BRANCH   7   8
ATOM      8  CB  ARG A 124      29.529  26.705   9.647  1.00 16.18     0.036 C 
BRANCH   8   9
ATOM      9  CG  ARG A 124      28.757  25.738  10.614  1.00 16.22     0.029 C 
BRANCH   9  10
ATOM     10  CD  ARG A 124      28.492  26.364  12.003  1.00 15.09     0.145 C 
BRANCH  10  11
ATOM     11  NE  ARG A 124      27.121  26.894  12.168  1.00 16.98    -0.083 NA
ATOM     12  CZ  ARG A 124      26.717  27.654  13.180  1.00 18.21     0.782 C 
ATOM     13  NH1 ARG A 124      27.551  28.017  14.147  1.00 21.11     0.063 N 
ATOM     14  NH2 ARG A 124      25.466  28.086  13.224  1.00 21.25     0.063 N 
ENDBRANCH  10  11
ENDBRANCH   9  10
ENDBRANCH   8   9
ENDBRANCH   7   8
END_RES ARG A 124
BEGIN_RES ASN A 133
REMARK  2 active torsions:
REMARK  status: ('A' for Active; 'I' for Inactive)
REMARK    9  A    between atoms: CA   and  CB  
REMARK   10  A    between atoms: CB   and  CG  
ROOT
ATOM     15  CA  ASN A 133      31.225  30.257  11.749  1.00 18.15     0.196 C 
ENDROOT
BRANCH  15  16
ATOM     16  CB  ASN A 133      30.092  31.240  11.460  1.00 18.27     0.126 C 
BRANCH  16  17
ATOM     17  CG  ASN A 133      28.731  30.635  11.612  1.00 18.94     0.276 C 
ATOM     18  OD1 ASN A 133      27.965  31.004  12.505  1.00 18.09    -0.269 OA
ATOM     19  ND2 ASN A 133      28.413  29.686  10.733  1.00 18.93    -0.107 N 
ENDBRANCH  16  17
ENDBRANCH  15  16
END_RES ASN A 133
BEGIN_RES LYS A 131
REMARK  4 active torsions:
REMARK  status: ('A' for Active; 'I' for Inactive)
REMARK   11  A    between atoms: CA   and  CB  
REMARK   12  A    between atoms: CB   and  CG  
REMARK   13  A    between atoms: CG   and  CD  
REMARK   14  A    between atoms: CD   and  CE  
ROOT
ATOM     20  CA  LYS A 131      29.867  25.555  16.977  1.00 20.52     0.186 C 
ENDROOT
BRANCH  20  21
ATOM     21  CB  LYS A 131      28.345  25.722  17.026  1.00 20.94     0.034 C 
BRANCH  21  22
ATOM     22  CG  LYS A 131      27.602  24.400  16.916  1.00 22.96     0.005 C 
BRANCH  22  23
ATOM     23  CD  LYS A 131      26.147  24.536  17.271  1.00 24.33     0.041 C 
BRANCH  23  24
ATOM     24  CE  LYS A 131      25.715  25.989  17.098  1.00 26.91     0.338 C 
ATOM     25  NZ  LYS A 131      24.650  26.096  16.072  1.00 27.40     0.618 N 
ENDBRANCH  23  24
ENDBRANCH  22  23
ENDBRANCH  21  22
ENDBRANCH  20  21
END_RES LYS A 131
