REMARK VINA RESULT:    -4.005      4.487      7.456
REMARK INTER + INTRA:          -9.580
REMARK INTER:                  -5.197
REMARK INTRA:                  -4.383
REMARK UNBOUND:                -5.224
REMARK SMILES NCc1cccc(Br)c1
REMARK SMILES IDX 2 1 1 2 3 5 4 6 9 7 5 8 7 9 6 10 8 11
REMARK H PARENT 1 3 1 4
REMARK Flexibility Score: inf
ROOT
ATOM      1  C   UNL     1      28.409  36.381   5.866  1.00  0.00     0.113 C 
ENDROOT
BRANCH   1   2
ATOM      2  N   UNL     1      27.265  37.077   5.361  1.00  0.00    -0.326 NA
ATOM      3  H   UNL     1      27.405  38.091   5.207  1.00  0.00     0.119 HD
ATOM      4  H   UNL     1      26.711  36.584   4.664  1.00  0.00     0.119 HD
ENDBRANCH   1   2
BRANCH   1   5
ATOM      5  C   UNL     1      28.121  35.572   7.075  1.00  0.00    -0.033 A 
ATOM      6  C   UNL     1      26.829  35.375   7.524  1.00  0.00     0.005 A 
ATOM      7  C   UNL     1      29.127  34.977   7.816  1.00  0.00     0.020 A 
ATOM      8  C   UNL     1      26.536  34.626   8.649  1.00  0.00     0.001 A 
ATOM      9  C   UNL     1      28.848  34.230   8.934  1.00  0.00     0.018 A 
ATOM     10  C   UNL     1      27.555  34.041   9.372  1.00  0.00     0.016 A 
ATOM     11  Br  UNL     1      30.270  33.423   9.929  1.00  0.00    -0.051 Br
ENDBRANCH   1   5
TORSDOF 2
BEGIN_RES LYS A 135
REMARK  4 active torsions:
REMARK  status: ('A' for Active; 'I' for Inactive)
REMARK    1  A    between atoms: CA   and  CB  
REMARK    2  A    between atoms: CB   and  CG  
REMARK    3  A    between atoms: CG   and  CD  
REMARK    4  A    between atoms: CD   and  CE  
ROOT
ATOM      1  CA  LYS A 135      33.193  34.663   9.290  1.00 25.02     0.186 C 
ENDROOT
BRANCH   1   2
ATOM      2  CB  LYS A 135      32.060  35.360  10.034  1.00 26.63     0.034 C 
BRANCH   2   3
ATOM      3  CG  LYS A 135      32.519  36.129  11.246  1.00 29.45     0.005 C 
BRANCH   3   4
ATOM      4  CD  LYS A 135      31.992  37.555  11.207  1.00 32.00     0.041 C 
BRANCH   4   5
ATOM      5  CE  LYS A 135      31.366  37.928  12.538  1.00 34.25     0.338 C 
ATOM      6  NZ  LYS A 135      30.160  37.099  12.814  1.00 35.99     0.618 N 
ENDBRANCH   4   5
ENDBRANCH   3   4
ENDBRANCH   2   3
ENDBRANCH   1   2
END_RES LYS A 135
BEGIN_RES ARG A 124
REMARK  4 active torsions:
REMARK  status: ('A' for Active; 'I' for Inactive)
REMARK    5  A    between atoms: CA   and  CB  
REMARK    6  A    between atoms: CB   and  CG  
REMARK    7  A    between atoms: CG   and  CD  
REMARK    8  A    between atoms: CD   and  NE  
REMARK       I    between atoms: NE   and  CZ  
ROOT
ATOM      7  CA  ARG A 124      31.045  26.515   9.594  1.00 17.84     0.186 C 
ENDROOT
BRANCH   7   8
ATOM      8  CB  ARG A 124      29.529  26.705   9.647  1.00 16.18     0.036 C 
BRANCH   8   9
ATOM      9  CG  ARG A 124      28.905  26.789  11.086  1.00 16.22     0.029 C 
BRANCH   9  10
ATOM     10  CD  ARG A 124      27.540  26.073  11.191  1.00 15.09     0.145 C 
BRANCH  10  11
ATOM     11  NE  ARG A 124      26.400  26.988  11.418  1.00 16.98    -0.083 NA
ATOM     12  CZ  ARG A 124      26.010  27.435  12.607  1.00 18.21     0.782 C 
ATOM     13  NH1 ARG A 124      26.649  27.089  13.718  1.00 21.11     0.063 N 
ATOM     14  NH2 ARG A 124      24.980  28.263  12.696  1.00 21.25     0.063 N 
ENDBRANCH  10  11
ENDBRANCH   9  10
ENDBRANCH   8   9
ENDBRANCH   7   8
END_RES ARG A 124
BEGIN_RES ASN A 133
REMARK  2 active torsions:
REMARK  status: ('A' for Active; 'I' for Inactive)
REMARK    9  A    between atoms: CA   and  CB  
REMARK   10  A    between atoms: CB   and  CG  
ROOT
ATOM     15  CA  ASN A 133      31.225  30.257  11.749  1.00 18.15     0.196 C 
ENDROOT
BRANCH  15  16
ATOM     16  CB  ASN A 133      30.092  31.240  11.460  1.00 18.27     0.126 C 
BRANCH  16  17
ATOM     17  CG  ASN A 133      28.734  30.614  11.529  1.00 18.94     0.276 C 
ATOM     18  OD1 ASN A 133      28.352  29.821  10.666  1.00 18.09    -0.269 OA
ATOM     19  ND2 ASN A 133      27.980  30.969  12.569  1.00 18.93    -0.107 N 
ENDBRANCH  16  17
ENDBRANCH  15  16
END_RES ASN A 133
BEGIN_RES LYS A 131
REMARK  4 active torsions:
REMARK  status: ('A' for Active; 'I' for Inactive)
REMARK   11  A    between atoms: CA   and  CB  
REMARK   12  A    between atoms: CB   and  CG  
REMARK   13  A    between atoms: CG   and  CD  
REMARK   14  A    between atoms: CD   and  CE  
ROOT
ATOM     20  CA  LYS A 131      29.867  25.555  16.977  1.00 20.52     0.186 C 
ENDROOT
BRANCH  20  21
ATOM     21  CB  LYS A 131      28.345  25.722  17.026  1.00 20.94     0.034 C 
BRANCH  21  22
ATOM     22  CG  LYS A 131      27.601  24.403  16.888  1.00 22.96     0.005 C 
BRANCH  22  23
ATOM     23  CD  LYS A 131      26.114  24.573  17.030  1.00 24.33     0.041 C 
BRANCH  23  24
ATOM     24  CE  LYS A 131      25.518  23.326  17.674  1.00 26.91     0.338 C 
ATOM     25  NZ  LYS A 131      25.738  23.342  19.139  1.00 27.40     0.618 N 
ENDBRANCH  23  24
ENDBRANCH  22  23
ENDBRANCH  21  22
ENDBRANCH  20  21
END_RES LYS A 131
