REMARK VINA RESULT:    -4.495      1.377      1.564
REMARK INTER + INTRA:         -11.059
REMARK INTER:                  -6.278
REMARK INTRA:                  -4.781
REMARK UNBOUND:                -5.644
REMARK SMILES CC(N)CC(=O)c1ccccc1
REMARK SMILES IDX 4 1 2 2 1 3 3 4 5 7 6 8 7 9 8 10 12 11 9 12 11 13 10 14
REMARK H PARENT 3 5 3 6
REMARK Flexibility Score: inf
ROOT
ATOM      1  C   UNL     1      26.516  36.573   7.455  1.00  0.00     0.099 C 
ENDROOT
BRANCH   1   2
ATOM      2  C   UNL     1      26.715  38.046   7.268  1.00  0.00     0.055 C 
ATOM      3  C   UNL     1      27.873  38.531   8.117  1.00  0.00     0.024 C 
BRANCH   2   4
ATOM      4  N   UNL     1      26.874  38.420   5.891  1.00  0.00    -0.328 NA
ATOM      5  H   UNL     1      26.250  37.773   5.329  1.00  0.00     0.119 HD
ATOM      6  H   UNL     1      27.876  38.340   5.572  1.00  0.00     0.119 HD
ENDBRANCH   2   4
ENDBRANCH   1   2
BRANCH   1   7
ATOM      7  C   UNL     1      27.667  35.775   6.997  1.00  0.00     0.164 C 
ATOM      8  O   UNL     1      28.011  35.719   5.791  1.00  0.00    -0.294 OA
BRANCH   7   9
ATOM      9  C   UNL     1      28.457  35.007   7.955  1.00  0.00     0.018 A 
ATOM     10  C   UNL     1      29.841  34.948   7.813  1.00  0.00     0.012 A 
ATOM     11  C   UNL     1      27.859  34.333   9.007  1.00  0.00     0.012 A 
ATOM     12  C   UNL     1      30.604  34.231   8.705  1.00  0.00     0.001 A 
ATOM     13  C   UNL     1      28.611  33.612   9.905  1.00  0.00     0.001 A 
ATOM     14  C   UNL     1      29.979  33.574   9.735  1.00  0.00     0.000 A 
ENDBRANCH   7   9
ENDBRANCH   1   7
TORSDOF 4
BEGIN_RES LYS A 135
REMARK  4 active torsions:
REMARK  status: ('A' for Active; 'I' for Inactive)
REMARK    1  A    between atoms: CA   and  CB  
REMARK    2  A    between atoms: CB   and  CG  
REMARK    3  A    between atoms: CG   and  CD  
REMARK    4  A    between atoms: CD   and  CE  
ROOT
ATOM      1  CA  LYS A 135      33.193  34.663   9.290  1.00 25.02     0.186 C 
ENDROOT
BRANCH   1   2
ATOM      2  CB  LYS A 135      32.060  35.360  10.034  1.00 26.63     0.034 C 
BRANCH   2   3
ATOM      3  CG  LYS A 135      32.525  36.174  11.214  1.00 29.45     0.005 C 
BRANCH   3   4
ATOM      4  CD  LYS A 135      31.707  37.449  11.342  1.00 32.00     0.041 C 
BRANCH   4   5
ATOM      5  CE  LYS A 135      31.440  38.050   9.976  1.00 34.25     0.338 C 
ATOM      6  NZ  LYS A 135      31.569  39.533  10.007  1.00 35.99     0.618 N 
ENDBRANCH   4   5
ENDBRANCH   3   4
ENDBRANCH   2   3
ENDBRANCH   1   2
END_RES LYS A 135
BEGIN_RES ARG A 124
REMARK  4 active torsions:
REMARK  status: ('A' for Active; 'I' for Inactive)
REMARK    5  A    between atoms: CA   and  CB  
REMARK    6  A    between atoms: CB   and  CG  
REMARK    7  A    between atoms: CG   and  CD  
REMARK    8  A    between atoms: CD   and  NE  
REMARK       I    between atoms: NE   and  CZ  
ROOT
ATOM      7  CA  ARG A 124      31.045  26.515   9.594  1.00 17.84     0.186 C 
ENDROOT
BRANCH   7   8
ATOM      8  CB  ARG A 124      29.529  26.705   9.647  1.00 16.18     0.036 C 
BRANCH   8   9
ATOM      9  CG  ARG A 124      28.916  26.876  11.083  1.00 16.22     0.029 C 
BRANCH   9  10
ATOM     10  CD  ARG A 124      27.590  26.103  11.265  1.00 15.09     0.145 C 
BRANCH  10  11
ATOM     11  NE  ARG A 124      26.409  26.975  11.445  1.00 16.98    -0.083 NA
ATOM     12  CZ  ARG A 124      25.983  27.445  12.612  1.00 18.21     0.782 C 
ATOM     13  NH1 ARG A 124      26.619  27.165  13.743  1.00 21.11     0.063 N 
ATOM     14  NH2 ARG A 124      24.917  28.230  12.660  1.00 21.25     0.063 N 
ENDBRANCH  10  11
ENDBRANCH   9  10
ENDBRANCH   8   9
ENDBRANCH   7   8
END_RES ARG A 124
BEGIN_RES ASN A 133
REMARK  2 active torsions:
REMARK  status: ('A' for Active; 'I' for Inactive)
REMARK    9  A    between atoms: CA   and  CB  
REMARK   10  A    between atoms: CB   and  CG  
ROOT
ATOM     15  CA  ASN A 133      31.225  30.257  11.749  1.00 18.15     0.196 C 
ENDROOT
BRANCH  15  16
ATOM     16  CB  ASN A 133      30.092  31.240  11.460  1.00 18.27     0.126 C 
BRANCH  16  17
ATOM     17  CG  ASN A 133      28.731  30.637  11.617  1.00 18.94     0.276 C 
ATOM     18  OD1 ASN A 133      28.289  29.834  10.793  1.00 18.09    -0.269 OA
ATOM     19  ND2 ASN A 133      28.043  31.023  12.691  1.00 18.93    -0.107 N 
ENDBRANCH  16  17
ENDBRANCH  15  16
END_RES ASN A 133
BEGIN_RES LYS A 131
REMARK  4 active torsions:
REMARK  status: ('A' for Active; 'I' for Inactive)
REMARK   11  A    between atoms: CA   and  CB  
REMARK   12  A    between atoms: CB   and  CG  
REMARK   13  A    between atoms: CG   and  CD  
REMARK   14  A    between atoms: CD   and  CE  
ROOT
ATOM     20  CA  LYS A 131      29.867  25.555  16.977  1.00 20.52     0.186 C 
ENDROOT
BRANCH  20  21
ATOM     21  CB  LYS A 131      28.345  25.722  17.026  1.00 20.94     0.034 C 
BRANCH  21  22
ATOM     22  CG  LYS A 131      27.600  24.414  16.807  1.00 22.96     0.005 C 
BRANCH  22  23
ATOM     23  CD  LYS A 131      26.531  24.191  17.841  1.00 24.33     0.041 C 
BRANCH  23  24
ATOM     24  CE  LYS A 131      25.161  24.442  17.219  1.00 26.91     0.338 C 
ATOM     25  NZ  LYS A 131      24.383  23.182  17.153  1.00 27.40     0.618 N 
ENDBRANCH  23  24
ENDBRANCH  22  23
ENDBRANCH  21  22
ENDBRANCH  20  21
END_RES LYS A 131
