REMARK VINA RESULT:    -2.965      5.154     11.777
REMARK INTER + INTRA:          -8.950
REMARK INTER:                  -3.768
REMARK INTRA:                  -5.182
REMARK UNBOUND:                -5.466
REMARK SMILES NCc1ccc(CN)cc1
REMARK SMILES IDX 3 1 4 2 5 3 6 4 9 5 10 6 2 7 1 8 7 11 8 12
REMARK H PARENT 1 9 1 10 8 13 8 14
REMARK Flexibility Score: inf
ROOT
ATOM      1  C   UNL     1      23.730  17.145  14.037  1.00  0.00    -0.034 A 
ATOM      2  C   UNL     1      24.334  18.346  13.660  1.00  0.00     0.005 A 
ATOM      3  C   UNL     1      25.488  18.735  14.280  1.00  0.00     0.005 A 
ATOM      4  C   UNL     1      26.048  17.950  15.264  1.00  0.00    -0.034 A 
ATOM      5  C   UNL     1      25.442  16.750  15.638  1.00  0.00     0.005 A 
ATOM      6  C   UNL     1      24.267  16.338  15.018  1.00  0.00     0.005 A 
ENDROOT
BRANCH   1   7
ATOM      7  C   UNL     1      22.478  16.682  13.393  1.00  0.00     0.113 C 
BRANCH   7   8
ATOM      8  N   UNL     1      22.327  17.187  12.051  1.00  0.00    -0.326 NA
ATOM      9  H   UNL     1      23.198  17.411  11.571  1.00  0.00     0.119 HD
ATOM     10  H   UNL     1      21.551  17.843  11.945  1.00  0.00     0.119 HD
ENDBRANCH   7   8
ENDBRANCH   1   7
BRANCH   4  11
ATOM     11  C   UNL     1      27.297  18.422  15.899  1.00  0.00     0.113 C 
BRANCH  11  12
ATOM     12  N   UNL     1      28.448  17.703  15.424  1.00  0.00    -0.326 NA
ATOM     13  H   UNL     1      29.259  17.898  16.018  1.00  0.00     0.119 HD
ATOM     14  H   UNL     1      28.576  17.945  14.412  1.00  0.00     0.119 HD
ENDBRANCH  11  12
ENDBRANCH   4  11
TORSDOF 4
BEGIN_RES LYS A 135
REMARK  4 active torsions:
REMARK  status: ('A' for Active; 'I' for Inactive)
REMARK    1  A    between atoms: CA   and  CB  
REMARK    2  A    between atoms: CB   and  CG  
REMARK    3  A    between atoms: CG   and  CD  
REMARK    4  A    between atoms: CD   and  CE  
ROOT
ATOM      1  CA  LYS A 135      33.193  34.663   9.290  1.00 25.02     0.186 C 
ENDROOT
BRANCH   1   2
ATOM      2  CB  LYS A 135      32.060  35.360  10.034  1.00 26.63     0.034 C 
BRANCH   2   3
ATOM      3  CG  LYS A 135      30.740  34.640   9.933  1.00 29.45     0.005 C 
BRANCH   3   4
ATOM      4  CD  LYS A 135      30.327  34.479   8.478  1.00 32.00     0.041 C 
BRANCH   4   5
ATOM      5  CE  LYS A 135      28.816  34.482   8.350  1.00 34.25     0.338 C 
ATOM      6  NZ  LYS A 135      28.178  33.798   9.509  1.00 35.99     0.618 N 
ENDBRANCH   4   5
ENDBRANCH   3   4
ENDBRANCH   2   3
ENDBRANCH   1   2
END_RES LYS A 135
BEGIN_RES ARG A 124
REMARK  4 active torsions:
REMARK  status: ('A' for Active; 'I' for Inactive)
REMARK    5  A    between atoms: CA   and  CB  
REMARK    6  A    between atoms: CB   and  CG  
REMARK    7  A    between atoms: CG   and  CD  
REMARK    8  A    between atoms: CD   and  NE  
REMARK       I    between atoms: NE   and  CZ  
ROOT
ATOM      7  CA  ARG A 124      31.045  26.515   9.594  1.00 17.84     0.186 C 
ENDROOT
BRANCH   7   8
ATOM      8  CB  ARG A 124      29.529  26.705   9.647  1.00 16.18     0.036 C 
BRANCH   8   9
ATOM      9  CG  ARG A 124      29.038  28.135  10.071  1.00 16.22     0.029 C 
BRANCH   9  10
ATOM     10  CD  ARG A 124      27.663  28.113  10.777  1.00 15.09     0.145 C 
BRANCH  10  11
ATOM     11  NE  ARG A 124      27.702  27.555  12.146  1.00 16.98    -0.083 NA
ATOM     12  CZ  ARG A 124      26.681  27.556  12.996  1.00 18.21     0.782 C 
ATOM     13  NH1 ARG A 124      25.503  28.067  12.660  1.00 21.11     0.063 N 
ATOM     14  NH2 ARG A 124      26.822  27.017  14.198  1.00 21.25     0.063 N 
ENDBRANCH  10  11
ENDBRANCH   9  10
ENDBRANCH   8   9
ENDBRANCH   7   8
END_RES ARG A 124
BEGIN_RES ASN A 133
REMARK  2 active torsions:
REMARK  status: ('A' for Active; 'I' for Inactive)
REMARK    9  A    between atoms: CA   and  CB  
REMARK   10  A    between atoms: CB   and  CG  
ROOT
ATOM     15  CA  ASN A 133      31.225  30.257  11.749  1.00 18.15     0.196 C 
ENDROOT
BRANCH  15  16
ATOM     16  CB  ASN A 133      30.092  31.240  11.460  1.00 18.27     0.126 C 
BRANCH  16  17
ATOM     17  CG  ASN A 133      29.236  31.524  12.655  1.00 18.94     0.276 C 
ATOM     18  OD1 ASN A 133      28.294  30.788  12.955  1.00 18.09    -0.269 OA
ATOM     19  ND2 ASN A 133      29.557  32.610  13.357  1.00 18.93    -0.107 N 
ENDBRANCH  16  17
ENDBRANCH  15  16
END_RES ASN A 133
BEGIN_RES LYS A 131
REMARK  4 active torsions:
REMARK  status: ('A' for Active; 'I' for Inactive)
REMARK   11  A    between atoms: CA   and  CB  
REMARK   12  A    between atoms: CB   and  CG  
REMARK   13  A    between atoms: CG   and  CD  
REMARK   14  A    between atoms: CD   and  CE  
ROOT
ATOM     20  CA  LYS A 131      29.867  25.555  16.977  1.00 20.52     0.186 C 
ENDROOT
BRANCH  20  21
ATOM     21  CB  LYS A 131      28.345  25.722  17.026  1.00 20.94     0.034 C 
BRANCH  21  22
ATOM     22  CG  LYS A 131      27.600  24.408  16.845  1.00 22.96     0.005 C 
BRANCH  22  23
ATOM     23  CD  LYS A 131      26.149  24.523  17.221  1.00 24.33     0.041 C 
BRANCH  23  24
ATOM     24  CE  LYS A 131      25.952  24.017  18.646  1.00 26.91     0.338 C 
ATOM     25  NZ  LYS A 131      25.677  25.147  19.565  1.00 27.40     0.618 N 
ENDBRANCH  23  24
ENDBRANCH  22  23
ENDBRANCH  21  22
ENDBRANCH  20  21
END_RES LYS A 131
