REMARK VINA RESULT:    -2.904      5.009     12.518
REMARK INTER + INTRA:          -9.346
REMARK INTER:                  -3.566
REMARK INTRA:                  -5.780
REMARK UNBOUND:                -5.848
REMARK SMILES NCOCc1ccccc1
REMARK SMILES IDX 3 1 2 2 1 3 4 6 5 7 6 8 10 9 7 10 9 11 8 12
REMARK H PARENT 1 4 1 5
REMARK Flexibility Score: inf
ROOT
ATOM      1  O   UNL     1      26.466  16.685  16.122  1.00  0.00    -0.362 OA
ENDROOT
BRANCH   1   2
ATOM      2  C   UNL     1      27.834  16.584  16.108  1.00  0.00     0.242 C 
BRANCH   2   3
ATOM      3  N   UNL     1      28.480  17.674  15.389  1.00  0.00    -0.309 NA
ATOM      4  H   UNL     1      29.511  17.642  15.482  1.00  0.00     0.121 HD
ATOM      5  H   UNL     1      28.200  17.535  14.374  1.00  0.00     0.121 HD
ENDBRANCH   2   3
ENDBRANCH   1   2
BRANCH   1   6
ATOM      6  C   UNL     1      25.999  17.898  15.619  1.00  0.00     0.197 C 
BRANCH   6   7
ATOM      7  C   UNL     1      24.862  17.670  14.690  1.00  0.00    -0.022 A 
ATOM      8  C   UNL     1      24.337  18.649  13.872  1.00  0.00     0.006 A 
ATOM      9  C   UNL     1      24.286  16.418  14.626  1.00  0.00     0.006 A 
ATOM     10  C   UNL     1      23.280  18.417  13.016  1.00  0.00     0.000 A 
ATOM     11  C   UNL     1      23.227  16.152  13.781  1.00  0.00     0.000 A 
ATOM     12  C   UNL     1      22.724  17.152  12.975  1.00  0.00     0.000 A 
ENDBRANCH   6   7
ENDBRANCH   1   6
TORSDOF 4
BEGIN_RES LYS A 135
REMARK  4 active torsions:
REMARK  status: ('A' for Active; 'I' for Inactive)
REMARK    1  A    between atoms: CA   and  CB  
REMARK    2  A    between atoms: CB   and  CG  
REMARK    3  A    between atoms: CG   and  CD  
REMARK    4  A    between atoms: CD   and  CE  
ROOT
ATOM      1  CA  LYS A 135      33.193  34.663   9.290  1.00 25.02     0.186 C 
ENDROOT
BRANCH   1   2
ATOM      2  CB  LYS A 135      32.060  35.360  10.034  1.00 26.63     0.034 C 
BRANCH   2   3
ATOM      3  CG  LYS A 135      30.704  34.761   9.764  1.00 29.45     0.005 C 
BRANCH   3   4
ATOM      4  CD  LYS A 135      30.530  34.472   8.281  1.00 32.00     0.041 C 
BRANCH   4   5
ATOM      5  CE  LYS A 135      29.139  34.864   7.822  1.00 34.25     0.338 C 
ATOM      6  NZ  LYS A 135      29.059  36.323   7.536  1.00 35.99     0.618 N 
ENDBRANCH   4   5
ENDBRANCH   3   4
ENDBRANCH   2   3
ENDBRANCH   1   2
END_RES LYS A 135
BEGIN_RES ARG A 124
REMARK  4 active torsions:
REMARK  status: ('A' for Active; 'I' for Inactive)
REMARK    5  A    between atoms: CA   and  CB  
REMARK    6  A    between atoms: CB   and  CG  
REMARK    7  A    between atoms: CG   and  CD  
REMARK    8  A    between atoms: CD   and  NE  
REMARK       I    between atoms: NE   and  CZ  
ROOT
ATOM      7  CA  ARG A 124      31.045  26.515   9.594  1.00 17.84     0.186 C 
ENDROOT
BRANCH   7   8
ATOM      8  CB  ARG A 124      29.529  26.705   9.647  1.00 16.18     0.036 C 
BRANCH   8   9
ATOM      9  CG  ARG A 124      28.908  26.813  11.086  1.00 16.22     0.029 C 
BRANCH   9  10
ATOM     10  CD  ARG A 124      27.551  26.083  11.210  1.00 15.09     0.145 C 
BRANCH  10  11
ATOM     11  NE  ARG A 124      26.402  26.989  11.423  1.00 16.98    -0.083 NA
ATOM     12  CZ  ARG A 124      26.007  27.450  12.605  1.00 18.21     0.782 C 
ATOM     13  NH1 ARG A 124      26.648  27.127  13.721  1.00 21.11     0.063 N 
ATOM     14  NH2 ARG A 124      24.968  28.268  12.682  1.00 21.25     0.063 N 
ENDBRANCH  10  11
ENDBRANCH   9  10
ENDBRANCH   8   9
ENDBRANCH   7   8
END_RES ARG A 124
BEGIN_RES ASN A 133
REMARK  2 active torsions:
REMARK  status: ('A' for Active; 'I' for Inactive)
REMARK    9  A    between atoms: CA   and  CB  
REMARK   10  A    between atoms: CB   and  CG  
ROOT
ATOM     15  CA  ASN A 133      31.225  30.257  11.749  1.00 18.15     0.196 C 
ENDROOT
BRANCH  15  16
ATOM     16  CB  ASN A 133      30.092  31.240  11.460  1.00 18.27     0.126 C 
BRANCH  16  17
ATOM     17  CG  ASN A 133      28.733  30.619  11.550  1.00 18.94     0.276 C 
ATOM     18  OD1 ASN A 133      28.336  29.824  10.695  1.00 18.09    -0.269 OA
ATOM     19  ND2 ASN A 133      27.995  30.981  12.599  1.00 18.93    -0.107 N 
ENDBRANCH  16  17
ENDBRANCH  15  16
END_RES ASN A 133
BEGIN_RES LYS A 131
REMARK  4 active torsions:
REMARK  status: ('A' for Active; 'I' for Inactive)
REMARK   11  A    between atoms: CA   and  CB  
REMARK   12  A    between atoms: CB   and  CG  
REMARK   13  A    between atoms: CG   and  CD  
REMARK   14  A    between atoms: CD   and  CE  
ROOT
ATOM     20  CA  LYS A 131      29.867  25.555  16.977  1.00 20.52     0.186 C 
ENDROOT
BRANCH  20  21
ATOM     21  CB  LYS A 131      28.345  25.722  17.026  1.00 20.94     0.034 C 
BRANCH  21  22
ATOM     22  CG  LYS A 131      27.600  24.409  16.841  1.00 22.96     0.005 C 
BRANCH  22  23
ATOM     23  CD  LYS A 131      26.152  24.519  17.230  1.00 24.33     0.041 C 
BRANCH  23  24
ATOM     24  CE  LYS A 131      26.039  24.621  18.748  1.00 26.91     0.338 C 
ATOM     25  NZ  LYS A 131      25.563  23.339  19.319  1.00 27.40     0.618 N 
ENDBRANCH  23  24
ENDBRANCH  22  23
ENDBRANCH  21  22
ENDBRANCH  20  21
END_RES LYS A 131
