REMARK VINA RESULT:    -2.289      6.092     13.337
REMARK INTER + INTRA:          -9.566
REMARK INTER:                  -3.765
REMARK INTRA:                  -5.802
REMARK UNBOUND:                -6.407
REMARK SMILES CCOC(CCN)OCC
REMARK SMILES IDX 5 1 4 2 3 3 2 4 1 5 8 6 9 7 10 8 6 9 7 10
REMARK H PARENT 7 11 7 12
REMARK Flexibility Score: inf
ROOT
ATOM      1  C   UNL     1      26.171  17.821  15.675  1.00  0.00     0.077 C 
ENDROOT
BRANCH   1   2
ATOM      2  C   UNL     1      25.971  16.709  16.656  1.00  0.00     0.251 C 
BRANCH   2   3
ATOM      3  O   UNL     1      24.920  16.955  17.517  1.00  0.00    -0.353 OA
BRANCH   3   4
ATOM      4  C   UNL     1      25.087  18.043  18.329  1.00  0.00     0.160 C 
ATOM      5  C   UNL     1      25.014  17.540  19.775  1.00  0.00     0.035 C 
ENDBRANCH   3   4
ENDBRANCH   2   3
BRANCH   2   6
ATOM      6  O   UNL     1      27.159  16.449  17.332  1.00  0.00    -0.353 OA
BRANCH   6   7
ATOM      7  C   UNL     1      27.335  15.104  17.512  1.00  0.00     0.160 C 
ATOM      8  C   UNL     1      26.880  14.278  16.332  1.00  0.00     0.035 C 
ENDBRANCH   6   7
ENDBRANCH   2   6
ENDBRANCH   1   2
BRANCH   1   9
ATOM      9  C   UNL     1      27.571  18.381  15.691  1.00  0.00     0.083 C 
BRANCH   9  10
ATOM     10  N   UNL     1      28.521  17.550  15.003  1.00  0.00    -0.330 NA
ATOM     11  H   UNL     1      29.430  17.481  15.524  1.00  0.00     0.118 HD
ATOM     12  H   UNL     1      28.157  16.610  14.777  1.00  0.00     0.118 HD
ENDBRANCH   9  10
ENDBRANCH   1   9
TORSDOF 7
BEGIN_RES LYS A 135
REMARK  4 active torsions:
REMARK  status: ('A' for Active; 'I' for Inactive)
REMARK    1  A    between atoms: CA   and  CB  
REMARK    2  A    between atoms: CB   and  CG  
REMARK    3  A    between atoms: CG   and  CD  
REMARK    4  A    between atoms: CD   and  CE  
ROOT
ATOM      1  CA  LYS A 135      33.193  34.663   9.290  1.00 25.02     0.186 C 
ENDROOT
BRANCH   1   2
ATOM      2  CB  LYS A 135      32.060  35.360  10.034  1.00 26.63     0.034 C 
BRANCH   2   3
ATOM      3  CG  LYS A 135      30.799  35.496   9.220  1.00 29.45     0.005 C 
BRANCH   3   4
ATOM      4  CD  LYS A 135      30.295  34.131   8.779  1.00 32.00     0.041 C 
BRANCH   4   5
ATOM      5  CE  LYS A 135      28.841  33.948   9.170  1.00 34.25     0.338 C 
ATOM      6  NZ  LYS A 135      28.545  34.623  10.464  1.00 35.99     0.618 N 
ENDBRANCH   4   5
ENDBRANCH   3   4
ENDBRANCH   2   3
ENDBRANCH   1   2
END_RES LYS A 135
BEGIN_RES ARG A 124
REMARK  4 active torsions:
REMARK  status: ('A' for Active; 'I' for Inactive)
REMARK    5  A    between atoms: CA   and  CB  
REMARK    6  A    between atoms: CB   and  CG  
REMARK    7  A    between atoms: CG   and  CD  
REMARK    8  A    between atoms: CD   and  NE  
REMARK       I    between atoms: NE   and  CZ  
ROOT
ATOM      7  CA  ARG A 124      31.045  26.515   9.594  1.00 17.84     0.186 C 
ENDROOT
BRANCH   7   8
ATOM      8  CB  ARG A 124      29.529  26.705   9.647  1.00 16.18     0.036 C 
BRANCH   8   9
ATOM      9  CG  ARG A 124      29.032  28.195   9.683  1.00 16.22     0.029 C 
BRANCH   9  10
ATOM     10  CD  ARG A 124      27.909  28.427  10.720  1.00 15.09     0.145 C 
BRANCH  10  11
ATOM     11  NE  ARG A 124      28.132  27.737  12.009  1.00 16.98    -0.083 NA
ATOM     12  CZ  ARG A 124      27.174  27.218  12.769  1.00 18.21     0.782 C 
ATOM     13  NH1 ARG A 124      25.899  27.274  12.406  1.00 21.11     0.063 N 
ATOM     14  NH2 ARG A 124      27.487  26.610  13.903  1.00 21.25     0.063 N 
ENDBRANCH  10  11
ENDBRANCH   9  10
ENDBRANCH   8   9
ENDBRANCH   7   8
END_RES ARG A 124
BEGIN_RES ASN A 133
REMARK  2 active torsions:
REMARK  status: ('A' for Active; 'I' for Inactive)
REMARK    9  A    between atoms: CA   and  CB  
REMARK   10  A    between atoms: CB   and  CG  
ROOT
ATOM     15  CA  ASN A 133      31.225  30.257  11.749  1.00 18.15     0.196 C 
ENDROOT
BRANCH  15  16
ATOM     16  CB  ASN A 133      30.092  31.240  11.460  1.00 18.27     0.126 C 
BRANCH  16  17
ATOM     17  CG  ASN A 133      29.305  31.611  12.679  1.00 18.94     0.276 C 
ATOM     18  OD1 ASN A 133      28.359  30.920  13.062  1.00 18.09    -0.269 OA
ATOM     19  ND2 ASN A 133      29.691  32.721  13.307  1.00 18.93    -0.107 N 
ENDBRANCH  16  17
ENDBRANCH  15  16
END_RES ASN A 133
BEGIN_RES LYS A 131
REMARK  4 active torsions:
REMARK  status: ('A' for Active; 'I' for Inactive)
REMARK   11  A    between atoms: CA   and  CB  
REMARK   12  A    between atoms: CB   and  CG  
REMARK   13  A    between atoms: CG   and  CD  
REMARK   14  A    between atoms: CD   and  CE  
ROOT
ATOM     20  CA  LYS A 131      29.867  25.555  16.977  1.00 20.52     0.186 C 
ENDROOT
BRANCH  20  21
ATOM     21  CB  LYS A 131      28.345  25.722  17.026  1.00 20.94     0.034 C 
BRANCH  21  22
ATOM     22  CG  LYS A 131      27.599  24.430  16.728  1.00 22.96     0.005 C 
BRANCH  22  23
ATOM     23  CD  LYS A 131      26.914  23.878  17.947  1.00 24.33     0.041 C 
BRANCH  23  24
ATOM     24  CE  LYS A 131      25.557  23.304  17.553  1.00 26.91     0.338 C 
ATOM     25  NZ  LYS A 131      24.726  24.342  16.897  1.00 27.40     0.618 N 
ENDBRANCH  23  24
ENDBRANCH  22  23
ENDBRANCH  21  22
ENDBRANCH  20  21
END_RES LYS A 131
