REMARK VINA RESULT:    -3.700      5.785      7.719
REMARK INTER + INTRA:         -11.211
REMARK INTER:                  -5.071
REMARK INTRA:                  -6.139
REMARK UNBOUND:                -6.213
REMARK SMILES CCOCCc1c(N)nc(N)nc1-c1ccccc1
REMARK SMILES IDX 4 1 3 2 2 3 1 4 5 5 6 6 7 7 13 8 9 9 12 10 10 11 8 12 14 15
REMARK SMILES IDX 15 16 19 17 16 18 18 19 17 20 11 21
REMARK H PARENT 8 13 8 14 11 22 11 23
REMARK Flexibility Score: inf
ROOT
ATOM      1  C   UNL     1      31.728  35.310  13.512  1.00  0.00     0.165 C 
ENDROOT
BRANCH   1   2
ATOM      2  O   UNL     1      32.269  36.093  12.542  1.00  0.00    -0.381 OA
BRANCH   2   3
ATOM      3  C   UNL     1      31.786  37.376  12.499  1.00  0.00     0.156 C 
ATOM      4  C   UNL     1      31.789  37.983  11.118  1.00  0.00     0.035 C 
ENDBRANCH   2   3
ENDBRANCH   1   2
BRANCH   1   5
ATOM      5  C   UNL     1      30.911  34.171  13.030  1.00  0.00     0.070 C 
BRANCH   5   6
ATOM      6  C   UNL     1      29.837  33.705  13.893  1.00  0.00     0.023 A 
ATOM      7  C   UNL     1      30.068  32.764  14.894  1.00  0.00     0.132 A 
ATOM      8  C   UNL     1      28.550  34.126  13.725  1.00  0.00     0.081 A 
ATOM      9  N   UNL     1      29.078  32.303  15.646  1.00  0.00    -0.196 NA
ATOM     10  N   UNL     1      27.563  33.621  14.528  1.00  0.00    -0.213 NA
ATOM     11  C   UNL     1      27.798  32.720  15.483  1.00  0.00     0.222 A 
BRANCH   7  12
ATOM     12  N   UNL     1      31.388  32.324  15.071  1.00  0.00    -0.383 N 
ATOM     13  H   UNL     1      31.673  31.379  14.750  1.00  0.00     0.158 HD
ATOM     14  H   UNL     1      32.089  32.929  15.521  1.00  0.00     0.158 HD
ENDBRANCH   7  12
BRANCH   8  15
ATOM     15  C   UNL     1      28.071  35.042  12.696  1.00  0.00     0.001 A 
ATOM     16  C   UNL     1      28.262  36.423  12.887  1.00  0.00     0.010 A 
ATOM     17  C   UNL     1      27.468  34.671  11.533  1.00  0.00     0.010 A 
ATOM     18  C   UNL     1      27.865  37.358  11.959  1.00  0.00     0.001 A 
ATOM     19  C   UNL     1      27.067  35.631  10.594  1.00  0.00     0.001 A 
ATOM     20  C   UNL     1      27.255  36.977  10.785  1.00  0.00     0.000 A 
ENDBRANCH   8  15
BRANCH  11  21
ATOM     21  N   UNL     1      26.752  32.210  16.306  1.00  0.00    -0.368 N 
ATOM     22  H   UNL     1      26.663  31.196  16.455  1.00  0.00     0.159 HD
ATOM     23  H   UNL     1      26.100  32.878  16.740  1.00  0.00     0.159 HD
ENDBRANCH  11  21
ENDBRANCH   5   6
ENDBRANCH   1   5
TORSDOF 7
BEGIN_RES LYS A 135
REMARK  4 active torsions:
REMARK  status: ('A' for Active; 'I' for Inactive)
REMARK    1  A    between atoms: CA   and  CB  
REMARK    2  A    between atoms: CB   and  CG  
REMARK    3  A    between atoms: CG   and  CD  
REMARK    4  A    between atoms: CD   and  CE  
ROOT
ATOM      1  CA  LYS A 135      33.193  34.663   9.290  1.00 25.02     0.186 C 
ENDROOT
BRANCH   1   2
ATOM      2  CB  LYS A 135      32.060  35.360  10.034  1.00 26.63     0.034 C 
BRANCH   2   3
ATOM      3  CG  LYS A 135      30.690  34.874   9.637  1.00 29.45     0.005 C 
BRANCH   3   4
ATOM      4  CD  LYS A 135      30.110  35.747   8.535  1.00 32.00     0.041 C 
BRANCH   4   5
ATOM      5  CE  LYS A 135      29.187  34.938   7.644  1.00 34.25     0.338 C 
ATOM      6  NZ  LYS A 135      28.785  35.716   6.440  1.00 35.99     0.618 N 
ENDBRANCH   4   5
ENDBRANCH   3   4
ENDBRANCH   2   3
ENDBRANCH   1   2
END_RES LYS A 135
BEGIN_RES ARG A 124
REMARK  4 active torsions:
REMARK  status: ('A' for Active; 'I' for Inactive)
REMARK    5  A    between atoms: CA   and  CB  
REMARK    6  A    between atoms: CB   and  CG  
REMARK    7  A    between atoms: CG   and  CD  
REMARK    8  A    between atoms: CD   and  NE  
REMARK       I    between atoms: NE   and  CZ  
ROOT
ATOM      7  CA  ARG A 124      31.045  26.515   9.594  1.00 17.84     0.186 C 
ENDROOT
BRANCH   7   8
ATOM      8  CB  ARG A 124      29.529  26.705   9.647  1.00 16.18     0.036 C 
BRANCH   8   9
ATOM      9  CG  ARG A 124      28.911  26.839  11.085  1.00 16.22     0.029 C 
BRANCH   9  10
ATOM     10  CD  ARG A 124      27.544  26.131  11.218  1.00 15.09     0.145 C 
BRANCH  10  11
ATOM     11  NE  ARG A 124      26.410  27.056  11.434  1.00 16.98    -0.083 NA
ATOM     12  CZ  ARG A 124      26.018  27.515  12.618  1.00 18.21     0.782 C 
ATOM     13  NH1 ARG A 124      26.650  27.173  13.734  1.00 21.11     0.063 N 
ATOM     14  NH2 ARG A 124      24.994  28.351  12.696  1.00 21.25     0.063 N 
ENDBRANCH  10  11
ENDBRANCH   9  10
ENDBRANCH   8   9
ENDBRANCH   7   8
END_RES ARG A 124
BEGIN_RES ASN A 133
REMARK  2 active torsions:
REMARK  status: ('A' for Active; 'I' for Inactive)
REMARK    9  A    between atoms: CA   and  CB  
REMARK   10  A    between atoms: CB   and  CG  
ROOT
ATOM     15  CA  ASN A 133      31.225  30.257  11.749  1.00 18.15     0.196 C 
ENDROOT
BRANCH  15  16
ATOM     16  CB  ASN A 133      30.092  31.240  11.460  1.00 18.27     0.126 C 
BRANCH  16  17
ATOM     17  CG  ASN A 133      28.745  30.589  11.400  1.00 18.94     0.276 C 
ATOM     18  OD1 ASN A 133      28.416  29.891  10.440  1.00 18.09    -0.269 OA
ATOM     19  ND2 ASN A 133      27.941  30.816  12.439  1.00 18.93    -0.107 N 
ENDBRANCH  16  17
ENDBRANCH  15  16
END_RES ASN A 133
BEGIN_RES LYS A 131
REMARK  4 active torsions:
REMARK  status: ('A' for Active; 'I' for Inactive)
REMARK   11  A    between atoms: CA   and  CB  
REMARK   12  A    between atoms: CB   and  CG  
REMARK   13  A    between atoms: CG   and  CD  
REMARK   14  A    between atoms: CD   and  CE  
ROOT
ATOM     20  CA  LYS A 131      29.867  25.555  16.977  1.00 20.52     0.186 C 
ENDROOT
BRANCH  20  21
ATOM     21  CB  LYS A 131      28.345  25.722  17.026  1.00 20.94     0.034 C 
BRANCH  21  22
ATOM     22  CG  LYS A 131      27.600  24.412  16.820  1.00 22.96     0.005 C 
BRANCH  22  23
ATOM     23  CD  LYS A 131      26.762  24.043  18.013  1.00 24.33     0.041 C 
BRANCH  23  24
ATOM     24  CE  LYS A 131      25.327  23.785  17.566  1.00 26.91     0.338 C 
ATOM     25  NZ  LYS A 131      25.037  22.331  17.566  1.00 27.40     0.618 N 
ENDBRANCH  23  24
ENDBRANCH  22  23
ENDBRANCH  21  22
ENDBRANCH  20  21
END_RES LYS A 131
