REMARK VINA RESULT:    -4.596      2.470      3.720
REMARK INTER + INTRA:         -12.658
REMARK INTER:                  -7.019
REMARK INTRA:                  -5.639
REMARK UNBOUND:                -6.451
REMARK SMILES NC[C@@H](C(=O)O)C(c1ccccc1)c1ccccc1
REMARK SMILES IDX 3 1 2 2 1 3 4 6 5 7 6 8 7 10 8 11 9 12 13 13 10 14 12 15
REMARK SMILES IDX 11 16 14 17 15 18 19 19 16 20 18 21 17 22
REMARK H PARENT 1 4 1 5 6 9
REMARK Flexibility Score: inf
ROOT
ATOM      1  C   UNL     1      28.999  37.687   6.865  1.00  0.00     0.124 C 
ENDROOT
BRANCH   1   2
ATOM      2  C   UNL     1      28.310  36.623   6.031  1.00  0.00     0.094 C 
BRANCH   2   3
ATOM      3  N   UNL     1      27.267  37.131   5.212  1.00  0.00    -0.330 NA
ATOM      4  H   UNL     1      26.724  36.422   4.689  1.00  0.00     0.118 HD
ATOM      5  H   UNL     1      26.695  37.883   5.639  1.00  0.00     0.118 HD
ENDBRANCH   2   3
ENDBRANCH   1   2
BRANCH   1   6
ATOM      6  C   UNL     1      28.321  38.966   6.545  1.00  0.00     0.308 C 
ATOM      7  O   UNL     1      28.821  39.727   5.688  1.00  0.00    -0.252 OA
BRANCH   6   8
ATOM      8  O   UNL     1      27.144  39.345   7.168  1.00  0.00    -0.481 OA
ATOM      9  H   UNL     1      26.938  39.214   8.141  1.00  0.00     0.296 HD
ENDBRANCH   6   8
ENDBRANCH   1   6
BRANCH   1  10
ATOM     10  C   UNL     1      28.851  37.459   8.329  1.00  0.00     0.065 C 
BRANCH  10  11
ATOM     11  C   UNL     1      28.994  36.055   8.773  1.00  0.00    -0.040 A 
ATOM     12  C   UNL     1      30.205  35.406   8.508  1.00  0.00     0.004 A 
ATOM     13  C   UNL     1      27.954  35.444   9.420  1.00  0.00     0.004 A 
ATOM     14  C   UNL     1      30.341  34.097   8.923  1.00  0.00     0.000 A 
ATOM     15  C   UNL     1      28.115  34.130   9.825  1.00  0.00     0.000 A 
ATOM     16  C   UNL     1      29.312  33.453   9.577  1.00  0.00     0.000 A 
ENDBRANCH  10  11
BRANCH  10  17
ATOM     17  C   UNL     1      29.869  38.255   9.054  1.00  0.00    -0.040 A 
ATOM     18  C   UNL     1      31.080  38.612   8.473  1.00  0.00     0.004 A 
ATOM     19  C   UNL     1      29.666  38.690  10.342  1.00  0.00     0.004 A 
ATOM     20  C   UNL     1      32.042  39.354   9.119  1.00  0.00     0.000 A 
ATOM     21  C   UNL     1      30.636  39.446  11.011  1.00  0.00     0.000 A 
ATOM     22  C   UNL     1      31.824  39.778  10.400  1.00  0.00     0.000 A 
ENDBRANCH  10  17
ENDBRANCH   1  10
TORSDOF 7
BEGIN_RES LYS A 135
REMARK  4 active torsions:
REMARK  status: ('A' for Active; 'I' for Inactive)
REMARK    1  A    between atoms: CA   and  CB  
REMARK    2  A    between atoms: CB   and  CG  
REMARK    3  A    between atoms: CG   and  CD  
REMARK    4  A    between atoms: CD   and  CE  
ROOT
ATOM      1  CA  LYS A 135      33.193  34.663   9.290  1.00 25.02     0.186 C 
ENDROOT
BRANCH   1   2
ATOM      2  CB  LYS A 135      32.060  35.360  10.034  1.00 26.63     0.034 C 
BRANCH   2   3
ATOM      3  CG  LYS A 135      32.528  36.195  11.198  1.00 29.45     0.005 C 
BRANCH   3   4
ATOM      4  CD  LYS A 135      31.897  35.709  12.494  1.00 32.00     0.041 C 
BRANCH   4   5
ATOM      5  CE  LYS A 135      30.388  35.642  12.360  1.00 34.25     0.338 C 
ATOM      6  NZ  LYS A 135      29.836  34.471  13.096  1.00 35.99     0.618 N 
ENDBRANCH   4   5
ENDBRANCH   3   4
ENDBRANCH   2   3
ENDBRANCH   1   2
END_RES LYS A 135
BEGIN_RES ARG A 124
REMARK  4 active torsions:
REMARK  status: ('A' for Active; 'I' for Inactive)
REMARK    5  A    between atoms: CA   and  CB  
REMARK    6  A    between atoms: CB   and  CG  
REMARK    7  A    between atoms: CG   and  CD  
REMARK    8  A    between atoms: CD   and  NE  
REMARK       I    between atoms: NE   and  CZ  
ROOT
ATOM      7  CA  ARG A 124      31.045  26.515   9.594  1.00 17.84     0.186 C 
ENDROOT
BRANCH   7   8
ATOM      8  CB  ARG A 124      29.529  26.705   9.647  1.00 16.18     0.036 C 
BRANCH   8   9
ATOM      9  CG  ARG A 124      28.896  26.715  11.084  1.00 16.22     0.029 C 
BRANCH   9  10
ATOM     10  CD  ARG A 124      27.495  26.064  11.127  1.00 15.09     0.145 C 
BRANCH  10  11
ATOM     11  NE  ARG A 124      26.398  27.021  11.389  1.00 16.98    -0.083 NA
ATOM     12  CZ  ARG A 124      26.074  27.497  12.586  1.00 18.21     0.782 C 
ATOM     13  NH1 ARG A 124      26.747  27.143  13.675  1.00 21.11     0.063 N 
ATOM     14  NH2 ARG A 124      25.078  28.361  12.707  1.00 21.25     0.063 N 
ENDBRANCH  10  11
ENDBRANCH   9  10
ENDBRANCH   8   9
ENDBRANCH   7   8
END_RES ARG A 124
BEGIN_RES ASN A 133
REMARK  2 active torsions:
REMARK  status: ('A' for Active; 'I' for Inactive)
REMARK    9  A    between atoms: CA   and  CB  
REMARK   10  A    between atoms: CB   and  CG  
ROOT
ATOM     15  CA  ASN A 133      31.225  30.257  11.749  1.00 18.15     0.196 C 
ENDROOT
BRANCH  15  16
ATOM     16  CB  ASN A 133      30.092  31.240  11.460  1.00 18.27     0.126 C 
BRANCH  16  17
ATOM     17  CG  ASN A 133      28.731  30.631  11.598  1.00 18.94     0.276 C 
ATOM     18  OD1 ASN A 133      28.334  29.771  10.810  1.00 18.09    -0.269 OA
ATOM     19  ND2 ASN A 133      27.993  31.078  12.613  1.00 18.93    -0.107 N 
ENDBRANCH  16  17
ENDBRANCH  15  16
END_RES ASN A 133
BEGIN_RES LYS A 131
REMARK  4 active torsions:
REMARK  status: ('A' for Active; 'I' for Inactive)
REMARK   11  A    between atoms: CA   and  CB  
REMARK   12  A    between atoms: CB   and  CG  
REMARK   13  A    between atoms: CG   and  CD  
REMARK   14  A    between atoms: CD   and  CE  
ROOT
ATOM     20  CA  LYS A 131      29.867  25.555  16.977  1.00 20.52     0.186 C 
ENDROOT
BRANCH  20  21
ATOM     21  CB  LYS A 131      28.345  25.722  17.026  1.00 20.94     0.034 C 
BRANCH  21  22
ATOM     22  CG  LYS A 131      27.599  24.434  16.714  1.00 22.96     0.005 C 
BRANCH  22  23
ATOM     23  CD  LYS A 131      26.938  23.853  17.933  1.00 24.33     0.041 C 
BRANCH  23  24
ATOM     24  CE  LYS A 131      25.574  23.287  17.552  1.00 26.91     0.338 C 
ATOM     25  NZ  LYS A 131      24.733  24.336  16.930  1.00 27.40     0.618 N 
ENDBRANCH  23  24
ENDBRANCH  22  23
ENDBRANCH  21  22
ENDBRANCH  20  21
END_RES LYS A 131
