REMARK VINA RESULT:    -2.753      5.028      7.175
REMARK INTER + INTRA:          -8.938
REMARK INTER:                  -3.330
REMARK INTRA:                  -5.608
REMARK UNBOUND:                -5.863
REMARK SMILES Nc1cccc(S(N)(=O)=O)c1
REMARK SMILES IDX 3 1 4 2 5 3 6 4 11 5 2 6 1 7 7 10 9 11 10 12 8 13
REMARK H PARENT 1 8 1 9 8 14 8 15
REMARK Flexibility Score: inf
ROOT
ATOM      1  C   UNL     1      32.064  33.862  15.302  1.00  0.00     0.025 A 
ATOM      2  C   UNL     1      31.441  32.634  15.282  1.00  0.00     0.004 A 
ATOM      3  C   UNL     1      30.886  32.146  16.444  1.00  0.00     0.022 A 
ATOM      4  C   UNL     1      30.938  32.845  17.611  1.00  0.00     0.084 A 
ATOM      5  C   UNL     1      31.556  34.067  17.638  1.00  0.00     0.047 A 
ATOM      6  C   UNL     1      32.116  34.562  16.476  1.00  0.00     0.033 A 
ENDROOT
BRANCH   6   7
ATOM      7  N   UNL     1      32.755  35.844  16.539  1.00  0.00    -0.399 N 
ATOM      8  H   UNL     1      32.369  36.653  15.988  1.00  0.00     0.156 HD
ATOM      9  H   UNL     1      33.590  35.991  17.115  1.00  0.00     0.156 HD
ENDBRANCH   6   7
BRANCH   4  10
ATOM     10  S   UNL     1      30.230  32.225  19.099  1.00  0.00     0.238 S 
ATOM     11  O   UNL     1      30.149  30.734  19.011  1.00  0.00    -0.207 OA
ATOM     12  O   UNL     1      31.092  32.604  20.265  1.00  0.00    -0.207 OA
BRANCH  10  13
ATOM     13  N   UNL     1      28.620  32.830  19.251  1.00  0.00    -0.225 NA
ATOM     14  H   UNL     1      28.265  32.598  20.215  1.00  0.00     0.137 HD
ATOM     15  H   UNL     1      28.681  33.873  19.223  1.00  0.00     0.137 HD
ENDBRANCH  10  13
ENDBRANCH   4  10
TORSDOF 3
BEGIN_RES LYS A 135
REMARK  4 active torsions:
REMARK  status: ('A' for Active; 'I' for Inactive)
REMARK    1  A    between atoms: CA   and  CB  
REMARK    2  A    between atoms: CB   and  CG  
REMARK    3  A    between atoms: CG   and  CD  
REMARK    4  A    between atoms: CD   and  CE  
ROOT
ATOM      1  CA  LYS A 135      33.193  34.663   9.290  1.00 25.02     0.186 C 
ENDROOT
BRANCH   1   2
ATOM      2  CB  LYS A 135      32.060  35.360  10.034  1.00 26.63     0.034 C 
BRANCH   2   3
ATOM      3  CG  LYS A 135      30.740  34.640   9.934  1.00 29.45     0.005 C 
BRANCH   3   4
ATOM      4  CD  LYS A 135      30.315  34.499   8.480  1.00 32.00     0.041 C 
BRANCH   4   5
ATOM      5  CE  LYS A 135      28.802  34.489   8.366  1.00 34.25     0.338 C 
ATOM      6  NZ  LYS A 135      28.183  33.781   9.521  1.00 35.99     0.618 N 
ENDBRANCH   4   5
ENDBRANCH   3   4
ENDBRANCH   2   3
ENDBRANCH   1   2
END_RES LYS A 135
BEGIN_RES ARG A 124
REMARK  4 active torsions:
REMARK  status: ('A' for Active; 'I' for Inactive)
REMARK    5  A    between atoms: CA   and  CB  
REMARK    6  A    between atoms: CB   and  CG  
REMARK    7  A    between atoms: CG   and  CD  
REMARK    8  A    between atoms: CD   and  NE  
REMARK       I    between atoms: NE   and  CZ  
ROOT
ATOM      7  CA  ARG A 124      31.045  26.515   9.594  1.00 17.84     0.186 C 
ENDROOT
BRANCH   7   8
ATOM      8  CB  ARG A 124      29.529  26.705   9.647  1.00 16.18     0.036 C 
BRANCH   8   9
ATOM      9  CG  ARG A 124      28.970  27.337  10.972  1.00 16.22     0.029 C 
BRANCH   9  10
ATOM     10  CD  ARG A 124      28.411  26.279  11.951  1.00 15.09     0.145 C 
BRANCH  10  11
ATOM     11  NE  ARG A 124      27.978  26.838  13.251  1.00 16.98    -0.083 NA
ATOM     12  CZ  ARG A 124      26.753  27.275  13.520  1.00 18.21     0.782 C 
ATOM     13  NH1 ARG A 124      25.788  27.229  12.609  1.00 21.11     0.063 N 
ATOM     14  NH2 ARG A 124      26.469  27.747  14.724  1.00 21.25     0.063 N 
ENDBRANCH  10  11
ENDBRANCH   9  10
ENDBRANCH   8   9
ENDBRANCH   7   8
END_RES ARG A 124
BEGIN_RES ASN A 133
REMARK  2 active torsions:
REMARK  status: ('A' for Active; 'I' for Inactive)
REMARK    9  A    between atoms: CA   and  CB  
REMARK   10  A    between atoms: CB   and  CG  
ROOT
ATOM     15  CA  ASN A 133      31.225  30.257  11.749  1.00 18.15     0.196 C 
ENDROOT
BRANCH  15  16
ATOM     16  CB  ASN A 133      30.092  31.240  11.460  1.00 18.27     0.126 C 
BRANCH  16  17
ATOM     17  CG  ASN A 133      28.876  31.005  12.301  1.00 18.94     0.276 C 
ATOM     18  OD1 ASN A 133      28.762  31.518  13.416  1.00 18.09    -0.269 OA
ATOM     19  ND2 ASN A 133      27.944  30.215  11.770  1.00 18.93    -0.107 N 
ENDBRANCH  16  17
ENDBRANCH  15  16
END_RES ASN A 133
BEGIN_RES LYS A 131
REMARK  4 active torsions:
REMARK  status: ('A' for Active; 'I' for Inactive)
REMARK   11  A    between atoms: CA   and  CB  
REMARK   12  A    between atoms: CB   and  CG  
REMARK   13  A    between atoms: CG   and  CD  
REMARK   14  A    between atoms: CD   and  CE  
ROOT
ATOM     20  CA  LYS A 131      29.867  25.555  16.977  1.00 20.52     0.186 C 
ENDROOT
BRANCH  20  21
ATOM     21  CB  LYS A 131      28.345  25.722  17.026  1.00 20.94     0.034 C 
BRANCH  21  22
ATOM     22  CG  LYS A 131      27.599  24.441  16.688  1.00 22.96     0.005 C 
BRANCH  22  23
ATOM     23  CD  LYS A 131      26.990  23.801  17.905  1.00 24.33     0.041 C 
BRANCH  23  24
ATOM     24  CE  LYS A 131      25.625  23.222  17.547  1.00 26.91     0.338 C 
ATOM     25  NZ  LYS A 131      24.762  24.263  16.942  1.00 27.40     0.618 N 
ENDBRANCH  23  24
ENDBRANCH  22  23
ENDBRANCH  21  22
ENDBRANCH  20  21
END_RES LYS A 131
