REMARK VINA RESULT:    -4.998      2.152      2.483
REMARK INTER + INTRA:         -11.014
REMARK INTER:                  -6.540
REMARK INTRA:                  -4.474
REMARK UNBOUND:                -4.555
REMARK SMILES NCC(O)CCc1ccccc1
REMARK SMILES IDX 5 1 3 2 2 3 1 4 4 7 6 9 7 10 8 11 12 12 9 13 11 14 10 15
REMARK H PARENT 1 5 1 6 4 8
REMARK Flexibility Score: inf
ROOT
ATOM      1  C   UNL     1      26.237  36.341   7.974  1.00  0.00     0.038 C 
ENDROOT
BRANCH   1   2
ATOM      2  C   UNL     1      25.110  37.037   8.674  1.00  0.00     0.128 C 
BRANCH   2   3
ATOM      3  C   UNL     1      24.479  38.128   7.870  1.00  0.00     0.109 C 
BRANCH   3   4
ATOM      4  N   UNL     1      23.341  37.576   7.164  1.00  0.00    -0.328 NA
ATOM      5  H   UNL     1      22.495  37.482   7.732  1.00  0.00     0.118 HD
ATOM      6  H   UNL     1      23.196  38.002   6.222  1.00  0.00     0.118 HD
ENDBRANCH   3   4
ENDBRANCH   2   3
BRANCH   2   7
ATOM      7  O   UNL     1      24.115  36.066   8.902  1.00  0.00    -0.392 OA
ATOM      8  H   UNL     1      23.285  36.536   9.179  1.00  0.00     0.211 HD
ENDBRANCH   2   7
ENDBRANCH   1   2
BRANCH   1   9
ATOM      9  C   UNL     1      26.456  34.932   8.473  1.00  0.00     0.038 C 
BRANCH   9  10
ATOM     10  C   UNL     1      27.904  34.635   8.627  1.00  0.00    -0.048 A 
ATOM     11  C   UNL     1      28.388  33.882   9.688  1.00  0.00     0.004 A 
ATOM     12  C   UNL     1      28.846  35.097   7.717  1.00  0.00     0.004 A 
ATOM     13  C   UNL     1      29.728  33.610   9.828  1.00  0.00     0.000 A 
ATOM     14  C   UNL     1      30.189  34.832   7.842  1.00  0.00     0.000 A 
ATOM     15  C   UNL     1      30.631  34.080   8.912  1.00  0.00     0.000 A 
ENDBRANCH   9  10
ENDBRANCH   1   9
TORSDOF 6
BEGIN_RES LYS A 135
REMARK  4 active torsions:
REMARK  status: ('A' for Active; 'I' for Inactive)
REMARK    1  A    between atoms: CA   and  CB  
REMARK    2  A    between atoms: CB   and  CG  
REMARK    3  A    between atoms: CG   and  CD  
REMARK    4  A    between atoms: CD   and  CE  
ROOT
ATOM      1  CA  LYS A 135      33.193  34.663   9.290  1.00 25.02     0.186 C 
ENDROOT
BRANCH   1   2
ATOM      2  CB  LYS A 135      32.060  35.360  10.034  1.00 26.63     0.034 C 
BRANCH   2   3
ATOM      3  CG  LYS A 135      32.528  36.196  11.198  1.00 29.45     0.005 C 
BRANCH   3   4
ATOM      4  CD  LYS A 135      31.622  37.403  11.390  1.00 32.00     0.041 C 
BRANCH   4   5
ATOM      5  CE  LYS A 135      30.164  36.990  11.328  1.00 34.25     0.338 C 
ATOM      6  NZ  LYS A 135      29.447  37.714  10.243  1.00 35.99     0.618 N 
ENDBRANCH   4   5
ENDBRANCH   3   4
ENDBRANCH   2   3
ENDBRANCH   1   2
END_RES LYS A 135
BEGIN_RES ARG A 124
REMARK  4 active torsions:
REMARK  status: ('A' for Active; 'I' for Inactive)
REMARK    5  A    between atoms: CA   and  CB  
REMARK    6  A    between atoms: CB   and  CG  
REMARK    7  A    between atoms: CG   and  CD  
REMARK    8  A    between atoms: CD   and  NE  
REMARK       I    between atoms: NE   and  CZ  
ROOT
ATOM      7  CA  ARG A 124      31.045  26.515   9.594  1.00 17.84     0.186 C 
ENDROOT
BRANCH   7   8
ATOM      8  CB  ARG A 124      29.529  26.705   9.647  1.00 16.18     0.036 C 
BRANCH   8   9
ATOM      9  CG  ARG A 124      28.894  26.696  11.083  1.00 16.22     0.029 C 
BRANCH   9  10
ATOM     10  CD  ARG A 124      27.480  26.070  11.110  1.00 15.09     0.145 C 
BRANCH  10  11
ATOM     11  NE  ARG A 124      26.398  27.046  11.363  1.00 16.98    -0.083 NA
ATOM     12  CZ  ARG A 124      26.043  27.493  12.563  1.00 18.21     0.782 C 
ATOM     13  NH1 ARG A 124      26.668  27.090  13.663  1.00 21.11     0.063 N 
ATOM     14  NH2 ARG A 124      25.065  28.378  12.676  1.00 21.25     0.063 N 
ENDBRANCH  10  11
ENDBRANCH   9  10
ENDBRANCH   8   9
ENDBRANCH   7   8
END_RES ARG A 124
BEGIN_RES ASN A 133
REMARK  2 active torsions:
REMARK  status: ('A' for Active; 'I' for Inactive)
REMARK    9  A    between atoms: CA   and  CB  
REMARK   10  A    between atoms: CB   and  CG  
ROOT
ATOM     15  CA  ASN A 133      31.225  30.257  11.749  1.00 18.15     0.196 C 
ENDROOT
BRANCH  15  16
ATOM     16  CB  ASN A 133      30.092  31.240  11.460  1.00 18.27     0.126 C 
BRANCH  16  17
ATOM     17  CG  ASN A 133      28.732  30.619  11.551  1.00 18.94     0.276 C 
ATOM     18  OD1 ASN A 133      28.354  29.787  10.724  1.00 18.09    -0.269 OA
ATOM     19  ND2 ASN A 133      27.974  31.023  12.569  1.00 18.93    -0.107 N 
ENDBRANCH  16  17
ENDBRANCH  15  16
END_RES ASN A 133
BEGIN_RES LYS A 131
REMARK  4 active torsions:
REMARK  status: ('A' for Active; 'I' for Inactive)
REMARK   11  A    between atoms: CA   and  CB  
REMARK   12  A    between atoms: CB   and  CG  
REMARK   13  A    between atoms: CG   and  CD  
REMARK   14  A    between atoms: CD   and  CE  
ROOT
ATOM     20  CA  LYS A 131      29.867  25.555  16.977  1.00 20.52     0.186 C 
ENDROOT
BRANCH  20  21
ATOM     21  CB  LYS A 131      28.345  25.722  17.026  1.00 20.94     0.034 C 
BRANCH  21  22
ATOM     22  CG  LYS A 131      27.599  24.440  16.692  1.00 22.96     0.005 C 
BRANCH  22  23
ATOM     23  CD  LYS A 131      26.935  23.839  17.900  1.00 24.33     0.041 C 
BRANCH  23  24
ATOM     24  CE  LYS A 131      25.507  23.434  17.548  1.00 26.91     0.338 C 
ATOM     25  NZ  LYS A 131      24.795  24.557  16.894  1.00 27.40     0.618 N 
ENDBRANCH  23  24
ENDBRANCH  22  23
ENDBRANCH  21  22
ENDBRANCH  20  21
END_RES LYS A 131
