REMARK VINA RESULT:    -2.690      4.955     10.985
REMARK INTER + INTRA:          -8.787
REMARK INTER:                  -4.798
REMARK INTRA:                  -3.989
REMARK UNBOUND:                -5.705
REMARK SMILES NCC(=O)Nc1ncccn1
REMARK SMILES IDX 5 1 3 2 4 3 6 5 7 6 8 7 9 8 11 9 10 10 2 11 1 12
REMARK H PARENT 5 4 1 13 1 14
REMARK Flexibility Score: inf
ROOT
ATOM      1  N   UNL     1      30.091  33.704  11.342  1.00  0.00    -0.293 N 
ATOM      2  C   UNL     1      29.881  34.402  12.543  1.00  0.00     0.240 C 
ATOM      3  O   UNL     1      29.109  35.377  12.547  1.00  0.00    -0.273 OA
ATOM      4  H   UNL     1      30.739  32.889  11.346  1.00  0.00     0.173 HD
ENDROOT
BRANCH   1   5
ATOM      5  C   UNL     1      29.454  34.074  10.152  1.00  0.00     0.229 A 
ATOM      6  N   UNL     1      30.140  34.498   9.086  1.00  0.00    -0.221 NA
ATOM      7  C   UNL     1      29.564  34.860   7.933  1.00  0.00     0.117 A 
ATOM      8  C   UNL     1      28.193  34.792   7.839  1.00  0.00     0.040 A 
ATOM      9  N   UNL     1      28.126  34.010  10.059  1.00  0.00    -0.221 NA
ATOM     10  C   UNL     1      27.460  34.354   8.939  1.00  0.00     0.117 A 
ENDBRANCH   1   5
BRANCH   2  11
ATOM     11  C   UNL     1      30.559  34.008  13.804  1.00  0.00     0.179 C 
BRANCH  11  12
ATOM     12  N   UNL     1      30.357  32.608  14.071  1.00  0.00    -0.322 NA
ATOM     13  H   UNL     1      29.707  32.169  13.377  1.00  0.00     0.119 HD
ATOM     14  H   UNL     1      31.289  32.142  14.101  1.00  0.00     0.119 HD
ENDBRANCH  11  12
ENDBRANCH   2  11
TORSDOF 3
BEGIN_RES LYS A 135
REMARK  4 active torsions:
REMARK  status: ('A' for Active; 'I' for Inactive)
REMARK    1  A    between atoms: CA   and  CB  
REMARK    2  A    between atoms: CB   and  CG  
REMARK    3  A    between atoms: CG   and  CD  
REMARK    4  A    between atoms: CD   and  CE  
ROOT
ATOM      1  CA  LYS A 135      33.193  34.663   9.290  1.00 25.02     0.186 C 
ENDROOT
BRANCH   1   2
ATOM      2  CB  LYS A 135      32.060  35.360  10.034  1.00 26.63     0.034 C 
BRANCH   2   3
ATOM      3  CG  LYS A 135      32.531  36.231  11.170  1.00 29.45     0.005 C 
BRANCH   3   4
ATOM      4  CD  LYS A 135      31.681  37.488  11.271  1.00 32.00     0.041 C 
BRANCH   4   5
ATOM      5  CE  LYS A 135      30.979  37.763   9.955  1.00 34.25     0.338 C 
ATOM      6  NZ  LYS A 135      29.503  37.841  10.140  1.00 35.99     0.618 N 
ENDBRANCH   4   5
ENDBRANCH   3   4
ENDBRANCH   2   3
ENDBRANCH   1   2
END_RES LYS A 135
BEGIN_RES ARG A 124
REMARK  4 active torsions:
REMARK  status: ('A' for Active; 'I' for Inactive)
REMARK    5  A    between atoms: CA   and  CB  
REMARK    6  A    between atoms: CB   and  CG  
REMARK    7  A    between atoms: CG   and  CD  
REMARK    8  A    between atoms: CD   and  NE  
REMARK       I    between atoms: NE   and  CZ  
ROOT
ATOM      7  CA  ARG A 124      31.045  26.515   9.594  1.00 17.84     0.186 C 
ENDROOT
BRANCH   7   8
ATOM      8  CB  ARG A 124      29.529  26.705   9.647  1.00 16.18     0.036 C 
BRANCH   8   9
ATOM      9  CG  ARG A 124      28.756  25.730  10.605  1.00 16.22     0.029 C 
BRANCH   9  10
ATOM     10  CD  ARG A 124      27.575  26.414  11.332  1.00 15.09     0.145 C 
BRANCH  10  11
ATOM     11  NE  ARG A 124      27.926  26.953  12.664  1.00 16.98    -0.083 NA
ATOM     12  CZ  ARG A 124      27.156  27.763  13.383  1.00 18.21     0.782 C 
ATOM     13  NH1 ARG A 124      25.964  28.151  12.944  1.00 21.11     0.063 N 
ATOM     14  NH2 ARG A 124      27.563  28.180  14.572  1.00 21.25     0.063 N 
ENDBRANCH  10  11
ENDBRANCH   9  10
ENDBRANCH   8   9
ENDBRANCH   7   8
END_RES ARG A 124
BEGIN_RES ASN A 133
REMARK  2 active torsions:
REMARK  status: ('A' for Active; 'I' for Inactive)
REMARK    9  A    between atoms: CA   and  CB  
REMARK   10  A    between atoms: CB   and  CG  
ROOT
ATOM     15  CA  ASN A 133      31.225  30.257  11.749  1.00 18.15     0.196 C 
ENDROOT
BRANCH  15  16
ATOM     16  CB  ASN A 133      30.092  31.240  11.460  1.00 18.27     0.126 C 
BRANCH  16  17
ATOM     17  CG  ASN A 133      28.742  30.593  11.422  1.00 18.94     0.276 C 
ATOM     18  OD1 ASN A 133      28.517  29.629  10.687  1.00 18.09    -0.269 OA
ATOM     19  ND2 ASN A 133      27.818  31.124  12.222  1.00 18.93    -0.107 N 
ENDBRANCH  16  17
ENDBRANCH  15  16
END_RES ASN A 133
BEGIN_RES LYS A 131
REMARK  4 active torsions:
REMARK  status: ('A' for Active; 'I' for Inactive)
REMARK   11  A    between atoms: CA   and  CB  
REMARK   12  A    between atoms: CB   and  CG  
REMARK   13  A    between atoms: CG   and  CD  
REMARK   14  A    between atoms: CD   and  CE  
ROOT
ATOM     20  CA  LYS A 131      29.867  25.555  16.977  1.00 20.52     0.186 C 
ENDROOT
BRANCH  20  21
ATOM     21  CB  LYS A 131      28.345  25.722  17.026  1.00 20.94     0.034 C 
BRANCH  21  22
ATOM     22  CG  LYS A 131      27.599  24.431  16.726  1.00 22.96     0.005 C 
BRANCH  22  23
ATOM     23  CD  LYS A 131      26.952  23.853  17.954  1.00 24.33     0.041 C 
BRANCH  23  24
ATOM     24  CE  LYS A 131      25.630  23.196  17.572  1.00 26.91     0.338 C 
ATOM     25  NZ  LYS A 131      24.717  24.187  16.956  1.00 27.40     0.618 N 
ENDBRANCH  23  24
ENDBRANCH  22  23
ENDBRANCH  21  22
ENDBRANCH  20  21
END_RES LYS A 131
