REMARK VINA RESULT:    -3.440      6.142     10.391
REMARK INTER + INTRA:          -8.835
REMARK INTER:                  -3.719
REMARK INTRA:                  -5.116
REMARK UNBOUND:                -4.892
REMARK SMILES COc1ccc(CN)cc1
REMARK SMILES IDX 3 1 4 2 5 3 6 4 9 5 10 6 2 7 1 8 7 9 8 10
REMARK H PARENT 8 11 8 12
REMARK Flexibility Score: inf
ROOT
ATOM      1  C   UNL     1      23.840  30.090  13.019  1.00  0.00     0.118 A 
ATOM      2  C   UNL     1      23.057  29.030  12.635  1.00  0.00     0.047 A 
ATOM      3  C   UNL     1      21.713  29.211  12.300  1.00  0.00     0.009 A 
ATOM      4  C   UNL     1      21.177  30.462  12.356  1.00  0.00    -0.034 A 
ATOM      5  C   UNL     1      21.936  31.543  12.736  1.00  0.00     0.009 A 
ATOM      6  C   UNL     1      23.279  31.342  13.068  1.00  0.00     0.047 A 
ENDROOT
BRANCH   1   7
ATOM      7  O   UNL     1      25.157  29.916  13.348  1.00  0.00    -0.497 OA
ATOM      8  C   UNL     1      25.619  29.638  14.654  1.00  0.00     0.278 C 
ENDBRANCH   1   7
BRANCH   4   9
ATOM      9  C   UNL     1      19.765  30.691  12.011  1.00  0.00     0.113 C 
BRANCH   9  10
ATOM     10  N   UNL     1      19.477  32.085  11.719  1.00  0.00    -0.326 NA
ATOM     11  H   UNL     1      18.430  32.131  11.550  1.00  0.00     0.119 HD
ATOM     12  H   UNL     1      19.740  32.725  12.493  1.00  0.00     0.119 HD
ENDBRANCH   9  10
ENDBRANCH   4   9
TORSDOF 3
BEGIN_RES LYS A 135
REMARK  4 active torsions:
REMARK  status: ('A' for Active; 'I' for Inactive)
REMARK    1  A    between atoms: CA   and  CB  
REMARK    2  A    between atoms: CB   and  CG  
REMARK    3  A    between atoms: CG   and  CD  
REMARK    4  A    between atoms: CD   and  CE  
ROOT
ATOM      1  CA  LYS A 135      33.193  34.663   9.290  1.00 25.02     0.186 C 
ENDROOT
BRANCH   1   2
ATOM      2  CB  LYS A 135      32.060  35.360  10.034  1.00 26.63     0.034 C 
BRANCH   2   3
ATOM      3  CG  LYS A 135      30.784  35.453   9.238  1.00 29.45     0.005 C 
BRANCH   3   4
ATOM      4  CD  LYS A 135      30.191  34.071   9.012  1.00 32.00     0.041 C 
BRANCH   4   5
ATOM      5  CE  LYS A 135      28.678  34.118   9.109  1.00 34.25     0.338 C 
ATOM      6  NZ  LYS A 135      28.090  34.871   7.966  1.00 35.99     0.618 N 
ENDBRANCH   4   5
ENDBRANCH   3   4
ENDBRANCH   2   3
ENDBRANCH   1   2
END_RES LYS A 135
BEGIN_RES ARG A 124
REMARK  4 active torsions:
REMARK  status: ('A' for Active; 'I' for Inactive)
REMARK    5  A    between atoms: CA   and  CB  
REMARK    6  A    between atoms: CB   and  CG  
REMARK    7  A    between atoms: CG   and  CD  
REMARK    8  A    between atoms: CD   and  NE  
REMARK       I    between atoms: NE   and  CZ  
ROOT
ATOM      7  CA  ARG A 124      31.045  26.515   9.594  1.00 17.84     0.186 C 
ENDROOT
BRANCH   7   8
ATOM      8  CB  ARG A 124      29.529  26.705   9.647  1.00 16.18     0.036 C 
BRANCH   8   9
ATOM      9  CG  ARG A 124      29.030  28.194   9.628  1.00 16.22     0.029 C 
BRANCH   9  10
ATOM     10  CD  ARG A 124      27.956  28.481  10.702  1.00 15.09     0.145 C 
BRANCH  10  11
ATOM     11  NE  ARG A 124      28.214  27.817  11.998  1.00 16.98    -0.083 NA
ATOM     12  CZ  ARG A 124      27.328  27.089  12.669  1.00 18.21     0.782 C 
ATOM     13  NH1 ARG A 124      26.103  26.887  12.198  1.00 21.11     0.063 N 
ATOM     14  NH2 ARG A 124      27.668  26.529  13.819  1.00 21.25     0.063 N 
ENDBRANCH  10  11
ENDBRANCH   9  10
ENDBRANCH   8   9
ENDBRANCH   7   8
END_RES ARG A 124
BEGIN_RES ASN A 133
REMARK  2 active torsions:
REMARK  status: ('A' for Active; 'I' for Inactive)
REMARK    9  A    between atoms: CA   and  CB  
REMARK   10  A    between atoms: CB   and  CG  
ROOT
ATOM     15  CA  ASN A 133      31.225  30.257  11.749  1.00 18.15     0.196 C 
ENDROOT
BRANCH  15  16
ATOM     16  CB  ASN A 133      30.092  31.240  11.460  1.00 18.27     0.126 C 
BRANCH  16  17
ATOM     17  CG  ASN A 133      29.350  31.665  12.689  1.00 18.94     0.276 C 
ATOM     18  OD1 ASN A 133      28.434  30.981  13.150  1.00 18.09    -0.269 OA
ATOM     19  ND2 ASN A 133      29.741  32.815  13.238  1.00 18.93    -0.107 N 
ENDBRANCH  16  17
ENDBRANCH  15  16
END_RES ASN A 133
BEGIN_RES LYS A 131
REMARK  4 active torsions:
REMARK  status: ('A' for Active; 'I' for Inactive)
REMARK   11  A    between atoms: CA   and  CB  
REMARK   12  A    between atoms: CB   and  CG  
REMARK   13  A    between atoms: CG   and  CD  
REMARK   14  A    between atoms: CD   and  CE  
ROOT
ATOM     20  CA  LYS A 131      29.867  25.555  16.977  1.00 20.52     0.186 C 
ENDROOT
BRANCH  20  21
ATOM     21  CB  LYS A 131      28.345  25.722  17.026  1.00 20.94     0.034 C 
BRANCH  21  22
ATOM     22  CG  LYS A 131      27.600  24.407  16.850  1.00 22.96     0.005 C 
BRANCH  22  23
ATOM     23  CD  LYS A 131      26.411  24.304  17.764  1.00 24.33     0.041 C 
BRANCH  23  24
ATOM     24  CE  LYS A 131      25.583  25.582  17.669  1.00 26.91     0.338 C 
ATOM     25  NZ  LYS A 131      24.704  25.543  16.476  1.00 27.40     0.618 N 
ENDBRANCH  23  24
ENDBRANCH  22  23
ENDBRANCH  21  22
ENDBRANCH  20  21
END_RES LYS A 131
