REMARK VINA RESULT:    -3.199      5.359     10.720
REMARK INTER + INTRA:          -9.371
REMARK INTER:                  -3.874
REMARK INTRA:                  -5.497
REMARK UNBOUND:                -5.705
REMARK SMILES NCC(=O)Nc1ncccn1
REMARK SMILES IDX 5 1 3 2 4 3 6 5 7 6 8 7 9 8 11 9 10 10 2 11 1 12
REMARK H PARENT 5 4 1 13 1 14
REMARK Flexibility Score: inf
ROOT
ATOM      1  N   UNL     1      31.010  32.353  15.043  1.00  0.00    -0.293 N 
ATOM      2  C   UNL     1      30.366  32.199  16.282  1.00  0.00     0.240 C 
ATOM      3  O   UNL     1      30.137  33.208  16.972  1.00  0.00    -0.273 OA
ATOM      4  H   UNL     1      31.200  31.503  14.471  1.00  0.00     0.173 HD
ENDROOT
BRANCH   1   5
ATOM      5  C   UNL     1      31.400  33.609  14.565  1.00  0.00     0.229 A 
ATOM      6  N   UNL     1      32.594  34.135  14.852  1.00  0.00    -0.221 NA
ATOM      7  C   UNL     1      33.000  35.333  14.411  1.00  0.00     0.117 A 
ATOM      8  C   UNL     1      32.141  36.061  13.620  1.00  0.00     0.040 A 
ATOM      9  N   UNL     1      30.569  34.317  13.798  1.00  0.00    -0.221 NA
ATOM     10  C   UNL     1      30.891  35.531  13.310  1.00  0.00     0.117 A 
ENDBRANCH   1   5
BRANCH   2  11
ATOM     11  C   UNL     1      29.955  30.865  16.789  1.00  0.00     0.179 C 
BRANCH  11  12
ATOM     12  N   UNL     1      29.139  30.184  15.817  1.00  0.00    -0.322 NA
ATOM     13  H   UNL     1      29.438  30.402  14.838  1.00  0.00     0.119 HD
ATOM     14  H   UNL     1      29.161  29.164  16.027  1.00  0.00     0.119 HD
ENDBRANCH  11  12
ENDBRANCH   2  11
TORSDOF 3
BEGIN_RES LYS A 135
REMARK  4 active torsions:
REMARK  status: ('A' for Active; 'I' for Inactive)
REMARK    1  A    between atoms: CA   and  CB  
REMARK    2  A    between atoms: CB   and  CG  
REMARK    3  A    between atoms: CG   and  CD  
REMARK    4  A    between atoms: CD   and  CE  
ROOT
ATOM      1  CA  LYS A 135      33.193  34.663   9.290  1.00 25.02     0.186 C 
ENDROOT
BRANCH   1   2
ATOM      2  CB  LYS A 135      32.060  35.360  10.034  1.00 26.63     0.034 C 
BRANCH   2   3
ATOM      3  CG  LYS A 135      30.695  34.817   9.698  1.00 29.45     0.005 C 
BRANCH   3   4
ATOM      4  CD  LYS A 135      30.600  34.481   8.218  1.00 32.00     0.041 C 
BRANCH   4   5
ATOM      5  CE  LYS A 135      29.382  35.140   7.599  1.00 34.25     0.338 C 
ATOM      6  NZ  LYS A 135      28.129  34.670   8.250  1.00 35.99     0.618 N 
ENDBRANCH   4   5
ENDBRANCH   3   4
ENDBRANCH   2   3
ENDBRANCH   1   2
END_RES LYS A 135
BEGIN_RES ARG A 124
REMARK  4 active torsions:
REMARK  status: ('A' for Active; 'I' for Inactive)
REMARK    5  A    between atoms: CA   and  CB  
REMARK    6  A    between atoms: CB   and  CG  
REMARK    7  A    between atoms: CG   and  CD  
REMARK    8  A    between atoms: CD   and  NE  
REMARK       I    between atoms: NE   and  CZ  
ROOT
ATOM      7  CA  ARG A 124      31.045  26.515   9.594  1.00 17.84     0.186 C 
ENDROOT
BRANCH   7   8
ATOM      8  CB  ARG A 124      29.529  26.705   9.647  1.00 16.18     0.036 C 
BRANCH   8   9
ATOM      9  CG  ARG A 124      28.969  27.330  10.975  1.00 16.22     0.029 C 
BRANCH   9  10
ATOM     10  CD  ARG A 124      28.409  26.267  11.948  1.00 15.09     0.145 C 
BRANCH  10  11
ATOM     11  NE  ARG A 124      27.976  26.818  13.251  1.00 16.98    -0.083 NA
ATOM     12  CZ  ARG A 124      26.760  27.285  13.513  1.00 18.21     0.782 C 
ATOM     13  NH1 ARG A 124      25.805  27.277  12.591  1.00 21.11     0.063 N 
ATOM     14  NH2 ARG A 124      26.475  27.747  14.721  1.00 21.25     0.063 N 
ENDBRANCH  10  11
ENDBRANCH   9  10
ENDBRANCH   8   9
ENDBRANCH   7   8
END_RES ARG A 124
BEGIN_RES ASN A 133
REMARK  2 active torsions:
REMARK  status: ('A' for Active; 'I' for Inactive)
REMARK    9  A    between atoms: CA   and  CB  
REMARK   10  A    between atoms: CB   and  CG  
ROOT
ATOM     15  CA  ASN A 133      31.225  30.257  11.749  1.00 18.15     0.196 C 
ENDROOT
BRANCH  15  16
ATOM     16  CB  ASN A 133      30.092  31.240  11.460  1.00 18.27     0.126 C 
BRANCH  16  17
ATOM     17  CG  ASN A 133      28.840  30.942  12.226  1.00 18.94     0.276 C 
ATOM     18  OD1 ASN A 133      28.624  31.462  13.322  1.00 18.09    -0.269 OA
ATOM     19  ND2 ASN A 133      27.994  30.089  11.650  1.00 18.93    -0.107 N 
ENDBRANCH  16  17
ENDBRANCH  15  16
END_RES ASN A 133
BEGIN_RES LYS A 131
REMARK  4 active torsions:
REMARK  status: ('A' for Active; 'I' for Inactive)
REMARK   11  A    between atoms: CA   and  CB  
REMARK   12  A    between atoms: CB   and  CG  
REMARK   13  A    between atoms: CG   and  CD  
REMARK   14  A    between atoms: CD   and  CE  
ROOT
ATOM     20  CA  LYS A 131      29.867  25.555  16.977  1.00 20.52     0.186 C 
ENDROOT
BRANCH  20  21
ATOM     21  CB  LYS A 131      28.345  25.722  17.026  1.00 20.94     0.034 C 
BRANCH  21  22
ATOM     22  CG  LYS A 131      27.600  24.416  16.799  1.00 22.96     0.005 C 
BRANCH  22  23
ATOM     23  CD  LYS A 131      26.167  24.495  17.250  1.00 24.33     0.041 C 
BRANCH  23  24
ATOM     24  CE  LYS A 131      25.838  23.284  18.116  1.00 26.91     0.338 C 
ATOM     25  NZ  LYS A 131      25.467  23.711  19.486  1.00 27.40     0.618 N 
ENDBRANCH  23  24
ENDBRANCH  22  23
ENDBRANCH  21  22
ENDBRANCH  20  21
END_RES LYS A 131
