REMARK VINA RESULT:    -5.697      5.837      7.470
REMARK INTER + INTRA:         -11.500
REMARK INTER:                  -5.161
REMARK INTRA:                  -6.340
REMARK UNBOUND:                -4.804
REMARK SMILES Nc1ccc(S(=O)(=O)c2ccc(N)cc2)cc1
REMARK SMILES IDX 6 1 7 2 8 3 5 4 2 5 3 6 17 7 4 8 16 9 1 10 9 13 10 14 15 15
REMARK SMILES IDX 11 16 14 17 12 18 13 19
REMARK H PARENT 1 11 1 12 13 20 13 21
REMARK Flexibility Score: inf
ROOT
ATOM      1  S   UNL     1      29.632  31.027  19.436  1.00  0.00     0.206 S 
ATOM      2  O   UNL     1      28.618  30.000  19.024  1.00  0.00    -0.219 OA
ATOM      3  O   UNL     1      28.934  32.015  20.329  1.00  0.00    -0.219 OA
ENDROOT
BRANCH   1   4
ATOM      4  C   UNL     1      30.838  30.217  20.403  1.00  0.00     0.072 A 
ATOM      5  C   UNL     1      32.748  28.856  21.942  1.00  0.00     0.031 A 
ATOM      6  C   UNL     1      32.772  30.236  21.837  1.00  0.00     0.027 A 
ATOM      7  C   UNL     1      31.764  28.160  21.273  1.00  0.00     0.027 A 
ATOM      8  C   UNL     1      31.831  30.901  21.079  1.00  0.00     0.023 A 
ATOM      9  C   UNL     1      30.836  28.835  20.523  1.00  0.00     0.023 A 
BRANCH   5  10
ATOM     10  N   UNL     1      33.734  28.211  22.729  1.00  0.00    -0.399 N 
ATOM     11  H   UNL     1      34.518  27.675  22.307  1.00  0.00     0.156 HD
ATOM     12  H   UNL     1      33.701  28.258  23.771  1.00  0.00     0.156 HD
ENDBRANCH   5  10
ENDBRANCH   1   4
BRANCH   1  13
ATOM     13  C   UNL     1      30.355  31.814  18.045  1.00  0.00     0.072 A 
ATOM     14  C   UNL     1      30.931  33.064  18.143  1.00  0.00     0.023 A 
ATOM     15  C   UNL     1      30.373  31.212  16.803  1.00  0.00     0.023 A 
ATOM     16  C   UNL     1      31.500  33.683  17.049  1.00  0.00     0.027 A 
ATOM     17  C   UNL     1      30.941  31.830  15.707  1.00  0.00     0.027 A 
ATOM     18  C   UNL     1      31.518  33.080  15.809  1.00  0.00     0.031 A 
BRANCH  18  19
ATOM     19  N   UNL     1      32.111  33.738  14.690  1.00  0.00    -0.399 N 
ATOM     20  H   UNL     1      31.908  33.357  13.747  1.00  0.00     0.156 HD
ATOM     21  H   UNL     1      32.728  34.568  14.770  1.00  0.00     0.156 HD
ENDBRANCH  18  19
ENDBRANCH   1  13
TORSDOF 4
BEGIN_RES LYS A 135
REMARK  4 active torsions:
REMARK  status: ('A' for Active; 'I' for Inactive)
REMARK    1  A    between atoms: CA   and  CB  
REMARK    2  A    between atoms: CB   and  CG  
REMARK    3  A    between atoms: CG   and  CD  
REMARK    4  A    between atoms: CD   and  CE  
ROOT
ATOM      1  CA  LYS A 135      33.193  34.663   9.290  1.00 25.02     0.186 C 
ENDROOT
BRANCH   1   2
ATOM      2  CB  LYS A 135      32.060  35.360  10.034  1.00 26.63     0.034 C 
BRANCH   2   3
ATOM      3  CG  LYS A 135      30.813  35.534   9.206  1.00 29.45     0.005 C 
BRANCH   3   4
ATOM      4  CD  LYS A 135      30.195  34.184   8.875  1.00 32.00     0.041 C 
BRANCH   4   5
ATOM      5  CE  LYS A 135      28.707  34.328   8.619  1.00 34.25     0.338 C 
ATOM      6  NZ  LYS A 135      27.912  33.675   9.695  1.00 35.99     0.618 N 
ENDBRANCH   4   5
ENDBRANCH   3   4
ENDBRANCH   2   3
ENDBRANCH   1   2
END_RES LYS A 135
BEGIN_RES ARG A 124
REMARK  4 active torsions:
REMARK  status: ('A' for Active; 'I' for Inactive)
REMARK    5  A    between atoms: CA   and  CB  
REMARK    6  A    between atoms: CB   and  CG  
REMARK    7  A    between atoms: CG   and  CD  
REMARK    8  A    between atoms: CD   and  NE  
REMARK       I    between atoms: NE   and  CZ  
ROOT
ATOM      7  CA  ARG A 124      31.045  26.515   9.594  1.00 17.84     0.186 C 
ENDROOT
BRANCH   7   8
ATOM      8  CB  ARG A 124      29.529  26.705   9.647  1.00 16.18     0.036 C 
BRANCH   8   9
ATOM      9  CG  ARG A 124      28.917  26.881  11.083  1.00 16.22     0.029 C 
BRANCH   9  10
ATOM     10  CD  ARG A 124      27.574  26.135  11.258  1.00 15.09     0.145 C 
BRANCH  10  11
ATOM     11  NE  ARG A 124      26.413  27.031  11.453  1.00 16.98    -0.083 NA
ATOM     12  CZ  ARG A 124      25.997  27.490  12.628  1.00 18.21     0.782 C 
ATOM     13  NH1 ARG A 124      26.626  27.177  13.754  1.00 21.11     0.063 N 
ATOM     14  NH2 ARG A 124      24.949  28.298  12.688  1.00 21.25     0.063 N 
ENDBRANCH  10  11
ENDBRANCH   9  10
ENDBRANCH   8   9
ENDBRANCH   7   8
END_RES ARG A 124
BEGIN_RES ASN A 133
REMARK  2 active torsions:
REMARK  status: ('A' for Active; 'I' for Inactive)
REMARK    9  A    between atoms: CA   and  CB  
REMARK   10  A    between atoms: CB   and  CG  
ROOT
ATOM     15  CA  ASN A 133      31.225  30.257  11.749  1.00 18.15     0.196 C 
ENDROOT
BRANCH  15  16
ATOM     16  CB  ASN A 133      30.092  31.240  11.460  1.00 18.27     0.126 C 
BRANCH  16  17
ATOM     17  CG  ASN A 133      28.744  30.590  11.406  1.00 18.94     0.276 C 
ATOM     18  OD1 ASN A 133      28.407  29.899  10.442  1.00 18.09    -0.269 OA
ATOM     19  ND2 ASN A 133      27.949  30.808  12.452  1.00 18.93    -0.107 N 
ENDBRANCH  16  17
ENDBRANCH  15  16
END_RES ASN A 133
BEGIN_RES LYS A 131
REMARK  4 active torsions:
REMARK  status: ('A' for Active; 'I' for Inactive)
REMARK   11  A    between atoms: CA   and  CB  
REMARK   12  A    between atoms: CB   and  CG  
REMARK   13  A    between atoms: CG   and  CD  
REMARK   14  A    between atoms: CD   and  CE  
ROOT
ATOM     20  CA  LYS A 131      29.867  25.555  16.977  1.00 20.52     0.186 C 
ENDROOT
BRANCH  20  21
ATOM     21  CB  LYS A 131      28.345  25.722  17.026  1.00 20.94     0.034 C 
BRANCH  21  22
ATOM     22  CG  LYS A 131      27.599  24.438  16.696  1.00 22.96     0.005 C 
BRANCH  22  23
ATOM     23  CD  LYS A 131      26.972  23.819  17.914  1.00 24.33     0.041 C 
BRANCH  23  24
ATOM     24  CE  LYS A 131      25.572  23.320  17.569  1.00 26.91     0.338 C 
ATOM     25  NZ  LYS A 131      24.791  24.388  16.902  1.00 27.40     0.618 N 
ENDBRANCH  23  24
ENDBRANCH  22  23
ENDBRANCH  21  22
ENDBRANCH  20  21
END_RES LYS A 131
