REMARK VINA RESULT:    -3.597      5.663     10.441
REMARK INTER + INTRA:          -9.761
REMARK INTER:                  -3.676
REMARK INTRA:                  -6.085
REMARK UNBOUND:                -5.849
REMARK SMILES CN(C)C(=O)c1ccc(Cl)cc1N
REMARK SMILES IDX 6 1 7 2 8 3 9 4 10 5 11 6 12 7 4 8 1 9 2 10 3 11 5 12 13 13
REMARK H PARENT 13 14 13 15
REMARK Flexibility Score: inf
ROOT
ATOM      1  C   UNL     1      25.030  17.548  15.317  1.00  0.00     0.063 A 
ATOM      2  C   UNL     1      25.053  16.185  15.340  1.00  0.00     0.017 A 
ATOM      3  C   UNL     1      25.956  15.420  16.106  1.00  0.00     0.021 A 
ATOM      4  C   UNL     1      26.865  16.089  16.870  1.00  0.00     0.043 A 
ATOM      5  Cl  UNL     1      28.006  15.161  17.836  1.00  0.00    -0.084 Cl
ATOM      6  C   UNL     1      26.882  17.468  16.881  1.00  0.00     0.046 A 
ATOM      7  C   UNL     1      26.005  18.181  16.138  1.00  0.00     0.046 A 
ENDROOT
BRANCH   1   8
ATOM      8  C   UNL     1      24.131  18.366  14.555  1.00  0.00     0.255 C 
ATOM      9  C   UNL     1      22.069  18.457  16.001  1.00  0.00     0.146 C 
ATOM     10  N   UNL     1      22.845  18.770  14.837  1.00  0.00    -0.345 N 
ATOM     11  C   UNL     1      22.171  19.639  13.812  1.00  0.00     0.146 C 
ATOM     12  O   UNL     1      24.587  18.803  13.416  1.00  0.00    -0.269 OA
ENDBRANCH   1   8
BRANCH   7  13
ATOM     13  N   UNL     1      26.046  19.594  16.167  1.00  0.00    -0.398 N 
ATOM     14  H   UNL     1      25.144  20.115  16.254  1.00  0.00     0.156 HD
ATOM     15  H   UNL     1      26.931  20.158  16.107  1.00  0.00     0.156 HD
ENDBRANCH   7  13
TORSDOF 2
BEGIN_RES LYS A 135
REMARK  4 active torsions:
REMARK  status: ('A' for Active; 'I' for Inactive)
REMARK    1  A    between atoms: CA   and  CB  
REMARK    2  A    between atoms: CB   and  CG  
REMARK    3  A    between atoms: CG   and  CD  
REMARK    4  A    between atoms: CD   and  CE  
ROOT
ATOM      1  CA  LYS A 135      33.193  34.663   9.290  1.00 25.02     0.186 C 
ENDROOT
BRANCH   1   2
ATOM      2  CB  LYS A 135      32.060  35.360  10.034  1.00 26.63     0.034 C 
BRANCH   2   3
ATOM      3  CG  LYS A 135      30.808  35.521   9.211  1.00 29.45     0.005 C 
BRANCH   3   4
ATOM      4  CD  LYS A 135      30.232  34.163   8.839  1.00 32.00     0.041 C 
BRANCH   4   5
ATOM      5  CE  LYS A 135      28.720  34.176   8.955  1.00 34.25     0.338 C 
ATOM      6  NZ  LYS A 135      28.102  34.937   7.834  1.00 35.99     0.618 N 
ENDBRANCH   4   5
ENDBRANCH   3   4
ENDBRANCH   2   3
ENDBRANCH   1   2
END_RES LYS A 135
BEGIN_RES ARG A 124
REMARK  4 active torsions:
REMARK  status: ('A' for Active; 'I' for Inactive)
REMARK    5  A    between atoms: CA   and  CB  
REMARK    6  A    between atoms: CB   and  CG  
REMARK    7  A    between atoms: CG   and  CD  
REMARK    8  A    between atoms: CD   and  NE  
REMARK       I    between atoms: NE   and  CZ  
ROOT
ATOM      7  CA  ARG A 124      31.045  26.515   9.594  1.00 17.84     0.186 C 
ENDROOT
BRANCH   7   8
ATOM      8  CB  ARG A 124      29.529  26.705   9.647  1.00 16.18     0.036 C 
BRANCH   8   9
ATOM      9  CG  ARG A 124      28.912  26.843  11.085  1.00 16.22     0.029 C 
BRANCH   9  10
ATOM     10  CD  ARG A 124      27.559  26.109  11.230  1.00 15.09     0.145 C 
BRANCH  10  11
ATOM     11  NE  ARG A 124      26.404  27.015  11.414  1.00 16.98    -0.083 NA
ATOM     12  CZ  ARG A 124      25.976  27.473  12.586  1.00 18.21     0.782 C 
ATOM     13  NH1 ARG A 124      26.587  27.146  13.719  1.00 21.11     0.063 N 
ATOM     14  NH2 ARG A 124      24.936  28.290  12.636  1.00 21.25     0.063 N 
ENDBRANCH  10  11
ENDBRANCH   9  10
ENDBRANCH   8   9
ENDBRANCH   7   8
END_RES ARG A 124
BEGIN_RES ASN A 133
REMARK  2 active torsions:
REMARK  status: ('A' for Active; 'I' for Inactive)
REMARK    9  A    between atoms: CA   and  CB  
REMARK   10  A    between atoms: CB   and  CG  
ROOT
ATOM     15  CA  ASN A 133      31.225  30.257  11.749  1.00 18.15     0.196 C 
ENDROOT
BRANCH  15  16
ATOM     16  CB  ASN A 133      30.092  31.240  11.460  1.00 18.27     0.126 C 
BRANCH  16  17
ATOM     17  CG  ASN A 133      28.740  30.596  11.440  1.00 18.94     0.276 C 
ATOM     18  OD1 ASN A 133      28.406  29.843  10.524  1.00 18.09    -0.269 OA
ATOM     19  ND2 ASN A 133      27.939  30.890  12.463  1.00 18.93    -0.107 N 
ENDBRANCH  16  17
ENDBRANCH  15  16
END_RES ASN A 133
BEGIN_RES LYS A 131
REMARK  4 active torsions:
REMARK  status: ('A' for Active; 'I' for Inactive)
REMARK   11  A    between atoms: CA   and  CB  
REMARK   12  A    between atoms: CB   and  CG  
REMARK   13  A    between atoms: CG   and  CD  
REMARK   14  A    between atoms: CD   and  CE  
ROOT
ATOM     20  CA  LYS A 131      29.867  25.555  16.977  1.00 20.52     0.186 C 
ENDROOT
BRANCH  20  21
ATOM     21  CB  LYS A 131      28.345  25.722  17.026  1.00 20.94     0.034 C 
BRANCH  21  22
ATOM     22  CG  LYS A 131      27.600  24.414  16.806  1.00 22.96     0.005 C 
BRANCH  22  23
ATOM     23  CD  LYS A 131      26.779  24.022  18.004  1.00 24.33     0.041 C 
BRANCH  23  24
ATOM     24  CE  LYS A 131      25.768  22.954  17.600  1.00 26.91     0.338 C 
ATOM     25  NZ  LYS A 131      24.754  22.770  18.665  1.00 27.40     0.618 N 
ENDBRANCH  23  24
ENDBRANCH  22  23
ENDBRANCH  21  22
ENDBRANCH  20  21
END_RES LYS A 131
