REMARK VINA RESULT:    -4.073      8.922     17.762
REMARK INTER + INTRA:         -11.952
REMARK INTER:                  -5.861
REMARK INTRA:                  -6.091
REMARK UNBOUND:                -6.451
REMARK SMILES NC[C@@H](C(=O)O)C(c1ccccc1)c1ccccc1
REMARK SMILES IDX 3 1 2 2 1 3 4 6 5 7 6 8 7 10 8 11 9 12 13 13 10 14 12 15
REMARK SMILES IDX 11 16 14 17 15 18 19 19 16 20 18 21 17 22
REMARK H PARENT 1 4 1 5 6 9
REMARK Flexibility Score: inf
ROOT
ATOM      1  C   UNL     1      33.219  19.053  23.102  1.00  0.00     0.124 C 
ENDROOT
BRANCH   1   2
ATOM      2  C   UNL     1      33.214  18.746  21.616  1.00  0.00     0.094 C 
BRANCH   2   3
ATOM      3  N   UNL     1      33.087  17.363  21.322  1.00  0.00    -0.330 NA
ATOM      4  H   UNL     1      33.149  17.111  20.320  1.00  0.00     0.118 HD
ATOM      5  H   UNL     1      33.600  16.726  21.959  1.00  0.00     0.118 HD
ENDBRANCH   2   3
ENDBRANCH   1   2
BRANCH   1   6
ATOM      6  C   UNL     1      32.513  17.926  23.758  1.00  0.00     0.308 C 
ATOM      7  O   UNL     1      33.163  17.122  24.461  1.00  0.00    -0.252 OA
BRANCH   6   8
ATOM      8  O   UNL     1      31.148  17.737  23.617  1.00  0.00    -0.481 OA
ATOM      9  H   UNL     1      30.581  18.142  22.895  1.00  0.00     0.296 HD
ENDBRANCH   6   8
ENDBRANCH   1   6
BRANCH   1  10
ATOM     10  C   UNL     1      34.591  19.113  23.675  1.00  0.00     0.065 C 
BRANCH  10  11
ATOM     11  C   UNL     1      35.692  19.174  22.689  1.00  0.00    -0.040 A 
ATOM     12  C   UNL     1      35.732  20.272  21.821  1.00  0.00     0.004 A 
ATOM     13  C   UNL     1      36.624  18.171  22.656  1.00  0.00     0.004 A 
ATOM     14  C   UNL     1      36.759  20.331  20.901  1.00  0.00     0.000 A 
ATOM     15  C   UNL     1      37.643  18.254  21.724  1.00  0.00     0.000 A 
ATOM     16  C   UNL     1      37.713  19.338  20.842  1.00  0.00     0.000 A 
ENDBRANCH  10  11
BRANCH  10  17
ATOM     17  C   UNL     1      34.710  20.310  24.540  1.00  0.00    -0.040 A 
ATOM     18  C   UNL     1      35.943  20.831  24.916  1.00  0.00     0.004 A 
ATOM     19  C   UNL     1      33.604  20.975  25.014  1.00  0.00     0.004 A 
ATOM     20  C   UNL     1      36.085  21.944  25.713  1.00  0.00     0.000 A 
ATOM     21  C   UNL     1      33.734  22.109  25.825  1.00  0.00     0.000 A 
ATOM     22  C   UNL     1      34.975  22.592  26.175  1.00  0.00     0.000 A 
ENDBRANCH  10  17
ENDBRANCH   1  10
TORSDOF 7
BEGIN_RES LYS A 135
REMARK  4 active torsions:
REMARK  status: ('A' for Active; 'I' for Inactive)
REMARK    1  A    between atoms: CA   and  CB  
REMARK    2  A    between atoms: CB   and  CG  
REMARK    3  A    between atoms: CG   and  CD  
REMARK    4  A    between atoms: CD   and  CE  
ROOT
ATOM      1  CA  LYS A 135      33.193  34.663   9.290  1.00 25.02     0.186 C 
ENDROOT
BRANCH   1   2
ATOM      2  CB  LYS A 135      32.060  35.360  10.034  1.00 26.63     0.034 C 
BRANCH   2   3
ATOM      3  CG  LYS A 135      30.809  35.523   9.210  1.00 29.45     0.005 C 
BRANCH   3   4
ATOM      4  CD  LYS A 135      30.156  34.174   8.952  1.00 32.00     0.041 C 
BRANCH   4   5
ATOM      5  CE  LYS A 135      28.686  34.348   8.623  1.00 34.25     0.338 C 
ATOM      6  NZ  LYS A 135      28.331  35.789   8.497  1.00 35.99     0.618 N 
ENDBRANCH   4   5
ENDBRANCH   3   4
ENDBRANCH   2   3
ENDBRANCH   1   2
END_RES LYS A 135
BEGIN_RES ARG A 124
REMARK  4 active torsions:
REMARK  status: ('A' for Active; 'I' for Inactive)
REMARK    5  A    between atoms: CA   and  CB  
REMARK    6  A    between atoms: CB   and  CG  
REMARK    7  A    between atoms: CG   and  CD  
REMARK    8  A    between atoms: CD   and  NE  
REMARK       I    between atoms: NE   and  CZ  
ROOT
ATOM      7  CA  ARG A 124      31.045  26.515   9.594  1.00 17.84     0.186 C 
ENDROOT
BRANCH   7   8
ATOM      8  CB  ARG A 124      29.529  26.705   9.647  1.00 16.18     0.036 C 
BRANCH   8   9
ATOM      9  CG  ARG A 124      28.907  26.801  11.086  1.00 16.22     0.029 C 
BRANCH   9  10
ATOM     10  CD  ARG A 124      27.551  26.068  11.203  1.00 15.09     0.145 C 
BRANCH  10  11
ATOM     11  NE  ARG A 124      26.398  26.971  11.411  1.00 16.98    -0.083 NA
ATOM     12  CZ  ARG A 124      26.008  27.446  12.589  1.00 18.21     0.782 C 
ATOM     13  NH1 ARG A 124      26.659  27.142  13.706  1.00 21.11     0.063 N 
ATOM     14  NH2 ARG A 124      24.966  28.260  12.662  1.00 21.25     0.063 N 
ENDBRANCH  10  11
ENDBRANCH   9  10
ENDBRANCH   8   9
ENDBRANCH   7   8
END_RES ARG A 124
BEGIN_RES ASN A 133
REMARK  2 active torsions:
REMARK  status: ('A' for Active; 'I' for Inactive)
REMARK    9  A    between atoms: CA   and  CB  
REMARK   10  A    between atoms: CB   and  CG  
ROOT
ATOM     15  CA  ASN A 133      31.225  30.257  11.749  1.00 18.15     0.196 C 
ENDROOT
BRANCH  15  16
ATOM     16  CB  ASN A 133      30.092  31.240  11.460  1.00 18.27     0.126 C 
BRANCH  16  17
ATOM     17  CG  ASN A 133      28.733  30.617  11.543  1.00 18.94     0.276 C 
ATOM     18  OD1 ASN A 133      28.341  29.824  10.685  1.00 18.09    -0.269 OA
ATOM     19  ND2 ASN A 133      27.990  30.976  12.590  1.00 18.93    -0.107 N 
ENDBRANCH  16  17
ENDBRANCH  15  16
END_RES ASN A 133
BEGIN_RES LYS A 131
REMARK  4 active torsions:
REMARK  status: ('A' for Active; 'I' for Inactive)
REMARK   11  A    between atoms: CA   and  CB  
REMARK   12  A    between atoms: CB   and  CG  
REMARK   13  A    between atoms: CG   and  CD  
REMARK   14  A    between atoms: CD   and  CE  
ROOT
ATOM     20  CA  LYS A 131      29.867  25.555  16.977  1.00 20.52     0.186 C 
ENDROOT
BRANCH  20  21
ATOM     21  CB  LYS A 131      28.345  25.722  17.026  1.00 20.94     0.034 C 
BRANCH  21  22
ATOM     22  CG  LYS A 131      27.600  24.415  16.806  1.00 22.96     0.005 C 
BRANCH  22  23
ATOM     23  CD  LYS A 131      26.172  24.491  17.272  1.00 24.33     0.041 C 
BRANCH  23  24
ATOM     24  CE  LYS A 131      26.035  23.769  18.609  1.00 26.91     0.338 C 
ATOM     25  NZ  LYS A 131      24.946  22.765  18.547  1.00 27.40     0.618 N 
ENDBRANCH  23  24
ENDBRANCH  22  23
ENDBRANCH  21  22
ENDBRANCH  20  21
END_RES LYS A 131
