REMARK VINA RESULT:    -5.316      6.131      9.357
REMARK INTER + INTRA:         -11.137
REMARK INTER:                  -6.541
REMARK INTRA:                  -4.596
REMARK UNBOUND:                -4.889
REMARK SMILES Nc1cc(C(=O)O)nc(-c2ccccc2)c1
REMARK SMILES IDX 2 1 3 2 4 3 8 4 9 5 16 6 1 7 5 10 6 11 7 12 10 14 11 15
REMARK SMILES IDX 15 16 12 17 14 18 13 19
REMARK H PARENT 1 8 1 9 7 13
REMARK Flexibility Score: inf
ROOT
ATOM      1  C   UNL     1      29.568  34.528   8.567  1.00  0.00     0.036 A 
ATOM      2  C   UNL     1      29.445  35.316   7.427  1.00  0.00     0.061 A 
ATOM      3  C   UNL     1      28.290  35.994   7.109  1.00  0.00     0.150 A 
ATOM      4  N   UNL     1      27.260  35.859   7.967  1.00  0.00    -0.241 NA
ATOM      5  C   UNL     1      27.315  35.112   9.086  1.00  0.00     0.073 A 
ATOM      6  C   UNL     1      28.466  34.442   9.394  1.00  0.00     0.054 A 
ENDROOT
BRANCH   1   7
ATOM      7  N   UNL     1      30.780  33.848   8.849  1.00  0.00    -0.399 N 
ATOM      8  H   UNL     1      31.659  34.383   8.878  1.00  0.00     0.156 HD
ATOM      9  H   UNL     1      30.757  32.832   9.021  1.00  0.00     0.156 HD
ENDBRANCH   1   7
BRANCH   3  10
ATOM     10  C   UNL     1      28.213  36.804   5.906  1.00  0.00     0.354 C 
ATOM     11  O   UNL     1      29.202  37.429   5.494  1.00  0.00    -0.245 OA
BRANCH  10  12
ATOM     12  O   UNL     1      27.023  36.878   5.213  1.00  0.00    -0.477 OA
ATOM     13  H   UNL     1      26.724  36.102   4.638  1.00  0.00     0.297 HD
ENDBRANCH  10  12
ENDBRANCH   3  10
BRANCH   5  14
ATOM     14  C   UNL     1      26.106  35.059   9.931  1.00  0.00     0.000 A 
ATOM     15  C   UNL     1      26.177  34.569  11.223  1.00  0.00     0.010 A 
ATOM     16  C   UNL     1      24.873  35.484   9.490  1.00  0.00     0.010 A 
ATOM     17  C   UNL     1      25.065  34.509  12.028  1.00  0.00     0.001 A 
ATOM     18  C   UNL     1      23.745  35.421  10.315  1.00  0.00     0.001 A 
ATOM     19  C   UNL     1      23.826  34.932  11.599  1.00  0.00     0.000 A 
ENDBRANCH   5  14
TORSDOF 4
BEGIN_RES LYS A 135
REMARK  4 active torsions:
REMARK  status: ('A' for Active; 'I' for Inactive)
REMARK    1  A    between atoms: CA   and  CB  
REMARK    2  A    between atoms: CB   and  CG  
REMARK    3  A    between atoms: CG   and  CD  
REMARK    4  A    between atoms: CD   and  CE  
ROOT
ATOM      1  CA  LYS A 135      33.193  34.663   9.290  1.00 25.02     0.186 C 
ENDROOT
BRANCH   1   2
ATOM      2  CB  LYS A 135      32.060  35.360  10.034  1.00 26.63     0.034 C 
BRANCH   2   3
ATOM      3  CG  LYS A 135      32.530  36.220  11.178  1.00 29.45     0.005 C 
BRANCH   3   4
ATOM      4  CD  LYS A 135      31.799  37.554  11.183  1.00 32.00     0.041 C 
BRANCH   4   5
ATOM      5  CE  LYS A 135      31.027  37.742   9.891  1.00 34.25     0.338 C 
ATOM      6  NZ  LYS A 135      29.571  37.914  10.157  1.00 35.99     0.618 N 
ENDBRANCH   4   5
ENDBRANCH   3   4
ENDBRANCH   2   3
ENDBRANCH   1   2
END_RES LYS A 135
BEGIN_RES ARG A 124
REMARK  4 active torsions:
REMARK  status: ('A' for Active; 'I' for Inactive)
REMARK    5  A    between atoms: CA   and  CB  
REMARK    6  A    between atoms: CB   and  CG  
REMARK    7  A    between atoms: CG   and  CD  
REMARK    8  A    between atoms: CD   and  NE  
REMARK       I    between atoms: NE   and  CZ  
ROOT
ATOM      7  CA  ARG A 124      31.045  26.515   9.594  1.00 17.84     0.186 C 
ENDROOT
BRANCH   7   8
ATOM      8  CB  ARG A 124      29.529  26.705   9.647  1.00 16.18     0.036 C 
BRANCH   8   9
ATOM      9  CG  ARG A 124      28.899  26.741  11.085  1.00 16.22     0.029 C 
BRANCH   9  10
ATOM     10  CD  ARG A 124      27.496  26.095  11.142  1.00 15.09     0.145 C 
BRANCH  10  11
ATOM     11  NE  ARG A 124      26.403  27.059  11.398  1.00 16.98    -0.083 NA
ATOM     12  CZ  ARG A 124      26.063  27.521  12.597  1.00 18.21     0.782 C 
ATOM     13  NH1 ARG A 124      26.713  27.145  13.691  1.00 21.11     0.063 N 
ATOM     14  NH2 ARG A 124      25.073  28.392  12.712  1.00 21.25     0.063 N 
ENDBRANCH  10  11
ENDBRANCH   9  10
ENDBRANCH   8   9
ENDBRANCH   7   8
END_RES ARG A 124
BEGIN_RES ASN A 133
REMARK  2 active torsions:
REMARK  status: ('A' for Active; 'I' for Inactive)
REMARK    9  A    between atoms: CA   and  CB  
REMARK   10  A    between atoms: CB   and  CG  
ROOT
ATOM     15  CA  ASN A 133      31.225  30.257  11.749  1.00 18.15     0.196 C 
ENDROOT
BRANCH  15  16
ATOM     16  CB  ASN A 133      30.092  31.240  11.460  1.00 18.27     0.126 C 
BRANCH  16  17
ATOM     17  CG  ASN A 133      28.737  30.604  11.485  1.00 18.94     0.276 C 
ATOM     18  OD1 ASN A 133      28.399  29.787  10.627  1.00 18.09    -0.269 OA
ATOM     19  ND2 ASN A 133      27.935  30.980  12.481  1.00 18.93    -0.107 N 
ENDBRANCH  16  17
ENDBRANCH  15  16
END_RES ASN A 133
BEGIN_RES LYS A 131
REMARK  4 active torsions:
REMARK  status: ('A' for Active; 'I' for Inactive)
REMARK   11  A    between atoms: CA   and  CB  
REMARK   12  A    between atoms: CB   and  CG  
REMARK   13  A    between atoms: CG   and  CD  
REMARK   14  A    between atoms: CD   and  CE  
ROOT
ATOM     20  CA  LYS A 131      29.867  25.555  16.977  1.00 20.52     0.186 C 
ENDROOT
BRANCH  20  21
ATOM     21  CB  LYS A 131      28.345  25.722  17.026  1.00 20.94     0.034 C 
BRANCH  21  22
ATOM     22  CG  LYS A 131      27.600  24.408  16.848  1.00 22.96     0.005 C 
BRANCH  22  23
ATOM     23  CD  LYS A 131      26.231  24.444  17.468  1.00 24.33     0.041 C 
BRANCH  23  24
ATOM     24  CE  LYS A 131      25.690  23.024  17.592  1.00 26.91     0.338 C 
ATOM     25  NZ  LYS A 131      24.263  22.975  17.195  1.00 27.40     0.618 N 
ENDBRANCH  23  24
ENDBRANCH  22  23
ENDBRANCH  21  22
ENDBRANCH  20  21
END_RES LYS A 131
