REMARK VINA RESULT:    -1.878      4.359      9.531
REMARK INTER + INTRA:          -7.592
REMARK INTER:                  -2.098
REMARK INTRA:                  -5.495
REMARK UNBOUND:                -5.495
REMARK SMILES CC(C)(N)CO
REMARK SMILES IDX 2 1 1 2 3 3 4 4 5 7 6 8
REMARK H PARENT 4 5 4 6 6 9
REMARK Flexibility Score: inf
ROOT
ATOM      1  C   UNL     1      32.056  35.801  13.833  1.00  0.00     0.033 C 
ATOM      2  C   UNL     1      31.911  37.119  14.570  1.00  0.00     0.030 C 
ATOM      3  C   UNL     1      32.744  35.987  12.495  1.00  0.00     0.030 C 
ENDROOT
BRANCH   1   4
ATOM      4  N   UNL     1      30.760  35.269  13.608  1.00  0.00    -0.324 NA
ATOM      5  H   UNL     1      30.336  34.753  14.383  1.00  0.00     0.119 HD
ATOM      6  H   UNL     1      30.760  34.691  12.716  1.00  0.00     0.119 HD
ENDBRANCH   1   4
BRANCH   1   7
ATOM      7  C   UNL     1      32.951  34.854  14.624  1.00  0.00     0.177 C 
BRANCH   7   8
ATOM      8  O   UNL     1      32.457  33.562  14.645  1.00  0.00    -0.394 OA
ATOM      9  H   UNL     1      32.816  33.052  15.415  1.00  0.00     0.210 HD
ENDBRANCH   7   8
ENDBRANCH   1   7
TORSDOF 3
BEGIN_RES LYS A 135
REMARK  4 active torsions:
REMARK  status: ('A' for Active; 'I' for Inactive)
REMARK    1  A    between atoms: CA   and  CB  
REMARK    2  A    between atoms: CB   and  CG  
REMARK    3  A    between atoms: CG   and  CD  
REMARK    4  A    between atoms: CD   and  CE  
ROOT
ATOM      1  CA  LYS A 135      33.193  34.663   9.290  1.00 25.02     0.186 C 
ENDROOT
BRANCH   1   2
ATOM      2  CB  LYS A 135      32.060  35.360  10.034  1.00 26.63     0.034 C 
BRANCH   2   3
ATOM      3  CG  LYS A 135      30.705  34.757   9.769  1.00 29.45     0.005 C 
BRANCH   3   4
ATOM      4  CD  LYS A 135      30.476  34.584   8.276  1.00 32.00     0.041 C 
BRANCH   4   5
ATOM      5  CE  LYS A 135      29.021  34.832   7.927  1.00 34.25     0.338 C 
ATOM      6  NZ  LYS A 135      28.896  35.573   6.641  1.00 35.99     0.618 N 
ENDBRANCH   4   5
ENDBRANCH   3   4
ENDBRANCH   2   3
ENDBRANCH   1   2
END_RES LYS A 135
BEGIN_RES ARG A 124
REMARK  4 active torsions:
REMARK  status: ('A' for Active; 'I' for Inactive)
REMARK    5  A    between atoms: CA   and  CB  
REMARK    6  A    between atoms: CB   and  CG  
REMARK    7  A    between atoms: CG   and  CD  
REMARK    8  A    between atoms: CD   and  NE  
REMARK       I    between atoms: NE   and  CZ  
ROOT
ATOM      7  CA  ARG A 124      31.045  26.515   9.594  1.00 17.84     0.186 C 
ENDROOT
BRANCH   7   8
ATOM      8  CB  ARG A 124      29.529  26.705   9.647  1.00 16.18     0.036 C 
BRANCH   8   9
ATOM      9  CG  ARG A 124      28.909  26.819  11.086  1.00 16.22     0.029 C 
BRANCH   9  10
ATOM     10  CD  ARG A 124      27.608  25.999  11.245  1.00 15.09     0.145 C 
BRANCH  10  11
ATOM     11  NE  ARG A 124      26.392  26.829  11.390  1.00 16.98    -0.083 NA
ATOM     12  CZ  ARG A 124      25.949  27.334  12.535  1.00 18.21     0.782 C 
ATOM     13  NH1 ARG A 124      26.598  27.133  13.676  1.00 21.11     0.063 N 
ATOM     14  NH2 ARG A 124      24.851  28.075  12.550  1.00 21.25     0.063 N 
ENDBRANCH  10  11
ENDBRANCH   9  10
ENDBRANCH   8   9
ENDBRANCH   7   8
END_RES ARG A 124
BEGIN_RES ASN A 133
REMARK  2 active torsions:
REMARK  status: ('A' for Active; 'I' for Inactive)
REMARK    9  A    between atoms: CA   and  CB  
REMARK   10  A    between atoms: CB   and  CG  
ROOT
ATOM     15  CA  ASN A 133      31.225  30.257  11.749  1.00 18.15     0.196 C 
ENDROOT
BRANCH  15  16
ATOM     16  CB  ASN A 133      30.092  31.240  11.460  1.00 18.27     0.126 C 
BRANCH  16  17
ATOM     17  CG  ASN A 133      28.736  30.692  11.783  1.00 18.94     0.276 C 
ATOM     18  OD1 ASN A 133      28.131  31.042  12.798  1.00 18.09    -0.269 OA
ATOM     19  ND2 ASN A 133      28.241  29.814  10.912  1.00 18.93    -0.107 N 
ENDBRANCH  16  17
ENDBRANCH  15  16
END_RES ASN A 133
BEGIN_RES LYS A 131
REMARK  4 active torsions:
REMARK  status: ('A' for Active; 'I' for Inactive)
REMARK   11  A    between atoms: CA   and  CB  
REMARK   12  A    between atoms: CB   and  CG  
REMARK   13  A    between atoms: CG   and  CD  
REMARK   14  A    between atoms: CD   and  CE  
ROOT
ATOM     20  CA  LYS A 131      29.867  25.555  16.977  1.00 20.52     0.186 C 
ENDROOT
BRANCH  20  21
ATOM     21  CB  LYS A 131      28.345  25.722  17.026  1.00 20.94     0.034 C 
BRANCH  21  22
ATOM     22  CG  LYS A 131      27.601  24.402  16.892  1.00 22.96     0.005 C 
BRANCH  22  23
ATOM     23  CD  LYS A 131      26.135  24.545  17.194  1.00 24.33     0.041 C 
BRANCH  23  24
ATOM     24  CE  LYS A 131      25.935  24.668  18.701  1.00 26.91     0.338 C 
ATOM     25  NZ  LYS A 131      25.666  23.339  19.299  1.00 27.40     0.618 N 
ENDBRANCH  23  24
ENDBRANCH  22  23
ENDBRANCH  21  22
ENDBRANCH  20  21
END_RES LYS A 131
