REMARK VINA RESULT:    -4.005      7.102     14.414
REMARK INTER + INTRA:         -10.088
REMARK INTER:                  -4.318
REMARK INTRA:                  -5.769
REMARK UNBOUND:                -5.966
REMARK SMILES Nc1cnc2ccccc2c1
REMARK SMILES IDX 2 1 3 2 4 3 5 4 6 5 7 6 8 7 9 8 10 9 11 10 1 11
REMARK H PARENT 1 12 1 13
REMARK Flexibility Score: inf
ROOT
ATOM      1  C   UNL     1      32.903  18.147  22.759  1.00  0.00     0.051 A 
ATOM      2  C   UNL     1      33.844  17.340  23.373  1.00  0.00     0.137 A 
ATOM      3  N   UNL     1      35.167  17.482  23.170  1.00  0.00    -0.254 NA
ATOM      4  C   UNL     1      35.678  18.423  22.353  1.00  0.00     0.070 A 
ATOM      5  C   UNL     1      37.053  18.532  22.174  1.00  0.00     0.029 A 
ATOM      6  C   UNL     1      37.564  19.499  21.336  1.00  0.00     0.002 A 
ATOM      7  C   UNL     1      36.672  20.331  20.698  1.00  0.00     0.001 A 
ATOM      8  C   UNL     1      35.306  20.228  20.871  1.00  0.00     0.010 A 
ATOM      9  C   UNL     1      34.784  19.257  21.714  1.00  0.00     0.002 A 
ATOM     10  C   UNL     1      33.418  19.117  21.917  1.00  0.00     0.037 A 
ENDROOT
BRANCH   1  11
ATOM     11  N   UNL     1      31.500  17.992  22.978  1.00  0.00    -0.397 N 
ATOM     12  H   UNL     1      30.847  18.777  22.688  1.00  0.00     0.156 HD
ATOM     13  H   UNL     1      31.059  17.169  23.400  1.00  0.00     0.156 HD
ENDBRANCH   1  11
TORSDOF 1
BEGIN_RES LYS A 135
REMARK  4 active torsions:
REMARK  status: ('A' for Active; 'I' for Inactive)
REMARK    1  A    between atoms: CA   and  CB  
REMARK    2  A    between atoms: CB   and  CG  
REMARK    3  A    between atoms: CG   and  CD  
REMARK    4  A    between atoms: CD   and  CE  
ROOT
ATOM      1  CA  LYS A 135      33.193  34.663   9.290  1.00 25.02     0.186 C 
ENDROOT
BRANCH   1   2
ATOM      2  CB  LYS A 135      32.060  35.360  10.034  1.00 26.63     0.034 C 
BRANCH   2   3
ATOM      3  CG  LYS A 135      30.703  34.767   9.756  1.00 29.45     0.005 C 
BRANCH   3   4
ATOM      4  CD  LYS A 135      30.521  34.517   8.267  1.00 32.00     0.041 C 
BRANCH   4   5
ATOM      5  CE  LYS A 135      29.111  34.873   7.836  1.00 34.25     0.338 C 
ATOM      6  NZ  LYS A 135      29.022  36.299   7.417  1.00 35.99     0.618 N 
ENDBRANCH   4   5
ENDBRANCH   3   4
ENDBRANCH   2   3
ENDBRANCH   1   2
END_RES LYS A 135
BEGIN_RES ARG A 124
REMARK  4 active torsions:
REMARK  status: ('A' for Active; 'I' for Inactive)
REMARK    5  A    between atoms: CA   and  CB  
REMARK    6  A    between atoms: CB   and  CG  
REMARK    7  A    between atoms: CG   and  CD  
REMARK    8  A    between atoms: CD   and  NE  
REMARK       I    between atoms: NE   and  CZ  
ROOT
ATOM      7  CA  ARG A 124      31.045  26.515   9.594  1.00 17.84     0.186 C 
ENDROOT
BRANCH   7   8
ATOM      8  CB  ARG A 124      29.529  26.705   9.647  1.00 16.18     0.036 C 
BRANCH   8   9
ATOM      9  CG  ARG A 124      28.902  26.763  11.086  1.00 16.22     0.029 C 
BRANCH   9  10
ATOM     10  CD  ARG A 124      27.499  26.117  11.155  1.00 15.09     0.145 C 
BRANCH  10  11
ATOM     11  NE  ARG A 124      26.410  27.080  11.425  1.00 16.98    -0.083 NA
ATOM     12  CZ  ARG A 124      26.056  27.510  12.631  1.00 18.21     0.782 C 
ATOM     13  NH1 ARG A 124      26.689  27.099  13.723  1.00 21.11     0.063 N 
ATOM     14  NH2 ARG A 124      25.070  28.385  12.758  1.00 21.25     0.063 N 
ENDBRANCH  10  11
ENDBRANCH   9  10
ENDBRANCH   8   9
ENDBRANCH   7   8
END_RES ARG A 124
BEGIN_RES ASN A 133
REMARK  2 active torsions:
REMARK  status: ('A' for Active; 'I' for Inactive)
REMARK    9  A    between atoms: CA   and  CB  
REMARK   10  A    between atoms: CB   and  CG  
ROOT
ATOM     15  CA  ASN A 133      31.225  30.257  11.749  1.00 18.15     0.196 C 
ENDROOT
BRANCH  15  16
ATOM     16  CB  ASN A 133      30.092  31.240  11.460  1.00 18.27     0.126 C 
BRANCH  16  17
ATOM     17  CG  ASN A 133      28.735  30.608  11.502  1.00 18.94     0.276 C 
ATOM     18  OD1 ASN A 133      28.378  29.806  10.637  1.00 18.09    -0.269 OA
ATOM     19  ND2 ASN A 133      27.955  30.968  12.520  1.00 18.93    -0.107 N 
ENDBRANCH  16  17
ENDBRANCH  15  16
END_RES ASN A 133
BEGIN_RES LYS A 131
REMARK  4 active torsions:
REMARK  status: ('A' for Active; 'I' for Inactive)
REMARK   11  A    between atoms: CA   and  CB  
REMARK   12  A    between atoms: CB   and  CG  
REMARK   13  A    between atoms: CG   and  CD  
REMARK   14  A    between atoms: CD   and  CE  
ROOT
ATOM     20  CA  LYS A 131      29.867  25.555  16.977  1.00 20.52     0.186 C 
ENDROOT
BRANCH  20  21
ATOM     21  CB  LYS A 131      28.345  25.722  17.026  1.00 20.94     0.034 C 
BRANCH  21  22
ATOM     22  CG  LYS A 131      27.599  24.428  16.740  1.00 22.96     0.005 C 
BRANCH  22  23
ATOM     23  CD  LYS A 131      26.868  23.916  17.951  1.00 24.33     0.041 C 
BRANCH  23  24
ATOM     24  CE  LYS A 131      25.514  23.356  17.528  1.00 26.91     0.338 C 
ATOM     25  NZ  LYS A 131      24.695  24.409  16.883  1.00 27.40     0.618 N 
ENDBRANCH  23  24
ENDBRANCH  22  23
ENDBRANCH  21  22
ENDBRANCH  20  21
END_RES LYS A 131
