REMARK VINA RESULT:    -3.608      6.095      6.444
REMARK INTER + INTRA:          -9.552
REMARK INTER:                  -3.741
REMARK INTRA:                  -5.811
REMARK UNBOUND:                -5.627
REMARK SMILES CC(=O)c1ccccc1N
REMARK SMILES IDX 4 1 5 2 6 3 7 4 8 5 9 6 2 7 1 8 3 9 10 10
REMARK H PARENT 10 11 10 12
REMARK Flexibility Score: inf
ROOT
ATOM      1  C   UNL     1      34.806  19.592  21.981  1.00  0.00     0.040 A 
ATOM      2  C   UNL     1      33.686  18.903  21.558  1.00  0.00     0.014 A 
ATOM      3  C   UNL     1      32.691  18.538  22.443  1.00  0.00     0.001 A 
ATOM      4  C   UNL     1      32.764  18.840  23.782  1.00  0.00     0.002 A 
ATOM      5  C   UNL     1      33.878  19.529  24.222  1.00  0.00     0.026 A 
ATOM      6  C   UNL     1      34.879  19.894  23.316  1.00  0.00     0.042 A 
ENDROOT
BRANCH   1   7
ATOM      7  C   UNL     1      35.847  19.978  21.071  1.00  0.00     0.161 C 
ATOM      8  C   UNL     1      35.725  21.044  20.056  1.00  0.00     0.093 C 
ATOM      9  O   UNL     1      36.968  19.365  21.129  1.00  0.00    -0.294 OA
ENDBRANCH   1   7
BRANCH   6  10
ATOM     10  N   UNL     1      36.017  20.599  23.775  1.00  0.00    -0.398 N 
ATOM     11  H   UNL     1      36.991  20.237  23.665  1.00  0.00     0.156 HD
ATOM     12  H   UNL     1      35.953  21.539  24.259  1.00  0.00     0.156 HD
ENDBRANCH   6  10
TORSDOF 2
BEGIN_RES LYS A 135
REMARK  4 active torsions:
REMARK  status: ('A' for Active; 'I' for Inactive)
REMARK    1  A    between atoms: CA   and  CB  
REMARK    2  A    between atoms: CB   and  CG  
REMARK    3  A    between atoms: CG   and  CD  
REMARK    4  A    between atoms: CD   and  CE  
ROOT
ATOM      1  CA  LYS A 135      33.193  34.663   9.290  1.00 25.02     0.186 C 
ENDROOT
BRANCH   1   2
ATOM      2  CB  LYS A 135      32.060  35.360  10.034  1.00 26.63     0.034 C 
BRANCH   2   3
ATOM      3  CG  LYS A 135      30.699  34.790   9.730  1.00 29.45     0.005 C 
BRANCH   3   4
ATOM      4  CD  LYS A 135      30.563  34.487   8.245  1.00 32.00     0.041 C 
BRANCH   4   5
ATOM      5  CE  LYS A 135      29.206  34.930   7.733  1.00 34.25     0.338 C 
ATOM      6  NZ  LYS A 135      28.111  34.413   8.600  1.00 35.99     0.618 N 
ENDBRANCH   4   5
ENDBRANCH   3   4
ENDBRANCH   2   3
ENDBRANCH   1   2
END_RES LYS A 135
BEGIN_RES ARG A 124
REMARK  4 active torsions:
REMARK  status: ('A' for Active; 'I' for Inactive)
REMARK    5  A    between atoms: CA   and  CB  
REMARK    6  A    between atoms: CB   and  CG  
REMARK    7  A    between atoms: CG   and  CD  
REMARK    8  A    between atoms: CD   and  NE  
REMARK       I    between atoms: NE   and  CZ  
ROOT
ATOM      7  CA  ARG A 124      31.045  26.515   9.594  1.00 17.84     0.186 C 
ENDROOT
BRANCH   7   8
ATOM      8  CB  ARG A 124      29.529  26.705   9.647  1.00 16.18     0.036 C 
BRANCH   8   9
ATOM      9  CG  ARG A 124      28.763  25.774  10.653  1.00 16.22     0.029 C 
BRANCH   9  10
ATOM     10  CD  ARG A 124      28.584  26.416  12.048  1.00 15.09     0.145 C 
BRANCH  10  11
ATOM     11  NE  ARG A 124      27.225  26.947  12.292  1.00 16.98    -0.083 NA
ATOM     12  CZ  ARG A 124      26.891  27.745  13.301  1.00 18.21     0.782 C 
ATOM     13  NH1 ARG A 124      27.791  28.149  14.189  1.00 21.11     0.063 N 
ATOM     14  NH2 ARG A 124      25.644  28.173  13.420  1.00 21.25     0.063 N 
ENDBRANCH  10  11
ENDBRANCH   9  10
ENDBRANCH   8   9
ENDBRANCH   7   8
END_RES ARG A 124
BEGIN_RES ASN A 133
REMARK  2 active torsions:
REMARK  status: ('A' for Active; 'I' for Inactive)
REMARK    9  A    between atoms: CA   and  CB  
REMARK   10  A    between atoms: CB   and  CG  
ROOT
ATOM     15  CA  ASN A 133      31.225  30.257  11.749  1.00 18.15     0.196 C 
ENDROOT
BRANCH  15  16
ATOM     16  CB  ASN A 133      30.092  31.240  11.460  1.00 18.27     0.126 C 
BRANCH  16  17
ATOM     17  CG  ASN A 133      28.738  30.600  11.463  1.00 18.94     0.276 C 
ATOM     18  OD1 ASN A 133      28.484  29.643  10.729  1.00 18.09    -0.269 OA
ATOM     19  ND2 ASN A 133      27.845  31.130  12.297  1.00 18.93    -0.107 N 
ENDBRANCH  16  17
ENDBRANCH  15  16
END_RES ASN A 133
BEGIN_RES LYS A 131
REMARK  4 active torsions:
REMARK  status: ('A' for Active; 'I' for Inactive)
REMARK   11  A    between atoms: CA   and  CB  
REMARK   12  A    between atoms: CB   and  CG  
REMARK   13  A    between atoms: CG   and  CD  
REMARK   14  A    between atoms: CD   and  CE  
ROOT
ATOM     20  CA  LYS A 131      29.867  25.555  16.977  1.00 20.52     0.186 C 
ENDROOT
BRANCH  20  21
ATOM     21  CB  LYS A 131      28.345  25.722  17.026  1.00 20.94     0.034 C 
BRANCH  21  22
ATOM     22  CG  LYS A 131      27.600  24.409  16.839  1.00 22.96     0.005 C 
BRANCH  22  23
ATOM     23  CD  LYS A 131      26.180  24.489  17.327  1.00 24.33     0.041 C 
BRANCH  23  24
ATOM     24  CE  LYS A 131      26.013  23.597  18.552  1.00 26.91     0.338 C 
ATOM     25  NZ  LYS A 131      25.497  24.382  19.699  1.00 27.40     0.618 N 
ENDBRANCH  23  24
ENDBRANCH  22  23
ENDBRANCH  21  22
ENDBRANCH  20  21
END_RES LYS A 131
