REMARK VINA RESULT:    -3.739      0.000      0.000
REMARK INTER + INTRA:          -9.038
REMARK INTER:                  -3.301
REMARK INTRA:                  -5.736
REMARK UNBOUND:                -4.861
REMARK SMILES NCC(=O)O
REMARK SMILES IDX 2 1 1 2 3 5 4 6 5 7
REMARK H PARENT 1 3 1 4 5 8
REMARK Flexibility Score: inf
ROOT
ATOM      1  C   UNL     1      36.661  33.831  13.098  1.00  0.00     0.201 C 
ENDROOT
BRANCH   1   2
ATOM      2  N   UNL     1      35.256  33.738  12.792  1.00  0.00    -0.321 NA
ATOM      3  H   UNL     1      34.777  33.172  13.516  1.00  0.00     0.119 HD
ATOM      4  H   UNL     1      35.067  33.440  11.823  1.00  0.00     0.119 HD
ENDBRANCH   1   2
BRANCH   1   5
ATOM      5  C   UNL     1      37.498  33.215  12.044  1.00  0.00     0.317 C 
ATOM      6  O   UNL     1      38.437  32.454  12.397  1.00  0.00    -0.251 OA
BRANCH   5   7
ATOM      7  O   UNL     1      37.247  33.475  10.710  1.00  0.00    -0.480 OA
ATOM      8  H   UNL     1      37.036  34.423  10.373  1.00  0.00     0.296 HD
ENDBRANCH   5   7
ENDBRANCH   1   5
TORSDOF 3
BEGIN_RES LYS A 135
REMARK  4 active torsions:
REMARK  status: ('A' for Active; 'I' for Inactive)
REMARK    1  A    between atoms: CA   and  CB  
REMARK    2  A    between atoms: CB   and  CG  
REMARK    3  A    between atoms: CG   and  CD  
REMARK    4  A    between atoms: CD   and  CE  
ROOT
ATOM      1  CA  LYS A 135      33.193  34.663   9.290  1.00 25.02     0.186 C 
ENDROOT
BRANCH   1   2
ATOM      2  CB  LYS A 135      32.060  35.360  10.034  1.00 26.63     0.034 C 
BRANCH   2   3
ATOM      3  CG  LYS A 135      30.709  34.736   9.796  1.00 29.45     0.005 C 
BRANCH   3   4
ATOM      4  CD  LYS A 135      30.393  34.690   8.309  1.00 32.00     0.041 C 
BRANCH   4   5
ATOM      5  CE  LYS A 135      29.453  35.818   7.930  1.00 34.25     0.338 C 
ATOM      6  NZ  LYS A 135      28.897  35.616   6.563  1.00 35.99     0.618 N 
ENDBRANCH   4   5
ENDBRANCH   3   4
ENDBRANCH   2   3
ENDBRANCH   1   2
END_RES LYS A 135
BEGIN_RES ARG A 124
REMARK  4 active torsions:
REMARK  status: ('A' for Active; 'I' for Inactive)
REMARK    5  A    between atoms: CA   and  CB  
REMARK    6  A    between atoms: CB   and  CG  
REMARK    7  A    between atoms: CG   and  CD  
REMARK    8  A    between atoms: CD   and  NE  
REMARK       I    between atoms: NE   and  CZ  
ROOT
ATOM      7  CA  ARG A 124      31.045  26.515   9.594  1.00 17.84     0.186 C 
ENDROOT
BRANCH   7   8
ATOM      8  CB  ARG A 124      29.529  26.705   9.647  1.00 16.18     0.036 C 
BRANCH   8   9
ATOM      9  CG  ARG A 124      28.910  26.824  11.085  1.00 16.22     0.029 C 
BRANCH   9  10
ATOM     10  CD  ARG A 124      27.560  26.083  11.221  1.00 15.09     0.145 C 
BRANCH  10  11
ATOM     11  NE  ARG A 124      26.403  26.981  11.433  1.00 16.98    -0.083 NA
ATOM     12  CZ  ARG A 124      26.019  27.459  12.611  1.00 18.21     0.782 C 
ATOM     13  NH1 ARG A 124      26.679  27.164  13.725  1.00 21.11     0.063 N 
ATOM     14  NH2 ARG A 124      24.972  28.267  12.687  1.00 21.25     0.063 N 
ENDBRANCH  10  11
ENDBRANCH   9  10
ENDBRANCH   8   9
ENDBRANCH   7   8
END_RES ARG A 124
BEGIN_RES ASN A 133
REMARK  2 active torsions:
REMARK  status: ('A' for Active; 'I' for Inactive)
REMARK    9  A    between atoms: CA   and  CB  
REMARK   10  A    between atoms: CB   and  CG  
ROOT
ATOM     15  CA  ASN A 133      31.225  30.257  11.749  1.00 18.15     0.196 C 
ENDROOT
BRANCH  15  16
ATOM     16  CB  ASN A 133      30.092  31.240  11.460  1.00 18.27     0.126 C 
BRANCH  16  17
ATOM     17  CG  ASN A 133      28.735  30.609  11.507  1.00 18.94     0.276 C 
ATOM     18  OD1 ASN A 133      28.356  29.843  10.620  1.00 18.09    -0.269 OA
ATOM     19  ND2 ASN A 133      27.979  30.930  12.557  1.00 18.93    -0.107 N 
ENDBRANCH  16  17
ENDBRANCH  15  16
END_RES ASN A 133
BEGIN_RES LYS A 131
REMARK  4 active torsions:
REMARK  status: ('A' for Active; 'I' for Inactive)
REMARK   11  A    between atoms: CA   and  CB  
REMARK   12  A    between atoms: CB   and  CG  
REMARK   13  A    between atoms: CG   and  CD  
REMARK   14  A    between atoms: CD   and  CE  
ROOT
ATOM     20  CA  LYS A 131      29.867  25.555  16.977  1.00 20.52     0.186 C 
ENDROOT
BRANCH  20  21
ATOM     21  CB  LYS A 131      28.345  25.722  17.026  1.00 20.94     0.034 C 
BRANCH  21  22
ATOM     22  CG  LYS A 131      27.599  24.434  16.712  1.00 22.96     0.005 C 
BRANCH  22  23
ATOM     23  CD  LYS A 131      26.939  23.851  17.931  1.00 24.33     0.041 C 
BRANCH  23  24
ATOM     24  CE  LYS A 131      25.599  23.237  17.539  1.00 26.91     0.338 C 
ATOM     25  NZ  LYS A 131      24.697  24.272  16.981  1.00 27.40     0.618 N 
ENDBRANCH  23  24
ENDBRANCH  22  23
ENDBRANCH  21  22
ENDBRANCH  20  21
END_RES LYS A 131
