REMARK VINA RESULT:    -2.582      5.339     11.021
REMARK INTER + INTRA:          -8.719
REMARK INTER:                  -3.223
REMARK INTRA:                  -5.496
REMARK UNBOUND:                -5.609
REMARK SMILES CCOC(=O)CN
REMARK SMILES IDX 4 1 5 2 3 3 2 4 1 5 6 6 7 7
REMARK H PARENT 7 8 7 9
REMARK Flexibility Score: inf
ROOT
ATOM      1  C   UNL     1      26.505  17.561  16.599  1.00  0.00     0.319 C 
ATOM      2  O   UNL     1      26.180  17.418  17.802  1.00  0.00    -0.251 OA
ENDROOT
BRANCH   1   3
ATOM      3  O   UNL     1      25.811  18.489  15.794  1.00  0.00    -0.465 OA
BRANCH   3   4
ATOM      4  C   UNL     1      24.696  17.987  15.089  1.00  0.00     0.229 C 
ATOM      5  C   UNL     1      24.612  18.488  13.690  1.00  0.00     0.049 C 
ENDBRANCH   3   4
ENDBRANCH   1   3
BRANCH   1   6
ATOM      6  C   UNL     1      27.606  16.752  16.060  1.00  0.00     0.201 C 
BRANCH   6   7
ATOM      7  N   UNL     1      28.556  17.584  15.396  1.00  0.00    -0.321 NA
ATOM      8  H   UNL     1      29.330  17.092  14.942  1.00  0.00     0.119 HD
ATOM      9  H   UNL     1      28.169  18.392  14.900  1.00  0.00     0.119 HD
ENDBRANCH   6   7
ENDBRANCH   1   6
TORSDOF 4
BEGIN_RES LYS A 135
REMARK  4 active torsions:
REMARK  status: ('A' for Active; 'I' for Inactive)
REMARK    1  A    between atoms: CA   and  CB  
REMARK    2  A    between atoms: CB   and  CG  
REMARK    3  A    between atoms: CG   and  CD  
REMARK    4  A    between atoms: CD   and  CE  
ROOT
ATOM      1  CA  LYS A 135      33.193  34.663   9.290  1.00 25.02     0.186 C 
ENDROOT
BRANCH   1   2
ATOM      2  CB  LYS A 135      32.060  35.360  10.034  1.00 26.63     0.034 C 
BRANCH   2   3
ATOM      3  CG  LYS A 135      30.816  35.543   9.203  1.00 29.45     0.005 C 
BRANCH   3   4
ATOM      4  CD  LYS A 135      30.234  34.195   8.805  1.00 32.00     0.041 C 
BRANCH   4   5
ATOM      5  CE  LYS A 135      28.719  34.228   8.876  1.00 34.25     0.338 C 
ATOM      6  NZ  LYS A 135      28.147  35.022   7.753  1.00 35.99     0.618 N 
ENDBRANCH   4   5
ENDBRANCH   3   4
ENDBRANCH   2   3
ENDBRANCH   1   2
END_RES LYS A 135
BEGIN_RES ARG A 124
REMARK  4 active torsions:
REMARK  status: ('A' for Active; 'I' for Inactive)
REMARK    5  A    between atoms: CA   and  CB  
REMARK    6  A    between atoms: CB   and  CG  
REMARK    7  A    between atoms: CG   and  CD  
REMARK    8  A    between atoms: CD   and  NE  
REMARK       I    between atoms: NE   and  CZ  
ROOT
ATOM      7  CA  ARG A 124      31.045  26.515   9.594  1.00 17.84     0.186 C 
ENDROOT
BRANCH   7   8
ATOM      8  CB  ARG A 124      29.529  26.705   9.647  1.00 16.18     0.036 C 
BRANCH   8   9
ATOM      9  CG  ARG A 124      28.970  27.341  10.970  1.00 16.22     0.029 C 
BRANCH   9  10
ATOM     10  CD  ARG A 124      28.423  26.286  11.958  1.00 15.09     0.145 C 
BRANCH  10  11
ATOM     11  NE  ARG A 124      27.990  26.849  13.256  1.00 16.98    -0.083 NA
ATOM     12  CZ  ARG A 124      26.763  27.286  13.523  1.00 18.21     0.782 C 
ATOM     13  NH1 ARG A 124      25.798  27.233  12.613  1.00 21.11     0.063 N 
ATOM     14  NH2 ARG A 124      26.479  27.762  14.725  1.00 21.25     0.063 N 
ENDBRANCH  10  11
ENDBRANCH   9  10
ENDBRANCH   8   9
ENDBRANCH   7   8
END_RES ARG A 124
BEGIN_RES ASN A 133
REMARK  2 active torsions:
REMARK  status: ('A' for Active; 'I' for Inactive)
REMARK    9  A    between atoms: CA   and  CB  
REMARK   10  A    between atoms: CB   and  CG  
ROOT
ATOM     15  CA  ASN A 133      31.225  30.257  11.749  1.00 18.15     0.196 C 
ENDROOT
BRANCH  15  16
ATOM     16  CB  ASN A 133      30.092  31.240  11.460  1.00 18.27     0.126 C 
BRANCH  16  17
ATOM     17  CG  ASN A 133      29.012  31.219  12.497  1.00 18.94     0.276 C 
ATOM     18  OD1 ASN A 133      29.101  31.893  13.525  1.00 18.09    -0.269 OA
ATOM     19  ND2 ASN A 133      27.968  30.434  12.235  1.00 18.93    -0.107 N 
ENDBRANCH  16  17
ENDBRANCH  15  16
END_RES ASN A 133
BEGIN_RES LYS A 131
REMARK  4 active torsions:
REMARK  status: ('A' for Active; 'I' for Inactive)
REMARK   11  A    between atoms: CA   and  CB  
REMARK   12  A    between atoms: CB   and  CG  
REMARK   13  A    between atoms: CG   and  CD  
REMARK   14  A    between atoms: CD   and  CE  
ROOT
ATOM     20  CA  LYS A 131      29.867  25.555  16.977  1.00 20.52     0.186 C 
ENDROOT
BRANCH  20  21
ATOM     21  CB  LYS A 131      28.345  25.722  17.026  1.00 20.94     0.034 C 
BRANCH  21  22
ATOM     22  CG  LYS A 131      27.600  24.409  16.838  1.00 22.96     0.005 C 
BRANCH  22  23
ATOM     23  CD  LYS A 131      26.147  24.524  17.207  1.00 24.33     0.041 C 
BRANCH  23  24
ATOM     24  CE  LYS A 131      25.655  23.190  17.758  1.00 26.91     0.338 C 
ATOM     25  NZ  LYS A 131      25.568  23.239  19.237  1.00 27.40     0.618 N 
ENDBRANCH  23  24
ENDBRANCH  22  23
ENDBRANCH  21  22
ENDBRANCH  20  21
END_RES LYS A 131
