REMARK VINA RESULT:    -2.900      1.938      2.742
REMARK INTER + INTRA:          -8.950
REMARK INTER:                  -3.352
REMARK INTRA:                  -5.598
REMARK UNBOUND:                -5.541
REMARK SMILES NCC(O)c1ccccc1
REMARK SMILES IDX 2 1 1 2 3 5 4 6 5 8 6 9 10 10 7 11 9 12 8 13
REMARK H PARENT 1 3 1 4 4 7
REMARK Flexibility Score: inf
ROOT
ATOM      1  C   UNL     1      38.151  35.273  17.311  1.00  0.00     0.114 C 
ENDROOT
BRANCH   1   2
ATOM      2  N   UNL     1      37.481  36.242  18.120  1.00  0.00    -0.328 NA
ATOM      3  H   UNL     1      37.729  36.084  19.109  1.00  0.00     0.118 HD
ATOM      4  H   UNL     1      36.434  36.161  18.058  1.00  0.00     0.118 HD
ENDBRANCH   1   2
BRANCH   1   5
ATOM      5  C   UNL     1      39.029  35.912  16.247  1.00  0.00     0.158 C 
BRANCH   5   6
ATOM      6  O   UNL     1      40.368  35.798  16.542  1.00  0.00    -0.387 OA
ATOM      7  H   UNL     1      40.443  35.168  17.324  1.00  0.00     0.211 HD
ENDBRANCH   5   6
BRANCH   5   8
ATOM      8  C   UNL     1      38.785  35.237  14.940  1.00  0.00    -0.018 A 
ATOM      9  C   UNL     1      39.581  35.452  13.833  1.00  0.00     0.006 A 
ATOM     10  C   UNL     1      37.730  34.358  14.800  1.00  0.00     0.006 A 
ATOM     11  C   UNL     1      39.321  34.807  12.640  1.00  0.00     0.000 A 
ATOM     12  C   UNL     1      37.472  33.713  13.606  1.00  0.00     0.000 A 
ATOM     13  C   UNL     1      38.266  33.928  12.501  1.00  0.00     0.000 A 
ENDBRANCH   5   8
ENDBRANCH   1   5
TORSDOF 4
BEGIN_RES LYS A 135
REMARK  4 active torsions:
REMARK  status: ('A' for Active; 'I' for Inactive)
REMARK    1  A    between atoms: CA   and  CB  
REMARK    2  A    between atoms: CB   and  CG  
REMARK    3  A    between atoms: CG   and  CD  
REMARK    4  A    between atoms: CD   and  CE  
ROOT
ATOM      1  CA  LYS A 135      33.193  34.663   9.290  1.00 25.02     0.186 C 
ENDROOT
BRANCH   1   2
ATOM      2  CB  LYS A 135      32.060  35.360  10.034  1.00 26.63     0.034 C 
BRANCH   2   3
ATOM      3  CG  LYS A 135      30.796  35.489   9.223  1.00 29.45     0.005 C 
BRANCH   3   4
ATOM      4  CD  LYS A 135      30.210  34.119   8.921  1.00 32.00     0.041 C 
BRANCH   4   5
ATOM      5  CE  LYS A 135      28.695  34.169   8.952  1.00 34.25     0.338 C 
ATOM      6  NZ  LYS A 135      28.161  34.963   7.811  1.00 35.99     0.618 N 
ENDBRANCH   4   5
ENDBRANCH   3   4
ENDBRANCH   2   3
ENDBRANCH   1   2
END_RES LYS A 135
BEGIN_RES ARG A 124
REMARK  4 active torsions:
REMARK  status: ('A' for Active; 'I' for Inactive)
REMARK    5  A    between atoms: CA   and  CB  
REMARK    6  A    between atoms: CB   and  CG  
REMARK    7  A    between atoms: CG   and  CD  
REMARK    8  A    between atoms: CD   and  NE  
REMARK       I    between atoms: NE   and  CZ  
ROOT
ATOM      7  CA  ARG A 124      31.045  26.515   9.594  1.00 17.84     0.186 C 
ENDROOT
BRANCH   7   8
ATOM      8  CB  ARG A 124      29.529  26.705   9.647  1.00 16.18     0.036 C 
BRANCH   8   9
ATOM      9  CG  ARG A 124      28.967  27.311  10.983  1.00 16.22     0.029 C 
BRANCH   9  10
ATOM     10  CD  ARG A 124      28.383  26.237  11.929  1.00 15.09     0.145 C 
BRANCH  10  11
ATOM     11  NE  ARG A 124      27.922  26.773  13.229  1.00 16.98    -0.083 NA
ATOM     12  CZ  ARG A 124      26.700  27.235  13.470  1.00 18.21     0.782 C 
ATOM     13  NH1 ARG A 124      25.765  27.238  12.528  1.00 21.11     0.063 N 
ATOM     14  NH2 ARG A 124      26.389  27.683  14.677  1.00 21.25     0.063 N 
ENDBRANCH  10  11
ENDBRANCH   9  10
ENDBRANCH   8   9
ENDBRANCH   7   8
END_RES ARG A 124
BEGIN_RES ASN A 133
REMARK  2 active torsions:
REMARK  status: ('A' for Active; 'I' for Inactive)
REMARK    9  A    between atoms: CA   and  CB  
REMARK   10  A    between atoms: CB   and  CG  
ROOT
ATOM     15  CA  ASN A 133      31.225  30.257  11.749  1.00 18.15     0.196 C 
ENDROOT
BRANCH  15  16
ATOM     16  CB  ASN A 133      30.092  31.240  11.460  1.00 18.27     0.126 C 
BRANCH  16  17
ATOM     17  CG  ASN A 133      28.812  30.888  12.153  1.00 18.94     0.276 C 
ATOM     18  OD1 ASN A 133      28.035  30.059  11.676  1.00 18.09    -0.269 OA
ATOM     19  ND2 ASN A 133      28.576  31.525  13.300  1.00 18.93    -0.107 N 
ENDBRANCH  16  17
ENDBRANCH  15  16
END_RES ASN A 133
BEGIN_RES LYS A 131
REMARK  4 active torsions:
REMARK  status: ('A' for Active; 'I' for Inactive)
REMARK   11  A    between atoms: CA   and  CB  
REMARK   12  A    between atoms: CB   and  CG  
REMARK   13  A    between atoms: CG   and  CD  
REMARK   14  A    between atoms: CD   and  CE  
ROOT
ATOM     20  CA  LYS A 131      29.867  25.555  16.977  1.00 20.52     0.186 C 
ENDROOT
BRANCH  20  21
ATOM     21  CB  LYS A 131      28.345  25.722  17.026  1.00 20.94     0.034 C 
BRANCH  21  22
ATOM     22  CG  LYS A 131      27.600  24.410  16.831  1.00 22.96     0.005 C 
BRANCH  22  23
ATOM     23  CD  LYS A 131      26.132  24.544  17.126  1.00 24.33     0.041 C 
BRANCH  23  24
ATOM     24  CE  LYS A 131      25.606  23.231  17.698  1.00 26.91     0.338 C 
ATOM     25  NZ  LYS A 131      25.607  23.273  19.179  1.00 27.40     0.618 N 
ENDBRANCH  23  24
ENDBRANCH  22  23
ENDBRANCH  21  22
ENDBRANCH  20  21
END_RES LYS A 131
