REMARK VINA RESULT:    -3.892      1.790      2.875
REMARK INTER + INTRA:         -11.606
REMARK INTER:                  -5.032
REMARK INTRA:                  -6.574
REMARK UNBOUND:                -6.122
REMARK SMILES NCC(=O)NCC(O)Cn1ccnc1[N+](=O)[O-]
REMARK SMILES IDX 6 1 5 2 3 3 4 4 2 6 1 7 7 10 8 11 9 13 10 14 11 15 14 16
REMARK SMILES IDX 12 17 13 18 15 19 16 20 17 21
REMARK H PARENT 5 5 1 8 1 9 8 12
REMARK Flexibility Score: inf
ROOT
ATOM      1  C   UNL     1      23.381  18.571  14.664  1.00  0.00     0.151 C 
ENDROOT
BRANCH   1   2
ATOM      2  N   UNL     1      23.855  19.723  15.371  1.00  0.00    -0.352 N 
ATOM      3  C   UNL     1      23.433  20.008  16.678  1.00  0.00     0.233 C 
ATOM      4  O   UNL     1      22.608  19.268  17.316  1.00  0.00    -0.274 OA
ATOM      5  H   UNL     1      24.528  20.369  14.911  1.00  0.00     0.163 HD
BRANCH   3   6
ATOM      6  C   UNL     1      23.920  21.186  17.399  1.00  0.00     0.178 C 
BRANCH   6   7
ATOM      7  N   UNL     1      25.354  21.330  17.372  1.00  0.00    -0.322 NA
ATOM      8  H   UNL     1      25.707  21.858  18.200  1.00  0.00     0.119 HD
ATOM      9  H   UNL     1      25.854  20.416  17.386  1.00  0.00     0.119 HD
ENDBRANCH   6   7
ENDBRANCH   3   6
ENDBRANCH   1   2
BRANCH   1  10
ATOM     10  C   UNL     1      24.516  17.708  14.137  1.00  0.00     0.168 C 
BRANCH  10  11
ATOM     11  O   UNL     1      24.253  17.384  12.811  1.00  0.00    -0.388 OA
ATOM     12  H   UNL     1      23.317  17.068  12.745  1.00  0.00     0.211 HD
ENDBRANCH  10  11
BRANCH  10  13
ATOM     13  C   UNL     1      24.581  16.428  14.935  1.00  0.00     0.239 C 
BRANCH  13  14
ATOM     14  N   UNL     1      24.866  16.631  16.341  1.00  0.00    -0.227 N 
ATOM     15  C   UNL     1      24.138  16.180  17.395  1.00  0.00     0.204 A 
ATOM     16  C   UNL     1      25.925  17.283  16.853  1.00  0.00     0.434 A 
ATOM     17  C   UNL     1      24.738  16.546  18.578  1.00  0.00     0.245 A 
ATOM     18  N   UNL     1      25.835  17.223  18.207  1.00  0.00    -0.074 NA
BRANCH  16  19
ATOM     19  N   UNL     1      26.982  17.955  16.197  1.00  0.00    -0.047 N 
ATOM     20  O   UNL     1      26.951  19.217  16.079  1.00  0.00    -0.390 OA
ATOM     21  O   UNL     1      28.075  17.297  15.663  1.00  0.00    -0.390 OA
ENDBRANCH  16  19
ENDBRANCH  13  14
ENDBRANCH  10  13
ENDBRANCH   1  10
TORSDOF 8
BEGIN_RES LYS A 135
REMARK  4 active torsions:
REMARK  status: ('A' for Active; 'I' for Inactive)
REMARK    1  A    between atoms: CA   and  CB  
REMARK    2  A    between atoms: CB   and  CG  
REMARK    3  A    between atoms: CG   and  CD  
REMARK    4  A    between atoms: CD   and  CE  
ROOT
ATOM      1  CA  LYS A 135      33.193  34.663   9.290  1.00 25.02     0.186 C 
ENDROOT
BRANCH   1   2
ATOM      2  CB  LYS A 135      32.060  35.360  10.034  1.00 26.63     0.034 C 
BRANCH   2   3
ATOM      3  CG  LYS A 135      30.705  34.755   9.771  1.00 29.45     0.005 C 
BRANCH   3   4
ATOM      4  CD  LYS A 135      30.491  34.545   8.280  1.00 32.00     0.041 C 
BRANCH   4   5
ATOM      5  CE  LYS A 135      29.061  34.875   7.895  1.00 34.25     0.338 C 
ATOM      6  NZ  LYS A 135      28.975  36.215   7.251  1.00 35.99     0.618 N 
ENDBRANCH   4   5
ENDBRANCH   3   4
ENDBRANCH   2   3
ENDBRANCH   1   2
END_RES LYS A 135
BEGIN_RES ARG A 124
REMARK  4 active torsions:
REMARK  status: ('A' for Active; 'I' for Inactive)
REMARK    5  A    between atoms: CA   and  CB  
REMARK    6  A    between atoms: CB   and  CG  
REMARK    7  A    between atoms: CG   and  CD  
REMARK    8  A    between atoms: CD   and  NE  
REMARK       I    between atoms: NE   and  CZ  
ROOT
ATOM      7  CA  ARG A 124      31.045  26.515   9.594  1.00 17.84     0.186 C 
ENDROOT
BRANCH   7   8
ATOM      8  CB  ARG A 124      29.529  26.705   9.647  1.00 16.18     0.036 C 
BRANCH   8   9
ATOM      9  CG  ARG A 124      28.921  26.920  11.079  1.00 16.22     0.029 C 
BRANCH   9  10
ATOM     10  CD  ARG A 124      27.698  26.016  11.354  1.00 15.09     0.145 C 
BRANCH  10  11
ATOM     11  NE  ARG A 124      26.421  26.755  11.464  1.00 16.98    -0.083 NA
ATOM     12  CZ  ARG A 124      25.988  27.365  12.561  1.00 18.21     0.782 C 
ATOM     13  NH1 ARG A 124      26.704  27.366  13.679  1.00 21.11     0.063 N 
ATOM     14  NH2 ARG A 124      24.831  28.009  12.547  1.00 21.25     0.063 N 
ENDBRANCH  10  11
ENDBRANCH   9  10
ENDBRANCH   8   9
ENDBRANCH   7   8
END_RES ARG A 124
BEGIN_RES ASN A 133
REMARK  2 active torsions:
REMARK  status: ('A' for Active; 'I' for Inactive)
REMARK    9  A    between atoms: CA   and  CB  
REMARK   10  A    between atoms: CB   and  CG  
ROOT
ATOM     15  CA  ASN A 133      31.225  30.257  11.749  1.00 18.15     0.196 C 
ENDROOT
BRANCH  15  16
ATOM     16  CB  ASN A 133      30.092  31.240  11.460  1.00 18.27     0.126 C 
BRANCH  16  17
ATOM     17  CG  ASN A 133      28.731  30.637  11.620  1.00 18.94     0.276 C 
ATOM     18  OD1 ASN A 133      28.286  29.837  10.795  1.00 18.09    -0.269 OA
ATOM     19  ND2 ASN A 133      28.046  31.022  12.696  1.00 18.93    -0.107 N 
ENDBRANCH  16  17
ENDBRANCH  15  16
END_RES ASN A 133
BEGIN_RES LYS A 131
REMARK  4 active torsions:
REMARK  status: ('A' for Active; 'I' for Inactive)
REMARK   11  A    between atoms: CA   and  CB  
REMARK   12  A    between atoms: CB   and  CG  
REMARK   13  A    between atoms: CG   and  CD  
REMARK   14  A    between atoms: CD   and  CE  
ROOT
ATOM     20  CA  LYS A 131      29.867  25.555  16.977  1.00 20.52     0.186 C 
ENDROOT
BRANCH  20  21
ATOM     21  CB  LYS A 131      28.345  25.722  17.026  1.00 20.94     0.034 C 
BRANCH  21  22
ATOM     22  CG  LYS A 131      27.601  24.401  16.907  1.00 22.96     0.005 C 
BRANCH  22  23
ATOM     23  CD  LYS A 131      26.178  24.507  17.380  1.00 24.33     0.041 C 
BRANCH  23  24
ATOM     24  CE  LYS A 131      25.476  25.635  16.631  1.00 26.91     0.338 C 
ATOM     25  NZ  LYS A 131      24.815  26.557  17.584  1.00 27.40     0.618 N 
ENDBRANCH  23  24
ENDBRANCH  22  23
ENDBRANCH  21  22
ENDBRANCH  20  21
END_RES LYS A 131
