REMARK VINA RESULT:    -2.115      4.784      6.707
REMARK INTER + INTRA:          -8.058
REMARK INTER:                  -2.393
REMARK INTRA:                  -5.665
REMARK UNBOUND:                -5.881
REMARK SMILES NC1CCCC1
REMARK SMILES IDX 2 1 3 2 4 3 5 4 6 5 1 6
REMARK H PARENT 1 7 1 8
REMARK Flexibility Score: inf
ROOT
ATOM      1  C   UNL     1      29.624  27.621  21.387  1.00  0.00     0.050 C 
ATOM      2  C   UNL     1      30.580  28.728  20.952  1.00  0.00     0.018 C 
ATOM      3  C   UNL     1      31.788  27.853  20.582  1.00  0.00     0.002 C 
ATOM      4  C   UNL     1      31.936  27.118  21.918  1.00  0.00     0.002 C 
ATOM      5  C   UNL     1      30.518  26.665  22.160  1.00  0.00     0.018 C 
ENDROOT
BRANCH   1   6
ATOM      6  N   UNL     1      29.170  26.988  20.139  1.00  0.00    -0.328 NA
ATOM      7  H   UNL     1      28.154  26.748  20.312  1.00  0.00     0.119 HD
ATOM      8  H   UNL     1      29.649  26.067  19.990  1.00  0.00     0.119 HD
ENDBRANCH   1   6
TORSDOF 1
BEGIN_RES LYS A 135
REMARK  4 active torsions:
REMARK  status: ('A' for Active; 'I' for Inactive)
REMARK    1  A    between atoms: CA   and  CB  
REMARK    2  A    between atoms: CB   and  CG  
REMARK    3  A    between atoms: CG   and  CD  
REMARK    4  A    between atoms: CD   and  CE  
ROOT
ATOM      1  CA  LYS A 135      33.193  34.663   9.290  1.00 25.02     0.186 C 
ENDROOT
BRANCH   1   2
ATOM      2  CB  LYS A 135      32.060  35.360  10.034  1.00 26.63     0.034 C 
BRANCH   2   3
ATOM      3  CG  LYS A 135      30.705  34.754   9.773  1.00 29.45     0.005 C 
BRANCH   3   4
ATOM      4  CD  LYS A 135      30.467  34.595   8.279  1.00 32.00     0.041 C 
BRANCH   4   5
ATOM      5  CE  LYS A 135      29.011  34.850   7.942  1.00 34.25     0.338 C 
ATOM      6  NZ  LYS A 135      28.879  35.579   6.650  1.00 35.99     0.618 N 
ENDBRANCH   4   5
ENDBRANCH   3   4
ENDBRANCH   2   3
ENDBRANCH   1   2
END_RES LYS A 135
BEGIN_RES ARG A 124
REMARK  4 active torsions:
REMARK  status: ('A' for Active; 'I' for Inactive)
REMARK    5  A    between atoms: CA   and  CB  
REMARK    6  A    between atoms: CB   and  CG  
REMARK    7  A    between atoms: CG   and  CD  
REMARK    8  A    between atoms: CD   and  NE  
REMARK       I    between atoms: NE   and  CZ  
ROOT
ATOM      7  CA  ARG A 124      31.045  26.515   9.594  1.00 17.84     0.186 C 
ENDROOT
BRANCH   7   8
ATOM      8  CB  ARG A 124      29.529  26.705   9.647  1.00 16.18     0.036 C 
BRANCH   8   9
ATOM      9  CG  ARG A 124      28.911  26.836  11.085  1.00 16.22     0.029 C 
BRANCH   9  10
ATOM     10  CD  ARG A 124      27.560  26.098  11.227  1.00 15.09     0.145 C 
BRANCH  10  11
ATOM     11  NE  ARG A 124      26.405  26.999  11.432  1.00 16.98    -0.083 NA
ATOM     12  CZ  ARG A 124      26.007  27.469  12.609  1.00 18.21     0.782 C 
ATOM     13  NH1 ARG A 124      26.651  27.161  13.728  1.00 21.11     0.063 N 
ATOM     14  NH2 ARG A 124      24.963  28.280  12.678  1.00 21.25     0.063 N 
ENDBRANCH  10  11
ENDBRANCH   9  10
ENDBRANCH   8   9
ENDBRANCH   7   8
END_RES ARG A 124
BEGIN_RES ASN A 133
REMARK  2 active torsions:
REMARK  status: ('A' for Active; 'I' for Inactive)
REMARK    9  A    between atoms: CA   and  CB  
REMARK   10  A    between atoms: CB   and  CG  
ROOT
ATOM     15  CA  ASN A 133      31.225  30.257  11.749  1.00 18.15     0.196 C 
ENDROOT
BRANCH  15  16
ATOM     16  CB  ASN A 133      30.092  31.240  11.460  1.00 18.27     0.126 C 
BRANCH  16  17
ATOM     17  CG  ASN A 133      28.743  30.592  11.416  1.00 18.94     0.276 C 
ATOM     18  OD1 ASN A 133      28.409  29.876  10.470  1.00 18.09    -0.269 OA
ATOM     19  ND2 ASN A 133      27.943  30.840  12.452  1.00 18.93    -0.107 N 
ENDBRANCH  16  17
ENDBRANCH  15  16
END_RES ASN A 133
BEGIN_RES LYS A 131
REMARK  4 active torsions:
REMARK  status: ('A' for Active; 'I' for Inactive)
REMARK   11  A    between atoms: CA   and  CB  
REMARK   12  A    between atoms: CB   and  CG  
REMARK   13  A    between atoms: CG   and  CD  
REMARK   14  A    between atoms: CD   and  CE  
ROOT
ATOM     20  CA  LYS A 131      29.867  25.555  16.977  1.00 20.52     0.186 C 
ENDROOT
BRANCH  20  21
ATOM     21  CB  LYS A 131      28.345  25.722  17.026  1.00 20.94     0.034 C 
BRANCH  21  22
ATOM     22  CG  LYS A 131      27.600  24.412  16.820  1.00 22.96     0.005 C 
BRANCH  22  23
ATOM     23  CD  LYS A 131      26.680  24.097  17.968  1.00 24.33     0.041 C 
BRANCH  23  24
ATOM     24  CE  LYS A 131      25.241  24.042  17.466  1.00 26.91     0.338 C 
ATOM     25  NZ  LYS A 131      24.292  24.191  18.594  1.00 27.40     0.618 N 
ENDBRANCH  23  24
ENDBRANCH  22  23
ENDBRANCH  21  22
ENDBRANCH  20  21
END_RES LYS A 131
