REMARK VINA RESULT:    -2.246      4.069      4.647
REMARK INTER + INTRA:          -9.506
REMARK INTER:                  -3.167
REMARK INTRA:                  -6.339
REMARK UNBOUND:                -6.407
REMARK SMILES CCOC(CCN)OCC
REMARK SMILES IDX 5 1 4 2 3 3 2 4 1 5 8 6 9 7 10 8 6 9 7 10
REMARK H PARENT 7 11 7 12
REMARK Flexibility Score: inf
ROOT
ATOM      1  C   UNL     1      31.856  33.716  15.955  1.00  0.00     0.077 C 
ENDROOT
BRANCH   1   2
ATOM      2  C   UNL     1      31.335  34.802  15.066  1.00  0.00     0.251 C 
BRANCH   2   3
ATOM      3  O   UNL     1      32.215  35.862  14.965  1.00  0.00    -0.353 OA
BRANCH   3   4
ATOM      4  C   UNL     1      32.070  36.622  13.838  1.00  0.00     0.160 C 
ATOM      5  C   UNL     1      32.544  35.768  12.657  1.00  0.00     0.035 C 
ENDBRANCH   3   4
ENDBRANCH   2   3
BRANCH   2   6
ATOM      6  O   UNL     1      30.072  35.202  15.493  1.00  0.00    -0.353 OA
BRANCH   6   7
ATOM      7  C   UNL     1      30.103  35.606  16.800  1.00  0.00     0.160 C 
ATOM      8  C   UNL     1      29.544  36.993  17.010  1.00  0.00     0.035 C 
ENDBRANCH   6   7
ENDBRANCH   2   6
ENDBRANCH   1   2
BRANCH   1   9
ATOM      9  C   UNL     1      31.283  32.360  15.632  1.00  0.00     0.083 C 
BRANCH   9  10
ATOM     10  N   UNL     1      30.522  32.342  14.412  1.00  0.00    -0.330 NA
ATOM     11  H   UNL     1      29.490  32.296  14.596  1.00  0.00     0.118 HD
ATOM     12  H   UNL     1      30.747  33.124  13.777  1.00  0.00     0.118 HD
ENDBRANCH   9  10
ENDBRANCH   1   9
TORSDOF 7
BEGIN_RES LYS A 135
REMARK  4 active torsions:
REMARK  status: ('A' for Active; 'I' for Inactive)
REMARK    1  A    between atoms: CA   and  CB  
REMARK    2  A    between atoms: CB   and  CG  
REMARK    3  A    between atoms: CG   and  CD  
REMARK    4  A    between atoms: CD   and  CE  
ROOT
ATOM      1  CA  LYS A 135      33.193  34.663   9.290  1.00 25.02     0.186 C 
ENDROOT
BRANCH   1   2
ATOM      2  CB  LYS A 135      32.060  35.360  10.034  1.00 26.63     0.034 C 
BRANCH   2   3
ATOM      3  CG  LYS A 135      30.804  35.510   9.215  1.00 29.45     0.005 C 
BRANCH   3   4
ATOM      4  CD  LYS A 135      30.152  34.156   8.980  1.00 32.00     0.041 C 
BRANCH   4   5
ATOM      5  CE  LYS A 135      28.676  34.321   8.674  1.00 34.25     0.338 C 
ATOM      6  NZ  LYS A 135      27.836  33.618   9.683  1.00 35.99     0.618 N 
ENDBRANCH   4   5
ENDBRANCH   3   4
ENDBRANCH   2   3
ENDBRANCH   1   2
END_RES LYS A 135
BEGIN_RES ARG A 124
REMARK  4 active torsions:
REMARK  status: ('A' for Active; 'I' for Inactive)
REMARK    5  A    between atoms: CA   and  CB  
REMARK    6  A    between atoms: CB   and  CG  
REMARK    7  A    between atoms: CG   and  CD  
REMARK    8  A    between atoms: CD   and  NE  
REMARK       I    between atoms: NE   and  CZ  
ROOT
ATOM      7  CA  ARG A 124      31.045  26.515   9.594  1.00 17.84     0.186 C 
ENDROOT
BRANCH   7   8
ATOM      8  CB  ARG A 124      29.529  26.705   9.647  1.00 16.18     0.036 C 
BRANCH   8   9
ATOM      9  CG  ARG A 124      28.909  26.817  11.086  1.00 16.22     0.029 C 
BRANCH   9  10
ATOM     10  CD  ARG A 124      27.542  26.105  11.207  1.00 15.09     0.145 C 
BRANCH  10  11
ATOM     11  NE  ARG A 124      26.406  27.025  11.432  1.00 16.98    -0.083 NA
ATOM     12  CZ  ARG A 124      26.056  27.527  12.611  1.00 18.21     0.782 C 
ATOM     13  NH1 ARG A 124      26.737  27.237  13.714  1.00 21.11     0.063 N 
ATOM     14  NH2 ARG A 124      25.025  28.353  12.699  1.00 21.25     0.063 N 
ENDBRANCH  10  11
ENDBRANCH   9  10
ENDBRANCH   8   9
ENDBRANCH   7   8
END_RES ARG A 124
BEGIN_RES ASN A 133
REMARK  2 active torsions:
REMARK  status: ('A' for Active; 'I' for Inactive)
REMARK    9  A    between atoms: CA   and  CB  
REMARK   10  A    between atoms: CB   and  CG  
ROOT
ATOM     15  CA  ASN A 133      31.225  30.257  11.749  1.00 18.15     0.196 C 
ENDROOT
BRANCH  15  16
ATOM     16  CB  ASN A 133      30.092  31.240  11.460  1.00 18.27     0.126 C 
BRANCH  16  17
ATOM     17  CG  ASN A 133      28.741  30.595  11.434  1.00 18.94     0.276 C 
ATOM     18  OD1 ASN A 133      28.418  29.826  10.526  1.00 18.09    -0.269 OA
ATOM     19  ND2 ASN A 133      27.927  30.906  12.442  1.00 18.93    -0.107 N 
ENDBRANCH  16  17
ENDBRANCH  15  16
END_RES ASN A 133
BEGIN_RES LYS A 131
REMARK  4 active torsions:
REMARK  status: ('A' for Active; 'I' for Inactive)
REMARK   11  A    between atoms: CA   and  CB  
REMARK   12  A    between atoms: CB   and  CG  
REMARK   13  A    between atoms: CG   and  CD  
REMARK   14  A    between atoms: CD   and  CE  
ROOT
ATOM     20  CA  LYS A 131      29.867  25.555  16.977  1.00 20.52     0.186 C 
ENDROOT
BRANCH  20  21
ATOM     21  CB  LYS A 131      28.345  25.722  17.026  1.00 20.94     0.034 C 
BRANCH  21  22
ATOM     22  CG  LYS A 131      27.601  24.401  16.904  1.00 22.96     0.005 C 
BRANCH  22  23
ATOM     23  CD  LYS A 131      26.140  24.541  17.227  1.00 24.33     0.041 C 
BRANCH  23  24
ATOM     24  CE  LYS A 131      25.710  25.990  17.020  1.00 26.91     0.338 C 
ATOM     25  NZ  LYS A 131      24.491  26.054  16.179  1.00 27.40     0.618 N 
ENDBRANCH  23  24
ENDBRANCH  22  23
ENDBRANCH  21  22
ENDBRANCH  20  21
END_RES LYS A 131
