REMARK VINA RESULT:    -2.970      5.545     13.521
REMARK INTER + INTRA:          -9.109
REMARK INTER:                  -3.442
REMARK INTRA:                  -5.667
REMARK UNBOUND:                -5.705
REMARK SMILES NCC(=O)Nc1ncccn1
REMARK SMILES IDX 5 1 3 2 4 3 6 5 7 6 8 7 9 8 11 9 10 10 2 11 1 12
REMARK H PARENT 5 4 1 13 1 14
REMARK Flexibility Score: inf
ROOT
ATOM      1  N   UNL     1      25.366  37.153   7.461  1.00  0.00    -0.293 N 
ATOM      2  C   UNL     1      24.326  38.097   7.505  1.00  0.00     0.240 C 
ATOM      3  O   UNL     1      24.589  39.294   7.296  1.00  0.00    -0.273 OA
ATOM      4  H   UNL     1      25.138  36.152   7.638  1.00  0.00     0.173 HD
ENDROOT
BRANCH   1   5
ATOM      5  C   UNL     1      26.687  37.523   7.186  1.00  0.00     0.229 A 
ATOM      6  N   UNL     1      27.234  37.346   5.979  1.00  0.00    -0.221 NA
ATOM      7  C   UNL     1      28.494  37.689   5.681  1.00  0.00     0.117 A 
ATOM      8  C   UNL     1      29.267  38.253   6.670  1.00  0.00     0.040 A 
ATOM      9  N   UNL     1      27.438  38.069   8.142  1.00  0.00    -0.221 NA
ATOM     10  C   UNL     1      28.716  38.445   7.935  1.00  0.00     0.117 A 
ENDBRANCH   1   5
BRANCH   2  11
ATOM     11  C   UNL     1      22.925  37.702   7.799  1.00  0.00     0.179 C 
BRANCH  11  12
ATOM     12  N   UNL     1      22.361  36.974   6.692  1.00  0.00    -0.322 NA
ATOM     13  H   UNL     1      22.106  37.608   5.899  1.00  0.00     0.119 HD
ATOM     14  H   UNL     1      23.034  36.230   6.412  1.00  0.00     0.119 HD
ENDBRANCH  11  12
ENDBRANCH   2  11
TORSDOF 3
BEGIN_RES LYS A 135
REMARK  4 active torsions:
REMARK  status: ('A' for Active; 'I' for Inactive)
REMARK    1  A    between atoms: CA   and  CB  
REMARK    2  A    between atoms: CB   and  CG  
REMARK    3  A    between atoms: CG   and  CD  
REMARK    4  A    between atoms: CD   and  CE  
ROOT
ATOM      1  CA  LYS A 135      33.193  34.663   9.290  1.00 25.02     0.186 C 
ENDROOT
BRANCH   1   2
ATOM      2  CB  LYS A 135      32.060  35.360  10.034  1.00 26.63     0.034 C 
BRANCH   2   3
ATOM      3  CG  LYS A 135      30.865  35.661   9.167  1.00 29.45     0.005 C 
BRANCH   3   4
ATOM      4  CD  LYS A 135      30.231  34.375   8.661  1.00 32.00     0.041 C 
BRANCH   4   5
ATOM      5  CE  LYS A 135      28.895  34.662   8.004  1.00 34.25     0.338 C 
ATOM      6  NZ  LYS A 135      27.765  34.323   8.913  1.00 35.99     0.618 N 
ENDBRANCH   4   5
ENDBRANCH   3   4
ENDBRANCH   2   3
ENDBRANCH   1   2
END_RES LYS A 135
BEGIN_RES ARG A 124
REMARK  4 active torsions:
REMARK  status: ('A' for Active; 'I' for Inactive)
REMARK    5  A    between atoms: CA   and  CB  
REMARK    6  A    between atoms: CB   and  CG  
REMARK    7  A    between atoms: CG   and  CD  
REMARK    8  A    between atoms: CD   and  NE  
REMARK       I    between atoms: NE   and  CZ  
ROOT
ATOM      7  CA  ARG A 124      31.045  26.515   9.594  1.00 17.84     0.186 C 
ENDROOT
BRANCH   7   8
ATOM      8  CB  ARG A 124      29.529  26.705   9.647  1.00 16.18     0.036 C 
BRANCH   8   9
ATOM      9  CG  ARG A 124      28.912  26.842  11.085  1.00 16.22     0.029 C 
BRANCH   9  10
ATOM     10  CD  ARG A 124      27.563  26.102  11.232  1.00 15.09     0.145 C 
BRANCH  10  11
ATOM     11  NE  ARG A 124      26.406  27.001  11.434  1.00 16.98    -0.083 NA
ATOM     12  CZ  ARG A 124      26.006  27.473  12.610  1.00 18.21     0.782 C 
ATOM     13  NH1 ARG A 124      26.650  27.168  13.730  1.00 21.11     0.063 N 
ATOM     14  NH2 ARG A 124      24.961  28.283  12.677  1.00 21.25     0.063 N 
ENDBRANCH  10  11
ENDBRANCH   9  10
ENDBRANCH   8   9
ENDBRANCH   7   8
END_RES ARG A 124
BEGIN_RES ASN A 133
REMARK  2 active torsions:
REMARK  status: ('A' for Active; 'I' for Inactive)
REMARK    9  A    between atoms: CA   and  CB  
REMARK   10  A    between atoms: CB   and  CG  
ROOT
ATOM     15  CA  ASN A 133      31.225  30.257  11.749  1.00 18.15     0.196 C 
ENDROOT
BRANCH  15  16
ATOM     16  CB  ASN A 133      30.092  31.240  11.460  1.00 18.27     0.126 C 
BRANCH  16  17
ATOM     17  CG  ASN A 133      28.733  30.614  11.531  1.00 18.94     0.276 C 
ATOM     18  OD1 ASN A 133      28.322  29.878  10.633  1.00 18.09    -0.269 OA
ATOM     19  ND2 ASN A 133      28.013  30.907  12.613  1.00 18.93    -0.107 N 
ENDBRANCH  16  17
ENDBRANCH  15  16
END_RES ASN A 133
BEGIN_RES LYS A 131
REMARK  4 active torsions:
REMARK  status: ('A' for Active; 'I' for Inactive)
REMARK   11  A    between atoms: CA   and  CB  
REMARK   12  A    between atoms: CB   and  CG  
REMARK   13  A    between atoms: CG   and  CD  
REMARK   14  A    between atoms: CD   and  CE  
ROOT
ATOM     20  CA  LYS A 131      29.867  25.555  16.977  1.00 20.52     0.186 C 
ENDROOT
BRANCH  20  21
ATOM     21  CB  LYS A 131      28.345  25.722  17.026  1.00 20.94     0.034 C 
BRANCH  21  22
ATOM     22  CG  LYS A 131      27.599  24.426  16.747  1.00 22.96     0.005 C 
BRANCH  22  23
ATOM     23  CD  LYS A 131      26.907  23.896  17.973  1.00 24.33     0.041 C 
BRANCH  23  24
ATOM     24  CE  LYS A 131      26.223  25.044  18.708  1.00 26.91     0.338 C 
ATOM     25  NZ  LYS A 131      24.756  24.990  18.503  1.00 27.40     0.618 N 
ENDBRANCH  23  24
ENDBRANCH  22  23
ENDBRANCH  21  22
ENDBRANCH  20  21
END_RES LYS A 131
