REMARK VINA RESULT:    -2.515      3.233      3.837
REMARK INTER + INTRA:          -8.509
REMARK INTER:                  -2.819
REMARK INTRA:                  -5.689
REMARK UNBOUND:                -5.773
REMARK SMILES NCc1ccsc1
REMARK SMILES IDX 2 1 1 2 3 5 4 6 7 7 5 8 6 9
REMARK H PARENT 1 3 1 4
REMARK Flexibility Score: inf
ROOT
ATOM      1  C   UNL     1      33.454  34.895  14.429  1.00  0.00     0.114 C 
ENDROOT
BRANCH   1   2
ATOM      2  N   UNL     1      34.200  34.159  13.427  1.00  0.00    -0.326 NA
ATOM      3  H   UNL     1      34.476  33.240  13.884  1.00  0.00     0.119 HD
ATOM      4  H   UNL     1      35.096  34.662  13.242  1.00  0.00     0.119 HD
ENDBRANCH   1   2
BRANCH   1   5
ATOM      5  C   UNL     1      32.101  34.210  14.640  1.00  0.00    -0.024 A 
ATOM      6  C   UNL     1      31.879  33.178  15.489  1.00  0.00     0.016 A 
ATOM      7  C   UNL     1      31.043  34.666  13.924  1.00  0.00     0.069 A 
ATOM      8  C   UNL     1      30.681  32.648  15.605  1.00  0.00     0.065 A 
ATOM      9  S   UNL     1      29.646  33.600  14.457  1.00  0.00    -0.152 S 
ENDBRANCH   1   5
TORSDOF 2
BEGIN_RES LYS A 135
REMARK  4 active torsions:
REMARK  status: ('A' for Active; 'I' for Inactive)
REMARK    1  A    between atoms: CA   and  CB  
REMARK    2  A    between atoms: CB   and  CG  
REMARK    3  A    between atoms: CG   and  CD  
REMARK    4  A    between atoms: CD   and  CE  
ROOT
ATOM      1  CA  LYS A 135      33.193  34.663   9.290  1.00 25.02     0.186 C 
ENDROOT
BRANCH   1   2
ATOM      2  CB  LYS A 135      32.060  35.360  10.034  1.00 26.63     0.034 C 
BRANCH   2   3
ATOM      3  CG  LYS A 135      30.815  35.539   9.205  1.00 29.45     0.005 C 
BRANCH   3   4
ATOM      4  CD  LYS A 135      30.235  34.189   8.809  1.00 32.00     0.041 C 
BRANCH   4   5
ATOM      5  CE  LYS A 135      28.725  34.195   8.953  1.00 34.25     0.338 C 
ATOM      6  NZ  LYS A 135      28.086  34.989   7.868  1.00 35.99     0.618 N 
ENDBRANCH   4   5
ENDBRANCH   3   4
ENDBRANCH   2   3
ENDBRANCH   1   2
END_RES LYS A 135
BEGIN_RES ARG A 124
REMARK  4 active torsions:
REMARK  status: ('A' for Active; 'I' for Inactive)
REMARK    5  A    between atoms: CA   and  CB  
REMARK    6  A    between atoms: CB   and  CG  
REMARK    7  A    between atoms: CG   and  CD  
REMARK    8  A    between atoms: CD   and  NE  
REMARK       I    between atoms: NE   and  CZ  
ROOT
ATOM      7  CA  ARG A 124      31.045  26.515   9.594  1.00 17.84     0.186 C 
ENDROOT
BRANCH   7   8
ATOM      8  CB  ARG A 124      29.529  26.705   9.647  1.00 16.18     0.036 C 
BRANCH   8   9
ATOM      9  CG  ARG A 124      28.910  26.830  11.085  1.00 16.22     0.029 C 
BRANCH   9  10
ATOM     10  CD  ARG A 124      27.558  26.094  11.223  1.00 15.09     0.145 C 
BRANCH  10  11
ATOM     11  NE  ARG A 124      26.406  26.995  11.443  1.00 16.98    -0.083 NA
ATOM     12  CZ  ARG A 124      26.024  27.465  12.626  1.00 18.21     0.782 C 
ATOM     13  NH1 ARG A 124      26.684  27.158  13.736  1.00 21.11     0.063 N 
ATOM     14  NH2 ARG A 124      24.982  28.277  12.709  1.00 21.25     0.063 N 
ENDBRANCH  10  11
ENDBRANCH   9  10
ENDBRANCH   8   9
ENDBRANCH   7   8
END_RES ARG A 124
BEGIN_RES ASN A 133
REMARK  2 active torsions:
REMARK  status: ('A' for Active; 'I' for Inactive)
REMARK    9  A    between atoms: CA   and  CB  
REMARK   10  A    between atoms: CB   and  CG  
ROOT
ATOM     15  CA  ASN A 133      31.225  30.257  11.749  1.00 18.15     0.196 C 
ENDROOT
BRANCH  15  16
ATOM     16  CB  ASN A 133      30.092  31.240  11.460  1.00 18.27     0.126 C 
BRANCH  16  17
ATOM     17  CG  ASN A 133      28.740  30.597  11.448  1.00 18.94     0.276 C 
ATOM     18  OD1 ASN A 133      28.378  29.888  10.507  1.00 18.09    -0.269 OA
ATOM     19  ND2 ASN A 133      27.968  30.844  12.506  1.00 18.93    -0.107 N 
ENDBRANCH  16  17
ENDBRANCH  15  16
END_RES ASN A 133
BEGIN_RES LYS A 131
REMARK  4 active torsions:
REMARK  status: ('A' for Active; 'I' for Inactive)
REMARK   11  A    between atoms: CA   and  CB  
REMARK   12  A    between atoms: CB   and  CG  
REMARK   13  A    between atoms: CG   and  CD  
REMARK   14  A    between atoms: CD   and  CE  
ROOT
ATOM     20  CA  LYS A 131      29.867  25.555  16.977  1.00 20.52     0.186 C 
ENDROOT
BRANCH  20  21
ATOM     21  CB  LYS A 131      28.345  25.722  17.026  1.00 20.94     0.034 C 
BRANCH  21  22
ATOM     22  CG  LYS A 131      27.599  24.442  16.681  1.00 22.96     0.005 C 
BRANCH  22  23
ATOM     23  CD  LYS A 131      27.030  23.772  17.900  1.00 24.33     0.041 C 
BRANCH  23  24
ATOM     24  CE  LYS A 131      26.189  24.773  18.686  1.00 26.91     0.338 C 
ATOM     25  NZ  LYS A 131      24.816  24.844  18.134  1.00 27.40     0.618 N 
ENDBRANCH  23  24
ENDBRANCH  22  23
ENDBRANCH  21  22
ENDBRANCH  20  21
END_RES LYS A 131
