REMARK VINA RESULT:    -2.253      2.510      2.978
REMARK INTER + INTRA:          -7.601
REMARK INTER:                  -2.534
REMARK INTRA:                  -5.067
REMARK UNBOUND:                -5.085
REMARK SMILES CC(C)(N)C(=O)O
REMARK SMILES IDX 1 1 2 2 3 3 4 4 5 7 6 8 7 9
REMARK H PARENT 4 5 4 6 7 10
REMARK Flexibility Score: inf
ROOT
ATOM      1  C   UNL     1      25.434  17.862  15.291  1.00  0.00     0.040 C 
ATOM      2  C   UNL     1      24.111  18.511  14.934  1.00  0.00     0.109 C 
ATOM      3  C   UNL     1      22.951  17.652  15.454  1.00  0.00     0.040 C 
ENDROOT
BRANCH   2   4
ATOM      4  N   UNL     1      23.956  19.807  15.571  1.00  0.00    -0.316 NA
ATOM      5  H   UNL     1      24.166  19.792  16.577  1.00  0.00     0.119 HD
ATOM      6  H   UNL     1      24.486  20.489  15.016  1.00  0.00     0.119 HD
ENDBRANCH   2   4
BRANCH   2   7
ATOM      7  C   UNL     1      24.043  18.625  13.452  1.00  0.00     0.323 C 
ATOM      8  O   UNL     1      22.932  18.823  12.908  1.00  0.00    -0.250 OA
BRANCH   7   9
ATOM      9  O   UNL     1      25.156  18.522  12.634  1.00  0.00    -0.480 OA
ATOM     10  H   UNL     1      26.059  18.879  12.975  1.00  0.00     0.296 HD
ENDBRANCH   7   9
ENDBRANCH   2   7
TORSDOF 3
BEGIN_RES LYS A 135
REMARK  4 active torsions:
REMARK  status: ('A' for Active; 'I' for Inactive)
REMARK    1  A    between atoms: CA   and  CB  
REMARK    2  A    between atoms: CB   and  CG  
REMARK    3  A    between atoms: CG   and  CD  
REMARK    4  A    between atoms: CD   and  CE  
ROOT
ATOM      1  CA  LYS A 135      33.193  34.663   9.290  1.00 25.02     0.186 C 
ENDROOT
BRANCH   1   2
ATOM      2  CB  LYS A 135      32.060  35.360  10.034  1.00 26.63     0.034 C 
BRANCH   2   3
ATOM      3  CG  LYS A 135      30.813  35.534   9.206  1.00 29.45     0.005 C 
BRANCH   3   4
ATOM      4  CD  LYS A 135      30.240  34.183   8.808  1.00 32.00     0.041 C 
BRANCH   4   5
ATOM      5  CE  LYS A 135      28.725  34.205   8.879  1.00 34.25     0.338 C 
ATOM      6  NZ  LYS A 135      28.147  35.010   7.767  1.00 35.99     0.618 N 
ENDBRANCH   4   5
ENDBRANCH   3   4
ENDBRANCH   2   3
ENDBRANCH   1   2
END_RES LYS A 135
BEGIN_RES ARG A 124
REMARK  4 active torsions:
REMARK  status: ('A' for Active; 'I' for Inactive)
REMARK    5  A    between atoms: CA   and  CB  
REMARK    6  A    between atoms: CB   and  CG  
REMARK    7  A    between atoms: CG   and  CD  
REMARK    8  A    between atoms: CD   and  NE  
REMARK       I    between atoms: NE   and  CZ  
ROOT
ATOM      7  CA  ARG A 124      31.045  26.515   9.594  1.00 17.84     0.186 C 
ENDROOT
BRANCH   7   8
ATOM      8  CB  ARG A 124      29.529  26.705   9.647  1.00 16.18     0.036 C 
BRANCH   8   9
ATOM      9  CG  ARG A 124      29.020  27.842  10.603  1.00 16.22     0.029 C 
BRANCH   9  10
ATOM     10  CD  ARG A 124      28.410  27.296  11.914  1.00 15.09     0.145 C 
BRANCH  10  11
ATOM     11  NE  ARG A 124      27.352  28.157  12.486  1.00 16.98    -0.083 NA
ATOM     12  CZ  ARG A 124      26.047  27.949  12.352  1.00 18.21     0.782 C 
ATOM     13  NH1 ARG A 124      25.580  26.904  11.678  1.00 21.11     0.063 N 
ATOM     14  NH2 ARG A 124      25.183  28.779  12.916  1.00 21.25     0.063 N 
ENDBRANCH  10  11
ENDBRANCH   9  10
ENDBRANCH   8   9
ENDBRANCH   7   8
END_RES ARG A 124
BEGIN_RES ASN A 133
REMARK  2 active torsions:
REMARK  status: ('A' for Active; 'I' for Inactive)
REMARK    9  A    between atoms: CA   and  CB  
REMARK   10  A    between atoms: CB   and  CG  
ROOT
ATOM     15  CA  ASN A 133      31.225  30.257  11.749  1.00 18.15     0.196 C 
ENDROOT
BRANCH  15  16
ATOM     16  CB  ASN A 133      30.092  31.240  11.460  1.00 18.27     0.126 C 
BRANCH  16  17
ATOM     17  CG  ASN A 133      29.330  31.642  12.685  1.00 18.94     0.276 C 
ATOM     18  OD1 ASN A 133      28.340  31.010  13.057  1.00 18.09    -0.269 OA
ATOM     19  ND2 ASN A 133      29.790  32.712  13.332  1.00 18.93    -0.107 N 
ENDBRANCH  16  17
ENDBRANCH  15  16
END_RES ASN A 133
BEGIN_RES LYS A 131
REMARK  4 active torsions:
REMARK  status: ('A' for Active; 'I' for Inactive)
REMARK   11  A    between atoms: CA   and  CB  
REMARK   12  A    between atoms: CB   and  CG  
REMARK   13  A    between atoms: CG   and  CD  
REMARK   14  A    between atoms: CD   and  CE  
ROOT
ATOM     20  CA  LYS A 131      29.867  25.555  16.977  1.00 20.52     0.186 C 
ENDROOT
BRANCH  20  21
ATOM     21  CB  LYS A 131      28.345  25.722  17.026  1.00 20.94     0.034 C 
BRANCH  21  22
ATOM     22  CG  LYS A 131      27.717  25.827  15.645  1.00 22.96     0.005 C 
BRANCH  22  23
ATOM     23  CD  LYS A 131      26.432  26.607  15.664  1.00 24.33     0.041 C 
BRANCH  23  24
ATOM     24  CE  LYS A 131      26.708  28.031  16.135  1.00 26.91     0.338 C 
ATOM     25  NZ  LYS A 131      25.441  28.720  16.475  1.00 27.40     0.618 N 
ENDBRANCH  23  24
ENDBRANCH  22  23
ENDBRANCH  21  22
ENDBRANCH  20  21
END_RES LYS A 131
