REMARK VINA RESULT:    -2.953      6.226     12.825
REMARK INTER + INTRA:          -8.297
REMARK INTER:                  -2.387
REMARK INTRA:                  -5.910
REMARK UNBOUND:                -4.739
REMARK SMILES CS(=O)(=O)NCCN
REMARK SMILES IDX 6 1 5 2 2 4 1 5 3 6 4 7 7 8 8 9
REMARK H PARENT 5 3 8 10 8 11
REMARK Flexibility Score: inf
ROOT
ATOM      1  C   UNL     1      29.578  39.397   6.969  1.00  0.00     0.113 C 
ENDROOT
BRANCH   1   2
ATOM      2  N   UNL     1      29.482  38.073   6.392  1.00  0.00    -0.214 NA
ATOM      3  H   UNL     1      30.106  37.949   5.576  1.00  0.00     0.141 HD
BRANCH   2   4
ATOM      4  S   UNL     1      27.830  37.919   5.838  1.00  0.00     0.208 S 
ATOM      5  C   UNL     1      26.728  38.662   7.012  1.00  0.00     0.176 C 
ATOM      6  O   UNL     1      27.742  38.653   4.545  1.00  0.00    -0.213 OA
ATOM      7  O   UNL     1      27.483  36.488   5.598  1.00  0.00    -0.213 OA
ENDBRANCH   2   4
ENDBRANCH   1   2
BRANCH   1   8
ATOM      8  C   UNL     1      30.644  40.240   6.294  1.00  0.00     0.094 C 
BRANCH   8   9
ATOM      9  N   UNL     1      30.044  40.778   5.106  1.00  0.00    -0.329 NA
ATOM     10  H   UNL     1      30.480  40.476   4.229  1.00  0.00     0.118 HD
ATOM     11  H   UNL     1      29.018  40.796   5.115  1.00  0.00     0.118 HD
ENDBRANCH   8   9
ENDBRANCH   1   8
TORSDOF 4
BEGIN_RES LYS A 135
REMARK  4 active torsions:
REMARK  status: ('A' for Active; 'I' for Inactive)
REMARK    1  A    between atoms: CA   and  CB  
REMARK    2  A    between atoms: CB   and  CG  
REMARK    3  A    between atoms: CG   and  CD  
REMARK    4  A    between atoms: CD   and  CE  
ROOT
ATOM      1  CA  LYS A 135      33.193  34.663   9.290  1.00 25.02     0.186 C 
ENDROOT
BRANCH   1   2
ATOM      2  CB  LYS A 135      32.060  35.360  10.034  1.00 26.63     0.034 C 
BRANCH   2   3
ATOM      3  CG  LYS A 135      30.721  34.692   9.855  1.00 29.45     0.005 C 
BRANCH   3   4
ATOM      4  CD  LYS A 135      30.390  34.541   8.378  1.00 32.00     0.041 C 
BRANCH   4   5
ATOM      5  CE  LYS A 135      28.894  34.654   8.154  1.00 34.25     0.338 C 
ATOM      6  NZ  LYS A 135      28.326  35.812   8.898  1.00 35.99     0.618 N 
ENDBRANCH   4   5
ENDBRANCH   3   4
ENDBRANCH   2   3
ENDBRANCH   1   2
END_RES LYS A 135
BEGIN_RES ARG A 124
REMARK  4 active torsions:
REMARK  status: ('A' for Active; 'I' for Inactive)
REMARK    5  A    between atoms: CA   and  CB  
REMARK    6  A    between atoms: CB   and  CG  
REMARK    7  A    between atoms: CG   and  CD  
REMARK    8  A    between atoms: CD   and  NE  
REMARK       I    between atoms: NE   and  CZ  
ROOT
ATOM      7  CA  ARG A 124      31.045  26.515   9.594  1.00 17.84     0.186 C 
ENDROOT
BRANCH   7   8
ATOM      8  CB  ARG A 124      29.529  26.705   9.647  1.00 16.18     0.036 C 
BRANCH   8   9
ATOM      9  CG  ARG A 124      28.907  26.803  11.086  1.00 16.22     0.029 C 
BRANCH   9  10
ATOM     10  CD  ARG A 124      27.553  26.066  11.206  1.00 15.09     0.145 C 
BRANCH  10  11
ATOM     11  NE  ARG A 124      26.394  26.969  11.375  1.00 16.98    -0.083 NA
ATOM     12  CZ  ARG A 124      25.961  27.441  12.539  1.00 18.21     0.782 C 
ATOM     13  NH1 ARG A 124      26.571  27.133  13.678  1.00 21.11     0.063 N 
ATOM     14  NH2 ARG A 124      24.917  28.254  12.576  1.00 21.25     0.063 N 
ENDBRANCH  10  11
ENDBRANCH   9  10
ENDBRANCH   8   9
ENDBRANCH   7   8
END_RES ARG A 124
BEGIN_RES ASN A 133
REMARK  2 active torsions:
REMARK  status: ('A' for Active; 'I' for Inactive)
REMARK    9  A    between atoms: CA   and  CB  
REMARK   10  A    between atoms: CB   and  CG  
ROOT
ATOM     15  CA  ASN A 133      31.225  30.257  11.749  1.00 18.15     0.196 C 
ENDROOT
BRANCH  15  16
ATOM     16  CB  ASN A 133      30.092  31.240  11.460  1.00 18.27     0.126 C 
BRANCH  16  17
ATOM     17  CG  ASN A 133      28.731  30.628  11.584  1.00 18.94     0.276 C 
ATOM     18  OD1 ASN A 133      28.331  29.791  10.772  1.00 18.09    -0.269 OA
ATOM     19  ND2 ASN A 133      27.996  31.044  12.614  1.00 18.93    -0.107 N 
ENDBRANCH  16  17
ENDBRANCH  15  16
END_RES ASN A 133
BEGIN_RES LYS A 131
REMARK  4 active torsions:
REMARK  status: ('A' for Active; 'I' for Inactive)
REMARK   11  A    between atoms: CA   and  CB  
REMARK   12  A    between atoms: CB   and  CG  
REMARK   13  A    between atoms: CG   and  CD  
REMARK   14  A    between atoms: CD   and  CE  
ROOT
ATOM     20  CA  LYS A 131      29.867  25.555  16.977  1.00 20.52     0.186 C 
ENDROOT
BRANCH  20  21
ATOM     21  CB  LYS A 131      28.345  25.722  17.026  1.00 20.94     0.034 C 
BRANCH  21  22
ATOM     22  CG  LYS A 131      27.599  24.435  16.711  1.00 22.96     0.005 C 
BRANCH  22  23
ATOM     23  CD  LYS A 131      26.844  23.911  17.901  1.00 24.33     0.041 C 
BRANCH  23  24
ATOM     24  CE  LYS A 131      25.389  23.666  17.515  1.00 26.91     0.338 C 
ATOM     25  NZ  LYS A 131      25.082  22.217  17.543  1.00 27.40     0.618 N 
ENDBRANCH  23  24
ENDBRANCH  22  23
ENDBRANCH  21  22
ENDBRANCH  20  21
END_RES LYS A 131
