REMARK VINA RESULT:    -3.965      2.035      3.706
REMARK INTER + INTRA:         -11.806
REMARK INTER:                  -5.333
REMARK INTRA:                  -6.474
REMARK UNBOUND:                -6.451
REMARK SMILES NC[C@@H](C(=O)O)C(c1ccccc1)c1ccccc1
REMARK SMILES IDX 3 1 2 2 1 3 4 6 5 7 6 8 7 10 8 11 9 12 13 13 10 14 12 15
REMARK SMILES IDX 11 16 14 17 15 18 19 19 16 20 18 21 17 22
REMARK H PARENT 1 4 1 5 6 9
REMARK Flexibility Score: inf
ROOT
ATOM      1  C   UNL     1      27.713  38.048   7.266  1.00  0.00     0.124 C 
ENDROOT
BRANCH   1   2
ATOM      2  C   UNL     1      29.151  38.500   7.443  1.00  0.00     0.094 C 
BRANCH   2   3
ATOM      3  N   UNL     1      29.929  38.395   6.261  1.00  0.00    -0.330 NA
ATOM      4  H   UNL     1      30.631  37.635   6.252  1.00  0.00     0.118 HD
ATOM      5  H   UNL     1      29.403  38.506   5.373  1.00  0.00     0.118 HD
ENDBRANCH   2   3
ENDBRANCH   1   2
BRANCH   1   6
ATOM      6  C   UNL     1      27.732  37.019   6.198  1.00  0.00     0.308 C 
ATOM      7  O   UNL     1      28.195  35.885   6.449  1.00  0.00    -0.252 OA
BRANCH   6   8
ATOM      8  O   UNL     1      27.251  37.277   4.926  1.00  0.00    -0.481 OA
ATOM      9  H   UNL     1      27.697  37.869   4.249  1.00  0.00     0.296 HD
ENDBRANCH   6   8
ENDBRANCH   1   6
BRANCH   1  10
ATOM     10  C   UNL     1      27.152  37.411   8.488  1.00  0.00     0.065 C 
BRANCH  10  11
ATOM     11  C   UNL     1      27.463  38.093   9.763  1.00  0.00    -0.040 A 
ATOM     12  C   UNL     1      27.095  39.438   9.891  1.00  0.00     0.004 A 
ATOM     13  C   UNL     1      28.091  37.400  10.763  1.00  0.00     0.004 A 
ATOM     14  C   UNL     1      27.383  40.076  11.080  1.00  0.00     0.000 A 
ATOM     15  C   UNL     1      28.369  38.063  11.945  1.00  0.00     0.000 A 
ATOM     16  C   UNL     1      28.015  39.406  12.106  1.00  0.00     0.000 A 
ENDBRANCH  10  11
BRANCH  10  17
ATOM     17  C   UNL     1      25.676  37.345   8.374  1.00  0.00    -0.040 A 
ATOM     18  C   UNL     1      24.934  36.328   8.965  1.00  0.00     0.004 A 
ATOM     19  C   UNL     1      24.959  38.290   7.682  1.00  0.00     0.004 A 
ATOM     20  C   UNL     1      23.563  36.243   8.882  1.00  0.00     0.000 A 
ATOM     21  C   UNL     1      23.564  38.216   7.589  1.00  0.00     0.000 A 
ATOM     22  C   UNL     1      22.867  37.192   8.189  1.00  0.00     0.000 A 
ENDBRANCH  10  17
ENDBRANCH   1  10
TORSDOF 7
BEGIN_RES LYS A 135
REMARK  4 active torsions:
REMARK  status: ('A' for Active; 'I' for Inactive)
REMARK    1  A    between atoms: CA   and  CB  
REMARK    2  A    between atoms: CB   and  CG  
REMARK    3  A    between atoms: CG   and  CD  
REMARK    4  A    between atoms: CD   and  CE  
ROOT
ATOM      1  CA  LYS A 135      33.193  34.663   9.290  1.00 25.02     0.186 C 
ENDROOT
BRANCH   1   2
ATOM      2  CB  LYS A 135      32.060  35.360  10.034  1.00 26.63     0.034 C 
BRANCH   2   3
ATOM      3  CG  LYS A 135      30.826  35.568   9.194  1.00 29.45     0.005 C 
BRANCH   3   4
ATOM      4  CD  LYS A 135      30.130  34.243   8.925  1.00 32.00     0.041 C 
BRANCH   4   5
ATOM      5  CE  LYS A 135      28.971  34.046   9.883  1.00 34.25     0.338 C 
ATOM      6  NZ  LYS A 135      27.678  33.954   9.149  1.00 35.99     0.618 N 
ENDBRANCH   4   5
ENDBRANCH   3   4
ENDBRANCH   2   3
ENDBRANCH   1   2
END_RES LYS A 135
BEGIN_RES ARG A 124
REMARK  4 active torsions:
REMARK  status: ('A' for Active; 'I' for Inactive)
REMARK    5  A    between atoms: CA   and  CB  
REMARK    6  A    between atoms: CB   and  CG  
REMARK    7  A    between atoms: CG   and  CD  
REMARK    8  A    between atoms: CD   and  NE  
REMARK       I    between atoms: NE   and  CZ  
ROOT
ATOM      7  CA  ARG A 124      31.045  26.515   9.594  1.00 17.84     0.186 C 
ENDROOT
BRANCH   7   8
ATOM      8  CB  ARG A 124      29.529  26.705   9.647  1.00 16.18     0.036 C 
BRANCH   8   9
ATOM      9  CG  ARG A 124      28.909  26.818  11.086  1.00 16.22     0.029 C 
BRANCH   9  10
ATOM     10  CD  ARG A 124      27.547  26.097  11.210  1.00 15.09     0.145 C 
BRANCH  10  11
ATOM     11  NE  ARG A 124      26.405  27.010  11.434  1.00 16.98    -0.083 NA
ATOM     12  CZ  ARG A 124      26.032  27.485  12.618  1.00 18.21     0.782 C 
ATOM     13  NH1 ARG A 124      26.692  27.170  13.726  1.00 21.11     0.063 N 
ATOM     14  NH2 ARG A 124      24.998  28.307  12.704  1.00 21.25     0.063 N 
ENDBRANCH  10  11
ENDBRANCH   9  10
ENDBRANCH   8   9
ENDBRANCH   7   8
END_RES ARG A 124
BEGIN_RES ASN A 133
REMARK  2 active torsions:
REMARK  status: ('A' for Active; 'I' for Inactive)
REMARK    9  A    between atoms: CA   and  CB  
REMARK   10  A    between atoms: CB   and  CG  
ROOT
ATOM     15  CA  ASN A 133      31.225  30.257  11.749  1.00 18.15     0.196 C 
ENDROOT
BRANCH  15  16
ATOM     16  CB  ASN A 133      30.092  31.240  11.460  1.00 18.27     0.126 C 
BRANCH  16  17
ATOM     17  CG  ASN A 133      28.734  30.614  11.528  1.00 18.94     0.276 C 
ATOM     18  OD1 ASN A 133      28.345  29.836  10.654  1.00 18.09    -0.269 OA
ATOM     19  ND2 ASN A 133      27.988  30.952  12.579  1.00 18.93    -0.107 N 
ENDBRANCH  16  17
ENDBRANCH  15  16
END_RES ASN A 133
BEGIN_RES LYS A 131
REMARK  4 active torsions:
REMARK  status: ('A' for Active; 'I' for Inactive)
REMARK   11  A    between atoms: CA   and  CB  
REMARK   12  A    between atoms: CB   and  CG  
REMARK   13  A    between atoms: CG   and  CD  
REMARK   14  A    between atoms: CD   and  CE  
ROOT
ATOM     20  CA  LYS A 131      29.867  25.555  16.977  1.00 20.52     0.186 C 
ENDROOT
BRANCH  20  21
ATOM     21  CB  LYS A 131      28.345  25.722  17.026  1.00 20.94     0.034 C 
BRANCH  21  22
ATOM     22  CG  LYS A 131      27.600  24.408  16.844  1.00 22.96     0.005 C 
BRANCH  22  23
ATOM     23  CD  LYS A 131      26.295  24.389  17.591  1.00 24.33     0.041 C 
BRANCH  23  24
ATOM     24  CE  LYS A 131      25.610  25.744  17.453  1.00 26.91     0.338 C 
ATOM     25  NZ  LYS A 131      24.683  25.741  16.296  1.00 27.40     0.618 N 
ENDBRANCH  23  24
ENDBRANCH  22  23
ENDBRANCH  21  22
ENDBRANCH  20  21
END_RES LYS A 131
