REMARK VINA RESULT:    -2.658      4.890      6.265
REMARK INTER + INTRA:          -8.391
REMARK INTER:                  -2.669
REMARK INTRA:                  -5.722
REMARK UNBOUND:                -5.034
REMARK SMILES C=CCCCCN
REMARK SMILES IDX 4 1 3 2 2 3 1 4 5 5 6 6 7 7
REMARK H PARENT 7 8 7 9
REMARK Flexibility Score: inf
ROOT
ATOM      1  C   UNL     1      31.141  30.060  20.355  1.00  0.00     0.005 C 
ENDROOT
BRANCH   1   2
ATOM      2  C   UNL     1      30.446  30.754  19.187  1.00  0.00     0.027 C 
BRANCH   2   3
ATOM      3  C   UNL     1      30.450  32.207  19.409  1.00  0.00    -0.035 C 
ATOM      4  C   UNL     1      31.298  32.781  20.252  1.00  0.00     0.004 C 
ENDBRANCH   2   3
ENDBRANCH   1   2
BRANCH   1   5
ATOM      5  C   UNL     1      30.390  28.834  20.760  1.00  0.00     0.015 C 
BRANCH   5   6
ATOM      6  C   UNL     1      31.386  27.727  21.044  1.00  0.00     0.077 C 
BRANCH   6   7
ATOM      7  N   UNL     1      32.096  27.387  19.824  1.00  0.00    -0.330 NA
ATOM      8  H   UNL     1      32.881  26.718  19.993  1.00  0.00     0.118 HD
ATOM      9  H   UNL     1      32.519  28.245  19.399  1.00  0.00     0.118 HD
ENDBRANCH   6   7
ENDBRANCH   5   6
ENDBRANCH   1   5
TORSDOF 5
BEGIN_RES LYS A 135
REMARK  4 active torsions:
REMARK  status: ('A' for Active; 'I' for Inactive)
REMARK    1  A    between atoms: CA   and  CB  
REMARK    2  A    between atoms: CB   and  CG  
REMARK    3  A    between atoms: CG   and  CD  
REMARK    4  A    between atoms: CD   and  CE  
ROOT
ATOM      1  CA  LYS A 135      33.193  34.663   9.290  1.00 25.02     0.186 C 
ENDROOT
BRANCH   1   2
ATOM      2  CB  LYS A 135      32.060  35.360  10.034  1.00 26.63     0.034 C 
BRANCH   2   3
ATOM      3  CG  LYS A 135      30.817  35.544   9.202  1.00 29.45     0.005 C 
BRANCH   3   4
ATOM      4  CD  LYS A 135      30.135  34.208   8.953  1.00 32.00     0.041 C 
BRANCH   4   5
ATOM      5  CE  LYS A 135      28.701  34.417   8.504  1.00 34.25     0.338 C 
ATOM      6  NZ  LYS A 135      28.640  35.277   7.290  1.00 35.99     0.618 N 
ENDBRANCH   4   5
ENDBRANCH   3   4
ENDBRANCH   2   3
ENDBRANCH   1   2
END_RES LYS A 135
BEGIN_RES ARG A 124
REMARK  4 active torsions:
REMARK  status: ('A' for Active; 'I' for Inactive)
REMARK    5  A    between atoms: CA   and  CB  
REMARK    6  A    between atoms: CB   and  CG  
REMARK    7  A    between atoms: CG   and  CD  
REMARK    8  A    between atoms: CD   and  NE  
REMARK       I    between atoms: NE   and  CZ  
ROOT
ATOM      7  CA  ARG A 124      31.045  26.515   9.594  1.00 17.84     0.186 C 
ENDROOT
BRANCH   7   8
ATOM      8  CB  ARG A 124      29.529  26.705   9.647  1.00 16.18     0.036 C 
BRANCH   8   9
ATOM      9  CG  ARG A 124      28.911  26.838  11.085  1.00 16.22     0.029 C 
BRANCH   9  10
ATOM     10  CD  ARG A 124      27.562  26.097  11.229  1.00 15.09     0.145 C 
BRANCH  10  11
ATOM     11  NE  ARG A 124      26.404  26.996  11.428  1.00 16.98    -0.083 NA
ATOM     12  CZ  ARG A 124      26.008  27.476  12.602  1.00 18.21     0.782 C 
ATOM     13  NH1 ARG A 124      26.657  27.182  13.722  1.00 21.11     0.063 N 
ATOM     14  NH2 ARG A 124      24.961  28.285  12.666  1.00 21.25     0.063 N 
ENDBRANCH  10  11
ENDBRANCH   9  10
ENDBRANCH   8   9
ENDBRANCH   7   8
END_RES ARG A 124
BEGIN_RES ASN A 133
REMARK  2 active torsions:
REMARK  status: ('A' for Active; 'I' for Inactive)
REMARK    9  A    between atoms: CA   and  CB  
REMARK   10  A    between atoms: CB   and  CG  
ROOT
ATOM     15  CA  ASN A 133      31.225  30.257  11.749  1.00 18.15     0.196 C 
ENDROOT
BRANCH  15  16
ATOM     16  CB  ASN A 133      30.092  31.240  11.460  1.00 18.27     0.126 C 
BRANCH  16  17
ATOM     17  CG  ASN A 133      28.734  30.614  11.529  1.00 18.94     0.276 C 
ATOM     18  OD1 ASN A 133      28.344  29.837  10.656  1.00 18.09    -0.269 OA
ATOM     19  ND2 ASN A 133      27.989  30.952  12.581  1.00 18.93    -0.107 N 
ENDBRANCH  16  17
ENDBRANCH  15  16
END_RES ASN A 133
BEGIN_RES LYS A 131
REMARK  4 active torsions:
REMARK  status: ('A' for Active; 'I' for Inactive)
REMARK   11  A    between atoms: CA   and  CB  
REMARK   12  A    between atoms: CB   and  CG  
REMARK   13  A    between atoms: CG   and  CD  
REMARK   14  A    between atoms: CD   and  CE  
ROOT
ATOM     20  CA  LYS A 131      29.867  25.555  16.977  1.00 20.52     0.186 C 
ENDROOT
BRANCH  20  21
ATOM     21  CB  LYS A 131      28.345  25.722  17.026  1.00 20.94     0.034 C 
BRANCH  21  22
ATOM     22  CG  LYS A 131      27.600  24.411  16.827  1.00 22.96     0.005 C 
BRANCH  22  23
ATOM     23  CD  LYS A 131      26.780  24.037  18.031  1.00 24.33     0.041 C 
BRANCH  23  24
ATOM     24  CE  LYS A 131      25.882  25.207  18.418  1.00 26.91     0.338 C 
ATOM     25  NZ  LYS A 131      25.575  25.169  19.868  1.00 27.40     0.618 N 
ENDBRANCH  23  24
ENDBRANCH  22  23
ENDBRANCH  21  22
ENDBRANCH  20  21
END_RES LYS A 131
