REMARK VINA RESULT:    -4.770      5.025      6.404
REMARK INTER + INTRA:          -9.534
REMARK INTER:                  -3.895
REMARK INTRA:                  -5.640
REMARK UNBOUND:                -3.509
REMARK SMILES C[C@H](N)C(=O)OCc1ccccc1
REMARK SMILES IDX 4 1 5 2 2 3 1 4 3 5 6 8 7 9 8 10 9 11 13 12 10 13 12 14
REMARK SMILES IDX 11 15
REMARK H PARENT 3 6 3 7
REMARK Flexibility Score: inf
ROOT
ATOM      1  C   UNL     1      32.235  28.032  22.164  1.00  0.00     0.322 C 
ATOM      2  O   UNL     1      32.664  27.010  22.729  1.00  0.00    -0.250 OA
ENDROOT
BRANCH   1   3
ATOM      3  C   UNL     1      31.369  27.910  20.979  1.00  0.00     0.159 C 
ATOM      4  C   UNL     1      30.163  27.081  21.385  1.00  0.00     0.037 C 
BRANCH   3   5
ATOM      5  N   UNL     1      32.099  27.319  19.899  1.00  0.00    -0.319 NA
ATOM      6  H   UNL     1      31.523  26.687  19.316  1.00  0.00     0.119 HD
ATOM      7  H   UNL     1      32.967  26.845  20.282  1.00  0.00     0.119 HD
ENDBRANCH   3   5
ENDBRANCH   1   3
BRANCH   1   8
ATOM      8  O   UNL     1      32.578  29.273  22.657  1.00  0.00    -0.460 OA
BRANCH   8   9
ATOM      9  C   UNL     1      32.068  30.456  22.067  1.00  0.00     0.268 C 
BRANCH   9  10
ATOM     10  C   UNL     1      33.223  31.374  21.883  1.00  0.00    -0.011 A 
ATOM     11  C   UNL     1      34.536  30.958  21.981  1.00  0.00     0.007 A 
ATOM     12  C   UNL     1      32.956  32.696  21.603  1.00  0.00     0.007 A 
ATOM     13  C   UNL     1      35.600  31.816  21.810  1.00  0.00     0.000 A 
ATOM     14  C   UNL     1      34.010  33.580  21.426  1.00  0.00     0.000 A 
ATOM     15  C   UNL     1      35.313  33.145  21.528  1.00  0.00     0.000 A 
ENDBRANCH   9  10
ENDBRANCH   8   9
ENDBRANCH   1   8
TORSDOF 5
BEGIN_RES LYS A 135
REMARK  4 active torsions:
REMARK  status: ('A' for Active; 'I' for Inactive)
REMARK    1  A    between atoms: CA   and  CB  
REMARK    2  A    between atoms: CB   and  CG  
REMARK    3  A    between atoms: CG   and  CD  
REMARK    4  A    between atoms: CD   and  CE  
ROOT
ATOM      1  CA  LYS A 135      33.193  34.663   9.290  1.00 25.02     0.186 C 
ENDROOT
BRANCH   1   2
ATOM      2  CB  LYS A 135      32.060  35.360  10.034  1.00 26.63     0.034 C 
BRANCH   2   3
ATOM      3  CG  LYS A 135      30.703  34.763   9.761  1.00 29.45     0.005 C 
BRANCH   3   4
ATOM      4  CD  LYS A 135      30.528  34.485   8.276  1.00 32.00     0.041 C 
BRANCH   4   5
ATOM      5  CE  LYS A 135      29.139  34.886   7.819  1.00 34.25     0.338 C 
ATOM      6  NZ  LYS A 135      29.022  36.366   7.694  1.00 35.99     0.618 N 
ENDBRANCH   4   5
ENDBRANCH   3   4
ENDBRANCH   2   3
ENDBRANCH   1   2
END_RES LYS A 135
BEGIN_RES ARG A 124
REMARK  4 active torsions:
REMARK  status: ('A' for Active; 'I' for Inactive)
REMARK    5  A    between atoms: CA   and  CB  
REMARK    6  A    between atoms: CB   and  CG  
REMARK    7  A    between atoms: CG   and  CD  
REMARK    8  A    between atoms: CD   and  NE  
REMARK       I    between atoms: NE   and  CZ  
ROOT
ATOM      7  CA  ARG A 124      31.045  26.515   9.594  1.00 17.84     0.186 C 
ENDROOT
BRANCH   7   8
ATOM      8  CB  ARG A 124      29.529  26.705   9.647  1.00 16.18     0.036 C 
BRANCH   8   9
ATOM      9  CG  ARG A 124      28.760  25.755  10.634  1.00 16.22     0.029 C 
BRANCH   9  10
ATOM     10  CD  ARG A 124      28.520  26.397  12.019  1.00 15.09     0.145 C 
BRANCH  10  11
ATOM     11  NE  ARG A 124      27.141  26.893  12.218  1.00 16.98    -0.083 NA
ATOM     12  CZ  ARG A 124      26.754  27.688  13.210  1.00 18.21     0.782 C 
ATOM     13  NH1 ARG A 124      27.616  28.122  14.122  1.00 21.11     0.063 N 
ATOM     14  NH2 ARG A 124      25.493  28.083  13.288  1.00 21.25     0.063 N 
ENDBRANCH  10  11
ENDBRANCH   9  10
ENDBRANCH   8   9
ENDBRANCH   7   8
END_RES ARG A 124
BEGIN_RES ASN A 133
REMARK  2 active torsions:
REMARK  status: ('A' for Active; 'I' for Inactive)
REMARK    9  A    between atoms: CA   and  CB  
REMARK   10  A    between atoms: CB   and  CG  
ROOT
ATOM     15  CA  ASN A 133      31.225  30.257  11.749  1.00 18.15     0.196 C 
ENDROOT
BRANCH  15  16
ATOM     16  CB  ASN A 133      30.092  31.240  11.460  1.00 18.27     0.126 C 
BRANCH  16  17
ATOM     17  CG  ASN A 133      28.737  30.604  11.481  1.00 18.94     0.276 C 
ATOM     18  OD1 ASN A 133      28.459  29.667  10.730  1.00 18.09    -0.269 OA
ATOM     19  ND2 ASN A 133      27.867  31.113  12.353  1.00 18.93    -0.107 N 
ENDBRANCH  16  17
ENDBRANCH  15  16
END_RES ASN A 133
BEGIN_RES LYS A 131
REMARK  4 active torsions:
REMARK  status: ('A' for Active; 'I' for Inactive)
REMARK   11  A    between atoms: CA   and  CB  
REMARK   12  A    between atoms: CB   and  CG  
REMARK   13  A    between atoms: CG   and  CD  
REMARK   14  A    between atoms: CD   and  CE  
ROOT
ATOM     20  CA  LYS A 131      29.867  25.555  16.977  1.00 20.52     0.186 C 
ENDROOT
BRANCH  20  21
ATOM     21  CB  LYS A 131      28.345  25.722  17.026  1.00 20.94     0.034 C 
BRANCH  21  22
ATOM     22  CG  LYS A 131      27.601  24.406  16.864  1.00 22.96     0.005 C 
BRANCH  22  23
ATOM     23  CD  LYS A 131      26.153  24.521  17.255  1.00 24.33     0.041 C 
BRANCH  23  24
ATOM     24  CE  LYS A 131      26.044  24.644  18.771  1.00 26.91     0.338 C 
ATOM     25  NZ  LYS A 131      25.565  23.372  19.362  1.00 27.40     0.618 N 
ENDBRANCH  23  24
ENDBRANCH  22  23
ENDBRANCH  21  22
ENDBRANCH  20  21
END_RES LYS A 131
