REMARK VINA RESULT:    -3.545      2.275      2.926
REMARK INTER + INTRA:          -9.448
REMARK INTER:                  -4.662
REMARK INTRA:                  -4.785
REMARK UNBOUND:                -5.384
REMARK SMILES NCS(=O)(=O)c1ccccc1
REMARK SMILES IDX 2 1 1 2 3 5 4 6 5 7 6 8 7 9 11 10 8 11 10 12 9 13
REMARK H PARENT 1 3 1 4
REMARK Flexibility Score: inf
ROOT
ATOM      1  C   UNL     1      23.332  37.118   8.255  1.00  0.00     0.222 C 
ENDROOT
BRANCH   1   2
ATOM      2  N   UNL     1      23.146  37.933   7.066  1.00  0.00    -0.317 NA
ATOM      3  H   UNL     1      22.206  37.811   6.654  1.00  0.00     0.119 HD
ATOM      4  H   UNL     1      23.933  37.858   6.400  1.00  0.00     0.119 HD
ENDBRANCH   1   2
BRANCH   1   5
ATOM      5  S   UNL     1      24.948  37.486   8.890  1.00  0.00     0.191 S 
ATOM      6  O   UNL     1      25.175  38.973   8.997  1.00  0.00    -0.222 OA
ATOM      7  O   UNL     1      25.050  36.905  10.289  1.00  0.00    -0.222 OA
BRANCH   5   8
ATOM      8  C   UNL     1      26.200  36.779   7.905  1.00  0.00     0.068 A 
ATOM      9  C   UNL     1      26.606  35.497   8.189  1.00  0.00     0.020 A 
ATOM     10  C   UNL     1      26.776  37.468   6.866  1.00  0.00     0.020 A 
ATOM     11  C   UNL     1      27.601  34.936   7.404  1.00  0.00     0.001 A 
ATOM     12  C   UNL     1      27.774  36.909   6.076  1.00  0.00     0.001 A 
ATOM     13  C   UNL     1      28.179  35.623   6.366  1.00  0.00     0.000 A 
ENDBRANCH   5   8
ENDBRANCH   1   5
TORSDOF 3
BEGIN_RES LYS A 135
REMARK  4 active torsions:
REMARK  status: ('A' for Active; 'I' for Inactive)
REMARK    1  A    between atoms: CA   and  CB  
REMARK    2  A    between atoms: CB   and  CG  
REMARK    3  A    between atoms: CG   and  CD  
REMARK    4  A    between atoms: CD   and  CE  
ROOT
ATOM      1  CA  LYS A 135      33.193  34.663   9.290  1.00 25.02     0.186 C 
ENDROOT
BRANCH   1   2
ATOM      2  CB  LYS A 135      32.060  35.360  10.034  1.00 26.63     0.034 C 
BRANCH   2   3
ATOM      3  CG  LYS A 135      30.775  35.426   9.249  1.00 29.45     0.005 C 
BRANCH   3   4
ATOM      4  CD  LYS A 135      30.395  36.871   8.964  1.00 32.00     0.041 C 
BRANCH   4   5
ATOM      5  CE  LYS A 135      29.693  37.483  10.161  1.00 34.25     0.338 C 
ATOM      6  NZ  LYS A 135      28.729  36.523  10.767  1.00 35.99     0.618 N 
ENDBRANCH   4   5
ENDBRANCH   3   4
ENDBRANCH   2   3
ENDBRANCH   1   2
END_RES LYS A 135
BEGIN_RES ARG A 124
REMARK  4 active torsions:
REMARK  status: ('A' for Active; 'I' for Inactive)
REMARK    5  A    between atoms: CA   and  CB  
REMARK    6  A    between atoms: CB   and  CG  
REMARK    7  A    between atoms: CG   and  CD  
REMARK    8  A    between atoms: CD   and  NE  
REMARK       I    between atoms: NE   and  CZ  
ROOT
ATOM      7  CA  ARG A 124      31.045  26.515   9.594  1.00 17.84     0.186 C 
ENDROOT
BRANCH   7   8
ATOM      8  CB  ARG A 124      29.529  26.705   9.647  1.00 16.18     0.036 C 
BRANCH   8   9
ATOM      9  CG  ARG A 124      28.907  26.801  11.086  1.00 16.22     0.029 C 
BRANCH   9  10
ATOM     10  CD  ARG A 124      27.530  26.107  11.191  1.00 15.09     0.145 C 
BRANCH  10  11
ATOM     11  NE  ARG A 124      26.405  27.040  11.422  1.00 16.98    -0.083 NA
ATOM     12  CZ  ARG A 124      26.025  27.493  12.612  1.00 18.21     0.782 C 
ATOM     13  NH1 ARG A 124      26.661  27.135  13.721  1.00 21.11     0.063 N 
ATOM     14  NH2 ARG A 124      25.009  28.336  12.704  1.00 21.25     0.063 N 
ENDBRANCH  10  11
ENDBRANCH   9  10
ENDBRANCH   8   9
ENDBRANCH   7   8
END_RES ARG A 124
BEGIN_RES ASN A 133
REMARK  2 active torsions:
REMARK  status: ('A' for Active; 'I' for Inactive)
REMARK    9  A    between atoms: CA   and  CB  
REMARK   10  A    between atoms: CB   and  CG  
ROOT
ATOM     15  CA  ASN A 133      31.225  30.257  11.749  1.00 18.15     0.196 C 
ENDROOT
BRANCH  15  16
ATOM     16  CB  ASN A 133      30.092  31.240  11.460  1.00 18.27     0.126 C 
BRANCH  16  17
ATOM     17  CG  ASN A 133      28.740  30.596  11.440  1.00 18.94     0.276 C 
ATOM     18  OD1 ASN A 133      28.406  29.842  10.524  1.00 18.09    -0.269 OA
ATOM     19  ND2 ASN A 133      27.939  30.891  12.463  1.00 18.93    -0.107 N 
ENDBRANCH  16  17
ENDBRANCH  15  16
END_RES ASN A 133
BEGIN_RES LYS A 131
REMARK  4 active torsions:
REMARK  status: ('A' for Active; 'I' for Inactive)
REMARK   11  A    between atoms: CA   and  CB  
REMARK   12  A    between atoms: CB   and  CG  
REMARK   13  A    between atoms: CG   and  CD  
REMARK   14  A    between atoms: CD   and  CE  
ROOT
ATOM     20  CA  LYS A 131      29.867  25.555  16.977  1.00 20.52     0.186 C 
ENDROOT
BRANCH  20  21
ATOM     21  CB  LYS A 131      28.345  25.722  17.026  1.00 20.94     0.034 C 
BRANCH  21  22
ATOM     22  CG  LYS A 131      27.600  24.410  16.832  1.00 22.96     0.005 C 
BRANCH  22  23
ATOM     23  CD  LYS A 131      26.185  24.483  17.334  1.00 24.33     0.041 C 
BRANCH  23  24
ATOM     24  CE  LYS A 131      26.164  25.151  18.705  1.00 26.91     0.338 C 
ATOM     25  NZ  LYS A 131      25.118  26.199  18.756  1.00 27.40     0.618 N 
ENDBRANCH  23  24
ENDBRANCH  22  23
ENDBRANCH  21  22
ENDBRANCH  20  21
END_RES LYS A 131
