REMARK VINA RESULT:    -2.785      5.740     12.679
REMARK INTER + INTRA:          -8.921
REMARK INTER:                  -3.698
REMARK INTRA:                  -5.222
REMARK UNBOUND:                -5.810
REMARK SMILES Nc1ccc(CO)cn1
REMARK SMILES IDX 2 1 3 2 4 3 5 4 8 5 9 6 1 7 6 10 7 11
REMARK H PARENT 1 8 1 9 7 12
REMARK Flexibility Score: inf
ROOT
ATOM      1  C   UNL     1      27.728  17.076  16.124  1.00  0.00     0.123 A 
ATOM      2  C   UNL     1      28.203  15.848  16.552  1.00  0.00     0.047 A 
ATOM      3  C   UNL     1      27.645  15.212  17.623  1.00  0.00     0.011 A 
ATOM      4  C   UNL     1      26.596  15.792  18.294  1.00  0.00    -0.004 A 
ATOM      5  C   UNL     1      26.139  17.016  17.851  1.00  0.00     0.119 A 
ATOM      6  N   UNL     1      26.711  17.617  16.792  1.00  0.00    -0.239 NA
ENDROOT
BRANCH   1   7
ATOM      7  N   UNL     1      28.331  17.715  15.004  1.00  0.00    -0.384 N 
ATOM      8  H   UNL     1      28.004  17.472  14.043  1.00  0.00     0.158 HD
ATOM      9  H   UNL     1      29.074  18.402  15.183  1.00  0.00     0.158 HD
ENDBRANCH   1   7
BRANCH   4  10
ATOM     10  C   UNL     1      26.010  15.082  19.451  1.00  0.00     0.193 C 
BRANCH  10  11
ATOM     11  O   UNL     1      26.998  14.884  20.410  1.00  0.00    -0.392 OA
ATOM     12  H   UNL     1      27.748  14.385  19.975  1.00  0.00     0.211 HD
ENDBRANCH  10  11
ENDBRANCH   4  10
TORSDOF 3
BEGIN_RES LYS A 135
REMARK  4 active torsions:
REMARK  status: ('A' for Active; 'I' for Inactive)
REMARK    1  A    between atoms: CA   and  CB  
REMARK    2  A    between atoms: CB   and  CG  
REMARK    3  A    between atoms: CG   and  CD  
REMARK    4  A    between atoms: CD   and  CE  
ROOT
ATOM      1  CA  LYS A 135      33.193  34.663   9.290  1.00 25.02     0.186 C 
ENDROOT
BRANCH   1   2
ATOM      2  CB  LYS A 135      32.060  35.360  10.034  1.00 26.63     0.034 C 
BRANCH   2   3
ATOM      3  CG  LYS A 135      30.697  34.799   9.719  1.00 29.45     0.005 C 
BRANCH   3   4
ATOM      4  CD  LYS A 135      30.557  34.535   8.228  1.00 32.00     0.041 C 
BRANCH   4   5
ATOM      5  CE  LYS A 135      29.194  34.981   7.735  1.00 34.25     0.338 C 
ATOM      6  NZ  LYS A 135      29.125  36.464   7.616  1.00 35.99     0.618 N 
ENDBRANCH   4   5
ENDBRANCH   3   4
ENDBRANCH   2   3
ENDBRANCH   1   2
END_RES LYS A 135
BEGIN_RES ARG A 124
REMARK  4 active torsions:
REMARK  status: ('A' for Active; 'I' for Inactive)
REMARK    5  A    between atoms: CA   and  CB  
REMARK    6  A    between atoms: CB   and  CG  
REMARK    7  A    between atoms: CG   and  CD  
REMARK    8  A    between atoms: CD   and  NE  
REMARK       I    between atoms: NE   and  CZ  
ROOT
ATOM      7  CA  ARG A 124      31.045  26.515   9.594  1.00 17.84     0.186 C 
ENDROOT
BRANCH   7   8
ATOM      8  CB  ARG A 124      29.529  26.705   9.647  1.00 16.18     0.036 C 
BRANCH   8   9
ATOM      9  CG  ARG A 124      28.982  27.453  10.915  1.00 16.22     0.029 C 
BRANCH   9  10
ATOM     10  CD  ARG A 124      28.000  26.592  11.742  1.00 15.09     0.145 C 
BRANCH  10  11
ATOM     11  NE  ARG A 124      26.610  27.099  11.737  1.00 16.98    -0.083 NA
ATOM     12  CZ  ARG A 124      25.925  27.449  12.820  1.00 18.21     0.782 C 
ATOM     13  NH1 ARG A 124      26.465  27.379  14.031  1.00 21.11     0.063 N 
ATOM     14  NH2 ARG A 124      24.687  27.902  12.701  1.00 21.25     0.063 N 
ENDBRANCH  10  11
ENDBRANCH   9  10
ENDBRANCH   8   9
ENDBRANCH   7   8
END_RES ARG A 124
BEGIN_RES ASN A 133
REMARK  2 active torsions:
REMARK  status: ('A' for Active; 'I' for Inactive)
REMARK    9  A    between atoms: CA   and  CB  
REMARK   10  A    between atoms: CB   and  CG  
ROOT
ATOM     15  CA  ASN A 133      31.225  30.257  11.749  1.00 18.15     0.196 C 
ENDROOT
BRANCH  15  16
ATOM     16  CB  ASN A 133      30.092  31.240  11.460  1.00 18.27     0.126 C 
BRANCH  16  17
ATOM     17  CG  ASN A 133      29.063  31.293  12.547  1.00 18.94     0.276 C 
ATOM     18  OD1 ASN A 133      29.192  32.050  13.511  1.00 18.09    -0.269 OA
ATOM     19  ND2 ASN A 133      28.019  30.479  12.401  1.00 18.93    -0.107 N 
ENDBRANCH  16  17
ENDBRANCH  15  16
END_RES ASN A 133
BEGIN_RES LYS A 131
REMARK  4 active torsions:
REMARK  status: ('A' for Active; 'I' for Inactive)
REMARK   11  A    between atoms: CA   and  CB  
REMARK   12  A    between atoms: CB   and  CG  
REMARK   13  A    between atoms: CG   and  CD  
REMARK   14  A    between atoms: CD   and  CE  
ROOT
ATOM     20  CA  LYS A 131      29.867  25.555  16.977  1.00 20.52     0.186 C 
ENDROOT
BRANCH  20  21
ATOM     21  CB  LYS A 131      28.345  25.722  17.026  1.00 20.94     0.034 C 
BRANCH  21  22
ATOM     22  CG  LYS A 131      27.600  24.410  16.831  1.00 22.96     0.005 C 
BRANCH  22  23
ATOM     23  CD  LYS A 131      26.142  24.530  17.180  1.00 24.33     0.041 C 
BRANCH  23  24
ATOM     24  CE  LYS A 131      25.609  23.168  17.614  1.00 26.91     0.338 C 
ATOM     25  NZ  LYS A 131      24.222  22.976  17.131  1.00 27.40     0.618 N 
ENDBRANCH  23  24
ENDBRANCH  22  23
ENDBRANCH  21  22
ENDBRANCH  20  21
END_RES LYS A 131
