REMARK VINA RESULT:    -2.855      4.576     11.079
REMARK INTER + INTRA:          -8.343
REMARK INTER:                  -2.762
REMARK INTRA:                  -5.580
REMARK UNBOUND:                -4.903
REMARK SMILES NCC(O)CO
REMARK SMILES IDX 3 1 2 2 1 3 4 6 5 8 6 9
REMARK H PARENT 1 4 1 5 4 7 6 10
REMARK Flexibility Score: inf
ROOT
ATOM      1  C   UNL     1      28.484  37.893   6.832  1.00  0.00     0.153 C 
ENDROOT
BRANCH   1   2
ATOM      2  C   UNL     1      27.960  38.742   5.695  1.00  0.00     0.112 C 
BRANCH   2   3
ATOM      3  N   UNL     1      27.658  38.001   4.514  1.00  0.00    -0.328 NA
ATOM      4  H   UNL     1      28.345  37.243   4.302  1.00  0.00     0.118 HD
ATOM      5  H   UNL     1      27.555  38.655   3.691  1.00  0.00     0.118 HD
ENDBRANCH   2   3
ENDBRANCH   1   2
BRANCH   1   6
ATOM      6  O   UNL     1      29.873  37.980   6.921  1.00  0.00    -0.389 OA
ATOM      7  H   UNL     1      30.179  38.919   7.082  1.00  0.00     0.211 HD
ENDBRANCH   1   6
BRANCH   1   8
ATOM      8  C   UNL     1      28.151  36.449   6.523  1.00  0.00     0.189 C 
BRANCH   8   9
ATOM      9  O   UNL     1      29.267  35.769   6.024  1.00  0.00    -0.394 OA
ATOM     10  H   UNL     1      29.374  36.009   5.068  1.00  0.00     0.210 HD
ENDBRANCH   8   9
ENDBRANCH   1   8
TORSDOF 5
BEGIN_RES LYS A 135
REMARK  4 active torsions:
REMARK  status: ('A' for Active; 'I' for Inactive)
REMARK    1  A    between atoms: CA   and  CB  
REMARK    2  A    between atoms: CB   and  CG  
REMARK    3  A    between atoms: CG   and  CD  
REMARK    4  A    between atoms: CD   and  CE  
ROOT
ATOM      1  CA  LYS A 135      33.193  34.663   9.290  1.00 25.02     0.186 C 
ENDROOT
BRANCH   1   2
ATOM      2  CB  LYS A 135      32.060  35.360  10.034  1.00 26.63     0.034 C 
BRANCH   2   3
ATOM      3  CG  LYS A 135      30.780  35.441   9.243  1.00 29.45     0.005 C 
BRANCH   3   4
ATOM      4  CD  LYS A 135      30.180  34.057   9.050  1.00 32.00     0.041 C 
BRANCH   4   5
ATOM      5  CE  LYS A 135      28.675  34.098   9.235  1.00 34.25     0.338 C 
ATOM      6  NZ  LYS A 135      28.316  34.285  10.668  1.00 35.99     0.618 N 
ENDBRANCH   4   5
ENDBRANCH   3   4
ENDBRANCH   2   3
ENDBRANCH   1   2
END_RES LYS A 135
BEGIN_RES ARG A 124
REMARK  4 active torsions:
REMARK  status: ('A' for Active; 'I' for Inactive)
REMARK    5  A    between atoms: CA   and  CB  
REMARK    6  A    between atoms: CB   and  CG  
REMARK    7  A    between atoms: CG   and  CD  
REMARK    8  A    between atoms: CD   and  NE  
REMARK       I    between atoms: NE   and  CZ  
ROOT
ATOM      7  CA  ARG A 124      31.045  26.515   9.594  1.00 17.84     0.186 C 
ENDROOT
BRANCH   7   8
ATOM      8  CB  ARG A 124      29.529  26.705   9.647  1.00 16.18     0.036 C 
BRANCH   8   9
ATOM      9  CG  ARG A 124      28.973  27.364  10.960  1.00 16.22     0.029 C 
BRANCH   9  10
ATOM     10  CD  ARG A 124      28.411  26.327  11.960  1.00 15.09     0.145 C 
BRANCH  10  11
ATOM     11  NE  ARG A 124      27.963  26.914  13.241  1.00 16.98    -0.083 NA
ATOM     12  CZ  ARG A 124      26.722  27.313  13.502  1.00 18.21     0.782 C 
ATOM     13  NH1 ARG A 124      25.756  27.197  12.598  1.00 21.11     0.063 N 
ATOM     14  NH2 ARG A 124      26.426  27.816  14.690  1.00 21.25     0.063 N 
ENDBRANCH  10  11
ENDBRANCH   9  10
ENDBRANCH   8   9
ENDBRANCH   7   8
END_RES ARG A 124
BEGIN_RES ASN A 133
REMARK  2 active torsions:
REMARK  status: ('A' for Active; 'I' for Inactive)
REMARK    9  A    between atoms: CA   and  CB  
REMARK   10  A    between atoms: CB   and  CG  
ROOT
ATOM     15  CA  ASN A 133      31.225  30.257  11.749  1.00 18.15     0.196 C 
ENDROOT
BRANCH  15  16
ATOM     16  CB  ASN A 133      30.092  31.240  11.460  1.00 18.27     0.126 C 
BRANCH  16  17
ATOM     17  CG  ASN A 133      28.936  31.104  12.402  1.00 18.94     0.276 C 
ATOM     18  OD1 ASN A 133      28.037  30.288  12.195  1.00 18.09    -0.269 OA
ATOM     19  ND2 ASN A 133      28.948  31.915  13.460  1.00 18.93    -0.107 N 
ENDBRANCH  16  17
ENDBRANCH  15  16
END_RES ASN A 133
BEGIN_RES LYS A 131
REMARK  4 active torsions:
REMARK  status: ('A' for Active; 'I' for Inactive)
REMARK   11  A    between atoms: CA   and  CB  
REMARK   12  A    between atoms: CB   and  CG  
REMARK   13  A    between atoms: CG   and  CD  
REMARK   14  A    between atoms: CD   and  CE  
ROOT
ATOM     20  CA  LYS A 131      29.867  25.555  16.977  1.00 20.52     0.186 C 
ENDROOT
BRANCH  20  21
ATOM     21  CB  LYS A 131      28.345  25.722  17.026  1.00 20.94     0.034 C 
BRANCH  21  22
ATOM     22  CG  LYS A 131      27.599  24.431  16.726  1.00 22.96     0.005 C 
BRANCH  22  23
ATOM     23  CD  LYS A 131      26.896  23.888  17.938  1.00 24.33     0.041 C 
BRANCH  23  24
ATOM     24  CE  LYS A 131      25.500  23.412  17.547  1.00 26.91     0.338 C 
ATOM     25  NZ  LYS A 131      24.913  22.583  18.627  1.00 27.40     0.618 N 
ENDBRANCH  23  24
ENDBRANCH  22  23
ENDBRANCH  21  22
ENDBRANCH  20  21
END_RES LYS A 131
