REMARK VINA RESULT:    -2.740      7.057      9.402
REMARK INTER + INTRA:          -7.957
REMARK INTER:                  -2.211
REMARK INTRA:                  -5.746
REMARK UNBOUND:                -5.137
REMARK SMILES Nc1ccccc1Br
REMARK SMILES IDX 2 1 3 2 4 3 5 4 6 5 7 6 8 7 1 8
REMARK H PARENT 1 9 1 10
REMARK Flexibility Score: inf
ROOT
ATOM      1  C   UNL     1      35.238  29.259  22.835  1.00  0.00     0.046 A 
ATOM      2  C   UNL     1      34.037  29.800  22.384  1.00  0.00     0.026 A 
ATOM      3  C   UNL     1      33.973  31.115  21.969  1.00  0.00     0.002 A 
ATOM      4  C   UNL     1      35.083  31.942  21.985  1.00  0.00     0.001 A 
ATOM      5  C   UNL     1      36.274  31.402  22.434  1.00  0.00     0.018 A 
ATOM      6  C   UNL     1      36.343  30.085  22.849  1.00  0.00     0.040 A 
ATOM      7  Br  UNL     1      38.011  29.426  23.449  1.00  0.00    -0.049 Br
ENDROOT
BRANCH   1   8
ATOM      8  N   UNL     1      35.319  27.904  23.266  1.00  0.00    -0.398 N 
ATOM      9  H   UNL     1      35.927  27.582  24.045  1.00  0.00     0.156 HD
ATOM     10  H   UNL     1      34.743  27.181  22.784  1.00  0.00     0.156 HD
ENDBRANCH   1   8
TORSDOF 1
BEGIN_RES LYS A 135
REMARK  4 active torsions:
REMARK  status: ('A' for Active; 'I' for Inactive)
REMARK    1  A    between atoms: CA   and  CB  
REMARK    2  A    between atoms: CB   and  CG  
REMARK    3  A    between atoms: CG   and  CD  
REMARK    4  A    between atoms: CD   and  CE  
ROOT
ATOM      1  CA  LYS A 135      33.193  34.663   9.290  1.00 25.02     0.186 C 
ENDROOT
BRANCH   1   2
ATOM      2  CB  LYS A 135      32.060  35.360  10.034  1.00 26.63     0.034 C 
BRANCH   2   3
ATOM      3  CG  LYS A 135      30.728  34.671   9.886  1.00 29.45     0.005 C 
BRANCH   3   4
ATOM      4  CD  LYS A 135      30.353  34.538   8.418  1.00 32.00     0.041 C 
BRANCH   4   5
ATOM      5  CE  LYS A 135      28.846  34.572   8.248  1.00 34.25     0.338 C 
ATOM      6  NZ  LYS A 135      28.164  33.877   9.374  1.00 35.99     0.618 N 
ENDBRANCH   4   5
ENDBRANCH   3   4
ENDBRANCH   2   3
ENDBRANCH   1   2
END_RES LYS A 135
BEGIN_RES ARG A 124
REMARK  4 active torsions:
REMARK  status: ('A' for Active; 'I' for Inactive)
REMARK    5  A    between atoms: CA   and  CB  
REMARK    6  A    between atoms: CB   and  CG  
REMARK    7  A    between atoms: CG   and  CD  
REMARK    8  A    between atoms: CD   and  NE  
REMARK       I    between atoms: NE   and  CZ  
ROOT
ATOM      7  CA  ARG A 124      31.045  26.515   9.594  1.00 17.84     0.186 C 
ENDROOT
BRANCH   7   8
ATOM      8  CB  ARG A 124      29.529  26.705   9.647  1.00 16.18     0.036 C 
BRANCH   8   9
ATOM      9  CG  ARG A 124      28.907  26.802  11.086  1.00 16.22     0.029 C 
BRANCH   9  10
ATOM     10  CD  ARG A 124      27.551  26.069  11.203  1.00 15.09     0.145 C 
BRANCH  10  11
ATOM     11  NE  ARG A 124      26.398  26.973  11.410  1.00 16.98    -0.083 NA
ATOM     12  CZ  ARG A 124      26.000  27.440  12.588  1.00 18.21     0.782 C 
ATOM     13  NH1 ARG A 124      26.642  27.127  13.707  1.00 21.11     0.063 N 
ATOM     14  NH2 ARG A 124      24.959  28.255  12.659  1.00 21.25     0.063 N 
ENDBRANCH  10  11
ENDBRANCH   9  10
ENDBRANCH   8   9
ENDBRANCH   7   8
END_RES ARG A 124
BEGIN_RES ASN A 133
REMARK  2 active torsions:
REMARK  status: ('A' for Active; 'I' for Inactive)
REMARK    9  A    between atoms: CA   and  CB  
REMARK   10  A    between atoms: CB   and  CG  
ROOT
ATOM     15  CA  ASN A 133      31.225  30.257  11.749  1.00 18.15     0.196 C 
ENDROOT
BRANCH  15  16
ATOM     16  CB  ASN A 133      30.092  31.240  11.460  1.00 18.27     0.126 C 
BRANCH  16  17
ATOM     17  CG  ASN A 133      28.735  30.609  11.506  1.00 18.94     0.276 C 
ATOM     18  OD1 ASN A 133      28.358  29.840  10.620  1.00 18.09    -0.269 OA
ATOM     19  ND2 ASN A 133      27.977  30.933  12.553  1.00 18.93    -0.107 N 
ENDBRANCH  16  17
ENDBRANCH  15  16
END_RES ASN A 133
BEGIN_RES LYS A 131
REMARK  4 active torsions:
REMARK  status: ('A' for Active; 'I' for Inactive)
REMARK   11  A    between atoms: CA   and  CB  
REMARK   12  A    between atoms: CB   and  CG  
REMARK   13  A    between atoms: CG   and  CD  
REMARK   14  A    between atoms: CD   and  CE  
ROOT
ATOM     20  CA  LYS A 131      29.867  25.555  16.977  1.00 20.52     0.186 C 
ENDROOT
BRANCH  20  21
ATOM     21  CB  LYS A 131      28.345  25.722  17.026  1.00 20.94     0.034 C 
BRANCH  21  22
ATOM     22  CG  LYS A 131      27.600  24.409  16.843  1.00 22.96     0.005 C 
BRANCH  22  23
ATOM     23  CD  LYS A 131      26.478  24.251  17.831  1.00 24.33     0.041 C 
BRANCH  23  24
ATOM     24  CE  LYS A 131      25.159  24.637  17.170  1.00 26.91     0.338 C 
ATOM     25  NZ  LYS A 131      24.293  23.446  17.005  1.00 27.40     0.618 N 
ENDBRANCH  23  24
ENDBRANCH  22  23
ENDBRANCH  21  22
ENDBRANCH  20  21
END_RES LYS A 131
