REMARK VINA RESULT:    -2.745      2.445      2.851
REMARK INTER + INTRA:          -8.443
REMARK INTER:                  -3.828
REMARK INTRA:                  -4.615
REMARK UNBOUND:                -5.217
REMARK SMILES NCCC(=O)O
REMARK SMILES IDX 3 1 2 2 1 3 4 6 5 7 6 8
REMARK H PARENT 1 4 1 5 6 9
REMARK Flexibility Score: inf
ROOT
ATOM      1  C   UNL     1      37.707  33.692  13.621  1.00  0.00     0.137 C 
ENDROOT
BRANCH   1   2
ATOM      2  C   UNL     1      39.007  34.277  13.139  1.00  0.00     0.089 C 
BRANCH   2   3
ATOM      3  N   UNL     1      39.799  33.220  12.574  1.00  0.00    -0.330 NA
ATOM      4  H   UNL     1      39.684  32.302  13.020  1.00  0.00     0.118 HD
ATOM      5  H   UNL     1      39.870  33.228  11.553  1.00  0.00     0.118 HD
ENDBRANCH   2   3
ENDBRANCH   1   2
BRANCH   1   6
ATOM      6  C   UNL     1      36.714  33.570  12.533  1.00  0.00     0.304 C 
ATOM      7  O   UNL     1      37.102  33.410  11.353  1.00  0.00    -0.252 OA
BRANCH   6   8
ATOM      8  O   UNL     1      35.352  33.626  12.762  1.00  0.00    -0.481 OA
ATOM      9  H   UNL     1      35.001  34.535  13.105  1.00  0.00     0.296 HD
ENDBRANCH   6   8
ENDBRANCH   1   6
TORSDOF 4
BEGIN_RES LYS A 135
REMARK  4 active torsions:
REMARK  status: ('A' for Active; 'I' for Inactive)
REMARK    1  A    between atoms: CA   and  CB  
REMARK    2  A    between atoms: CB   and  CG  
REMARK    3  A    between atoms: CG   and  CD  
REMARK    4  A    between atoms: CD   and  CE  
ROOT
ATOM      1  CA  LYS A 135      33.193  34.663   9.290  1.00 25.02     0.186 C 
ENDROOT
BRANCH   1   2
ATOM      2  CB  LYS A 135      32.060  35.360  10.034  1.00 26.63     0.034 C 
BRANCH   2   3
ATOM      3  CG  LYS A 135      30.700  35.105   9.437  1.00 29.45     0.005 C 
BRANCH   3   4
ATOM      4  CD  LYS A 135      29.653  34.957  10.530  1.00 32.00     0.041 C 
BRANCH   4   5
ATOM      5  CE  LYS A 135      28.796  36.206  10.618  1.00 34.25     0.338 C 
ATOM      6  NZ  LYS A 135      27.720  36.191   9.589  1.00 35.99     0.618 N 
ENDBRANCH   4   5
ENDBRANCH   3   4
ENDBRANCH   2   3
ENDBRANCH   1   2
END_RES LYS A 135
BEGIN_RES ARG A 124
REMARK  4 active torsions:
REMARK  status: ('A' for Active; 'I' for Inactive)
REMARK    5  A    between atoms: CA   and  CB  
REMARK    6  A    between atoms: CB   and  CG  
REMARK    7  A    between atoms: CG   and  CD  
REMARK    8  A    between atoms: CD   and  NE  
REMARK       I    between atoms: NE   and  CZ  
ROOT
ATOM      7  CA  ARG A 124      31.045  26.515   9.594  1.00 17.84     0.186 C 
ENDROOT
BRANCH   7   8
ATOM      8  CB  ARG A 124      29.529  26.705   9.647  1.00 16.18     0.036 C 
BRANCH   8   9
ATOM      9  CG  ARG A 124      29.020  27.836  10.610  1.00 16.22     0.029 C 
BRANCH   9  10
ATOM     10  CD  ARG A 124      28.335  27.281  11.880  1.00 15.09     0.145 C 
BRANCH  10  11
ATOM     11  NE  ARG A 124      27.340  28.200  12.474  1.00 16.98    -0.083 NA
ATOM     12  CZ  ARG A 124      26.023  28.036  12.413  1.00 18.21     0.782 C 
ATOM     13  NH1 ARG A 124      25.486  26.988  11.802  1.00 21.11     0.063 N 
ATOM     14  NH2 ARG A 124      25.221  28.916  12.991  1.00 21.25     0.063 N 
ENDBRANCH  10  11
ENDBRANCH   9  10
ENDBRANCH   8   9
ENDBRANCH   7   8
END_RES ARG A 124
BEGIN_RES ASN A 133
REMARK  2 active torsions:
REMARK  status: ('A' for Active; 'I' for Inactive)
REMARK    9  A    between atoms: CA   and  CB  
REMARK   10  A    between atoms: CB   and  CG  
ROOT
ATOM     15  CA  ASN A 133      31.225  30.257  11.749  1.00 18.15     0.196 C 
ENDROOT
BRANCH  15  16
ATOM     16  CB  ASN A 133      30.092  31.240  11.460  1.00 18.27     0.126 C 
BRANCH  16  17
ATOM     17  CG  ASN A 133      29.324  31.634  12.684  1.00 18.94     0.276 C 
ATOM     18  OD1 ASN A 133      28.309  31.024  13.024  1.00 18.09    -0.269 OA
ATOM     19  ND2 ASN A 133      29.806  32.673  13.365  1.00 18.93    -0.107 N 
ENDBRANCH  16  17
ENDBRANCH  15  16
END_RES ASN A 133
BEGIN_RES LYS A 131
REMARK  4 active torsions:
REMARK  status: ('A' for Active; 'I' for Inactive)
REMARK   11  A    between atoms: CA   and  CB  
REMARK   12  A    between atoms: CB   and  CG  
REMARK   13  A    between atoms: CG   and  CD  
REMARK   14  A    between atoms: CD   and  CE  
ROOT
ATOM     20  CA  LYS A 131      29.867  25.555  16.977  1.00 20.52     0.186 C 
ENDROOT
BRANCH  20  21
ATOM     21  CB  LYS A 131      28.345  25.722  17.026  1.00 20.94     0.034 C 
BRANCH  21  22
ATOM     22  CG  LYS A 131      27.726  25.901  15.648  1.00 22.96     0.005 C 
BRANCH  22  23
ATOM     23  CD  LYS A 131      26.494  26.762  15.689  1.00 24.33     0.041 C 
BRANCH  23  24
ATOM     24  CE  LYS A 131      26.762  27.994  16.547  1.00 26.91     0.338 C 
ATOM     25  NZ  LYS A 131      27.595  28.971  15.806  1.00 27.40     0.618 N 
ENDBRANCH  23  24
ENDBRANCH  22  23
ENDBRANCH  21  22
ENDBRANCH  20  21
END_RES LYS A 131
