REMARK VINA RESULT:    -4.345      9.935     12.964
REMARK INTER + INTRA:         -10.291
REMARK INTER:                  -4.130
REMARK INTRA:                  -6.160
REMARK UNBOUND:                -5.056
REMARK SMILES Nc1ccc(S(=O)(=O)Nc2nccs2)cc1
REMARK SMILES IDX 6 1 7 2 8 3 5 4 2 5 3 6 16 7 4 8 15 9 1 10 9 13 10 15 11 16
REMARK SMILES IDX 14 17 12 18 13 19
REMARK H PARENT 1 11 1 12 9 14
REMARK Flexibility Score: inf
ROOT
ATOM      1  S   UNL     1      36.421  19.632  22.333  1.00  0.00     0.263 S 
ATOM      2  O   UNL     1      36.607  21.111  22.059  1.00  0.00    -0.201 OA
ATOM      3  O   UNL     1      36.489  19.446  23.833  1.00  0.00    -0.201 OA
ENDROOT
BRANCH   1   4
ATOM      4  C   UNL     1      37.701  18.693  21.619  1.00  0.00     0.088 A 
ATOM      5  C   UNL     1      39.819  17.275  20.425  1.00  0.00     0.031 A 
ATOM      6  C   UNL     1      38.815  16.628  21.117  1.00  0.00     0.027 A 
ATOM      7  C   UNL     1      39.732  18.655  20.346  1.00  0.00     0.027 A 
ATOM      8  C   UNL     1      37.774  17.328  21.704  1.00  0.00     0.024 A 
ATOM      9  C   UNL     1      38.693  19.356  20.932  1.00  0.00     0.024 A 
BRANCH   5  10
ATOM     10  N   UNL     1      40.899  16.568  19.814  1.00  0.00    -0.399 N 
ATOM     11  H   UNL     1      41.341  16.970  18.965  1.00  0.00     0.156 HD
ATOM     12  H   UNL     1      41.273  15.671  20.169  1.00  0.00     0.156 HD
ENDBRANCH   5  10
ENDBRANCH   1   4
BRANCH   1  13
ATOM     13  N   UNL     1      34.871  19.116  21.813  1.00  0.00    -0.255 N 
ATOM     14  H   UNL     1      34.412  19.429  20.943  1.00  0.00     0.182 HD
BRANCH  13  15
ATOM     15  C   UNL     1      34.205  18.183  22.680  1.00  0.00     0.196 A 
ATOM     16  N   UNL     1      34.185  17.067  22.912  1.00  0.00    -0.228 NA
ATOM     17  S   UNL     1      32.909  18.832  23.903  1.00  0.00    -0.105 S 
ATOM     18  C   UNL     1      33.450  16.396  23.801  1.00  0.00     0.125 A 
ATOM     19  C   UNL     1      32.633  17.128  24.511  1.00  0.00     0.089 A 
ENDBRANCH  13  15
ENDBRANCH   1  13
TORSDOF 4
BEGIN_RES LYS A 135
REMARK  4 active torsions:
REMARK  status: ('A' for Active; 'I' for Inactive)
REMARK    1  A    between atoms: CA   and  CB  
REMARK    2  A    between atoms: CB   and  CG  
REMARK    3  A    between atoms: CG   and  CD  
REMARK    4  A    between atoms: CD   and  CE  
ROOT
ATOM      1  CA  LYS A 135      33.193  34.663   9.290  1.00 25.02     0.186 C 
ENDROOT
BRANCH   1   2
ATOM      2  CB  LYS A 135      32.060  35.360  10.034  1.00 26.63     0.034 C 
BRANCH   2   3
ATOM      3  CG  LYS A 135      30.705  34.755   9.772  1.00 29.45     0.005 C 
BRANCH   3   4
ATOM      4  CD  LYS A 135      30.471  34.589   8.278  1.00 32.00     0.041 C 
BRANCH   4   5
ATOM      5  CE  LYS A 135      29.017  34.846   7.935  1.00 34.25     0.338 C 
ATOM      6  NZ  LYS A 135      28.891  35.570   6.639  1.00 35.99     0.618 N 
ENDBRANCH   4   5
ENDBRANCH   3   4
ENDBRANCH   2   3
ENDBRANCH   1   2
END_RES LYS A 135
BEGIN_RES ARG A 124
REMARK  4 active torsions:
REMARK  status: ('A' for Active; 'I' for Inactive)
REMARK    5  A    between atoms: CA   and  CB  
REMARK    6  A    between atoms: CB   and  CG  
REMARK    7  A    between atoms: CG   and  CD  
REMARK    8  A    between atoms: CD   and  NE  
REMARK       I    between atoms: NE   and  CZ  
ROOT
ATOM      7  CA  ARG A 124      31.045  26.515   9.594  1.00 17.84     0.186 C 
ENDROOT
BRANCH   7   8
ATOM      8  CB  ARG A 124      29.529  26.705   9.647  1.00 16.18     0.036 C 
BRANCH   8   9
ATOM      9  CG  ARG A 124      28.895  26.708  11.084  1.00 16.22     0.029 C 
BRANCH   9  10
ATOM     10  CD  ARG A 124      27.482  26.082  11.117  1.00 15.09     0.145 C 
BRANCH  10  11
ATOM     11  NE  ARG A 124      26.401  27.058  11.377  1.00 16.98    -0.083 NA
ATOM     12  CZ  ARG A 124      26.044  27.494  12.580  1.00 18.21     0.782 C 
ATOM     13  NH1 ARG A 124      26.664  27.077  13.677  1.00 21.11     0.063 N 
ATOM     14  NH2 ARG A 124      25.067  28.380  12.699  1.00 21.25     0.063 N 
ENDBRANCH  10  11
ENDBRANCH   9  10
ENDBRANCH   8   9
ENDBRANCH   7   8
END_RES ARG A 124
BEGIN_RES ASN A 133
REMARK  2 active torsions:
REMARK  status: ('A' for Active; 'I' for Inactive)
REMARK    9  A    between atoms: CA   and  CB  
REMARK   10  A    between atoms: CB   and  CG  
ROOT
ATOM     15  CA  ASN A 133      31.225  30.257  11.749  1.00 18.15     0.196 C 
ENDROOT
BRANCH  15  16
ATOM     16  CB  ASN A 133      30.092  31.240  11.460  1.00 18.27     0.126 C 
BRANCH  16  17
ATOM     17  CG  ASN A 133      28.734  30.614  11.529  1.00 18.94     0.276 C 
ATOM     18  OD1 ASN A 133      28.362  29.799  10.682  1.00 18.09    -0.269 OA
ATOM     19  ND2 ASN A 133      27.968  30.995  12.551  1.00 18.93    -0.107 N 
ENDBRANCH  16  17
ENDBRANCH  15  16
END_RES ASN A 133
BEGIN_RES LYS A 131
REMARK  4 active torsions:
REMARK  status: ('A' for Active; 'I' for Inactive)
REMARK   11  A    between atoms: CA   and  CB  
REMARK   12  A    between atoms: CB   and  CG  
REMARK   13  A    between atoms: CG   and  CD  
REMARK   14  A    between atoms: CD   and  CE  
ROOT
ATOM     20  CA  LYS A 131      29.867  25.555  16.977  1.00 20.52     0.186 C 
ENDROOT
BRANCH  20  21
ATOM     21  CB  LYS A 131      28.345  25.722  17.026  1.00 20.94     0.034 C 
BRANCH  21  22
ATOM     22  CG  LYS A 131      27.599  24.421  16.771  1.00 22.96     0.005 C 
BRANCH  22  23
ATOM     23  CD  LYS A 131      26.820  23.970  17.975  1.00 24.33     0.041 C 
BRANCH  23  24
ATOM     24  CE  LYS A 131      25.370  23.714  17.576  1.00 26.91     0.338 C 
ATOM     25  NZ  LYS A 131      25.077  22.261  17.588  1.00 27.40     0.618 N 
ENDBRANCH  23  24
ENDBRANCH  22  23
ENDBRANCH  21  22
ENDBRANCH  20  21
END_RES LYS A 131
