REMARK VINA RESULT:    -3.872      1.943      2.164
REMARK INTER + INTRA:          -9.833
REMARK INTER:                  -4.513
REMARK INTRA:                  -5.319
REMARK UNBOUND:                -5.395
REMARK SMILES N#Cc1cccc(CN)c1
REMARK SMILES IDX 7 1 6 2 5 3 4 4 3 5 10 6 8 7 9 8 2 11 1 12
REMARK H PARENT 9 9 9 10
REMARK Flexibility Score: inf
ROOT
ATOM      1  C   UNL     1      37.910  33.983  13.157  1.00  0.00    -0.033 A 
ATOM      2  C   UNL     1      39.063  34.556  12.658  1.00  0.00     0.005 A 
ATOM      3  C   UNL     1      40.029  35.109  13.479  1.00  0.00     0.002 A 
ATOM      4  C   UNL     1      39.822  35.083  14.855  1.00  0.00     0.019 A 
ATOM      5  C   UNL     1      38.693  34.525  15.391  1.00  0.00     0.052 A 
ATOM      6  C   UNL     1      37.738  33.975  14.532  1.00  0.00     0.024 A 
ENDROOT
BRANCH   1   7
ATOM      7  C   UNL     1      36.900  33.402  12.256  1.00  0.00     0.113 C 
BRANCH   7   8
ATOM      8  N   UNL     1      35.543  33.601  12.714  1.00  0.00    -0.326 NA
ATOM      9  H   UNL     1      34.972  32.811  12.307  1.00  0.00     0.119 HD
ATOM     10  H   UNL     1      35.198  34.532  12.338  1.00  0.00     0.119 HD
ENDBRANCH   7   8
ENDBRANCH   1   7
BRANCH   5  11
ATOM     11  C   UNL     1      38.450  34.482  16.814  1.00  0.00     0.099 C 
ATOM     12  N   UNL     1      38.245  34.433  17.944  1.00  0.00    -0.192 NA
ENDBRANCH   5  11
TORSDOF 3
BEGIN_RES LYS A 135
REMARK  4 active torsions:
REMARK  status: ('A' for Active; 'I' for Inactive)
REMARK    1  A    between atoms: CA   and  CB  
REMARK    2  A    between atoms: CB   and  CG  
REMARK    3  A    between atoms: CG   and  CD  
REMARK    4  A    between atoms: CD   and  CE  
ROOT
ATOM      1  CA  LYS A 135      33.193  34.663   9.290  1.00 25.02     0.186 C 
ENDROOT
BRANCH   1   2
ATOM      2  CB  LYS A 135      32.060  35.360  10.034  1.00 26.63     0.034 C 
BRANCH   2   3
ATOM      3  CG  LYS A 135      30.701  34.775   9.748  1.00 29.45     0.005 C 
BRANCH   3   4
ATOM      4  CD  LYS A 135      30.542  34.489   8.262  1.00 32.00     0.041 C 
BRANCH   4   5
ATOM      5  CE  LYS A 135      29.253  35.093   7.739  1.00 34.25     0.338 C 
ATOM      6  NZ  LYS A 135      28.068  34.498   8.417  1.00 35.99     0.618 N 
ENDBRANCH   4   5
ENDBRANCH   3   4
ENDBRANCH   2   3
ENDBRANCH   1   2
END_RES LYS A 135
BEGIN_RES ARG A 124
REMARK  4 active torsions:
REMARK  status: ('A' for Active; 'I' for Inactive)
REMARK    5  A    between atoms: CA   and  CB  
REMARK    6  A    between atoms: CB   and  CG  
REMARK    7  A    between atoms: CG   and  CD  
REMARK    8  A    between atoms: CD   and  NE  
REMARK       I    between atoms: NE   and  CZ  
ROOT
ATOM      7  CA  ARG A 124      31.045  26.515   9.594  1.00 17.84     0.186 C 
ENDROOT
BRANCH   7   8
ATOM      8  CB  ARG A 124      29.529  26.705   9.647  1.00 16.18     0.036 C 
BRANCH   8   9
ATOM      9  CG  ARG A 124      29.026  27.908  10.522  1.00 16.22     0.029 C 
BRANCH   9  10
ATOM     10  CD  ARG A 124      28.366  27.454  11.844  1.00 15.09     0.145 C 
BRANCH  10  11
ATOM     11  NE  ARG A 124      27.376  28.415  12.379  1.00 16.98    -0.083 NA
ATOM     12  CZ  ARG A 124      26.063  28.212  12.414  1.00 18.21     0.782 C 
ATOM     13  NH1 ARG A 124      25.527  27.084  11.966  1.00 21.11     0.063 N 
ATOM     14  NH2 ARG A 124      25.266  29.137  12.927  1.00 21.25     0.063 N 
ENDBRANCH  10  11
ENDBRANCH   9  10
ENDBRANCH   8   9
ENDBRANCH   7   8
END_RES ARG A 124
BEGIN_RES ASN A 133
REMARK  2 active torsions:
REMARK  status: ('A' for Active; 'I' for Inactive)
REMARK    9  A    between atoms: CA   and  CB  
REMARK   10  A    between atoms: CB   and  CG  
ROOT
ATOM     15  CA  ASN A 133      31.225  30.257  11.749  1.00 18.15     0.196 C 
ENDROOT
BRANCH  15  16
ATOM     16  CB  ASN A 133      30.092  31.240  11.460  1.00 18.27     0.126 C 
BRANCH  16  17
ATOM     17  CG  ASN A 133      29.473  31.810  12.698  1.00 18.94     0.276 C 
ATOM     18  OD1 ASN A 133      28.628  31.180  13.338  1.00 18.09    -0.269 OA
ATOM     19  ND2 ASN A 133      29.890  33.024  13.053  1.00 18.93    -0.107 N 
ENDBRANCH  16  17
ENDBRANCH  15  16
END_RES ASN A 133
BEGIN_RES LYS A 131
REMARK  4 active torsions:
REMARK  status: ('A' for Active; 'I' for Inactive)
REMARK   11  A    between atoms: CA   and  CB  
REMARK   12  A    between atoms: CB   and  CG  
REMARK   13  A    between atoms: CG   and  CD  
REMARK   14  A    between atoms: CD   and  CE  
ROOT
ATOM     20  CA  LYS A 131      29.867  25.555  16.977  1.00 20.52     0.186 C 
ENDROOT
BRANCH  20  21
ATOM     21  CB  LYS A 131      28.345  25.722  17.026  1.00 20.94     0.034 C 
BRANCH  21  22
ATOM     22  CG  LYS A 131      27.728  25.919  15.650  1.00 22.96     0.005 C 
BRANCH  22  23
ATOM     23  CD  LYS A 131      26.483  26.760  15.703  1.00 24.33     0.041 C 
BRANCH  23  24
ATOM     24  CE  LYS A 131      26.747  28.009  16.538  1.00 26.91     0.338 C 
ATOM     25  NZ  LYS A 131      27.620  28.951  15.800  1.00 27.40     0.618 N 
ENDBRANCH  23  24
ENDBRANCH  22  23
ENDBRANCH  21  22
ENDBRANCH  20  21
END_RES LYS A 131
