REMARK VINA RESULT:    -3.683      5.277      5.859
REMARK INTER + INTRA:          -8.741
REMARK INTER:                  -3.033
REMARK INTRA:                  -5.707
REMARK UNBOUND:                -4.950
REMARK SMILES CN1CCC(N)CC1
REMARK SMILES IDX 1 1 2 2 3 3 4 4 5 5 7 6 8 7 6 8
REMARK H PARENT 6 9 6 10
REMARK Flexibility Score: inf
ROOT
ATOM      1  C   UNL     1      36.970  18.090  22.196  1.00  0.00     0.105 C 
ATOM      2  N   UNL     1      35.644  18.387  22.623  1.00  0.00    -0.306 NA
ATOM      3  C   UNL     1      35.081  19.578  22.060  1.00  0.00     0.086 C 
ATOM      4  C   UNL     1      33.791  19.172  21.349  1.00  0.00     0.034 C 
ATOM      5  C   UNL     1      32.823  18.776  22.471  1.00  0.00     0.053 C 
ATOM      6  C   UNL     1      33.450  17.676  23.282  1.00  0.00     0.034 C 
ATOM      7  C   UNL     1      34.760  17.261  22.636  1.00  0.00     0.086 C 
ENDROOT
BRANCH   5   8
ATOM      8  N   UNL     1      31.537  18.448  21.940  1.00  0.00    -0.328 NA
ATOM      9  H   UNL     1      30.930  18.103  22.702  1.00  0.00     0.119 HD
ATOM     10  H   UNL     1      31.571  17.842  21.101  1.00  0.00     0.119 HD
ENDBRANCH   5   8
TORSDOF 1
BEGIN_RES LYS A 135
REMARK  4 active torsions:
REMARK  status: ('A' for Active; 'I' for Inactive)
REMARK    1  A    between atoms: CA   and  CB  
REMARK    2  A    between atoms: CB   and  CG  
REMARK    3  A    between atoms: CG   and  CD  
REMARK    4  A    between atoms: CD   and  CE  
ROOT
ATOM      1  CA  LYS A 135      33.193  34.663   9.290  1.00 25.02     0.186 C 
ENDROOT
BRANCH   1   2
ATOM      2  CB  LYS A 135      32.060  35.360  10.034  1.00 26.63     0.034 C 
BRANCH   2   3
ATOM      3  CG  LYS A 135      30.711  34.730   9.803  1.00 29.45     0.005 C 
BRANCH   3   4
ATOM      4  CD  LYS A 135      30.524  34.383   8.334  1.00 32.00     0.041 C 
BRANCH   4   5
ATOM      5  CE  LYS A 135      29.469  35.273   7.706  1.00 34.25     0.338 C 
ATOM      6  NZ  LYS A 135      28.100  34.748   7.968  1.00 35.99     0.618 N 
ENDBRANCH   4   5
ENDBRANCH   3   4
ENDBRANCH   2   3
ENDBRANCH   1   2
END_RES LYS A 135
BEGIN_RES ARG A 124
REMARK  4 active torsions:
REMARK  status: ('A' for Active; 'I' for Inactive)
REMARK    5  A    between atoms: CA   and  CB  
REMARK    6  A    between atoms: CB   and  CG  
REMARK    7  A    between atoms: CG   and  CD  
REMARK    8  A    between atoms: CD   and  NE  
REMARK       I    between atoms: NE   and  CZ  
ROOT
ATOM      7  CA  ARG A 124      31.045  26.515   9.594  1.00 17.84     0.186 C 
ENDROOT
BRANCH   7   8
ATOM      8  CB  ARG A 124      29.529  26.705   9.647  1.00 16.18     0.036 C 
BRANCH   8   9
ATOM      9  CG  ARG A 124      28.906  26.798  11.086  1.00 16.22     0.029 C 
BRANCH   9  10
ATOM     10  CD  ARG A 124      27.540  26.084  11.196  1.00 15.09     0.145 C 
BRANCH  10  11
ATOM     11  NE  ARG A 124      26.403  27.000  11.435  1.00 16.98    -0.083 NA
ATOM     12  CZ  ARG A 124      26.027  27.449  12.627  1.00 18.21     0.782 C 
ATOM     13  NH1 ARG A 124      26.678  27.104  13.732  1.00 21.11     0.063 N 
ATOM     14  NH2 ARG A 124      24.999  28.277  12.727  1.00 21.25     0.063 N 
ENDBRANCH  10  11
ENDBRANCH   9  10
ENDBRANCH   8   9
ENDBRANCH   7   8
END_RES ARG A 124
BEGIN_RES ASN A 133
REMARK  2 active torsions:
REMARK  status: ('A' for Active; 'I' for Inactive)
REMARK    9  A    between atoms: CA   and  CB  
REMARK   10  A    between atoms: CB   and  CG  
ROOT
ATOM     15  CA  ASN A 133      31.225  30.257  11.749  1.00 18.15     0.196 C 
ENDROOT
BRANCH  15  16
ATOM     16  CB  ASN A 133      30.092  31.240  11.460  1.00 18.27     0.126 C 
BRANCH  16  17
ATOM     17  CG  ASN A 133      28.734  30.612  11.520  1.00 18.94     0.276 C 
ATOM     18  OD1 ASN A 133      28.334  29.870  10.621  1.00 18.09    -0.269 OA
ATOM     19  ND2 ASN A 133      28.002  30.908  12.593  1.00 18.93    -0.107 N 
ENDBRANCH  16  17
ENDBRANCH  15  16
END_RES ASN A 133
BEGIN_RES LYS A 131
REMARK  4 active torsions:
REMARK  status: ('A' for Active; 'I' for Inactive)
REMARK   11  A    between atoms: CA   and  CB  
REMARK   12  A    between atoms: CB   and  CG  
REMARK   13  A    between atoms: CG   and  CD  
REMARK   14  A    between atoms: CD   and  CE  
ROOT
ATOM     20  CA  LYS A 131      29.867  25.555  16.977  1.00 20.52     0.186 C 
ENDROOT
BRANCH  20  21
ATOM     21  CB  LYS A 131      28.345  25.722  17.026  1.00 20.94     0.034 C 
BRANCH  21  22
ATOM     22  CG  LYS A 131      27.601  24.402  16.889  1.00 22.96     0.005 C 
BRANCH  22  23
ATOM     23  CD  LYS A 131      26.137  24.542  17.203  1.00 24.33     0.041 C 
BRANCH  23  24
ATOM     24  CE  LYS A 131      25.628  23.253  17.839  1.00 26.91     0.338 C 
ATOM     25  NZ  LYS A 131      25.650  23.360  19.317  1.00 27.40     0.618 N 
ENDBRANCH  23  24
ENDBRANCH  22  23
ENDBRANCH  21  22
ENDBRANCH  20  21
END_RES LYS A 131
