REMARK VINA RESULT:    -3.947      0.000      0.000
REMARK INTER + INTRA:          -9.424
REMARK INTER:                  -3.663
REMARK INTRA:                  -5.761
REMARK UNBOUND:                -5.361
REMARK SMILES CN1C2CCC1CC(N)C2
REMARK SMILES IDX 1 1 2 2 3 3 4 4 5 5 6 6 7 7 8 8 10 9 9 10
REMARK H PARENT 9 11 9 12
REMARK Flexibility Score: inf
ROOT
ATOM      1  C   UNL     1      24.053  16.391  14.881  1.00  0.00     0.105 C 
ATOM      2  N   UNL     1      24.387  17.180  15.994  1.00  0.00    -0.300 NA
ATOM      3  C   UNL     1      24.908  18.474  15.741  1.00  0.00     0.058 C 
ATOM      4  C   UNL     1      25.120  18.988  17.173  1.00  0.00     0.021 C 
ATOM      5  C   UNL     1      25.378  17.729  17.975  1.00  0.00     0.021 C 
ATOM      6  C   UNL     1      25.310  16.609  16.926  1.00  0.00     0.058 C 
ATOM      7  C   UNL     1      26.704  16.448  16.387  1.00  0.00     0.038 C 
ATOM      8  C   UNL     1      27.265  17.827  16.066  1.00  0.00     0.053 C 
ATOM      9  C   UNL     1      26.286  18.465  15.103  1.00  0.00     0.038 C 
ENDROOT
BRANCH   8  10
ATOM     10  N   UNL     1      28.537  17.704  15.355  1.00  0.00    -0.328 NA
ATOM     11  H   UNL     1      29.067  18.607  15.532  1.00  0.00     0.119 HD
ATOM     12  H   UNL     1      29.143  16.960  15.768  1.00  0.00     0.119 HD
ENDBRANCH   8  10
TORSDOF 1
BEGIN_RES LYS A 135
REMARK  4 active torsions:
REMARK  status: ('A' for Active; 'I' for Inactive)
REMARK    1  A    between atoms: CA   and  CB  
REMARK    2  A    between atoms: CB   and  CG  
REMARK    3  A    between atoms: CG   and  CD  
REMARK    4  A    between atoms: CD   and  CE  
ROOT
ATOM      1  CA  LYS A 135      33.193  34.663   9.290  1.00 25.02     0.186 C 
ENDROOT
BRANCH   1   2
ATOM      2  CB  LYS A 135      32.060  35.360  10.034  1.00 26.63     0.034 C 
BRANCH   2   3
ATOM      3  CG  LYS A 135      30.698  34.795   9.723  1.00 29.45     0.005 C 
BRANCH   3   4
ATOM      4  CD  LYS A 135      30.558  34.520   8.234  1.00 32.00     0.041 C 
BRANCH   4   5
ATOM      5  CE  LYS A 135      29.202  34.980   7.733  1.00 34.25     0.338 C 
ATOM      6  NZ  LYS A 135      28.104  34.427   8.573  1.00 35.99     0.618 N 
ENDBRANCH   4   5
ENDBRANCH   3   4
ENDBRANCH   2   3
ENDBRANCH   1   2
END_RES LYS A 135
BEGIN_RES ARG A 124
REMARK  4 active torsions:
REMARK  status: ('A' for Active; 'I' for Inactive)
REMARK    5  A    between atoms: CA   and  CB  
REMARK    6  A    between atoms: CB   and  CG  
REMARK    7  A    between atoms: CG   and  CD  
REMARK    8  A    between atoms: CD   and  NE  
REMARK       I    between atoms: NE   and  CZ  
ROOT
ATOM      7  CA  ARG A 124      31.045  26.515   9.594  1.00 17.84     0.186 C 
ENDROOT
BRANCH   7   8
ATOM      8  CB  ARG A 124      29.529  26.705   9.647  1.00 16.18     0.036 C 
BRANCH   8   9
ATOM      9  CG  ARG A 124      28.896  26.713  11.084  1.00 16.22     0.029 C 
BRANCH   9  10
ATOM     10  CD  ARG A 124      27.494  26.063  11.126  1.00 15.09     0.145 C 
BRANCH  10  11
ATOM     11  NE  ARG A 124      26.396  27.023  11.374  1.00 16.98    -0.083 NA
ATOM     12  CZ  ARG A 124      26.033  27.469  12.572  1.00 18.21     0.782 C 
ATOM     13  NH1 ARG A 124      26.663  27.079  13.674  1.00 21.11     0.063 N 
ATOM     14  NH2 ARG A 124      25.041  28.339  12.680  1.00 21.25     0.063 N 
ENDBRANCH  10  11
ENDBRANCH   9  10
ENDBRANCH   8   9
ENDBRANCH   7   8
END_RES ARG A 124
BEGIN_RES ASN A 133
REMARK  2 active torsions:
REMARK  status: ('A' for Active; 'I' for Inactive)
REMARK    9  A    between atoms: CA   and  CB  
REMARK   10  A    between atoms: CB   and  CG  
ROOT
ATOM     15  CA  ASN A 133      31.225  30.257  11.749  1.00 18.15     0.196 C 
ENDROOT
BRANCH  15  16
ATOM     16  CB  ASN A 133      30.092  31.240  11.460  1.00 18.27     0.126 C 
BRANCH  16  17
ATOM     17  CG  ASN A 133      28.733  30.617  11.544  1.00 18.94     0.276 C 
ATOM     18  OD1 ASN A 133      28.354  29.796  10.707  1.00 18.09    -0.269 OA
ATOM     19  ND2 ASN A 133      27.975  31.009  12.568  1.00 18.93    -0.107 N 
ENDBRANCH  16  17
ENDBRANCH  15  16
END_RES ASN A 133
BEGIN_RES LYS A 131
REMARK  4 active torsions:
REMARK  status: ('A' for Active; 'I' for Inactive)
REMARK   11  A    between atoms: CA   and  CB  
REMARK   12  A    between atoms: CB   and  CG  
REMARK   13  A    between atoms: CG   and  CD  
REMARK   14  A    between atoms: CD   and  CE  
ROOT
ATOM     20  CA  LYS A 131      29.867  25.555  16.977  1.00 20.52     0.186 C 
ENDROOT
BRANCH  20  21
ATOM     21  CB  LYS A 131      28.345  25.722  17.026  1.00 20.94     0.034 C 
BRANCH  21  22
ATOM     22  CG  LYS A 131      27.599  24.423  16.762  1.00 22.96     0.005 C 
BRANCH  22  23
ATOM     23  CD  LYS A 131      26.860  23.938  17.978  1.00 24.33     0.041 C 
BRANCH  23  24
ATOM     24  CE  LYS A 131      25.541  23.301  17.552  1.00 26.91     0.338 C 
ATOM     25  NZ  LYS A 131      24.927  22.570  18.685  1.00 27.40     0.618 N 
ENDBRANCH  23  24
ENDBRANCH  22  23
ENDBRANCH  21  22
ENDBRANCH  20  21
END_RES LYS A 131
