REMARK VINA RESULT:    -3.897      5.944      6.408
REMARK INTER + INTRA:          -9.866
REMARK INTER:                  -3.682
REMARK INTRA:                  -6.184
REMARK UNBOUND:                -5.627
REMARK SMILES CC(=O)c1ccccc1N
REMARK SMILES IDX 4 1 5 2 6 3 7 4 8 5 9 6 2 7 1 8 3 9 10 10
REMARK H PARENT 10 11 10 12
REMARK Flexibility Score: inf
ROOT
ATOM      1  C   UNL     1      34.541  19.444  22.180  1.00  0.00     0.040 A 
ATOM      2  C   UNL     1      35.317  19.907  21.135  1.00  0.00     0.014 A 
ATOM      3  C   UNL     1      36.194  20.959  21.303  1.00  0.00     0.001 A 
ATOM      4  C   UNL     1      36.338  21.598  22.512  1.00  0.00     0.002 A 
ATOM      5  C   UNL     1      35.568  21.147  23.568  1.00  0.00     0.026 A 
ATOM      6  C   UNL     1      34.685  20.079  23.385  1.00  0.00     0.042 A 
ENDROOT
BRANCH   1   7
ATOM      7  C   UNL     1      33.627  18.349  22.018  1.00  0.00     0.161 C 
ATOM      8  C   UNL     1      34.010  16.922  22.037  1.00  0.00     0.093 C 
ATOM      9  O   UNL     1      32.387  18.609  21.844  1.00  0.00    -0.294 OA
ENDBRANCH   1   7
BRANCH   6  10
ATOM     10  N   UNL     1      33.900  19.625  24.472  1.00  0.00    -0.398 N 
ATOM     11  H   UNL     1      34.219  19.685  25.465  1.00  0.00     0.156 HD
ATOM     12  H   UNL     1      32.941  19.194  24.347  1.00  0.00     0.156 HD
ENDBRANCH   6  10
TORSDOF 2
BEGIN_RES LYS A 135
REMARK  4 active torsions:
REMARK  status: ('A' for Active; 'I' for Inactive)
REMARK    1  A    between atoms: CA   and  CB  
REMARK    2  A    between atoms: CB   and  CG  
REMARK    3  A    between atoms: CG   and  CD  
REMARK    4  A    between atoms: CD   and  CE  
ROOT
ATOM      1  CA  LYS A 135      33.193  34.663   9.290  1.00 25.02     0.186 C 
ENDROOT
BRANCH   1   2
ATOM      2  CB  LYS A 135      32.060  35.360  10.034  1.00 26.63     0.034 C 
BRANCH   2   3
ATOM      3  CG  LYS A 135      30.697  34.803   9.715  1.00 29.45     0.005 C 
BRANCH   3   4
ATOM      4  CD  LYS A 135      30.574  34.504   8.228  1.00 32.00     0.041 C 
BRANCH   4   5
ATOM      5  CE  LYS A 135      29.201  34.896   7.718  1.00 34.25     0.338 C 
ATOM      6  NZ  LYS A 135      28.131  34.435   8.646  1.00 35.99     0.618 N 
ENDBRANCH   4   5
ENDBRANCH   3   4
ENDBRANCH   2   3
ENDBRANCH   1   2
END_RES LYS A 135
BEGIN_RES ARG A 124
REMARK  4 active torsions:
REMARK  status: ('A' for Active; 'I' for Inactive)
REMARK    5  A    between atoms: CA   and  CB  
REMARK    6  A    between atoms: CB   and  CG  
REMARK    7  A    between atoms: CG   and  CD  
REMARK    8  A    between atoms: CD   and  NE  
REMARK       I    between atoms: NE   and  CZ  
ROOT
ATOM      7  CA  ARG A 124      31.045  26.515   9.594  1.00 17.84     0.186 C 
ENDROOT
BRANCH   7   8
ATOM      8  CB  ARG A 124      29.529  26.705   9.647  1.00 16.18     0.036 C 
BRANCH   8   9
ATOM      9  CG  ARG A 124      28.898  26.735  11.085  1.00 16.22     0.029 C 
BRANCH   9  10
ATOM     10  CD  ARG A 124      27.511  26.055  11.146  1.00 15.09     0.145 C 
BRANCH  10  11
ATOM     11  NE  ARG A 124      26.395  26.995  11.388  1.00 16.98    -0.083 NA
ATOM     12  CZ  ARG A 124      26.037  27.459  12.581  1.00 18.21     0.782 C 
ATOM     13  NH1 ARG A 124      26.690  27.108  13.682  1.00 21.11     0.063 N 
ATOM     14  NH2 ARG A 124      25.026  28.308  12.684  1.00 21.25     0.063 N 
ENDBRANCH  10  11
ENDBRANCH   9  10
ENDBRANCH   8   9
ENDBRANCH   7   8
END_RES ARG A 124
BEGIN_RES ASN A 133
REMARK  2 active torsions:
REMARK  status: ('A' for Active; 'I' for Inactive)
REMARK    9  A    between atoms: CA   and  CB  
REMARK   10  A    between atoms: CB   and  CG  
ROOT
ATOM     15  CA  ASN A 133      31.225  30.257  11.749  1.00 18.15     0.196 C 
ENDROOT
BRANCH  15  16
ATOM     16  CB  ASN A 133      30.092  31.240  11.460  1.00 18.27     0.126 C 
BRANCH  16  17
ATOM     17  CG  ASN A 133      28.733  30.617  11.542  1.00 18.94     0.276 C 
ATOM     18  OD1 ASN A 133      28.349  29.808  10.695  1.00 18.09    -0.269 OA
ATOM     19  ND2 ASN A 133      27.981  30.993  12.575  1.00 18.93    -0.107 N 
ENDBRANCH  16  17
ENDBRANCH  15  16
END_RES ASN A 133
BEGIN_RES LYS A 131
REMARK  4 active torsions:
REMARK  status: ('A' for Active; 'I' for Inactive)
REMARK   11  A    between atoms: CA   and  CB  
REMARK   12  A    between atoms: CB   and  CG  
REMARK   13  A    between atoms: CG   and  CD  
REMARK   14  A    between atoms: CD   and  CE  
ROOT
ATOM     20  CA  LYS A 131      29.867  25.555  16.977  1.00 20.52     0.186 C 
ENDROOT
BRANCH  20  21
ATOM     21  CB  LYS A 131      28.345  25.722  17.026  1.00 20.94     0.034 C 
BRANCH  21  22
ATOM     22  CG  LYS A 131      27.599  24.429  16.734  1.00 22.96     0.005 C 
BRANCH  22  23
ATOM     23  CD  LYS A 131      26.921  23.878  17.957  1.00 24.33     0.041 C 
BRANCH  23  24
ATOM     24  CE  LYS A 131      25.601  23.227  17.558  1.00 26.91     0.338 C 
ATOM     25  NZ  LYS A 131      24.685  24.231  16.967  1.00 27.40     0.618 N 
ENDBRANCH  23  24
ENDBRANCH  22  23
ENDBRANCH  21  22
ENDBRANCH  20  21
END_RES LYS A 131
