REMARK VINA RESULT:    -4.061      6.180      8.605
REMARK INTER + INTRA:          -9.662
REMARK INTER:                  -4.773
REMARK INTRA:                  -4.889
REMARK UNBOUND:                -4.889
REMARK SMILES Nc1cc(C(=O)O)nc(-c2ccccc2)c1
REMARK SMILES IDX 2 1 3 2 4 3 8 4 9 5 16 6 1 7 5 10 6 11 7 12 10 14 11 15
REMARK SMILES IDX 15 16 12 17 14 18 13 19
REMARK H PARENT 1 8 1 9 7 13
REMARK Flexibility Score: inf
ROOT
ATOM      1  C   UNL     1      31.443  39.770   8.200  1.00  0.00     0.036 A 
ATOM      2  C   UNL     1      31.644  39.988   9.560  1.00  0.00     0.061 A 
ATOM      3  C   UNL     1      30.973  39.285  10.536  1.00  0.00     0.150 A 
ATOM      4  N   UNL     1      30.094  38.357  10.109  1.00  0.00    -0.241 NA
ATOM      5  C   UNL     1      29.855  38.099   8.809  1.00  0.00     0.073 A 
ATOM      6  C   UNL     1      30.526  38.801   7.847  1.00  0.00     0.054 A 
ENDROOT
BRANCH   1   7
ATOM      7  N   UNL     1      32.159  40.522   7.234  1.00  0.00    -0.399 N 
ATOM      8  H   UNL     1      31.717  40.719   6.326  1.00  0.00     0.156 HD
ATOM      9  H   UNL     1      33.107  40.857   7.461  1.00  0.00     0.156 HD
ENDBRANCH   1   7
BRANCH   3  10
ATOM     10  C   UNL     1      31.218  39.551  11.942  1.00  0.00     0.354 C 
ATOM     11  O   UNL     1      30.877  38.737  12.814  1.00  0.00    -0.245 OA
BRANCH  10  12
ATOM     12  O   UNL     1      31.840  40.725  12.312  1.00  0.00    -0.477 OA
ATOM     13  H   UNL     1      32.712  40.695  12.823  1.00  0.00     0.297 HD
ENDBRANCH  10  12
ENDBRANCH   3  10
BRANCH   5  14
ATOM     14  C   UNL     1      28.864  37.052   8.493  1.00  0.00     0.000 A 
ATOM     15  C   UNL     1      28.977  36.312   7.329  1.00  0.00     0.010 A 
ATOM     16  C   UNL     1      27.801  36.762   9.319  1.00  0.00     0.010 A 
ATOM     17  C   UNL     1      28.066  35.332   7.013  1.00  0.00     0.001 A 
ATOM     18  C   UNL     1      26.878  35.763   8.991  1.00  0.00     0.001 A 
ATOM     19  C   UNL     1      26.999  35.033   7.831  1.00  0.00     0.000 A 
ENDBRANCH   5  14
TORSDOF 4
BEGIN_RES LYS A 135
REMARK  4 active torsions:
REMARK  status: ('A' for Active; 'I' for Inactive)
REMARK    1  A    between atoms: CA   and  CB  
REMARK    2  A    between atoms: CB   and  CG  
REMARK    3  A    between atoms: CG   and  CD  
REMARK    4  A    between atoms: CD   and  CE  
ROOT
ATOM      1  CA  LYS A 135      33.193  34.663   9.290  1.00 25.02     0.186 C 
ENDROOT
BRANCH   1   2
ATOM      2  CB  LYS A 135      32.060  35.360  10.034  1.00 26.63     0.034 C 
BRANCH   2   3
ATOM      3  CG  LYS A 135      30.784  34.560  10.075  1.00 29.45     0.005 C 
BRANCH   3   4
ATOM      4  CD  LYS A 135      30.046  34.792  11.384  1.00 32.00     0.041 C 
BRANCH   4   5
ATOM      5  CE  LYS A 135      31.009  35.245  12.465  1.00 34.25     0.338 C 
ATOM      6  NZ  LYS A 135      30.806  34.473  13.722  1.00 35.99     0.618 N 
ENDBRANCH   4   5
ENDBRANCH   3   4
ENDBRANCH   2   3
ENDBRANCH   1   2
END_RES LYS A 135
BEGIN_RES ARG A 124
REMARK  4 active torsions:
REMARK  status: ('A' for Active; 'I' for Inactive)
REMARK    5  A    between atoms: CA   and  CB  
REMARK    6  A    between atoms: CB   and  CG  
REMARK    7  A    between atoms: CG   and  CD  
REMARK    8  A    between atoms: CD   and  NE  
REMARK       I    between atoms: NE   and  CZ  
ROOT
ATOM      7  CA  ARG A 124      31.045  26.515   9.594  1.00 17.84     0.186 C 
ENDROOT
BRANCH   7   8
ATOM      8  CB  ARG A 124      29.529  26.705   9.647  1.00 16.18     0.036 C 
BRANCH   8   9
ATOM      9  CG  ARG A 124      28.968  27.324  10.977  1.00 16.22     0.029 C 
BRANCH   9  10
ATOM     10  CD  ARG A 124      28.387  26.260  11.936  1.00 15.09     0.145 C 
BRANCH  10  11
ATOM     11  NE  ARG A 124      27.940  26.806  13.236  1.00 16.98    -0.083 NA
ATOM     12  CZ  ARG A 124      26.717  27.258  13.490  1.00 18.21     0.782 C 
ATOM     13  NH1 ARG A 124      25.767  27.239  12.563  1.00 21.11     0.063 N 
ATOM     14  NH2 ARG A 124      26.419  27.717  14.696  1.00 21.25     0.063 N 
ENDBRANCH  10  11
ENDBRANCH   9  10
ENDBRANCH   8   9
ENDBRANCH   7   8
END_RES ARG A 124
BEGIN_RES ASN A 133
REMARK  2 active torsions:
REMARK  status: ('A' for Active; 'I' for Inactive)
REMARK    9  A    between atoms: CA   and  CB  
REMARK   10  A    between atoms: CB   and  CG  
ROOT
ATOM     15  CA  ASN A 133      31.225  30.257  11.749  1.00 18.15     0.196 C 
ENDROOT
BRANCH  15  16
ATOM     16  CB  ASN A 133      30.092  31.240  11.460  1.00 18.27     0.126 C 
BRANCH  16  17
ATOM     17  CG  ASN A 133      28.930  31.094  12.393  1.00 18.94     0.276 C 
ATOM     18  OD1 ASN A 133      28.903  31.681  13.476  1.00 18.09    -0.269 OA
ATOM     19  ND2 ASN A 133      27.945  30.298  11.977  1.00 18.93    -0.107 N 
ENDBRANCH  16  17
ENDBRANCH  15  16
END_RES ASN A 133
BEGIN_RES LYS A 131
REMARK  4 active torsions:
REMARK  status: ('A' for Active; 'I' for Inactive)
REMARK   11  A    between atoms: CA   and  CB  
REMARK   12  A    between atoms: CB   and  CG  
REMARK   13  A    between atoms: CG   and  CD  
REMARK   14  A    between atoms: CD   and  CE  
ROOT
ATOM     20  CA  LYS A 131      29.867  25.555  16.977  1.00 20.52     0.186 C 
ENDROOT
BRANCH  20  21
ATOM     21  CB  LYS A 131      28.345  25.722  17.026  1.00 20.94     0.034 C 
BRANCH  21  22
ATOM     22  CG  LYS A 131      27.600  24.416  16.796  1.00 22.96     0.005 C 
BRANCH  22  23
ATOM     23  CD  LYS A 131      26.173  24.488  17.266  1.00 24.33     0.041 C 
BRANCH  23  24
ATOM     24  CE  LYS A 131      25.925  23.403  18.309  1.00 26.91     0.338 C 
ATOM     25  NZ  LYS A 131      25.494  24.006  19.592  1.00 27.40     0.618 N 
ENDBRANCH  23  24
ENDBRANCH  22  23
ENDBRANCH  21  22
ENDBRANCH  20  21
END_RES LYS A 131
