REMARK VINA RESULT:    -4.411      4.210      6.933
REMARK INTER + INTRA:          -9.883
REMARK INTER:                  -4.489
REMARK INTRA:                  -5.394
REMARK UNBOUND:                -5.342
REMARK SMILES Nc1c2ccccc2nc2ccccc12
REMARK SMILES IDX 2 1 3 2 4 3 5 4 6 5 7 6 8 7 9 8 10 9 11 10 12 11 13 12 14 13
REMARK SMILES IDX 15 14 1 15
REMARK H PARENT 1 16 1 17
REMARK Flexibility Score: inf
ROOT
ATOM      1  C   UNL     1      20.809  31.358  12.308  1.00  0.00     0.050 A 
ATOM      2  C   UNL     1      22.105  30.995  12.615  1.00  0.00     0.024 A 
ATOM      3  C   UNL     1      23.069  31.934  12.935  1.00  0.00     0.012 A 
ATOM      4  C   UNL     1      24.343  31.500  13.230  1.00  0.00     0.001 A 
ATOM      5  C   UNL     1      24.685  30.164  13.217  1.00  0.00     0.002 A 
ATOM      6  C   UNL     1      23.690  29.267  12.892  1.00  0.00     0.029 A 
ATOM      7  C   UNL     1      22.395  29.648  12.587  1.00  0.00     0.073 A 
ATOM      8  N   UNL     1      21.458  28.722  12.274  1.00  0.00    -0.248 NA
ATOM      9  C   UNL     1      20.186  29.050  11.972  1.00  0.00     0.073 A 
ATOM     10  C   UNL     1      19.255  28.081  11.657  1.00  0.00     0.029 A 
ATOM     11  C   UNL     1      17.953  28.422  11.348  1.00  0.00     0.002 A 
ATOM     12  C   UNL     1      17.635  29.764  11.368  1.00  0.00     0.001 A 
ATOM     13  C   UNL     1      18.566  30.735  11.681  1.00  0.00     0.012 A 
ATOM     14  C   UNL     1      19.866  30.393  11.991  1.00  0.00     0.024 A 
ENDROOT
BRANCH   1  15
ATOM     15  N   UNL     1      20.468  32.738  12.325  1.00  0.00    -0.398 N 
ATOM     16  H   UNL     1      20.760  33.428  11.613  1.00  0.00     0.156 HD
ATOM     17  H   UNL     1      19.871  33.103  13.118  1.00  0.00     0.156 HD
ENDBRANCH   1  15
TORSDOF 1
BEGIN_RES LYS A 135
REMARK  4 active torsions:
REMARK  status: ('A' for Active; 'I' for Inactive)
REMARK    1  A    between atoms: CA   and  CB  
REMARK    2  A    between atoms: CB   and  CG  
REMARK    3  A    between atoms: CG   and  CD  
REMARK    4  A    between atoms: CD   and  CE  
ROOT
ATOM      1  CA  LYS A 135      33.193  34.663   9.290  1.00 25.02     0.186 C 
ENDROOT
BRANCH   1   2
ATOM      2  CB  LYS A 135      32.060  35.360  10.034  1.00 26.63     0.034 C 
BRANCH   2   3
ATOM      3  CG  LYS A 135      30.709  34.739   9.792  1.00 29.45     0.005 C 
BRANCH   3   4
ATOM      4  CD  LYS A 135      30.400  34.687   8.304  1.00 32.00     0.041 C 
BRANCH   4   5
ATOM      5  CE  LYS A 135      29.344  35.715   7.943  1.00 34.25     0.338 C 
ATOM      6  NZ  LYS A 135      28.889  35.544   6.535  1.00 35.99     0.618 N 
ENDBRANCH   4   5
ENDBRANCH   3   4
ENDBRANCH   2   3
ENDBRANCH   1   2
END_RES LYS A 135
BEGIN_RES ARG A 124
REMARK  4 active torsions:
REMARK  status: ('A' for Active; 'I' for Inactive)
REMARK    5  A    between atoms: CA   and  CB  
REMARK    6  A    between atoms: CB   and  CG  
REMARK    7  A    between atoms: CG   and  CD  
REMARK    8  A    between atoms: CD   and  NE  
REMARK       I    between atoms: NE   and  CZ  
ROOT
ATOM      7  CA  ARG A 124      31.045  26.515   9.594  1.00 17.84     0.186 C 
ENDROOT
BRANCH   7   8
ATOM      8  CB  ARG A 124      29.529  26.705   9.647  1.00 16.18     0.036 C 
BRANCH   8   9
ATOM      9  CG  ARG A 124      28.787  25.931  10.795  1.00 16.22     0.029 C 
BRANCH   9  10
ATOM     10  CD  ARG A 124      28.739  26.725  12.120  1.00 15.09     0.145 C 
BRANCH  10  11
ATOM     11  NE  ARG A 124      27.484  26.540  12.882  1.00 16.98    -0.083 NA
ATOM     12  CZ  ARG A 124      27.120  27.266  13.934  1.00 18.21     0.782 C 
ATOM     13  NH1 ARG A 124      27.879  28.257  14.385  1.00 21.11     0.063 N 
ATOM     14  NH2 ARG A 124      25.967  27.022  14.538  1.00 21.25     0.063 N 
ENDBRANCH  10  11
ENDBRANCH   9  10
ENDBRANCH   8   9
ENDBRANCH   7   8
END_RES ARG A 124
BEGIN_RES ASN A 133
REMARK  2 active torsions:
REMARK  status: ('A' for Active; 'I' for Inactive)
REMARK    9  A    between atoms: CA   and  CB  
REMARK   10  A    between atoms: CB   and  CG  
ROOT
ATOM     15  CA  ASN A 133      31.225  30.257  11.749  1.00 18.15     0.196 C 
ENDROOT
BRANCH  15  16
ATOM     16  CB  ASN A 133      30.092  31.240  11.460  1.00 18.27     0.126 C 
BRANCH  16  17
ATOM     17  CG  ASN A 133      28.732  30.621  11.559  1.00 18.94     0.276 C 
ATOM     18  OD1 ASN A 133      28.403  29.684  10.829  1.00 18.09    -0.269 OA
ATOM     19  ND2 ASN A 133      27.918  31.147  12.473  1.00 18.93    -0.107 N 
ENDBRANCH  16  17
ENDBRANCH  15  16
END_RES ASN A 133
BEGIN_RES LYS A 131
REMARK  4 active torsions:
REMARK  status: ('A' for Active; 'I' for Inactive)
REMARK   11  A    between atoms: CA   and  CB  
REMARK   12  A    between atoms: CB   and  CG  
REMARK   13  A    between atoms: CG   and  CD  
REMARK   14  A    between atoms: CD   and  CE  
ROOT
ATOM     20  CA  LYS A 131      29.867  25.555  16.977  1.00 20.52     0.186 C 
ENDROOT
BRANCH  20  21
ATOM     21  CB  LYS A 131      28.345  25.722  17.026  1.00 20.94     0.034 C 
BRANCH  21  22
ATOM     22  CG  LYS A 131      27.600  24.409  16.843  1.00 22.96     0.005 C 
BRANCH  22  23
ATOM     23  CD  LYS A 131      26.148  24.524  17.214  1.00 24.33     0.041 C 
BRANCH  23  24
ATOM     24  CE  LYS A 131      26.017  24.634  18.730  1.00 26.91     0.338 C 
ATOM     25  NZ  LYS A 131      25.604  23.334  19.310  1.00 27.40     0.618 N 
ENDBRANCH  23  24
ENDBRANCH  22  23
ENDBRANCH  21  22
ENDBRANCH  20  21
END_RES LYS A 131
