REMARK VINA RESULT:    -1.252      5.972      8.818
REMARK INTER + INTRA:          -6.663
REMARK INTER:                  -1.399
REMARK INTRA:                  -5.264
REMARK UNBOUND:                -5.264
REMARK SMILES NCCO
REMARK SMILES IDX 2 1 1 2 3 5 4 6
REMARK H PARENT 1 3 1 4 4 7
REMARK Flexibility Score: inf
ROOT
ATOM      1  C   UNL     1      38.738  32.747  18.962  1.00  0.00     0.106 C 
ENDROOT
BRANCH   1   2
ATOM      2  N   UNL     1      39.090  32.746  17.550  1.00  0.00    -0.328 NA
ATOM      3  H   UNL     1      39.133  31.729  17.250  1.00  0.00     0.118 HD
ATOM      4  H   UNL     1      40.070  33.098  17.469  1.00  0.00     0.118 HD
ENDBRANCH   1   2
BRANCH   1   5
ATOM      5  C   UNL     1      39.528  33.833  19.638  1.00  0.00     0.171 C 
BRANCH   5   6
ATOM      6  O   UNL     1      40.383  34.500  18.800  1.00  0.00    -0.395 OA
ATOM      7  H   UNL     1      41.202  34.023  18.558  1.00  0.00     0.210 HD
ENDBRANCH   5   6
ENDBRANCH   1   5
TORSDOF 3
BEGIN_RES LYS A 135
REMARK  4 active torsions:
REMARK  status: ('A' for Active; 'I' for Inactive)
REMARK    1  A    between atoms: CA   and  CB  
REMARK    2  A    between atoms: CB   and  CG  
REMARK    3  A    between atoms: CG   and  CD  
REMARK    4  A    between atoms: CD   and  CE  
ROOT
ATOM      1  CA  LYS A 135      33.193  34.663   9.290  1.00 25.02     0.186 C 
ENDROOT
BRANCH   1   2
ATOM      2  CB  LYS A 135      32.060  35.360  10.034  1.00 26.63     0.034 C 
BRANCH   2   3
ATOM      3  CG  LYS A 135      30.800  35.498   9.220  1.00 29.45     0.005 C 
BRANCH   3   4
ATOM      4  CD  LYS A 135      30.153  34.140   8.996  1.00 32.00     0.041 C 
BRANCH   4   5
ATOM      5  CE  LYS A 135      28.665  34.292   8.751  1.00 34.25     0.338 C 
ATOM      6  NZ  LYS A 135      27.874  33.571   9.786  1.00 35.99     0.618 N 
ENDBRANCH   4   5
ENDBRANCH   3   4
ENDBRANCH   2   3
ENDBRANCH   1   2
END_RES LYS A 135
BEGIN_RES ARG A 124
REMARK  4 active torsions:
REMARK  status: ('A' for Active; 'I' for Inactive)
REMARK    5  A    between atoms: CA   and  CB  
REMARK    6  A    between atoms: CB   and  CG  
REMARK    7  A    between atoms: CG   and  CD  
REMARK    8  A    between atoms: CD   and  NE  
REMARK       I    between atoms: NE   and  CZ  
ROOT
ATOM      7  CA  ARG A 124      31.045  26.515   9.594  1.00 17.84     0.186 C 
ENDROOT
BRANCH   7   8
ATOM      8  CB  ARG A 124      29.529  26.705   9.647  1.00 16.18     0.036 C 
BRANCH   8   9
ATOM      9  CG  ARG A 124      29.026  27.912  10.517  1.00 16.22     0.029 C 
BRANCH   9  10
ATOM     10  CD  ARG A 124      27.559  27.749  10.977  1.00 15.09     0.145 C 
BRANCH  10  11
ATOM     11  NE  ARG A 124      27.413  27.479  12.424  1.00 16.98    -0.083 NA
ATOM     12  CZ  ARG A 124      26.253  27.389  13.067  1.00 18.21     0.782 C 
ATOM     13  NH1 ARG A 124      25.098  27.530  12.429  1.00 21.11     0.063 N 
ATOM     14  NH2 ARG A 124      26.236  27.131  14.366  1.00 21.25     0.063 N 
ENDBRANCH  10  11
ENDBRANCH   9  10
ENDBRANCH   8   9
ENDBRANCH   7   8
END_RES ARG A 124
BEGIN_RES ASN A 133
REMARK  2 active torsions:
REMARK  status: ('A' for Active; 'I' for Inactive)
REMARK    9  A    between atoms: CA   and  CB  
REMARK   10  A    between atoms: CB   and  CG  
ROOT
ATOM     15  CA  ASN A 133      31.225  30.257  11.749  1.00 18.15     0.196 C 
ENDROOT
BRANCH  15  16
ATOM     16  CB  ASN A 133      30.092  31.240  11.460  1.00 18.27     0.126 C 
BRANCH  16  17
ATOM     17  CG  ASN A 133      29.164  31.431  12.620  1.00 18.94     0.276 C 
ATOM     18  OD1 ASN A 133      28.180  30.706  12.776  1.00 18.09    -0.269 OA
ATOM     19  ND2 ASN A 133      29.471  32.424  13.454  1.00 18.93    -0.107 N 
ENDBRANCH  16  17
ENDBRANCH  15  16
END_RES ASN A 133
BEGIN_RES LYS A 131
REMARK  4 active torsions:
REMARK  status: ('A' for Active; 'I' for Inactive)
REMARK   11  A    between atoms: CA   and  CB  
REMARK   12  A    between atoms: CB   and  CG  
REMARK   13  A    between atoms: CG   and  CD  
REMARK   14  A    between atoms: CD   and  CE  
ROOT
ATOM     20  CA  LYS A 131      29.867  25.555  16.977  1.00 20.52     0.186 C 
ENDROOT
BRANCH  20  21
ATOM     21  CB  LYS A 131      28.345  25.722  17.026  1.00 20.94     0.034 C 
BRANCH  21  22
ATOM     22  CG  LYS A 131      27.599  24.429  16.735  1.00 22.96     0.005 C 
BRANCH  22  23
ATOM     23  CD  LYS A 131      26.796  23.960  17.917  1.00 24.33     0.041 C 
BRANCH  23  24
ATOM     24  CE  LYS A 131      25.343  23.761  17.498  1.00 26.91     0.338 C 
ATOM     25  NZ  LYS A 131      24.980  22.325  17.550  1.00 27.40     0.618 N 
ENDBRANCH  23  24
ENDBRANCH  22  23
ENDBRANCH  21  22
ENDBRANCH  20  21
END_RES LYS A 131
