REMARK VINA RESULT:    -3.854      6.395     12.568
REMARK INTER + INTRA:         -10.168
REMARK INTER:                  -4.442
REMARK INTRA:                  -5.726
REMARK UNBOUND:                -5.863
REMARK SMILES Nc1cccc(S(N)(=O)=O)c1
REMARK SMILES IDX 3 1 4 2 5 3 6 4 11 5 2 6 1 7 7 10 9 11 10 12 8 13
REMARK H PARENT 1 8 1 9 8 14 8 15
REMARK Flexibility Score: inf
ROOT
ATOM      1  C   UNL     1      27.649  16.170  16.565  1.00  0.00     0.025 A 
ATOM      2  C   UNL     1      26.633  15.981  17.474  1.00  0.00     0.004 A 
ATOM      3  C   UNL     1      25.715  16.989  17.671  1.00  0.00     0.022 A 
ATOM      4  C   UNL     1      25.786  18.166  16.989  1.00  0.00     0.084 A 
ATOM      5  C   UNL     1      26.795  18.360  16.083  1.00  0.00     0.047 A 
ATOM      6  C   UNL     1      27.719  17.353  15.882  1.00  0.00     0.033 A 
ENDROOT
BRANCH   6   7
ATOM      7  N   UNL     1      28.761  17.588  14.926  1.00  0.00    -0.399 N 
ATOM      8  H   UNL     1      29.760  17.355  15.165  1.00  0.00     0.156 HD
ATOM      9  H   UNL     1      28.554  17.984  14.004  1.00  0.00     0.156 HD
ENDBRANCH   6   7
BRANCH   4  10
ATOM     10  S   UNL     1      24.615  19.456  17.237  1.00  0.00     0.238 S 
ATOM     11  O   UNL     1      23.534  19.332  16.211  1.00  0.00    -0.207 OA
ATOM     12  O   UNL     1      24.013  19.337  18.604  1.00  0.00    -0.207 OA
BRANCH  10  13
ATOM     13  N   UNL     1      25.395  20.978  16.997  1.00  0.00    -0.225 NA
ATOM     14  H   UNL     1      25.453  21.164  15.962  1.00  0.00     0.137 HD
ATOM     15  H   UNL     1      24.755  21.713  17.375  1.00  0.00     0.137 HD
ENDBRANCH  10  13
ENDBRANCH   4  10
TORSDOF 3
BEGIN_RES LYS A 135
REMARK  4 active torsions:
REMARK  status: ('A' for Active; 'I' for Inactive)
REMARK    1  A    between atoms: CA   and  CB  
REMARK    2  A    between atoms: CB   and  CG  
REMARK    3  A    between atoms: CG   and  CD  
REMARK    4  A    between atoms: CD   and  CE  
ROOT
ATOM      1  CA  LYS A 135      33.193  34.663   9.290  1.00 25.02     0.186 C 
ENDROOT
BRANCH   1   2
ATOM      2  CB  LYS A 135      32.060  35.360  10.034  1.00 26.63     0.034 C 
BRANCH   2   3
ATOM      3  CG  LYS A 135      30.887  35.709   9.155  1.00 29.45     0.005 C 
BRANCH   3   4
ATOM      4  CD  LYS A 135      30.438  34.497   8.353  1.00 32.00     0.041 C 
BRANCH   4   5
ATOM      5  CE  LYS A 135      28.924  34.412   8.320  1.00 34.25     0.338 C 
ATOM      6  NZ  LYS A 135      28.388  33.874   9.601  1.00 35.99     0.618 N 
ENDBRANCH   4   5
ENDBRANCH   3   4
ENDBRANCH   2   3
ENDBRANCH   1   2
END_RES LYS A 135
BEGIN_RES ARG A 124
REMARK  4 active torsions:
REMARK  status: ('A' for Active; 'I' for Inactive)
REMARK    5  A    between atoms: CA   and  CB  
REMARK    6  A    between atoms: CB   and  CG  
REMARK    7  A    between atoms: CG   and  CD  
REMARK    8  A    between atoms: CD   and  NE  
REMARK       I    between atoms: NE   and  CZ  
ROOT
ATOM      7  CA  ARG A 124      31.045  26.515   9.594  1.00 17.84     0.186 C 
ENDROOT
BRANCH   7   8
ATOM      8  CB  ARG A 124      29.529  26.705   9.647  1.00 16.18     0.036 C 
BRANCH   8   9
ATOM      9  CG  ARG A 124      28.910  26.829  11.085  1.00 16.22     0.029 C 
BRANCH   9  10
ATOM     10  CD  ARG A 124      27.559  26.090  11.223  1.00 15.09     0.145 C 
BRANCH  10  11
ATOM     11  NE  ARG A 124      26.403  26.991  11.424  1.00 16.98    -0.083 NA
ATOM     12  CZ  ARG A 124      26.003  27.462  12.600  1.00 18.21     0.782 C 
ATOM     13  NH1 ARG A 124      26.645  27.157  13.721  1.00 21.11     0.063 N 
ATOM     14  NH2 ARG A 124      24.958  28.273  12.666  1.00 21.25     0.063 N 
ENDBRANCH  10  11
ENDBRANCH   9  10
ENDBRANCH   8   9
ENDBRANCH   7   8
END_RES ARG A 124
BEGIN_RES ASN A 133
REMARK  2 active torsions:
REMARK  status: ('A' for Active; 'I' for Inactive)
REMARK    9  A    between atoms: CA   and  CB  
REMARK   10  A    between atoms: CB   and  CG  
ROOT
ATOM     15  CA  ASN A 133      31.225  30.257  11.749  1.00 18.15     0.196 C 
ENDROOT
BRANCH  15  16
ATOM     16  CB  ASN A 133      30.092  31.240  11.460  1.00 18.27     0.126 C 
BRANCH  16  17
ATOM     17  CG  ASN A 133      28.736  30.607  11.496  1.00 18.94     0.276 C 
ATOM     18  OD1 ASN A 133      28.371  29.828  10.613  1.00 18.09    -0.269 OA
ATOM     19  ND2 ASN A 133      27.965  30.940  12.531  1.00 18.93    -0.107 N 
ENDBRANCH  16  17
ENDBRANCH  15  16
END_RES ASN A 133
BEGIN_RES LYS A 131
REMARK  4 active torsions:
REMARK  status: ('A' for Active; 'I' for Inactive)
REMARK   11  A    between atoms: CA   and  CB  
REMARK   12  A    between atoms: CB   and  CG  
REMARK   13  A    between atoms: CG   and  CD  
REMARK   14  A    between atoms: CD   and  CE  
ROOT
ATOM     20  CA  LYS A 131      29.867  25.555  16.977  1.00 20.52     0.186 C 
ENDROOT
BRANCH  20  21
ATOM     21  CB  LYS A 131      28.345  25.722  17.026  1.00 20.94     0.034 C 
BRANCH  21  22
ATOM     22  CG  LYS A 131      27.601  24.401  16.899  1.00 22.96     0.005 C 
BRANCH  22  23
ATOM     23  CD  LYS A 131      26.694  24.147  18.071  1.00 24.33     0.041 C 
BRANCH  23  24
ATOM     24  CE  LYS A 131      26.386  25.467  18.772  1.00 26.91     0.338 C 
ATOM     25  NZ  LYS A 131      25.516  25.238  19.950  1.00 27.40     0.618 N 
ENDBRANCH  23  24
ENDBRANCH  22  23
ENDBRANCH  21  22
ENDBRANCH  20  21
END_RES LYS A 131
