REMARK VINA RESULT:    -4.842      0.000      0.000
REMARK INTER + INTRA:         -11.804
REMARK INTER:                  -5.562
REMARK INTRA:                  -6.242
REMARK UNBOUND:                -6.254
REMARK SMILES NC(c1ccccc1)c1ccccc1
REMARK SMILES IDX 2 1 1 2 3 5 4 6 8 7 5 8 7 9 6 10 9 11 10 12 14 13 11 14
REMARK SMILES IDX 13 15 12 16
REMARK H PARENT 1 3 1 4
REMARK Flexibility Score: inf
ROOT
ATOM      1  C   UNL     1      33.315  35.027  14.665  1.00  0.00     0.112 C 
ENDROOT
BRANCH   1   2
ATOM      2  N   UNL     1      34.030  34.165  13.749  1.00  0.00    -0.320 NA
ATOM      3  H   UNL     1      34.515  33.386  14.210  1.00  0.00     0.119 HD
ATOM      4  H   UNL     1      34.596  34.704  13.072  1.00  0.00     0.119 HD
ENDBRANCH   1   2
BRANCH   1   5
ATOM      5  C   UNL     1      32.433  34.181  15.486  1.00  0.00    -0.027 A 
ATOM      6  C   UNL     1      32.188  34.589  16.785  1.00  0.00     0.006 A 
ATOM      7  C   UNL     1      31.845  33.033  15.058  1.00  0.00     0.006 A 
ATOM      8  C   UNL     1      31.372  33.862  17.634  1.00  0.00     0.000 A 
ATOM      9  C   UNL     1      31.028  32.284  15.874  1.00  0.00     0.000 A 
ATOM     10  C   UNL     1      30.800  32.704  17.150  1.00  0.00     0.000 A 
ENDBRANCH   1   5
BRANCH   1  11
ATOM     11  C   UNL     1      32.572  36.095  13.947  1.00  0.00    -0.027 A 
ATOM     12  C   UNL     1      32.590  36.190  12.569  1.00  0.00     0.006 A 
ATOM     13  C   UNL     1      31.825  37.049  14.611  1.00  0.00     0.006 A 
ATOM     14  C   UNL     1      31.911  37.169  11.872  1.00  0.00     0.000 A 
ATOM     15  C   UNL     1      31.142  38.033  13.927  1.00  0.00     0.000 A 
ATOM     16  C   UNL     1      31.168  38.116  12.550  1.00  0.00     0.000 A 
ENDBRANCH   1  11
TORSDOF 3
BEGIN_RES LYS A 135
REMARK  4 active torsions:
REMARK  status: ('A' for Active; 'I' for Inactive)
REMARK    1  A    between atoms: CA   and  CB  
REMARK    2  A    between atoms: CB   and  CG  
REMARK    3  A    between atoms: CG   and  CD  
REMARK    4  A    between atoms: CD   and  CE  
ROOT
ATOM      1  CA  LYS A 135      33.193  34.663   9.290  1.00 25.02     0.186 C 
ENDROOT
BRANCH   1   2
ATOM      2  CB  LYS A 135      32.060  35.360  10.034  1.00 26.63     0.034 C 
BRANCH   2   3
ATOM      3  CG  LYS A 135      30.788  35.465   9.233  1.00 29.45     0.005 C 
BRANCH   3   4
ATOM      4  CD  LYS A 135      30.221  34.084   8.943  1.00 32.00     0.041 C 
BRANCH   4   5
ATOM      5  CE  LYS A 135      28.705  34.115   8.970  1.00 34.25     0.338 C 
ATOM      6  NZ  LYS A 135      28.166  34.962   7.870  1.00 35.99     0.618 N 
ENDBRANCH   4   5
ENDBRANCH   3   4
ENDBRANCH   2   3
ENDBRANCH   1   2
END_RES LYS A 135
BEGIN_RES ARG A 124
REMARK  4 active torsions:
REMARK  status: ('A' for Active; 'I' for Inactive)
REMARK    5  A    between atoms: CA   and  CB  
REMARK    6  A    between atoms: CB   and  CG  
REMARK    7  A    between atoms: CG   and  CD  
REMARK    8  A    between atoms: CD   and  NE  
REMARK       I    between atoms: NE   and  CZ  
ROOT
ATOM      7  CA  ARG A 124      31.045  26.515   9.594  1.00 17.84     0.186 C 
ENDROOT
BRANCH   7   8
ATOM      8  CB  ARG A 124      29.529  26.705   9.647  1.00 16.18     0.036 C 
BRANCH   8   9
ATOM      9  CG  ARG A 124      28.916  26.875  11.083  1.00 16.22     0.029 C 
BRANCH   9  10
ATOM     10  CD  ARG A 124      27.583  26.112  11.260  1.00 15.09     0.145 C 
BRANCH  10  11
ATOM     11  NE  ARG A 124      26.410  26.993  11.450  1.00 16.98    -0.083 NA
ATOM     12  CZ  ARG A 124      26.017  27.495  12.615  1.00 18.21     0.782 C 
ATOM     13  NH1 ARG A 124      26.683  27.243  13.735  1.00 21.11     0.063 N 
ATOM     14  NH2 ARG A 124      24.955  28.285  12.670  1.00 21.25     0.063 N 
ENDBRANCH  10  11
ENDBRANCH   9  10
ENDBRANCH   8   9
ENDBRANCH   7   8
END_RES ARG A 124
BEGIN_RES ASN A 133
REMARK  2 active torsions:
REMARK  status: ('A' for Active; 'I' for Inactive)
REMARK    9  A    between atoms: CA   and  CB  
REMARK   10  A    between atoms: CB   and  CG  
ROOT
ATOM     15  CA  ASN A 133      31.225  30.257  11.749  1.00 18.15     0.196 C 
ENDROOT
BRANCH  15  16
ATOM     16  CB  ASN A 133      30.092  31.240  11.460  1.00 18.27     0.126 C 
BRANCH  16  17
ATOM     17  CG  ASN A 133      28.734  30.612  11.518  1.00 18.94     0.276 C 
ATOM     18  OD1 ASN A 133      28.354  29.830  10.645  1.00 18.09    -0.269 OA
ATOM     19  ND2 ASN A 133      27.979  30.952  12.562  1.00 18.93    -0.107 N 
ENDBRANCH  16  17
ENDBRANCH  15  16
END_RES ASN A 133
BEGIN_RES LYS A 131
REMARK  4 active torsions:
REMARK  status: ('A' for Active; 'I' for Inactive)
REMARK   11  A    between atoms: CA   and  CB  
REMARK   12  A    between atoms: CB   and  CG  
REMARK   13  A    between atoms: CG   and  CD  
REMARK   14  A    between atoms: CD   and  CE  
ROOT
ATOM     20  CA  LYS A 131      29.867  25.555  16.977  1.00 20.52     0.186 C 
ENDROOT
BRANCH  20  21
ATOM     21  CB  LYS A 131      28.345  25.722  17.026  1.00 20.94     0.034 C 
BRANCH  21  22
ATOM     22  CG  LYS A 131      27.599  24.438  16.696  1.00 22.96     0.005 C 
BRANCH  22  23
ATOM     23  CD  LYS A 131      27.012  23.794  17.921  1.00 24.33     0.041 C 
BRANCH  23  24
ATOM     24  CE  LYS A 131      25.655  23.188  17.577  1.00 26.91     0.338 C 
ATOM     25  NZ  LYS A 131      24.760  24.216  16.997  1.00 27.40     0.618 N 
ENDBRANCH  23  24
ENDBRANCH  22  23
ENDBRANCH  21  22
ENDBRANCH  20  21
END_RES LYS A 131
