REMARK VINA RESULT:    -3.301      6.839     16.174
REMARK INTER + INTRA:          -9.488
REMARK INTER:                  -4.261
REMARK INTRA:                  -5.227
REMARK UNBOUND:                -5.705
REMARK SMILES NCC(=O)Nc1ncccn1
REMARK SMILES IDX 5 1 3 2 4 3 6 5 7 6 8 7 9 8 11 9 10 10 2 11 1 12
REMARK H PARENT 5 4 1 13 1 14
REMARK Flexibility Score: inf
ROOT
ATOM      1  N   UNL     1      38.458  36.604   4.291  1.00  0.00    -0.293 N 
ATOM      2  C   UNL     1      39.725  37.194   4.437  1.00  0.00     0.240 C 
ATOM      3  O   UNL     1      39.854  38.410   4.211  1.00  0.00    -0.273 OA
ATOM      4  H   UNL     1      38.358  35.585   4.480  1.00  0.00     0.173 HD
ENDROOT
BRANCH   1   5
ATOM      5  C   UNL     1      37.339  37.348   3.900  1.00  0.00     0.229 A 
ATOM      6  N   UNL     1      37.071  37.599   2.614  1.00  0.00    -0.221 NA
ATOM      7  C   UNL     1      36.010  38.306   2.205  1.00  0.00     0.117 A 
ATOM      8  C   UNL     1      35.149  38.800   3.158  1.00  0.00     0.040 A 
ATOM      9  N   UNL     1      36.503  37.828   4.821  1.00  0.00    -0.221 NA
ATOM     10  C   UNL     1      35.410  38.549   4.503  1.00  0.00     0.117 A 
ENDBRANCH   1   5
BRANCH   2  11
ATOM     11  C   UNL     1      40.911  36.402   4.850  1.00  0.00     0.179 C 
BRANCH  11  12
ATOM     12  N   UNL     1      41.034  36.385   6.284  1.00  0.00    -0.322 NA
ATOM     13  H   UNL     1      41.213  37.342   6.671  1.00  0.00     0.119 HD
ATOM     14  H   UNL     1      40.179  35.942   6.682  1.00  0.00     0.119 HD
ENDBRANCH  11  12
ENDBRANCH   2  11
TORSDOF 3
BEGIN_RES LYS A 135
REMARK  4 active torsions:
REMARK  status: ('A' for Active; 'I' for Inactive)
REMARK    1  A    between atoms: CA   and  CB  
REMARK    2  A    between atoms: CB   and  CG  
REMARK    3  A    between atoms: CG   and  CD  
REMARK    4  A    between atoms: CD   and  CE  
ROOT
ATOM      1  CA  LYS A 135      33.193  34.663   9.290  1.00 25.02     0.186 C 
ENDROOT
BRANCH   1   2
ATOM      2  CB  LYS A 135      32.060  35.360  10.034  1.00 26.63     0.034 C 
BRANCH   2   3
ATOM      3  CG  LYS A 135      30.723  34.687   9.862  1.00 29.45     0.005 C 
BRANCH   3   4
ATOM      4  CD  LYS A 135      30.376  34.552   8.387  1.00 32.00     0.041 C 
BRANCH   4   5
ATOM      5  CE  LYS A 135      29.441  35.665   7.955  1.00 34.25     0.338 C 
ATOM      6  NZ  LYS A 135      28.151  35.118   7.452  1.00 35.99     0.618 N 
ENDBRANCH   4   5
ENDBRANCH   3   4
ENDBRANCH   2   3
ENDBRANCH   1   2
END_RES LYS A 135
BEGIN_RES ARG A 124
REMARK  4 active torsions:
REMARK  status: ('A' for Active; 'I' for Inactive)
REMARK    5  A    between atoms: CA   and  CB  
REMARK    6  A    between atoms: CB   and  CG  
REMARK    7  A    between atoms: CG   and  CD  
REMARK    8  A    between atoms: CD   and  NE  
REMARK       I    between atoms: NE   and  CZ  
ROOT
ATOM      7  CA  ARG A 124      31.045  26.515   9.594  1.00 17.84     0.186 C 
ENDROOT
BRANCH   7   8
ATOM      8  CB  ARG A 124      29.529  26.705   9.647  1.00 16.18     0.036 C 
BRANCH   8   9
ATOM      9  CG  ARG A 124      28.965  27.296  10.989  1.00 16.22     0.029 C 
BRANCH   9  10
ATOM     10  CD  ARG A 124      28.353  26.216  11.910  1.00 15.09     0.145 C 
BRANCH  10  11
ATOM     11  NE  ARG A 124      27.883  26.737  13.212  1.00 16.98    -0.083 NA
ATOM     12  CZ  ARG A 124      26.662  27.207  13.446  1.00 18.21     0.782 C 
ATOM     13  NH1 ARG A 124      25.738  27.232  12.493  1.00 21.11     0.063 N 
ATOM     14  NH2 ARG A 124      26.342  27.640  14.655  1.00 21.25     0.063 N 
ENDBRANCH  10  11
ENDBRANCH   9  10
ENDBRANCH   8   9
ENDBRANCH   7   8
END_RES ARG A 124
BEGIN_RES ASN A 133
REMARK  2 active torsions:
REMARK  status: ('A' for Active; 'I' for Inactive)
REMARK    9  A    between atoms: CA   and  CB  
REMARK   10  A    between atoms: CB   and  CG  
ROOT
ATOM     15  CA  ASN A 133      31.225  30.257  11.749  1.00 18.15     0.196 C 
ENDROOT
BRANCH  15  16
ATOM     16  CB  ASN A 133      30.092  31.240  11.460  1.00 18.27     0.126 C 
BRANCH  16  17
ATOM     17  CG  ASN A 133      28.849  30.958  12.247  1.00 18.94     0.276 C 
ATOM     18  OD1 ASN A 133      28.031  30.118  11.868  1.00 18.09    -0.269 OA
ATOM     19  ND2 ASN A 133      28.693  31.669  13.363  1.00 18.93    -0.107 N 
ENDBRANCH  16  17
ENDBRANCH  15  16
END_RES ASN A 133
BEGIN_RES LYS A 131
REMARK  4 active torsions:
REMARK  status: ('A' for Active; 'I' for Inactive)
REMARK   11  A    between atoms: CA   and  CB  
REMARK   12  A    between atoms: CB   and  CG  
REMARK   13  A    between atoms: CG   and  CD  
REMARK   14  A    between atoms: CD   and  CE  
ROOT
ATOM     20  CA  LYS A 131      29.867  25.555  16.977  1.00 20.52     0.186 C 
ENDROOT
BRANCH  20  21
ATOM     21  CB  LYS A 131      28.345  25.722  17.026  1.00 20.94     0.034 C 
BRANCH  21  22
ATOM     22  CG  LYS A 131      27.600  24.414  16.806  1.00 22.96     0.005 C 
BRANCH  22  23
ATOM     23  CD  LYS A 131      26.289  24.379  17.541  1.00 24.33     0.041 C 
BRANCH  23  24
ATOM     24  CE  LYS A 131      25.925  25.787  18.001  1.00 26.91     0.338 C 
ATOM     25  NZ  LYS A 131      24.602  26.184  17.462  1.00 27.40     0.618 N 
ENDBRANCH  23  24
ENDBRANCH  22  23
ENDBRANCH  21  22
ENDBRANCH  20  21
END_RES LYS A 131
