REMARK VINA RESULT:    -3.709      4.181     12.475
REMARK INTER + INTRA:          -9.783
REMARK INTER:                  -3.982
REMARK INTRA:                  -5.801
REMARK UNBOUND:                -5.966
REMARK SMILES Nc1cnc2ccccc2c1
REMARK SMILES IDX 2 1 3 2 4 3 5 4 6 5 7 6 8 7 9 8 10 9 11 10 1 11
REMARK H PARENT 1 12 1 13
REMARK Flexibility Score: inf
ROOT
ATOM      1  C   UNL     1      27.611  17.640  15.862  1.00  0.00     0.051 A 
ATOM      2  C   UNL     1      27.281  16.617  16.733  1.00  0.00     0.137 A 
ATOM      3  N   UNL     1      26.254  16.703  17.599  1.00  0.00    -0.254 NA
ATOM      4  C   UNL     1      25.467  17.792  17.684  1.00  0.00     0.070 A 
ATOM      5  C   UNL     1      24.417  17.835  18.595  1.00  0.00     0.029 A 
ATOM      6  C   UNL     1      23.618  18.955  18.674  1.00  0.00     0.002 A 
ATOM      7  C   UNL     1      23.901  20.004  17.829  1.00  0.00     0.001 A 
ATOM      8  C   UNL     1      24.943  19.969  16.922  1.00  0.00     0.010 A 
ATOM      9  C   UNL     1      25.751  18.844  16.838  1.00  0.00     0.002 A 
ATOM     10  C   UNL     1      26.808  18.765  15.942  1.00  0.00     0.037 A 
ENDROOT
BRANCH   1  11
ATOM     11  N   UNL     1      28.702  17.545  14.945  1.00  0.00    -0.397 N 
ATOM     12  H   UNL     1      28.492  17.458  13.908  1.00  0.00     0.156 HD
ATOM     13  H   UNL     1      29.692  17.553  15.208  1.00  0.00     0.156 HD
ENDBRANCH   1  11
TORSDOF 1
BEGIN_RES LYS A 135
REMARK  4 active torsions:
REMARK  status: ('A' for Active; 'I' for Inactive)
REMARK    1  A    between atoms: CA   and  CB  
REMARK    2  A    between atoms: CB   and  CG  
REMARK    3  A    between atoms: CG   and  CD  
REMARK    4  A    between atoms: CD   and  CE  
ROOT
ATOM      1  CA  LYS A 135      33.193  34.663   9.290  1.00 25.02     0.186 C 
ENDROOT
BRANCH   1   2
ATOM      2  CB  LYS A 135      32.060  35.360  10.034  1.00 26.63     0.034 C 
BRANCH   2   3
ATOM      3  CG  LYS A 135      30.810  35.527   9.209  1.00 29.45     0.005 C 
BRANCH   3   4
ATOM      4  CD  LYS A 135      30.168  34.177   8.928  1.00 32.00     0.041 C 
BRANCH   4   5
ATOM      5  CE  LYS A 135      28.688  34.340   8.643  1.00 34.25     0.338 C 
ATOM      6  NZ  LYS A 135      27.864  33.648   9.673  1.00 35.99     0.618 N 
ENDBRANCH   4   5
ENDBRANCH   3   4
ENDBRANCH   2   3
ENDBRANCH   1   2
END_RES LYS A 135
BEGIN_RES ARG A 124
REMARK  4 active torsions:
REMARK  status: ('A' for Active; 'I' for Inactive)
REMARK    5  A    between atoms: CA   and  CB  
REMARK    6  A    between atoms: CB   and  CG  
REMARK    7  A    between atoms: CG   and  CD  
REMARK    8  A    between atoms: CD   and  NE  
REMARK       I    between atoms: NE   and  CZ  
ROOT
ATOM      7  CA  ARG A 124      31.045  26.515   9.594  1.00 17.84     0.186 C 
ENDROOT
BRANCH   7   8
ATOM      8  CB  ARG A 124      29.529  26.705   9.647  1.00 16.18     0.036 C 
BRANCH   8   9
ATOM      9  CG  ARG A 124      28.907  26.801  11.086  1.00 16.22     0.029 C 
BRANCH   9  10
ATOM     10  CD  ARG A 124      27.539  26.090  11.197  1.00 15.09     0.145 C 
BRANCH  10  11
ATOM     11  NE  ARG A 124      26.402  27.011  11.420  1.00 16.98    -0.083 NA
ATOM     12  CZ  ARG A 124      26.005  27.454  12.608  1.00 18.21     0.782 C 
ATOM     13  NH1 ARG A 124      26.633  27.098  13.722  1.00 21.11     0.063 N 
ATOM     14  NH2 ARG A 124      24.979  28.287  12.693  1.00 21.25     0.063 N 
ENDBRANCH  10  11
ENDBRANCH   9  10
ENDBRANCH   8   9
ENDBRANCH   7   8
END_RES ARG A 124
BEGIN_RES ASN A 133
REMARK  2 active torsions:
REMARK  status: ('A' for Active; 'I' for Inactive)
REMARK    9  A    between atoms: CA   and  CB  
REMARK   10  A    between atoms: CB   and  CG  
ROOT
ATOM     15  CA  ASN A 133      31.225  30.257  11.749  1.00 18.15     0.196 C 
ENDROOT
BRANCH  15  16
ATOM     16  CB  ASN A 133      30.092  31.240  11.460  1.00 18.27     0.126 C 
BRANCH  16  17
ATOM     17  CG  ASN A 133      28.741  30.595  11.438  1.00 18.94     0.276 C 
ATOM     18  OD1 ASN A 133      28.410  29.836  10.526  1.00 18.09    -0.269 OA
ATOM     19  ND2 ASN A 133      27.935  30.897  12.456  1.00 18.93    -0.107 N 
ENDBRANCH  16  17
ENDBRANCH  15  16
END_RES ASN A 133
BEGIN_RES LYS A 131
REMARK  4 active torsions:
REMARK  status: ('A' for Active; 'I' for Inactive)
REMARK   11  A    between atoms: CA   and  CB  
REMARK   12  A    between atoms: CB   and  CG  
REMARK   13  A    between atoms: CG   and  CD  
REMARK   14  A    between atoms: CD   and  CE  
ROOT
ATOM     20  CA  LYS A 131      29.867  25.555  16.977  1.00 20.52     0.186 C 
ENDROOT
BRANCH  20  21
ATOM     21  CB  LYS A 131      28.345  25.722  17.026  1.00 20.94     0.034 C 
BRANCH  21  22
ATOM     22  CG  LYS A 131      27.600  24.409  16.840  1.00 22.96     0.005 C 
BRANCH  22  23
ATOM     23  CD  LYS A 131      26.153  24.518  17.234  1.00 24.33     0.041 C 
BRANCH  23  24
ATOM     24  CE  LYS A 131      26.035  24.473  18.754  1.00 26.91     0.338 C 
ATOM     25  NZ  LYS A 131      25.502  23.162  19.195  1.00 27.40     0.618 N 
ENDBRANCH  23  24
ENDBRANCH  22  23
ENDBRANCH  21  22
ENDBRANCH  20  21
END_RES LYS A 131
