REMARK VINA RESULT:    -3.349      8.154     15.328
REMARK INTER + INTRA:          -9.629
REMARK INTER:                  -3.974
REMARK INTRA:                  -5.655
REMARK UNBOUND:                -5.594
REMARK SMILES CCOC(=O)c1cccc(N)c1
REMARK SMILES IDX 4 1 5 2 3 3 2 4 1 5 6 6 7 7 12 8 8 9 10 10 9 11 11 12
REMARK H PARENT 11 13 11 14
REMARK Flexibility Score: inf
ROOT
ATOM      1  C   UNL     1      33.692  18.794  22.517  1.00  0.00     0.338 C 
ATOM      2  O   UNL     1      32.794  18.548  21.674  1.00  0.00    -0.246 OA
ENDROOT
BRANCH   1   3
ATOM      3  O   UNL     1      33.304  18.926  23.833  1.00  0.00    -0.462 OA
BRANCH   3   4
ATOM      4  C   UNL     1      32.898  20.111  24.443  1.00  0.00     0.230 C 
ATOM      5  C   UNL     1      34.054  20.945  24.947  1.00  0.00     0.049 C 
ENDBRANCH   3   4
ENDBRANCH   1   3
BRANCH   1   6
ATOM      6  C   UNL     1      35.068  18.922  22.070  1.00  0.00     0.062 A 
ATOM      7  C   UNL     1      35.425  19.993  21.283  1.00  0.00     0.016 A 
ATOM      8  C   UNL     1      36.054  18.020  22.393  1.00  0.00     0.041 A 
ATOM      9  C   UNL     1      36.716  20.181  20.822  1.00  0.00     0.003 A 
ATOM     10  C   UNL     1      37.348  18.188  21.943  1.00  0.00     0.032 A 
ATOM     11  C   UNL     1      37.681  19.269  21.156  1.00  0.00     0.025 A 
BRANCH  10  12
ATOM     12  N   UNL     1      38.382  17.269  22.265  1.00  0.00    -0.399 N 
ATOM     13  H   UNL     1      38.316  16.251  22.100  1.00  0.00     0.156 HD
ATOM     14  H   UNL     1      39.278  17.611  22.696  1.00  0.00     0.156 HD
ENDBRANCH  10  12
ENDBRANCH   1   6
TORSDOF 4
BEGIN_RES LYS A 135
REMARK  4 active torsions:
REMARK  status: ('A' for Active; 'I' for Inactive)
REMARK    1  A    between atoms: CA   and  CB  
REMARK    2  A    between atoms: CB   and  CG  
REMARK    3  A    between atoms: CG   and  CD  
REMARK    4  A    between atoms: CD   and  CE  
ROOT
ATOM      1  CA  LYS A 135      33.193  34.663   9.290  1.00 25.02     0.186 C 
ENDROOT
BRANCH   1   2
ATOM      2  CB  LYS A 135      32.060  35.360  10.034  1.00 26.63     0.034 C 
BRANCH   2   3
ATOM      3  CG  LYS A 135      30.800  35.500   9.219  1.00 29.45     0.005 C 
BRANCH   3   4
ATOM      4  CD  LYS A 135      30.175  34.139   8.958  1.00 32.00     0.041 C 
BRANCH   4   5
ATOM      5  CE  LYS A 135      28.685  34.276   8.709  1.00 34.25     0.338 C 
ATOM      6  NZ  LYS A 135      27.898  33.607   9.781  1.00 35.99     0.618 N 
ENDBRANCH   4   5
ENDBRANCH   3   4
ENDBRANCH   2   3
ENDBRANCH   1   2
END_RES LYS A 135
BEGIN_RES ARG A 124
REMARK  4 active torsions:
REMARK  status: ('A' for Active; 'I' for Inactive)
REMARK    5  A    between atoms: CA   and  CB  
REMARK    6  A    between atoms: CB   and  CG  
REMARK    7  A    between atoms: CG   and  CD  
REMARK    8  A    between atoms: CD   and  NE  
REMARK       I    between atoms: NE   and  CZ  
ROOT
ATOM      7  CA  ARG A 124      31.045  26.515   9.594  1.00 17.84     0.186 C 
ENDROOT
BRANCH   7   8
ATOM      8  CB  ARG A 124      29.529  26.705   9.647  1.00 16.18     0.036 C 
BRANCH   8   9
ATOM      9  CG  ARG A 124      29.023  27.880  10.559  1.00 16.22     0.029 C 
BRANCH   9  10
ATOM     10  CD  ARG A 124      28.346  27.383  11.856  1.00 15.09     0.145 C 
BRANCH  10  11
ATOM     11  NE  ARG A 124      26.882  27.592  11.885  1.00 16.98    -0.083 NA
ATOM     12  CZ  ARG A 124      26.121  27.494  12.970  1.00 18.21     0.782 C 
ATOM     13  NH1 ARG A 124      26.643  27.202  14.155  1.00 21.11     0.063 N 
ATOM     14  NH2 ARG A 124      24.818  27.714  12.885  1.00 21.25     0.063 N 
ENDBRANCH  10  11
ENDBRANCH   9  10
ENDBRANCH   8   9
ENDBRANCH   7   8
END_RES ARG A 124
BEGIN_RES ASN A 133
REMARK  2 active torsions:
REMARK  status: ('A' for Active; 'I' for Inactive)
REMARK    9  A    between atoms: CA   and  CB  
REMARK   10  A    between atoms: CB   and  CG  
ROOT
ATOM     15  CA  ASN A 133      31.225  30.257  11.749  1.00 18.15     0.196 C 
ENDROOT
BRANCH  15  16
ATOM     16  CB  ASN A 133      30.092  31.240  11.460  1.00 18.27     0.126 C 
BRANCH  16  17
ATOM     17  CG  ASN A 133      29.163  31.430  12.619  1.00 18.94     0.276 C 
ATOM     18  OD1 ASN A 133      28.178  30.705  12.773  1.00 18.09    -0.269 OA
ATOM     19  ND2 ASN A 133      29.470  32.420  13.456  1.00 18.93    -0.107 N 
ENDBRANCH  16  17
ENDBRANCH  15  16
END_RES ASN A 133
BEGIN_RES LYS A 131
REMARK  4 active torsions:
REMARK  status: ('A' for Active; 'I' for Inactive)
REMARK   11  A    between atoms: CA   and  CB  
REMARK   12  A    between atoms: CB   and  CG  
REMARK   13  A    between atoms: CG   and  CD  
REMARK   14  A    between atoms: CD   and  CE  
ROOT
ATOM     20  CA  LYS A 131      29.867  25.555  16.977  1.00 20.52     0.186 C 
ENDROOT
BRANCH  20  21
ATOM     21  CB  LYS A 131      28.345  25.722  17.026  1.00 20.94     0.034 C 
BRANCH  21  22
ATOM     22  CG  LYS A 131      27.600  24.409  16.842  1.00 22.96     0.005 C 
BRANCH  22  23
ATOM     23  CD  LYS A 131      26.157  24.514  17.249  1.00 24.33     0.041 C 
BRANCH  23  24
ATOM     24  CE  LYS A 131      25.832  23.423  18.264  1.00 26.91     0.338 C 
ATOM     25  NZ  LYS A 131      25.056  22.334  17.625  1.00 27.40     0.618 N 
ENDBRANCH  23  24
ENDBRANCH  22  23
ENDBRANCH  21  22
ENDBRANCH  20  21
END_RES LYS A 131
