REMARK VINA RESULT:    -2.101      5.736     10.629
REMARK INTER + INTRA:          -7.842
REMARK INTER:                  -2.604
REMARK INTRA:                  -5.238
REMARK UNBOUND:                -5.495
REMARK SMILES CC(C)(N)CO
REMARK SMILES IDX 2 1 1 2 3 3 4 4 5 7 6 8
REMARK H PARENT 4 5 4 6 6 9
REMARK Flexibility Score: inf
ROOT
ATOM      1  C   UNL     1      38.788  34.524  15.202  1.00  0.00     0.033 C 
ATOM      2  C   UNL     1      37.811  33.885  14.234  1.00  0.00     0.030 C 
ATOM      3  C   UNL     1      38.622  36.030  15.244  1.00  0.00     0.030 C 
ENDROOT
BRANCH   1   4
ATOM      4  N   UNL     1      40.107  34.225  14.769  1.00  0.00    -0.324 NA
ATOM      5  H   UNL     1      40.822  34.150  15.497  1.00  0.00     0.119 HD
ATOM      6  H   UNL     1      40.399  34.911  14.012  1.00  0.00     0.119 HD
ENDBRANCH   1   4
BRANCH   1   7
ATOM      7  C   UNL     1      38.513  34.043  16.621  1.00  0.00     0.177 C 
BRANCH   7   8
ATOM      8  O   UNL     1      39.243  32.912  16.941  1.00  0.00    -0.394 OA
ATOM      9  H   UNL     1      38.649  32.144  17.140  1.00  0.00     0.210 HD
ENDBRANCH   7   8
ENDBRANCH   1   7
TORSDOF 3
BEGIN_RES LYS A 135
REMARK  4 active torsions:
REMARK  status: ('A' for Active; 'I' for Inactive)
REMARK    1  A    between atoms: CA   and  CB  
REMARK    2  A    between atoms: CB   and  CG  
REMARK    3  A    between atoms: CG   and  CD  
REMARK    4  A    between atoms: CD   and  CE  
ROOT
ATOM      1  CA  LYS A 135      33.193  34.663   9.290  1.00 25.02     0.186 C 
ENDROOT
BRANCH   1   2
ATOM      2  CB  LYS A 135      32.060  35.360  10.034  1.00 26.63     0.034 C 
BRANCH   2   3
ATOM      3  CG  LYS A 135      30.803  35.506   9.216  1.00 29.45     0.005 C 
BRANCH   3   4
ATOM      4  CD  LYS A 135      30.174  34.147   8.951  1.00 32.00     0.041 C 
BRANCH   4   5
ATOM      5  CE  LYS A 135      28.686  34.289   8.696  1.00 34.25     0.338 C 
ATOM      6  NZ  LYS A 135      27.892  33.602   9.752  1.00 35.99     0.618 N 
ENDBRANCH   4   5
ENDBRANCH   3   4
ENDBRANCH   2   3
ENDBRANCH   1   2
END_RES LYS A 135
BEGIN_RES ARG A 124
REMARK  4 active torsions:
REMARK  status: ('A' for Active; 'I' for Inactive)
REMARK    5  A    between atoms: CA   and  CB  
REMARK    6  A    between atoms: CB   and  CG  
REMARK    7  A    between atoms: CG   and  CD  
REMARK    8  A    between atoms: CD   and  NE  
REMARK       I    between atoms: NE   and  CZ  
ROOT
ATOM      7  CA  ARG A 124      31.045  26.515   9.594  1.00 17.84     0.186 C 
ENDROOT
BRANCH   7   8
ATOM      8  CB  ARG A 124      29.529  26.705   9.647  1.00 16.18     0.036 C 
BRANCH   8   9
ATOM      9  CG  ARG A 124      29.025  27.901  10.532  1.00 16.22     0.029 C 
BRANCH   9  10
ATOM     10  CD  ARG A 124      28.350  27.435  11.842  1.00 15.09     0.145 C 
BRANCH  10  11
ATOM     11  NE  ARG A 124      27.347  28.385  12.369  1.00 16.98    -0.083 NA
ATOM     12  CZ  ARG A 124      26.035  28.172  12.391  1.00 18.21     0.782 C 
ATOM     13  NH1 ARG A 124      25.513  27.039  11.936  1.00 21.11     0.063 N 
ATOM     14  NH2 ARG A 124      25.225  29.088  12.897  1.00 21.25     0.063 N 
ENDBRANCH  10  11
ENDBRANCH   9  10
ENDBRANCH   8   9
ENDBRANCH   7   8
END_RES ARG A 124
BEGIN_RES ASN A 133
REMARK  2 active torsions:
REMARK  status: ('A' for Active; 'I' for Inactive)
REMARK    9  A    between atoms: CA   and  CB  
REMARK   10  A    between atoms: CB   and  CG  
ROOT
ATOM     15  CA  ASN A 133      31.225  30.257  11.749  1.00 18.15     0.196 C 
ENDROOT
BRANCH  15  16
ATOM     16  CB  ASN A 133      30.092  31.240  11.460  1.00 18.27     0.126 C 
BRANCH  16  17
ATOM     17  CG  ASN A 133      29.446  31.779  12.699  1.00 18.94     0.276 C 
ATOM     18  OD1 ASN A 133      28.625  31.112  13.332  1.00 18.09    -0.269 OA
ATOM     19  ND2 ASN A 133      29.812  33.008  13.060  1.00 18.93    -0.107 N 
ENDBRANCH  16  17
ENDBRANCH  15  16
END_RES ASN A 133
BEGIN_RES LYS A 131
REMARK  4 active torsions:
REMARK  status: ('A' for Active; 'I' for Inactive)
REMARK   11  A    between atoms: CA   and  CB  
REMARK   12  A    between atoms: CB   and  CG  
REMARK   13  A    between atoms: CG   and  CD  
REMARK   14  A    between atoms: CD   and  CE  
ROOT
ATOM     20  CA  LYS A 131      29.867  25.555  16.977  1.00 20.52     0.186 C 
ENDROOT
BRANCH  20  21
ATOM     21  CB  LYS A 131      28.345  25.722  17.026  1.00 20.94     0.034 C 
BRANCH  21  22
ATOM     22  CG  LYS A 131      27.711  25.768  15.644  1.00 22.96     0.005 C 
BRANCH  22  23
ATOM     23  CD  LYS A 131      26.625  26.803  15.553  1.00 24.33     0.041 C 
BRANCH  23  24
ATOM     24  CE  LYS A 131      26.877  27.897  16.586  1.00 26.91     0.338 C 
ATOM     25  NZ  LYS A 131      27.128  29.195  15.916  1.00 27.40     0.618 N 
ENDBRANCH  23  24
ENDBRANCH  22  23
ENDBRANCH  21  22
ENDBRANCH  20  21
END_RES LYS A 131
