REMARK VINA RESULT:    -3.871      8.959     14.937
REMARK INTER + INTRA:          -9.669
REMARK INTER:                  -4.477
REMARK INTRA:                  -5.191
REMARK UNBOUND:                -5.346
REMARK SMILES Nc1ccc(S(N)(=O)=O)cc1
REMARK SMILES IDX 5 1 4 2 3 3 2 4 11 5 10 6 6 7 8 8 9 9 7 10 1 13
REMARK H PARENT 7 11 7 12 1 14 1 15
REMARK Flexibility Score: inf
ROOT
ATOM      1  C   UNL     1      25.528  35.852   8.716  1.00  0.00     0.082 A 
ATOM      2  C   UNL     1      26.420  34.800   8.706  1.00  0.00     0.024 A 
ATOM      3  C   UNL     1      27.524  34.808   7.878  1.00  0.00     0.027 A 
ATOM      4  C   UNL     1      27.797  35.855   7.022  1.00  0.00     0.031 A 
ATOM      5  C   UNL     1      26.897  36.900   7.043  1.00  0.00     0.027 A 
ATOM      6  C   UNL     1      25.788  36.907   7.865  1.00  0.00     0.024 A 
ENDROOT
BRANCH   1   7
ATOM      7  S   UNL     1      24.129  35.838   9.768  1.00  0.00     0.238 S 
ATOM      8  O   UNL     1      24.428  35.106  11.061  1.00  0.00    -0.207 OA
ATOM      9  O   UNL     1      23.749  37.247  10.181  1.00  0.00    -0.207 OA
BRANCH   7  10
ATOM     10  N   UNL     1      22.770  35.102   9.057  1.00  0.00    -0.225 NA
ATOM     11  H   UNL     1      22.773  34.055   9.227  1.00  0.00     0.137 HD
ATOM     12  H   UNL     1      22.774  35.205   8.017  1.00  0.00     0.137 HD
ENDBRANCH   7  10
ENDBRANCH   1   7
BRANCH   4  13
ATOM     13  N   UNL     1      28.942  35.851   6.172  1.00  0.00    -0.399 N 
ATOM     14  H   UNL     1      29.772  36.463   6.336  1.00  0.00     0.156 HD
ATOM     15  H   UNL     1      28.977  35.227   5.354  1.00  0.00     0.156 HD
ENDBRANCH   4  13
TORSDOF 3
BEGIN_RES LYS A 135
REMARK  4 active torsions:
REMARK  status: ('A' for Active; 'I' for Inactive)
REMARK    1  A    between atoms: CA   and  CB  
REMARK    2  A    between atoms: CB   and  CG  
REMARK    3  A    between atoms: CG   and  CD  
REMARK    4  A    between atoms: CD   and  CE  
ROOT
ATOM      1  CA  LYS A 135      33.193  34.663   9.290  1.00 25.02     0.186 C 
ENDROOT
BRANCH   1   2
ATOM      2  CB  LYS A 135      32.060  35.360  10.034  1.00 26.63     0.034 C 
BRANCH   2   3
ATOM      3  CG  LYS A 135      30.689  34.902   9.609  1.00 29.45     0.005 C 
BRANCH   3   4
ATOM      4  CD  LYS A 135      29.736  34.888  10.795  1.00 32.00     0.041 C 
BRANCH   4   5
ATOM      5  CE  LYS A 135      30.509  34.939  12.099  1.00 34.25     0.338 C 
ATOM      6  NZ  LYS A 135      29.711  34.366  13.219  1.00 35.99     0.618 N 
ENDBRANCH   4   5
ENDBRANCH   3   4
ENDBRANCH   2   3
ENDBRANCH   1   2
END_RES LYS A 135
BEGIN_RES ARG A 124
REMARK  4 active torsions:
REMARK  status: ('A' for Active; 'I' for Inactive)
REMARK    5  A    between atoms: CA   and  CB  
REMARK    6  A    between atoms: CB   and  CG  
REMARK    7  A    between atoms: CG   and  CD  
REMARK    8  A    between atoms: CD   and  NE  
REMARK       I    between atoms: NE   and  CZ  
ROOT
ATOM      7  CA  ARG A 124      31.045  26.515   9.594  1.00 17.84     0.186 C 
ENDROOT
BRANCH   7   8
ATOM      8  CB  ARG A 124      29.529  26.705   9.647  1.00 16.18     0.036 C 
BRANCH   8   9
ATOM      9  CG  ARG A 124      28.906  26.793  11.086  1.00 16.22     0.029 C 
BRANCH   9  10
ATOM     10  CD  ARG A 124      27.540  26.077  11.193  1.00 15.09     0.145 C 
BRANCH  10  11
ATOM     11  NE  ARG A 124      26.397  26.995  11.394  1.00 16.98    -0.083 NA
ATOM     12  CZ  ARG A 124      26.005  27.474  12.570  1.00 18.21     0.782 C 
ATOM     13  NH1 ARG A 124      26.644  27.160  13.690  1.00 21.11     0.063 N 
ATOM     14  NH2 ARG A 124      24.973  28.301  12.636  1.00 21.25     0.063 N 
ENDBRANCH  10  11
ENDBRANCH   9  10
ENDBRANCH   8   9
ENDBRANCH   7   8
END_RES ARG A 124
BEGIN_RES ASN A 133
REMARK  2 active torsions:
REMARK  status: ('A' for Active; 'I' for Inactive)
REMARK    9  A    between atoms: CA   and  CB  
REMARK   10  A    between atoms: CB   and  CG  
ROOT
ATOM     15  CA  ASN A 133      31.225  30.257  11.749  1.00 18.15     0.196 C 
ENDROOT
BRANCH  15  16
ATOM     16  CB  ASN A 133      30.092  31.240  11.460  1.00 18.27     0.126 C 
BRANCH  16  17
ATOM     17  CG  ASN A 133      28.732  30.620  11.554  1.00 18.94     0.276 C 
ATOM     18  OD1 ASN A 133      28.335  29.822  10.703  1.00 18.09    -0.269 OA
ATOM     19  ND2 ASN A 133      27.996  30.986  12.602  1.00 18.93    -0.107 N 
ENDBRANCH  16  17
ENDBRANCH  15  16
END_RES ASN A 133
BEGIN_RES LYS A 131
REMARK  4 active torsions:
REMARK  status: ('A' for Active; 'I' for Inactive)
REMARK   11  A    between atoms: CA   and  CB  
REMARK   12  A    between atoms: CB   and  CG  
REMARK   13  A    between atoms: CG   and  CD  
REMARK   14  A    between atoms: CD   and  CE  
ROOT
ATOM     20  CA  LYS A 131      29.867  25.555  16.977  1.00 20.52     0.186 C 
ENDROOT
BRANCH  20  21
ATOM     21  CB  LYS A 131      28.345  25.722  17.026  1.00 20.94     0.034 C 
BRANCH  21  22
ATOM     22  CG  LYS A 131      27.600  24.414  16.808  1.00 22.96     0.005 C 
BRANCH  22  23
ATOM     23  CD  LYS A 131      26.723  24.060  17.977  1.00 24.33     0.041 C 
BRANCH  23  24
ATOM     24  CE  LYS A 131      25.303  23.798  17.487  1.00 26.91     0.338 C 
ATOM     25  NZ  LYS A 131      24.987  22.352  17.561  1.00 27.40     0.618 N 
ENDBRANCH  23  24
ENDBRANCH  22  23
ENDBRANCH  21  22
ENDBRANCH  20  21
END_RES LYS A 131
