REMARK VINA RESULT:    -5.509      7.029      9.603
REMARK INTER + INTRA:         -11.279
REMARK INTER:                  -6.061
REMARK INTRA:                  -5.218
REMARK UNBOUND:                -4.804
REMARK SMILES Nc1ccc(S(=O)(=O)c2ccc(N)cc2)cc1
REMARK SMILES IDX 6 1 7 2 8 3 5 4 2 5 3 6 17 7 4 8 16 9 1 10 9 13 10 14 15 15
REMARK SMILES IDX 11 16 14 17 12 18 13 19
REMARK H PARENT 1 11 1 12 13 20 13 21
REMARK Flexibility Score: inf
ROOT
ATOM      1  S   UNL     1      26.666  35.782  11.220  1.00  0.00     0.206 S 
ATOM      2  O   UNL     1      25.796  34.584  11.463  1.00  0.00    -0.219 OA
ATOM      3  O   UNL     1      26.046  36.943  11.945  1.00  0.00    -0.219 OA
ENDROOT
BRANCH   1   4
ATOM      4  C   UNL     1      28.212  35.470  11.969  1.00  0.00     0.072 A 
ATOM      5  C   UNL     1      30.684  34.903  13.165  1.00  0.00     0.031 A 
ATOM      6  C   UNL     1      30.247  36.208  13.023  1.00  0.00     0.027 A 
ATOM      7  C   UNL     1      29.879  33.883  12.707  1.00  0.00     0.027 A 
ATOM      8  C   UNL     1      29.030  36.482  12.434  1.00  0.00     0.023 A 
ATOM      9  C   UNL     1      28.672  34.171  12.124  1.00  0.00     0.023 A 
BRANCH   5  10
ATOM     10  N   UNL     1      31.941  34.664  13.775  1.00  0.00    -0.399 N 
ATOM     11  H   UNL     1      32.300  33.703  13.948  1.00  0.00     0.156 HD
ATOM     12  H   UNL     1      32.552  35.457  14.070  1.00  0.00     0.156 HD
ENDBRANCH   5  10
ENDBRANCH   1   4
BRANCH   1  13
ATOM     13  C   UNL     1      26.846  36.114   9.507  1.00  0.00     0.072 A 
ATOM     14  C   UNL     1      26.714  37.392   9.002  1.00  0.00     0.023 A 
ATOM     15  C   UNL     1      27.124  35.108   8.603  1.00  0.00     0.023 A 
ATOM     16  C   UNL     1      26.855  37.652   7.655  1.00  0.00     0.027 A 
ATOM     17  C   UNL     1      27.265  35.368   7.254  1.00  0.00     0.027 A 
ATOM     18  C   UNL     1      27.134  36.647   6.752  1.00  0.00     0.031 A 
BRANCH  18  19
ATOM     19  N   UNL     1      27.276  36.938   5.362  1.00  0.00    -0.399 N 
ATOM     20  H   UNL     1      26.445  37.305   4.862  1.00  0.00     0.156 HD
ATOM     21  H   UNL     1      28.158  36.803   4.833  1.00  0.00     0.156 HD
ENDBRANCH  18  19
ENDBRANCH   1  13
TORSDOF 4
BEGIN_RES LYS A 135
REMARK  4 active torsions:
REMARK  status: ('A' for Active; 'I' for Inactive)
REMARK    1  A    between atoms: CA   and  CB  
REMARK    2  A    between atoms: CB   and  CG  
REMARK    3  A    between atoms: CG   and  CD  
REMARK    4  A    between atoms: CD   and  CE  
ROOT
ATOM      1  CA  LYS A 135      33.193  34.663   9.290  1.00 25.02     0.186 C 
ENDROOT
BRANCH   1   2
ATOM      2  CB  LYS A 135      32.060  35.360  10.034  1.00 26.63     0.034 C 
BRANCH   2   3
ATOM      3  CG  LYS A 135      30.751  35.348   9.287  1.00 29.45     0.005 C 
BRANCH   3   4
ATOM      4  CD  LYS A 135      30.415  36.738   8.770  1.00 32.00     0.041 C 
BRANCH   4   5
ATOM      5  CE  LYS A 135      31.065  37.800   9.637  1.00 34.25     0.338 C 
ATOM      6  NZ  LYS A 135      30.110  38.900   9.945  1.00 35.99     0.618 N 
ENDBRANCH   4   5
ENDBRANCH   3   4
ENDBRANCH   2   3
ENDBRANCH   1   2
END_RES LYS A 135
BEGIN_RES ARG A 124
REMARK  4 active torsions:
REMARK  status: ('A' for Active; 'I' for Inactive)
REMARK    5  A    between atoms: CA   and  CB  
REMARK    6  A    between atoms: CB   and  CG  
REMARK    7  A    between atoms: CG   and  CD  
REMARK    8  A    between atoms: CD   and  NE  
REMARK       I    between atoms: NE   and  CZ  
ROOT
ATOM      7  CA  ARG A 124      31.045  26.515   9.594  1.00 17.84     0.186 C 
ENDROOT
BRANCH   7   8
ATOM      8  CB  ARG A 124      29.529  26.705   9.647  1.00 16.18     0.036 C 
BRANCH   8   9
ATOM      9  CG  ARG A 124      28.914  26.861  11.084  1.00 16.22     0.029 C 
BRANCH   9  10
ATOM     10  CD  ARG A 124      27.570  26.115  11.246  1.00 15.09     0.145 C 
BRANCH  10  11
ATOM     11  NE  ARG A 124      26.410  27.010  11.450  1.00 16.98    -0.083 NA
ATOM     12  CZ  ARG A 124      26.013  27.483  12.627  1.00 18.21     0.782 C 
ATOM     13  NH1 ARG A 124      26.663  27.184  13.745  1.00 21.11     0.063 N 
ATOM     14  NH2 ARG A 124      24.965  28.288  12.696  1.00 21.25     0.063 N 
ENDBRANCH  10  11
ENDBRANCH   9  10
ENDBRANCH   8   9
ENDBRANCH   7   8
END_RES ARG A 124
BEGIN_RES ASN A 133
REMARK  2 active torsions:
REMARK  status: ('A' for Active; 'I' for Inactive)
REMARK    9  A    between atoms: CA   and  CB  
REMARK   10  A    between atoms: CB   and  CG  
ROOT
ATOM     15  CA  ASN A 133      31.225  30.257  11.749  1.00 18.15     0.196 C 
ENDROOT
BRANCH  15  16
ATOM     16  CB  ASN A 133      30.092  31.240  11.460  1.00 18.27     0.126 C 
BRANCH  16  17
ATOM     17  CG  ASN A 133      28.745  30.589  11.400  1.00 18.94     0.276 C 
ATOM     18  OD1 ASN A 133      28.408  29.907  10.430  1.00 18.09    -0.269 OA
ATOM     19  ND2 ASN A 133      27.950  30.797  12.449  1.00 18.93    -0.107 N 
ENDBRANCH  16  17
ENDBRANCH  15  16
END_RES ASN A 133
BEGIN_RES LYS A 131
REMARK  4 active torsions:
REMARK  status: ('A' for Active; 'I' for Inactive)
REMARK   11  A    between atoms: CA   and  CB  
REMARK   12  A    between atoms: CB   and  CG  
REMARK   13  A    between atoms: CG   and  CD  
REMARK   14  A    between atoms: CD   and  CE  
ROOT
ATOM     20  CA  LYS A 131      29.867  25.555  16.977  1.00 20.52     0.186 C 
ENDROOT
BRANCH  20  21
ATOM     21  CB  LYS A 131      28.345  25.722  17.026  1.00 20.94     0.034 C 
BRANCH  21  22
ATOM     22  CG  LYS A 131      27.600  24.414  16.810  1.00 22.96     0.005 C 
BRANCH  22  23
ATOM     23  CD  LYS A 131      26.728  24.059  17.982  1.00 24.33     0.041 C 
BRANCH  23  24
ATOM     24  CE  LYS A 131      25.728  22.985  17.566  1.00 26.91     0.338 C 
ATOM     25  NZ  LYS A 131      24.364  23.557  17.466  1.00 27.40     0.618 N 
ENDBRANCH  23  24
ENDBRANCH  22  23
ENDBRANCH  21  22
ENDBRANCH  20  21
END_RES LYS A 131
