REMARK VINA RESULT:    -3.047      4.291      6.166
REMARK INTER + INTRA:          -8.264
REMARK INTER:                  -2.675
REMARK INTRA:                  -5.589
REMARK UNBOUND:                -4.861
REMARK SMILES NCC(=O)O
REMARK SMILES IDX 2 1 1 2 3 5 4 6 5 7
REMARK H PARENT 1 3 1 4 5 8
REMARK Flexibility Score: inf
ROOT
ATOM      1  C   UNL     1      31.414  27.026  21.063  1.00  0.00     0.201 C 
ENDROOT
BRANCH   1   2
ATOM      2  N   UNL     1      32.121  27.366  19.854  1.00  0.00    -0.321 NA
ATOM      3  H   UNL     1      31.591  27.026  19.032  1.00  0.00     0.119 HD
ATOM      4  H   UNL     1      33.114  27.086  19.867  1.00  0.00     0.119 HD
ENDBRANCH   1   2
BRANCH   1   5
ATOM      5  C   UNL     1      29.993  27.436  21.005  1.00  0.00     0.317 C 
ATOM      6  O   UNL     1      29.589  28.306  21.822  1.00  0.00    -0.251 OA
BRANCH   5   7
ATOM      7  O   UNL     1      29.138  26.873  20.076  1.00  0.00    -0.480 OA
ATOM      8  H   UNL     1      28.746  25.931  20.202  1.00  0.00     0.296 HD
ENDBRANCH   5   7
ENDBRANCH   1   5
TORSDOF 3
BEGIN_RES LYS A 135
REMARK  4 active torsions:
REMARK  status: ('A' for Active; 'I' for Inactive)
REMARK    1  A    between atoms: CA   and  CB  
REMARK    2  A    between atoms: CB   and  CG  
REMARK    3  A    between atoms: CG   and  CD  
REMARK    4  A    between atoms: CD   and  CE  
ROOT
ATOM      1  CA  LYS A 135      33.193  34.663   9.290  1.00 25.02     0.186 C 
ENDROOT
BRANCH   1   2
ATOM      2  CB  LYS A 135      32.060  35.360  10.034  1.00 26.63     0.034 C 
BRANCH   2   3
ATOM      3  CG  LYS A 135      30.844  35.612   9.181  1.00 29.45     0.005 C 
BRANCH   3   4
ATOM      4  CD  LYS A 135      30.236  34.299   8.712  1.00 32.00     0.041 C 
BRANCH   4   5
ATOM      5  CE  LYS A 135      28.731  34.428   8.574  1.00 34.25     0.338 C 
ATOM      6  NZ  LYS A 135      28.026  33.661   9.639  1.00 35.99     0.618 N 
ENDBRANCH   4   5
ENDBRANCH   3   4
ENDBRANCH   2   3
ENDBRANCH   1   2
END_RES LYS A 135
BEGIN_RES ARG A 124
REMARK  4 active torsions:
REMARK  status: ('A' for Active; 'I' for Inactive)
REMARK    5  A    between atoms: CA   and  CB  
REMARK    6  A    between atoms: CB   and  CG  
REMARK    7  A    between atoms: CG   and  CD  
REMARK    8  A    between atoms: CD   and  NE  
REMARK       I    between atoms: NE   and  CZ  
ROOT
ATOM      7  CA  ARG A 124      31.045  26.515   9.594  1.00 17.84     0.186 C 
ENDROOT
BRANCH   7   8
ATOM      8  CB  ARG A 124      29.529  26.705   9.647  1.00 16.18     0.036 C 
BRANCH   8   9
ATOM      9  CG  ARG A 124      28.972  27.353  10.965  1.00 16.22     0.029 C 
BRANCH   9  10
ATOM     10  CD  ARG A 124      28.421  26.306  11.961  1.00 15.09     0.145 C 
BRANCH  10  11
ATOM     11  NE  ARG A 124      27.986  26.881  13.253  1.00 16.98    -0.083 NA
ATOM     12  CZ  ARG A 124      26.754  27.298  13.523  1.00 18.21     0.782 C 
ATOM     13  NH1 ARG A 124      25.783  27.213  12.621  1.00 21.11     0.063 N 
ATOM     14  NH2 ARG A 124      26.469  27.788  14.720  1.00 21.25     0.063 N 
ENDBRANCH  10  11
ENDBRANCH   9  10
ENDBRANCH   8   9
ENDBRANCH   7   8
END_RES ARG A 124
BEGIN_RES ASN A 133
REMARK  2 active torsions:
REMARK  status: ('A' for Active; 'I' for Inactive)
REMARK    9  A    between atoms: CA   and  CB  
REMARK   10  A    between atoms: CB   and  CG  
ROOT
ATOM     15  CA  ASN A 133      31.225  30.257  11.749  1.00 18.15     0.196 C 
ENDROOT
BRANCH  15  16
ATOM     16  CB  ASN A 133      30.092  31.240  11.460  1.00 18.27     0.126 C 
BRANCH  16  17
ATOM     17  CG  ASN A 133      28.939  31.109  12.406  1.00 18.94     0.276 C 
ATOM     18  OD1 ASN A 133      28.038  30.292  12.206  1.00 18.09    -0.269 OA
ATOM     19  ND2 ASN A 133      28.955  31.924  13.461  1.00 18.93    -0.107 N 
ENDBRANCH  16  17
ENDBRANCH  15  16
END_RES ASN A 133
BEGIN_RES LYS A 131
REMARK  4 active torsions:
REMARK  status: ('A' for Active; 'I' for Inactive)
REMARK   11  A    between atoms: CA   and  CB  
REMARK   12  A    between atoms: CB   and  CG  
REMARK   13  A    between atoms: CG   and  CD  
REMARK   14  A    between atoms: CD   and  CE  
ROOT
ATOM     20  CA  LYS A 131      29.867  25.555  16.977  1.00 20.52     0.186 C 
ENDROOT
BRANCH  20  21
ATOM     21  CB  LYS A 131      28.345  25.722  17.026  1.00 20.94     0.034 C 
BRANCH  21  22
ATOM     22  CG  LYS A 131      27.599  24.419  16.784  1.00 22.96     0.005 C 
BRANCH  22  23
ATOM     23  CD  LYS A 131      26.783  24.004  17.976  1.00 24.33     0.041 C 
BRANCH  23  24
ATOM     24  CE  LYS A 131      25.343  23.747  17.542  1.00 26.91     0.338 C 
ATOM     25  NZ  LYS A 131      25.048  22.295  17.557  1.00 27.40     0.618 N 
ENDBRANCH  23  24
ENDBRANCH  22  23
ENDBRANCH  21  22
ENDBRANCH  20  21
END_RES LYS A 131
