REMARK VINA RESULT:    -4.342      6.821     14.034
REMARK INTER + INTRA:         -10.048
REMARK INTER:                  -4.274
REMARK INTRA:                  -5.774
REMARK UNBOUND:                -5.325
REMARK SMILES CC1(C)C2CC=C(CN)C1C2
REMARK SMILES IDX 8 1 7 2 1 3 2 4 3 5 10 6 4 7 11 8 5 9 6 10 9 11
REMARK H PARENT 9 12 9 13
REMARK Flexibility Score: inf
ROOT
ATOM      1  C   UNL     1      33.254  17.985  21.685  1.00  0.00     0.109 C 
ENDROOT
BRANCH   1   2
ATOM      2  C   UNL     1      34.382  18.809  22.201  1.00  0.00    -0.057 C 
ATOM      3  C   UNL     1      37.949  19.350  21.038  1.00  0.00     0.012 C 
ATOM      4  C   UNL     1      36.575  19.759  21.519  1.00  0.00    -0.026 C 
ATOM      5  C   UNL     1      35.865  20.714  20.640  1.00  0.00     0.012 C 
ATOM      6  C   UNL     1      35.798  18.497  21.898  1.00  0.00     0.022 C 
ATOM      7  C   UNL     1      36.595  20.080  22.993  1.00  0.00    -0.000 C 
ATOM      8  C   UNL     1      36.548  18.575  23.236  1.00  0.00     0.013 C 
ATOM      9  C   UNL     1      35.293  20.653  23.477  1.00  0.00     0.031 C 
ATOM     10  C   UNL     1      34.153  19.870  22.963  1.00  0.00    -0.026 C 
ENDBRANCH   1   2
BRANCH   1  11
ATOM     11  N   UNL     1      32.028  18.736  21.905  1.00  0.00    -0.327 NA
ATOM     12  H   UNL     1      32.245  19.641  22.376  1.00  0.00     0.119 HD
ATOM     13  H   UNL     1      31.341  18.147  22.386  1.00  0.00     0.119 HD
ENDBRANCH   1  11
TORSDOF 2
BEGIN_RES LYS A 135
REMARK  4 active torsions:
REMARK  status: ('A' for Active; 'I' for Inactive)
REMARK    1  A    between atoms: CA   and  CB  
REMARK    2  A    between atoms: CB   and  CG  
REMARK    3  A    between atoms: CG   and  CD  
REMARK    4  A    between atoms: CD   and  CE  
ROOT
ATOM      1  CA  LYS A 135      33.193  34.663   9.290  1.00 25.02     0.186 C 
ENDROOT
BRANCH   1   2
ATOM      2  CB  LYS A 135      32.060  35.360  10.034  1.00 26.63     0.034 C 
BRANCH   2   3
ATOM      3  CG  LYS A 135      30.848  35.622   9.177  1.00 29.45     0.005 C 
BRANCH   3   4
ATOM      4  CD  LYS A 135      30.239  34.315   8.695  1.00 32.00     0.041 C 
BRANCH   4   5
ATOM      5  CE  LYS A 135      28.786  34.515   8.309  1.00 34.25     0.338 C 
ATOM      6  NZ  LYS A 135      28.666  35.361   7.090  1.00 35.99     0.618 N 
ENDBRANCH   4   5
ENDBRANCH   3   4
ENDBRANCH   2   3
ENDBRANCH   1   2
END_RES LYS A 135
BEGIN_RES ARG A 124
REMARK  4 active torsions:
REMARK  status: ('A' for Active; 'I' for Inactive)
REMARK    5  A    between atoms: CA   and  CB  
REMARK    6  A    between atoms: CB   and  CG  
REMARK    7  A    between atoms: CG   and  CD  
REMARK    8  A    between atoms: CD   and  NE  
REMARK       I    between atoms: NE   and  CZ  
ROOT
ATOM      7  CA  ARG A 124      31.045  26.515   9.594  1.00 17.84     0.186 C 
ENDROOT
BRANCH   7   8
ATOM      8  CB  ARG A 124      29.529  26.705   9.647  1.00 16.18     0.036 C 
BRANCH   8   9
ATOM      9  CG  ARG A 124      28.911  26.837  11.085  1.00 16.22     0.029 C 
BRANCH   9  10
ATOM     10  CD  ARG A 124      27.565  26.091  11.230  1.00 15.09     0.145 C 
BRANCH  10  11
ATOM     11  NE  ARG A 124      26.404  26.987  11.427  1.00 16.98    -0.083 NA
ATOM     12  CZ  ARG A 124      26.003  27.464  12.600  1.00 18.21     0.782 C 
ATOM     13  NH1 ARG A 124      26.649  27.170  13.722  1.00 21.11     0.063 N 
ATOM     14  NH2 ARG A 124      24.954  28.270  12.663  1.00 21.25     0.063 N 
ENDBRANCH  10  11
ENDBRANCH   9  10
ENDBRANCH   8   9
ENDBRANCH   7   8
END_RES ARG A 124
BEGIN_RES ASN A 133
REMARK  2 active torsions:
REMARK  status: ('A' for Active; 'I' for Inactive)
REMARK    9  A    between atoms: CA   and  CB  
REMARK   10  A    between atoms: CB   and  CG  
ROOT
ATOM     15  CA  ASN A 133      31.225  30.257  11.749  1.00 18.15     0.196 C 
ENDROOT
BRANCH  15  16
ATOM     16  CB  ASN A 133      30.092  31.240  11.460  1.00 18.27     0.126 C 
BRANCH  16  17
ATOM     17  CG  ASN A 133      28.733  30.618  11.545  1.00 18.94     0.276 C 
ATOM     18  OD1 ASN A 133      28.334  29.835  10.680  1.00 18.09    -0.269 OA
ATOM     19  ND2 ASN A 133      27.997  30.965  12.600  1.00 18.93    -0.107 N 
ENDBRANCH  16  17
ENDBRANCH  15  16
END_RES ASN A 133
BEGIN_RES LYS A 131
REMARK  4 active torsions:
REMARK  status: ('A' for Active; 'I' for Inactive)
REMARK   11  A    between atoms: CA   and  CB  
REMARK   12  A    between atoms: CB   and  CG  
REMARK   13  A    between atoms: CG   and  CD  
REMARK   14  A    between atoms: CD   and  CE  
ROOT
ATOM     20  CA  LYS A 131      29.867  25.555  16.977  1.00 20.52     0.186 C 
ENDROOT
BRANCH  20  21
ATOM     21  CB  LYS A 131      28.345  25.722  17.026  1.00 20.94     0.034 C 
BRANCH  21  22
ATOM     22  CG  LYS A 131      27.599  24.426  16.749  1.00 22.96     0.005 C 
BRANCH  22  23
ATOM     23  CD  LYS A 131      26.921  23.889  17.979  1.00 24.33     0.041 C 
BRANCH  23  24
ATOM     24  CE  LYS A 131      25.632  23.178  17.580  1.00 26.91     0.338 C 
ATOM     25  NZ  LYS A 131      24.942  22.643  18.778  1.00 27.40     0.618 N 
ENDBRANCH  23  24
ENDBRANCH  22  23
ENDBRANCH  21  22
ENDBRANCH  20  21
END_RES LYS A 131
