REMARK VINA RESULT:    -3.926      7.150     10.829
REMARK INTER + INTRA:         -11.516
REMARK INTER:                  -5.812
REMARK INTRA:                  -5.704
REMARK UNBOUND:                -6.213
REMARK SMILES CCOCCc1c(N)nc(N)nc1-c1ccccc1
REMARK SMILES IDX 4 1 3 2 2 3 1 4 5 5 6 6 7 7 13 8 9 9 12 10 10 11 8 12 14 15
REMARK SMILES IDX 15 16 19 17 16 18 18 19 17 20 11 21
REMARK H PARENT 8 13 8 14 11 22 11 23
REMARK Flexibility Score: inf
ROOT
ATOM      1  C   UNL     1      26.730  36.543  12.282  1.00  0.00     0.165 C 
ENDROOT
BRANCH   1   2
ATOM      2  O   UNL     1      27.197  37.477  11.414  1.00  0.00    -0.381 OA
BRANCH   2   3
ATOM      3  C   UNL     1      28.343  38.116  11.813  1.00  0.00     0.156 C 
ATOM      4  C   UNL     1      28.998  38.931  10.726  1.00  0.00     0.035 C 
ENDBRANCH   2   3
ENDBRANCH   1   2
BRANCH   1   5
ATOM      5  C   UNL     1      26.247  35.285  11.666  1.00  0.00     0.070 C 
BRANCH   5   6
ATOM      6  C   UNL     1      24.947  35.314  11.014  1.00  0.00     0.023 A 
ATOM      7  C   UNL     1      23.778  35.033  11.717  1.00  0.00     0.132 A 
ATOM      8  C   UNL     1      24.821  35.563   9.679  1.00  0.00     0.081 A 
ATOM      9  N   UNL     1      22.599  35.010  11.110  1.00  0.00    -0.196 NA
ATOM     10  N   UNL     1      23.582  35.529   9.098  1.00  0.00    -0.213 NA
ATOM     11  C   UNL     1      22.470  35.258   9.783  1.00  0.00     0.222 A 
BRANCH   7  12
ATOM     12  N   UNL     1      23.899  34.773  13.091  1.00  0.00    -0.383 N 
ATOM     13  H   UNL     1      24.447  35.411  13.698  1.00  0.00     0.158 HD
ATOM     14  H   UNL     1      23.450  33.948  13.513  1.00  0.00     0.158 HD
ENDBRANCH   7  12
BRANCH   8  15
ATOM     15  C   UNL     1      25.913  35.803   8.741  1.00  0.00     0.001 A 
ATOM     16  C   UNL     1      26.732  34.718   8.376  1.00  0.00     0.010 A 
ATOM     17  C   UNL     1      26.199  36.999   8.157  1.00  0.00     0.010 A 
ATOM     18  C   UNL     1      27.769  34.845   7.481  1.00  0.00     0.001 A 
ATOM     19  C   UNL     1      27.257  37.118   7.246  1.00  0.00     0.001 A 
ATOM     20  C   UNL     1      28.054  36.058   6.894  1.00  0.00     0.000 A 
ENDBRANCH   8  15
BRANCH  11  21
ATOM     21  N   UNL     1      21.190  35.229   9.155  1.00  0.00    -0.368 N 
ATOM     22  H   UNL     1      21.001  35.837   8.347  1.00  0.00     0.159 HD
ATOM     23  H   UNL     1      20.475  34.590   9.529  1.00  0.00     0.159 HD
ENDBRANCH  11  21
ENDBRANCH   5   6
ENDBRANCH   1   5
TORSDOF 7
BEGIN_RES LYS A 135
REMARK  4 active torsions:
REMARK  status: ('A' for Active; 'I' for Inactive)
REMARK    1  A    between atoms: CA   and  CB  
REMARK    2  A    between atoms: CB   and  CG  
REMARK    3  A    between atoms: CG   and  CD  
REMARK    4  A    between atoms: CD   and  CE  
ROOT
ATOM      1  CA  LYS A 135      33.193  34.663   9.290  1.00 25.02     0.186 C 
ENDROOT
BRANCH   1   2
ATOM      2  CB  LYS A 135      32.060  35.360  10.034  1.00 26.63     0.034 C 
BRANCH   2   3
ATOM      3  CG  LYS A 135      30.690  34.998   9.521  1.00 29.45     0.005 C 
BRANCH   3   4
ATOM      4  CD  LYS A 135      29.703  34.870  10.671  1.00 32.00     0.041 C 
BRANCH   4   5
ATOM      5  CE  LYS A 135      30.414  35.023  12.003  1.00 34.25     0.338 C 
ATOM      6  NZ  LYS A 135      29.631  34.396  13.104  1.00 35.99     0.618 N 
ENDBRANCH   4   5
ENDBRANCH   3   4
ENDBRANCH   2   3
ENDBRANCH   1   2
END_RES LYS A 135
BEGIN_RES ARG A 124
REMARK  4 active torsions:
REMARK  status: ('A' for Active; 'I' for Inactive)
REMARK    5  A    between atoms: CA   and  CB  
REMARK    6  A    between atoms: CB   and  CG  
REMARK    7  A    between atoms: CG   and  CD  
REMARK    8  A    between atoms: CD   and  NE  
REMARK       I    between atoms: NE   and  CZ  
ROOT
ATOM      7  CA  ARG A 124      31.045  26.515   9.594  1.00 17.84     0.186 C 
ENDROOT
BRANCH   7   8
ATOM      8  CB  ARG A 124      29.529  26.705   9.647  1.00 16.18     0.036 C 
BRANCH   8   9
ATOM      9  CG  ARG A 124      28.911  26.834  11.085  1.00 16.22     0.029 C 
BRANCH   9  10
ATOM     10  CD  ARG A 124      27.548  26.116  11.218  1.00 15.09     0.145 C 
BRANCH  10  11
ATOM     11  NE  ARG A 124      26.408  27.034  11.434  1.00 16.98    -0.083 NA
ATOM     12  CZ  ARG A 124      26.018  27.497  12.617  1.00 18.21     0.782 C 
ATOM     13  NH1 ARG A 124      26.657  27.165  13.733  1.00 21.11     0.063 N 
ATOM     14  NH2 ARG A 124      24.988  28.325  12.697  1.00 21.25     0.063 N 
ENDBRANCH  10  11
ENDBRANCH   9  10
ENDBRANCH   8   9
ENDBRANCH   7   8
END_RES ARG A 124
BEGIN_RES ASN A 133
REMARK  2 active torsions:
REMARK  status: ('A' for Active; 'I' for Inactive)
REMARK    9  A    between atoms: CA   and  CB  
REMARK   10  A    between atoms: CB   and  CG  
ROOT
ATOM     15  CA  ASN A 133      31.225  30.257  11.749  1.00 18.15     0.196 C 
ENDROOT
BRANCH  15  16
ATOM     16  CB  ASN A 133      30.092  31.240  11.460  1.00 18.27     0.126 C 
BRANCH  16  17
ATOM     17  CG  ASN A 133      28.743  30.591  11.413  1.00 18.94     0.276 C 
ATOM     18  OD1 ASN A 133      28.414  29.871  10.468  1.00 18.09    -0.269 OA
ATOM     19  ND2 ASN A 133      27.939  30.844  12.444  1.00 18.93    -0.107 N 
ENDBRANCH  16  17
ENDBRANCH  15  16
END_RES ASN A 133
BEGIN_RES LYS A 131
REMARK  4 active torsions:
REMARK  status: ('A' for Active; 'I' for Inactive)
REMARK   11  A    between atoms: CA   and  CB  
REMARK   12  A    between atoms: CB   and  CG  
REMARK   13  A    between atoms: CG   and  CD  
REMARK   14  A    between atoms: CD   and  CE  
ROOT
ATOM     20  CA  LYS A 131      29.867  25.555  16.977  1.00 20.52     0.186 C 
ENDROOT
BRANCH  20  21
ATOM     21  CB  LYS A 131      28.345  25.722  17.026  1.00 20.94     0.034 C 
BRANCH  21  22
ATOM     22  CG  LYS A 131      27.599  24.419  16.784  1.00 22.96     0.005 C 
BRANCH  22  23
ATOM     23  CD  LYS A 131      26.835  23.969  17.998  1.00 24.33     0.041 C 
BRANCH  23  24
ATOM     24  CE  LYS A 131      25.669  23.086  17.567  1.00 26.91     0.338 C 
ATOM     25  NZ  LYS A 131      24.395  23.841  17.628  1.00 27.40     0.618 N 
ENDBRANCH  23  24
ENDBRANCH  22  23
ENDBRANCH  21  22
ENDBRANCH  20  21
END_RES LYS A 131
