REMARK VINA RESULT:    -3.511      8.119     15.443
REMARK INTER + INTRA:         -11.070
REMARK INTER:                  -5.126
REMARK INTRA:                  -5.944
REMARK UNBOUND:                -6.122
REMARK SMILES NCC(=O)NCC(O)Cn1ccnc1[N+](=O)[O-]
REMARK SMILES IDX 6 1 5 2 3 3 4 4 2 6 1 7 7 10 8 11 9 13 10 14 11 15 14 16
REMARK SMILES IDX 12 17 13 18 15 19 16 20 17 21
REMARK H PARENT 5 5 1 8 1 9 8 12
REMARK Flexibility Score: inf
ROOT
ATOM      1  C   UNL     1      39.160  34.548  15.650  1.00  0.00     0.151 C 
ENDROOT
BRANCH   1   2
ATOM      2  N   UNL     1      38.349  33.713  14.815  1.00  0.00    -0.352 N 
ATOM      3  C   UNL     1      38.296  33.895  13.425  1.00  0.00     0.233 C 
ATOM      4  O   UNL     1      38.960  34.806  12.820  1.00  0.00    -0.274 OA
ATOM      5  H   UNL     1      37.783  32.953  15.242  1.00  0.00     0.163 HD
BRANCH   3   6
ATOM      6  C   UNL     1      37.468  33.038  12.574  1.00  0.00     0.178 C 
BRANCH   6   7
ATOM      7  N   UNL     1      37.343  33.514  11.220  1.00  0.00    -0.322 NA
ATOM      8  H   UNL     1      37.093  34.527  11.184  1.00  0.00     0.119 HD
ATOM      9  H   UNL     1      38.226  33.422  10.674  1.00  0.00     0.119 HD
ENDBRANCH   6   7
ENDBRANCH   3   6
ENDBRANCH   1   2
BRANCH   1  10
ATOM     10  C   UNL     1      39.099  34.139  17.113  1.00  0.00     0.168 C 
BRANCH  10  11
ATOM     11  O   UNL     1      38.971  32.756  17.186  1.00  0.00    -0.388 OA
ATOM     12  H   UNL     1      39.777  32.390  17.629  1.00  0.00     0.211 HD
ENDBRANCH  10  11
BRANCH  10  13
ATOM     13  C   UNL     1      37.884  34.763  17.756  1.00  0.00     0.239 C 
BRANCH  13  14
ATOM     14  N   UNL     1      38.118  35.240  19.103  1.00  0.00    -0.227 N 
ATOM     15  C   UNL     1      38.421  36.509  19.479  1.00  0.00     0.204 A 
ATOM     16  C   UNL     1      38.046  34.510  20.230  1.00  0.00     0.434 A 
ATOM     17  C   UNL     1      38.541  36.584  20.848  1.00  0.00     0.245 A 
ATOM     18  N   UNL     1      38.304  35.335  21.278  1.00  0.00    -0.074 NA
BRANCH  16  19
ATOM     19  N   UNL     1      37.778  33.132  20.405  1.00  0.00    -0.047 N 
ATOM     20  O   UNL     1      38.670  32.275  20.129  1.00  0.00    -0.390 OA
ATOM     21  O   UNL     1      36.566  32.656  20.872  1.00  0.00    -0.390 OA
ENDBRANCH  16  19
ENDBRANCH  13  14
ENDBRANCH  10  13
ENDBRANCH   1  10
TORSDOF 8
BEGIN_RES LYS A 135
REMARK  4 active torsions:
REMARK  status: ('A' for Active; 'I' for Inactive)
REMARK    1  A    between atoms: CA   and  CB  
REMARK    2  A    between atoms: CB   and  CG  
REMARK    3  A    between atoms: CG   and  CD  
REMARK    4  A    between atoms: CD   and  CE  
ROOT
ATOM      1  CA  LYS A 135      33.193  34.663   9.290  1.00 25.02     0.186 C 
ENDROOT
BRANCH   1   2
ATOM      2  CB  LYS A 135      32.060  35.360  10.034  1.00 26.63     0.034 C 
BRANCH   2   3
ATOM      3  CG  LYS A 135      30.826  35.567   9.195  1.00 29.45     0.005 C 
BRANCH   3   4
ATOM      4  CD  LYS A 135      30.182  34.233   8.850  1.00 32.00     0.041 C 
BRANCH   4   5
ATOM      5  CE  LYS A 135      28.768  34.440   8.340  1.00 34.25     0.338 C 
ATOM      6  NZ  LYS A 135      28.751  35.343   7.157  1.00 35.99     0.618 N 
ENDBRANCH   4   5
ENDBRANCH   3   4
ENDBRANCH   2   3
ENDBRANCH   1   2
END_RES LYS A 135
BEGIN_RES ARG A 124
REMARK  4 active torsions:
REMARK  status: ('A' for Active; 'I' for Inactive)
REMARK    5  A    between atoms: CA   and  CB  
REMARK    6  A    between atoms: CB   and  CG  
REMARK    7  A    between atoms: CG   and  CD  
REMARK    8  A    between atoms: CD   and  NE  
REMARK       I    between atoms: NE   and  CZ  
ROOT
ATOM      7  CA  ARG A 124      31.045  26.515   9.594  1.00 17.84     0.186 C 
ENDROOT
BRANCH   7   8
ATOM      8  CB  ARG A 124      29.529  26.705   9.647  1.00 16.18     0.036 C 
BRANCH   8   9
ATOM      9  CG  ARG A 124      28.961  27.257  11.003  1.00 16.22     0.029 C 
BRANCH   9  10
ATOM     10  CD  ARG A 124      28.342  26.152  11.889  1.00 15.09     0.145 C 
BRANCH  10  11
ATOM     11  NE  ARG A 124      27.833  26.641  13.189  1.00 16.98    -0.083 NA
ATOM     12  CZ  ARG A 124      26.610  27.116  13.396  1.00 18.21     0.782 C 
ATOM     13  NH1 ARG A 124      25.717  27.175  12.415  1.00 21.11     0.063 N 
ATOM     14  NH2 ARG A 124      26.253  27.519  14.606  1.00 21.25     0.063 N 
ENDBRANCH  10  11
ENDBRANCH   9  10
ENDBRANCH   8   9
ENDBRANCH   7   8
END_RES ARG A 124
BEGIN_RES ASN A 133
REMARK  2 active torsions:
REMARK  status: ('A' for Active; 'I' for Inactive)
REMARK    9  A    between atoms: CA   and  CB  
REMARK   10  A    between atoms: CB   and  CG  
ROOT
ATOM     15  CA  ASN A 133      31.225  30.257  11.749  1.00 18.15     0.196 C 
ENDROOT
BRANCH  15  16
ATOM     16  CB  ASN A 133      30.092  31.240  11.460  1.00 18.27     0.126 C 
BRANCH  16  17
ATOM     17  CG  ASN A 133      28.824  30.910  12.184  1.00 18.94     0.276 C 
ATOM     18  OD1 ASN A 133      28.583  31.382  13.297  1.00 18.09    -0.269 OA
ATOM     19  ND2 ASN A 133      27.990  30.084  11.553  1.00 18.93    -0.107 N 
ENDBRANCH  16  17
ENDBRANCH  15  16
END_RES ASN A 133
BEGIN_RES LYS A 131
REMARK  4 active torsions:
REMARK  status: ('A' for Active; 'I' for Inactive)
REMARK   11  A    between atoms: CA   and  CB  
REMARK   12  A    between atoms: CB   and  CG  
REMARK   13  A    between atoms: CG   and  CD  
REMARK   14  A    between atoms: CD   and  CE  
ROOT
ATOM     20  CA  LYS A 131      29.867  25.555  16.977  1.00 20.52     0.186 C 
ENDROOT
BRANCH  20  21
ATOM     21  CB  LYS A 131      28.345  25.722  17.026  1.00 20.94     0.034 C 
BRANCH  21  22
ATOM     22  CG  LYS A 131      27.600  24.411  16.828  1.00 22.96     0.005 C 
BRANCH  22  23
ATOM     23  CD  LYS A 131      26.472  24.247  17.808  1.00 24.33     0.041 C 
BRANCH  23  24
ATOM     24  CE  LYS A 131      25.179  24.765  17.188  1.00 26.91     0.338 C 
ATOM     25  NZ  LYS A 131      24.256  23.642  16.897  1.00 27.40     0.618 N 
ENDBRANCH  23  24
ENDBRANCH  22  23
ENDBRANCH  21  22
ENDBRANCH  20  21
END_RES LYS A 131
