REMARK VINA RESULT:    -2.234      5.358      9.832
REMARK INTER + INTRA:          -8.099
REMARK INTER:                  -2.217
REMARK INTRA:                  -5.883
REMARK UNBOUND:                -5.539
REMARK SMILES NCCC1OCCO1
REMARK SMILES IDX 2 1 1 2 3 5 4 6 5 7 8 8 6 9 7 10
REMARK H PARENT 1 3 1 4
REMARK Flexibility Score: inf
ROOT
ATOM      1  C   UNL     1      22.679  31.347  13.100  1.00  0.00     0.083 C 
ENDROOT
BRANCH   1   2
ATOM      2  N   UNL     1      21.549  31.758  12.321  1.00  0.00    -0.330 NA
ATOM      3  H   UNL     1      21.844  31.792  11.322  1.00  0.00     0.118 HD
ATOM      4  H   UNL     1      20.768  31.079  12.469  1.00  0.00     0.118 HD
ENDBRANCH   1   2
BRANCH   1   5
ATOM      5  C   UNL     1      23.198  29.984  12.651  1.00  0.00     0.077 C 
BRANCH   5   6
ATOM      6  C   UNL     1      22.107  28.990  12.915  1.00  0.00     0.251 C 
ATOM      7  O   UNL     1      21.189  28.884  11.897  1.00  0.00    -0.350 OA
ATOM      8  O   UNL     1      21.322  29.333  14.018  1.00  0.00    -0.350 OA
ATOM      9  C   UNL     1      20.011  28.389  12.459  1.00  0.00     0.192 C 
ATOM     10  C   UNL     1      20.372  28.303  13.932  1.00  0.00     0.192 C 
ENDBRANCH   5   6
ENDBRANCH   1   5
TORSDOF 3
BEGIN_RES LYS A 135
REMARK  4 active torsions:
REMARK  status: ('A' for Active; 'I' for Inactive)
REMARK    1  A    between atoms: CA   and  CB  
REMARK    2  A    between atoms: CB   and  CG  
REMARK    3  A    between atoms: CG   and  CD  
REMARK    4  A    between atoms: CD   and  CE  
ROOT
ATOM      1  CA  LYS A 135      33.193  34.663   9.290  1.00 25.02     0.186 C 
ENDROOT
BRANCH   1   2
ATOM      2  CB  LYS A 135      32.060  35.360  10.034  1.00 26.63     0.034 C 
BRANCH   2   3
ATOM      3  CG  LYS A 135      30.715  34.713   9.827  1.00 29.45     0.005 C 
BRANCH   3   4
ATOM      4  CD  LYS A 135      30.351  34.693   8.350  1.00 32.00     0.041 C 
BRANCH   4   5
ATOM      5  CE  LYS A 135      28.846  34.615   8.174  1.00 34.25     0.338 C 
ATOM      6  NZ  LYS A 135      28.203  33.954   9.342  1.00 35.99     0.618 N 
ENDBRANCH   4   5
ENDBRANCH   3   4
ENDBRANCH   2   3
ENDBRANCH   1   2
END_RES LYS A 135
BEGIN_RES ARG A 124
REMARK  4 active torsions:
REMARK  status: ('A' for Active; 'I' for Inactive)
REMARK    5  A    between atoms: CA   and  CB  
REMARK    6  A    between atoms: CB   and  CG  
REMARK    7  A    between atoms: CG   and  CD  
REMARK    8  A    between atoms: CD   and  NE  
REMARK       I    between atoms: NE   and  CZ  
ROOT
ATOM      7  CA  ARG A 124      31.045  26.515   9.594  1.00 17.84     0.186 C 
ENDROOT
BRANCH   7   8
ATOM      8  CB  ARG A 124      29.529  26.705   9.647  1.00 16.18     0.036 C 
BRANCH   8   9
ATOM      9  CG  ARG A 124      28.965  27.293  10.990  1.00 16.22     0.029 C 
BRANCH   9  10
ATOM     10  CD  ARG A 124      28.406  26.205  11.934  1.00 15.09     0.145 C 
BRANCH  10  11
ATOM     11  NE  ARG A 124      27.982  26.718  13.255  1.00 16.98    -0.083 NA
ATOM     12  CZ  ARG A 124      26.780  27.213  13.527  1.00 18.21     0.782 C 
ATOM     13  NH1 ARG A 124      25.831  27.272  12.600  1.00 21.11     0.063 N 
ATOM     14  NH2 ARG A 124      26.501  27.637  14.750  1.00 21.25     0.063 N 
ENDBRANCH  10  11
ENDBRANCH   9  10
ENDBRANCH   8   9
ENDBRANCH   7   8
END_RES ARG A 124
BEGIN_RES ASN A 133
REMARK  2 active torsions:
REMARK  status: ('A' for Active; 'I' for Inactive)
REMARK    9  A    between atoms: CA   and  CB  
REMARK   10  A    between atoms: CB   and  CG  
ROOT
ATOM     15  CA  ASN A 133      31.225  30.257  11.749  1.00 18.15     0.196 C 
ENDROOT
BRANCH  15  16
ATOM     16  CB  ASN A 133      30.092  31.240  11.460  1.00 18.27     0.126 C 
BRANCH  16  17
ATOM     17  CG  ASN A 133      28.758  30.766  11.948  1.00 18.94     0.276 C 
ATOM     18  OD1 ASN A 133      28.079  29.979  11.285  1.00 18.09    -0.269 OA
ATOM     19  ND2 ASN A 133      28.364  31.247  13.126  1.00 18.93    -0.107 N 
ENDBRANCH  16  17
ENDBRANCH  15  16
END_RES ASN A 133
BEGIN_RES LYS A 131
REMARK  4 active torsions:
REMARK  status: ('A' for Active; 'I' for Inactive)
REMARK   11  A    between atoms: CA   and  CB  
REMARK   12  A    between atoms: CB   and  CG  
REMARK   13  A    between atoms: CG   and  CD  
REMARK   14  A    between atoms: CD   and  CE  
ROOT
ATOM     20  CA  LYS A 131      29.867  25.555  16.977  1.00 20.52     0.186 C 
ENDROOT
BRANCH  20  21
ATOM     21  CB  LYS A 131      28.345  25.722  17.026  1.00 20.94     0.034 C 
BRANCH  21  22
ATOM     22  CG  LYS A 131      27.600  24.412  16.818  1.00 22.96     0.005 C 
BRANCH  22  23
ATOM     23  CD  LYS A 131      26.364  24.323  17.669  1.00 24.33     0.041 C 
BRANCH  23  24
ATOM     24  CE  LYS A 131      25.195  24.977  16.939  1.00 26.91     0.338 C 
ATOM     25  NZ  LYS A 131      24.758  26.201  17.651  1.00 27.40     0.618 N 
ENDBRANCH  23  24
ENDBRANCH  22  23
ENDBRANCH  21  22
ENDBRANCH  20  21
END_RES LYS A 131
