REMARK VINA RESULT:    -4.516      4.017      7.688
REMARK INTER + INTRA:          -9.942
REMARK INTER:                  -4.118
REMARK INTRA:                  -5.824
REMARK UNBOUND:                -5.295
REMARK SMILES Cc1cc(C)c(N)c(C)c1
REMARK SMILES IDX 1 1 2 2 3 3 4 4 5 5 6 6 8 7 9 8 10 9 7 10
REMARK H PARENT 7 11 7 12
REMARK Flexibility Score: inf
ROOT
ATOM      1  C   UNL     1      37.004  35.611  16.554  1.00  0.00     0.044 C 
ATOM      2  C   UNL     1      37.835  35.283  15.348  1.00  0.00    -0.050 A 
ATOM      3  C   UNL     1      38.928  36.035  14.983  1.00  0.00     0.009 A 
ATOM      4  C   UNL     1      39.701  35.747  13.879  1.00  0.00    -0.028 A 
ATOM      5  C   UNL     1      40.886  36.578  13.501  1.00  0.00     0.046 C 
ATOM      6  C   UNL     1      39.376  34.659  13.095  1.00  0.00     0.037 A 
ATOM      7  C   UNL     1      38.284  33.888  13.438  1.00  0.00    -0.028 A 
ATOM      8  C   UNL     1      37.916  32.706  12.602  1.00  0.00     0.046 C 
ATOM      9  C   UNL     1      37.526  34.198  14.550  1.00  0.00     0.009 A 
ENDROOT
BRANCH   6  10
ATOM     10  N   UNL     1      40.153  34.336  11.949  1.00  0.00    -0.398 N 
ATOM     11  H   UNL     1      40.956  33.693  11.937  1.00  0.00     0.156 HD
ATOM     12  H   UNL     1      39.888  34.788  11.043  1.00  0.00     0.156 HD
ENDBRANCH   6  10
TORSDOF 1
BEGIN_RES LYS A 135
REMARK  4 active torsions:
REMARK  status: ('A' for Active; 'I' for Inactive)
REMARK    1  A    between atoms: CA   and  CB  
REMARK    2  A    between atoms: CB   and  CG  
REMARK    3  A    between atoms: CG   and  CD  
REMARK    4  A    between atoms: CD   and  CE  
ROOT
ATOM      1  CA  LYS A 135      33.193  34.663   9.290  1.00 25.02     0.186 C 
ENDROOT
BRANCH   1   2
ATOM      2  CB  LYS A 135      32.060  35.360  10.034  1.00 26.63     0.034 C 
BRANCH   2   3
ATOM      3  CG  LYS A 135      30.701  34.774   9.749  1.00 29.45     0.005 C 
BRANCH   3   4
ATOM      4  CD  LYS A 135      30.479  34.639   8.250  1.00 32.00     0.041 C 
BRANCH   4   5
ATOM      5  CE  LYS A 135      29.022  34.881   7.905  1.00 34.25     0.338 C 
ATOM      6  NZ  LYS A 135      28.892  35.639   6.629  1.00 35.99     0.618 N 
ENDBRANCH   4   5
ENDBRANCH   3   4
ENDBRANCH   2   3
ENDBRANCH   1   2
END_RES LYS A 135
BEGIN_RES ARG A 124
REMARK  4 active torsions:
REMARK  status: ('A' for Active; 'I' for Inactive)
REMARK    5  A    between atoms: CA   and  CB  
REMARK    6  A    between atoms: CB   and  CG  
REMARK    7  A    between atoms: CG   and  CD  
REMARK    8  A    between atoms: CD   and  NE  
REMARK       I    between atoms: NE   and  CZ  
ROOT
ATOM      7  CA  ARG A 124      31.045  26.515   9.594  1.00 17.84     0.186 C 
ENDROOT
BRANCH   7   8
ATOM      8  CB  ARG A 124      29.529  26.705   9.647  1.00 16.18     0.036 C 
BRANCH   8   9
ATOM      9  CG  ARG A 124      28.912  26.844  11.085  1.00 16.22     0.029 C 
BRANCH   9  10
ATOM     10  CD  ARG A 124      27.595  26.053  11.252  1.00 15.09     0.145 C 
BRANCH  10  11
ATOM     11  NE  ARG A 124      26.400  26.908  11.418  1.00 16.98    -0.083 NA
ATOM     12  CZ  ARG A 124      25.993  27.430  12.570  1.00 18.21     0.782 C 
ATOM     13  NH1 ARG A 124      26.665  27.223  13.697  1.00 21.11     0.063 N 
ATOM     14  NH2 ARG A 124      24.912  28.194  12.605  1.00 21.25     0.063 N 
ENDBRANCH  10  11
ENDBRANCH   9  10
ENDBRANCH   8   9
ENDBRANCH   7   8
END_RES ARG A 124
BEGIN_RES ASN A 133
REMARK  2 active torsions:
REMARK  status: ('A' for Active; 'I' for Inactive)
REMARK    9  A    between atoms: CA   and  CB  
REMARK   10  A    between atoms: CB   and  CG  
ROOT
ATOM     15  CA  ASN A 133      31.225  30.257  11.749  1.00 18.15     0.196 C 
ENDROOT
BRANCH  15  16
ATOM     16  CB  ASN A 133      30.092  31.240  11.460  1.00 18.27     0.126 C 
BRANCH  16  17
ATOM     17  CG  ASN A 133      28.739  30.598  11.455  1.00 18.94     0.276 C 
ATOM     18  OD1 ASN A 133      28.402  29.827  10.555  1.00 18.09    -0.269 OA
ATOM     19  ND2 ASN A 133      27.939  30.917  12.472  1.00 18.93    -0.107 N 
ENDBRANCH  16  17
ENDBRANCH  15  16
END_RES ASN A 133
BEGIN_RES LYS A 131
REMARK  4 active torsions:
REMARK  status: ('A' for Active; 'I' for Inactive)
REMARK   11  A    between atoms: CA   and  CB  
REMARK   12  A    between atoms: CB   and  CG  
REMARK   13  A    between atoms: CG   and  CD  
REMARK   14  A    between atoms: CD   and  CE  
ROOT
ATOM     20  CA  LYS A 131      29.867  25.555  16.977  1.00 20.52     0.186 C 
ENDROOT
BRANCH  20  21
ATOM     21  CB  LYS A 131      28.345  25.722  17.026  1.00 20.94     0.034 C 
BRANCH  21  22
ATOM     22  CG  LYS A 131      27.601  24.406  16.859  1.00 22.96     0.005 C 
BRANCH  22  23
ATOM     23  CD  LYS A 131      26.640  24.152  17.988  1.00 24.33     0.041 C 
BRANCH  23  24
ATOM     24  CE  LYS A 131      25.709  23.003  17.615  1.00 26.91     0.338 C 
ATOM     25  NZ  LYS A 131      24.439  23.525  17.056  1.00 27.40     0.618 N 
ENDBRANCH  23  24
ENDBRANCH  22  23
ENDBRANCH  21  22
ENDBRANCH  20  21
END_RES LYS A 131
