REMARK VINA RESULT:    -2.551      1.324      2.201
REMARK INTER + INTRA:          -8.607
REMARK INTER:                  -3.048
REMARK INTRA:                  -5.559
REMARK UNBOUND:                -5.534
REMARK SMILES CC(=O)OCCN
REMARK SMILES IDX 5 1 4 2 2 3 1 4 3 5 6 6 7 7
REMARK H PARENT 7 8 7 9
REMARK Flexibility Score: inf
ROOT
ATOM      1  C   UNL     1      26.258  17.993  16.019  1.00  0.00     0.248 C 
ENDROOT
BRANCH   1   2
ATOM      2  O   UNL     1      25.304  17.708  15.043  1.00  0.00    -0.465 OA
BRANCH   2   3
ATOM      3  C   UNL     1      24.305  18.555  14.619  1.00  0.00     0.302 C 
ATOM      4  C   UNL     1      23.932  18.772  13.197  1.00  0.00     0.139 C 
ATOM      5  O   UNL     1      23.657  19.195  15.485  1.00  0.00    -0.253 OA
ENDBRANCH   2   3
ENDBRANCH   1   2
BRANCH   1   6
ATOM      6  C   UNL     1      27.401  17.017  16.076  1.00  0.00     0.119 C 
BRANCH   6   7
ATOM      7  N   UNL     1      28.522  17.652  15.368  1.00  0.00    -0.327 NA
ATOM      8  H   UNL     1      29.407  17.086  15.500  1.00  0.00     0.119 HD
ATOM      9  H   UNL     1      28.282  17.632  14.342  1.00  0.00     0.119 HD
ENDBRANCH   6   7
ENDBRANCH   1   6
TORSDOF 4
BEGIN_RES LYS A 135
REMARK  4 active torsions:
REMARK  status: ('A' for Active; 'I' for Inactive)
REMARK    1  A    between atoms: CA   and  CB  
REMARK    2  A    between atoms: CB   and  CG  
REMARK    3  A    between atoms: CG   and  CD  
REMARK    4  A    between atoms: CD   and  CE  
ROOT
ATOM      1  CA  LYS A 135      33.193  34.663   9.290  1.00 25.02     0.186 C 
ENDROOT
BRANCH   1   2
ATOM      2  CB  LYS A 135      32.060  35.360  10.034  1.00 26.63     0.034 C 
BRANCH   2   3
ATOM      3  CG  LYS A 135      30.702  34.772   9.751  1.00 29.45     0.005 C 
BRANCH   3   4
ATOM      4  CD  LYS A 135      30.531  34.508   8.263  1.00 32.00     0.041 C 
BRANCH   4   5
ATOM      5  CE  LYS A 135      29.138  34.902   7.809  1.00 34.25     0.338 C 
ATOM      6  NZ  LYS A 135      28.099  34.345   8.720  1.00 35.99     0.618 N 
ENDBRANCH   4   5
ENDBRANCH   3   4
ENDBRANCH   2   3
ENDBRANCH   1   2
END_RES LYS A 135
BEGIN_RES ARG A 124
REMARK  4 active torsions:
REMARK  status: ('A' for Active; 'I' for Inactive)
REMARK    5  A    between atoms: CA   and  CB  
REMARK    6  A    between atoms: CB   and  CG  
REMARK    7  A    between atoms: CG   and  CD  
REMARK    8  A    between atoms: CD   and  NE  
REMARK       I    between atoms: NE   and  CZ  
ROOT
ATOM      7  CA  ARG A 124      31.045  26.515   9.594  1.00 17.84     0.186 C 
ENDROOT
BRANCH   7   8
ATOM      8  CB  ARG A 124      29.529  26.705   9.647  1.00 16.18     0.036 C 
BRANCH   8   9
ATOM      9  CG  ARG A 124      28.767  25.797  10.678  1.00 16.22     0.029 C 
BRANCH   9  10
ATOM     10  CD  ARG A 124      28.540  26.495  12.038  1.00 15.09     0.145 C 
BRANCH  10  11
ATOM     11  NE  ARG A 124      27.155  26.974  12.241  1.00 16.98    -0.083 NA
ATOM     12  CZ  ARG A 124      26.751  27.721  13.263  1.00 18.21     0.782 C 
ATOM     13  NH1 ARG A 124      27.598  28.117  14.205  1.00 21.11     0.063 N 
ATOM     14  NH2 ARG A 124      25.486  28.105  13.342  1.00 21.25     0.063 N 
ENDBRANCH  10  11
ENDBRANCH   9  10
ENDBRANCH   8   9
ENDBRANCH   7   8
END_RES ARG A 124
BEGIN_RES ASN A 133
REMARK  2 active torsions:
REMARK  status: ('A' for Active; 'I' for Inactive)
REMARK    9  A    between atoms: CA   and  CB  
REMARK   10  A    between atoms: CB   and  CG  
ROOT
ATOM     15  CA  ASN A 133      31.225  30.257  11.749  1.00 18.15     0.196 C 
ENDROOT
BRANCH  15  16
ATOM     16  CB  ASN A 133      30.092  31.240  11.460  1.00 18.27     0.126 C 
BRANCH  16  17
ATOM     17  CG  ASN A 133      28.738  30.601  11.469  1.00 18.94     0.276 C 
ATOM     18  OD1 ASN A 133      28.466  29.670  10.710  1.00 18.09    -0.269 OA
ATOM     19  ND2 ASN A 133      27.863  31.103  12.340  1.00 18.93    -0.107 N 
ENDBRANCH  16  17
ENDBRANCH  15  16
END_RES ASN A 133
BEGIN_RES LYS A 131
REMARK  4 active torsions:
REMARK  status: ('A' for Active; 'I' for Inactive)
REMARK   11  A    between atoms: CA   and  CB  
REMARK   12  A    between atoms: CB   and  CG  
REMARK   13  A    between atoms: CG   and  CD  
REMARK   14  A    between atoms: CD   and  CE  
ROOT
ATOM     20  CA  LYS A 131      29.867  25.555  16.977  1.00 20.52     0.186 C 
ENDROOT
BRANCH  20  21
ATOM     21  CB  LYS A 131      28.345  25.722  17.026  1.00 20.94     0.034 C 
BRANCH  21  22
ATOM     22  CG  LYS A 131      27.599  24.434  16.713  1.00 22.96     0.005 C 
BRANCH  22  23
ATOM     23  CD  LYS A 131      26.977  23.827  17.940  1.00 24.33     0.041 C 
BRANCH  23  24
ATOM     24  CE  LYS A 131      25.679  23.124  17.559  1.00 26.91     0.338 C 
ATOM     25  NZ  LYS A 131      24.939  22.705  18.773  1.00 27.40     0.618 N 
ENDBRANCH  23  24
ENDBRANCH  22  23
ENDBRANCH  21  22
ENDBRANCH  20  21
END_RES LYS A 131
