REMARK SMILES CC(O)N[C@H]1[C@H]([C@H](O)[C@H](O)CNC(O)OCCC2CN(C3C4CCCCC4NC4CCCC[C@@H]43)NN2)O[C@@H](C(O)O)C[C@@H]1O
REMARK SMILES IDX 11 1 12 2 13 4 15 5 16 6 17 7 18 8 36 9 35 10 20 12 19 14
REMARK SMILES IDX 21 15 22 16 34 17 27 18 23 19 33 20 29 21 28 22 26 23 24 24
REMARK SMILES IDX 32 25 30 26 25 28 31 29 14 30 9 32 7 33 6 34 5 35 37 36
REMARK SMILES IDX 43 37 38 38 42 39 4 40 2 42 1 43 3 44 44 46 39 48 40 49
REMARK SMILES IDX 41 51 8 53 10 55
REMARK H PARENT 12 3 36 11 35 13 28 27 14 31 4 41 3 45 44 47 40 50 41 52 8 54
REMARK H PARENT 10 56
REMARK Flexibility Score: inf
ROOT
ATOM      1  C9  SIA B   4       3.676   0.462  -2.101  1.00  0.00     0.120 C 
ENDROOT
BRANCH   1   2
ATOM      2  N04 SIA B   4       2.393   0.948  -2.058  1.00  0.00    -0.266 NA
ATOM      3  H   UNL     1       2.047   1.468  -2.904  1.00  0.00     0.127 HD
BRANCH   2   4
ATOM      4  C02 SIA B   4       1.407   0.409  -1.244  1.00  0.00     0.325 C 
BRANCH   4   5
ATOM      5  O01 SIA B   4       0.155   0.974  -1.623  1.00  0.00    -0.340 OA
BRANCH   5   6
ATOM      6  C01 SIA B   4      -0.788   0.031  -1.944  1.00  0.00     0.166 C 
BRANCH   6   7
ATOM      7  C03 SIA B   4      -2.108   0.721  -2.336  1.00  0.00     0.050 C 
BRANCH   7   8
ATOM      8  C04 SIA B   4      -2.550   1.505  -1.129  1.00  0.00     0.088 C 
ATOM      9  N   SIA B   4      -3.781   2.225  -1.358  1.00  0.00    -0.239 NA
ATOM     10  N22 SIA B   4      -4.189   2.410  -0.007  1.00  0.00    -0.191 NA
ATOM     11  H   UNL     1      -3.618   3.171  -1.769  1.00  0.00     0.143 HD
ATOM     12  N06 SIA B   4      -4.220   1.131   0.514  1.00  0.00    -0.225 NA
ATOM     13  H   UNL     1      -3.462   2.946   0.525  1.00  0.00     0.161 HD
ATOM     14  C05 SIA B   4      -3.011   0.546  -0.005  1.00  0.00     0.124 C 
BRANCH  12  15
ATOM     15  C07 SIA B   4      -5.366   0.382   0.303  1.00  0.00     0.083 C 
ATOM     16  C   SIA B   4      -5.447  -0.936   1.011  1.00  0.00     0.025 C 
ATOM     17  C08 SIA B   4      -6.687   1.019   0.642  1.00  0.00     0.025 C 
ATOM     18  C17 SIA B   4      -6.380  -1.786   0.149  1.00  0.00     0.058 C 
ATOM     19  C21 SIA B   4      -4.234  -1.719   1.254  1.00  0.00     0.007 C 
ATOM     20  C09 SIA B   4      -6.814   2.456   0.325  1.00  0.00     0.007 C 
ATOM     21  C15 SIA B   4      -7.767   0.223  -0.045  1.00  0.00     0.058 C 
ATOM     22  N16 SIA B   4      -7.435  -1.081  -0.434  1.00  0.00    -0.311 NA
ATOM     23  C18 SIA B   4      -6.747  -2.986   0.971  1.00  0.00     0.019 C 
ATOM     24  C20 SIA B   4      -4.629  -2.764   2.333  1.00  0.00     0.000 C 
ATOM     25  C12 SIA B   4      -8.317   2.791   0.277  1.00  0.00     0.000 C 
ATOM     26  C14 SIA B   4      -8.154   0.978  -1.328  1.00  0.00     0.019 C 
ATOM     27  H   UNL     1      -8.292  -1.628  -0.614  1.00  0.00     0.123 HD
ATOM     28  C19 SIA B   4      -6.102  -3.038   2.320  1.00  0.00     0.002 C 
ATOM     29  C13 SIA B   4      -8.966   2.161  -0.925  1.00  0.00     0.002 C 
ENDBRANCH  12  15
ENDBRANCH   7   8
ENDBRANCH   6   7
ENDBRANCH   5   6
ENDBRANCH   4   5
BRANCH   4  30
ATOM     30  O02 SIA B   4       1.618   0.761   0.100  1.00  0.00    -0.356 OA
ATOM     31  H   UNL     1       0.771   1.085   0.512  1.00  0.00     0.215 HD
ENDBRANCH   4  30
ENDBRANCH   2   4
ENDBRANCH   1   2
BRANCH   1  32
ATOM     32  C8  SIA B   4       4.553   0.660  -0.937  1.00  0.00     0.159 C 
BRANCH  32  33
ATOM     33  C7  SIA B   4       4.552  -0.237   0.213  1.00  0.00     0.175 C 
BRANCH  33  34
ATOM     34  C6  SIA B   4       5.932  -0.126   0.942  1.00  0.00     0.169 C 
ATOM     35  C5  SIA B   4       6.911  -0.984   0.219  1.00  0.00     0.116 C 
ATOM     36  O6  SIA B   4       6.143   1.187   1.126  1.00  0.00    -0.365 OA
ATOM     37  C4  SIA B   4       8.316  -0.485   0.159  1.00  0.00     0.137 C 
ATOM     38  C2  SIA B   4       7.400   1.671   0.847  1.00  0.00     0.177 C 
ATOM     39  C3  SIA B   4       8.469   0.662   1.177  1.00  0.00     0.071 C 
BRANCH  35  40
ATOM     40  N5  SIA B   4       6.788  -2.331   0.706  1.00  0.00    -0.285 NA
ATOM     41  H   UNL     1       6.074  -2.491   1.423  1.00  0.00     0.125 HD
BRANCH  40  42
ATOM     42  C10 SIA B   4       7.267  -3.392  -0.048  1.00  0.00     0.179 C 
ATOM     43  C11 SIA B   4       8.717  -3.525  -0.327  1.00  0.00     0.056 C 
BRANCH  42  44
ATOM     44  O10 SIA B   4       6.835  -4.632   0.495  1.00  0.00    -0.379 OA
ATOM     45  H   UNL     1       6.275  -4.444   1.304  1.00  0.00     0.212 HD
ENDBRANCH  42  44
ENDBRANCH  40  42
ENDBRANCH  35  40
BRANCH  37  46
ATOM     46  O4  SIA B   4       8.496   0.145  -1.099  1.00  0.00    -0.391 OA
ATOM     47  H   UNL     1       7.898  -0.235  -1.781  1.00  0.00     0.211 HD
ENDBRANCH  37  46
BRANCH  38  48
ATOM     48  C1  SIA B   4       7.634   2.997   1.545  1.00  0.00     0.273 C 
BRANCH  48  49
ATOM     49  O1A SIA B   4       7.529   2.891   2.918  1.00  0.00    -0.366 OA
ATOM     50  H   UNL     1       6.968   3.649   3.225  1.00  0.00     0.213 HD
ENDBRANCH  48  49
BRANCH  48  51
ATOM     51  O1B SIA B   4       6.669   3.892   1.034  1.00  0.00    -0.366 OA
ATOM     52  H   UNL     1       6.836   3.999   0.073  1.00  0.00     0.213 HD
ENDBRANCH  48  51
ENDBRANCH  38  48
ENDBRANCH  33  34
BRANCH  33  53
ATOM     53  O7  SIA B   4       4.363  -1.564  -0.142  1.00  0.00    -0.388 OA
ATOM     54  H   UNL     1       3.872  -2.071   0.571  1.00  0.00     0.211 HD
ENDBRANCH  33  53
ENDBRANCH  32  33
BRANCH  32  55
ATOM     55  O8  SIA B   4       4.681   2.015  -0.532  1.00  0.00    -0.389 OA
ATOM     56  H   UNL     1       4.112   2.171   0.259  1.00  0.00     0.211 HD
ENDBRANCH  32  55
ENDBRANCH   1  32
TORSDOF 20
