REMARK SMILES CC(O)N[C@H]1[C@H]([C@H](O)[C@H](O)CNC(O)OCCC2CN(C[C@@H](O)C3CCCCC3)NN2)O[C@@H](C(O)O)C[C@@H]1O
REMARK SMILES IDX 13 1 15 2 16 3 17 4 18 5 31 6 30 7 20 9 19 11 21 12 22 13
REMARK SMILES IDX 24 14 29 15 25 16 28 17 26 18 27 19 23 20 14 22 12 24 11 26
REMARK SMILES IDX 9 27 7 28 6 29 5 30 32 31 38 32 33 33 37 34 4 35 2 37 1 38
REMARK SMILES IDX 3 39 39 41 34 43 35 44 36 46 8 48 10 50
REMARK H PARENT 31 8 30 10 23 21 14 23 12 25 4 36 3 40 39 42 35 45 36 47 8 49
REMARK H PARENT 10 51
REMARK Flexibility Score: inf
ROOT
ATOM      1  C02 SIA B   4      -0.392   0.988  -3.703  1.00  0.00     0.325 C 
ENDROOT
BRANCH   1   2
ATOM      2  O01 SIA B   4       0.582   0.275  -4.346  1.00  0.00    -0.340 OA
BRANCH   2   3
ATOM      3  C01 SIA B   4       1.860   0.511  -3.859  1.00  0.00     0.166 C 
BRANCH   3   4
ATOM      4  C03 SIA B   4       1.959   0.120  -2.417  1.00  0.00     0.050 C 
BRANCH   4   5
ATOM      5  C04 SIA B   4       3.352   0.375  -1.873  1.00  0.00     0.088 C 
ATOM      6  N   SIA B   4       4.295  -0.392  -2.619  1.00  0.00    -0.240 NA
ATOM      7  N16 SIA B   4       4.948  -1.269  -1.754  1.00  0.00    -0.191 NA
ATOM      8  H   UNL     1       4.956   0.190  -3.178  1.00  0.00     0.143 HD
ATOM      9  N06 SIA B   4       4.754  -0.793  -0.448  1.00  0.00    -0.227 NA
ATOM     10  H   UNL     1       5.949  -1.330  -1.944  1.00  0.00     0.161 HD
ATOM     11  C05 SIA B   4       3.431  -0.177  -0.467  1.00  0.00     0.124 C 
BRANCH   9  12
ATOM     12  C07 SIA B   4       4.804  -1.870   0.521  1.00  0.00     0.136 C 
BRANCH  12  13
ATOM     13  C08 SIA B   4       6.136  -2.520   0.657  1.00  0.00     0.133 C 
BRANCH  13  14
ATOM     14  C09 SIA B   4       7.189  -1.666   1.320  1.00  0.00     0.019 C 
ATOM     15  C   SIA B   4       6.811  -1.258   2.708  1.00  0.00     0.006 C 
ATOM     16  C12 SIA B   4       7.559  -0.444   0.525  1.00  0.00     0.006 C 
ATOM     17  C15 SIA B   4       7.929  -0.522   3.367  1.00  0.00     0.000 C 
ATOM     18  C13 SIA B   4       8.838   0.136   1.150  1.00  0.00     0.000 C 
ATOM     19  C14 SIA B   4       8.450   0.623   2.524  1.00  0.00     0.000 C 
ENDBRANCH  13  14
BRANCH  13  20
ATOM     20  O   SIA B   4       6.596  -3.064  -0.517  1.00  0.00    -0.391 OA
ATOM     21  H   UNL     1       6.071  -3.866  -0.751  1.00  0.00     0.211 HD
ENDBRANCH  13  20
ENDBRANCH  12  13
ENDBRANCH   9  12
ENDBRANCH   4   5
ENDBRANCH   3   4
ENDBRANCH   2   3
ENDBRANCH   1   2
BRANCH   1  22
ATOM     22  O02 SIA B   4      -1.082   1.819  -4.590  1.00  0.00    -0.356 OA
ATOM     23  H   UNL     1      -1.710   1.210  -5.087  1.00  0.00     0.215 HD
ENDBRANCH   1  22
BRANCH   1  24
ATOM     24  N04 SIA B   4      -1.411   0.110  -3.106  1.00  0.00    -0.266 NA
ATOM     25  H   UNL     1      -0.900  -0.481  -2.412  1.00  0.00     0.127 HD
BRANCH  24  26
ATOM     26  C9  SIA B   4      -2.341   0.993  -2.439  1.00  0.00     0.120 C 
BRANCH  26  27
ATOM     27  C8  SIA B   4      -3.479   0.191  -1.785  1.00  0.00     0.159 C 
BRANCH  27  28
ATOM     28  C7  SIA B   4      -4.396   1.207  -1.189  1.00  0.00     0.175 C 
BRANCH  28  29
ATOM     29  C6  SIA B   4      -5.582   0.703  -0.448  1.00  0.00     0.169 C 
ATOM     30  C5  SIA B   4      -5.382  -0.242   0.663  1.00  0.00     0.116 C 
ATOM     31  O6  SIA B   4      -6.331   1.839  -0.073  1.00  0.00    -0.365 OA
ATOM     32  C4  SIA B   4      -5.671   0.478   1.989  1.00  0.00     0.137 C 
ATOM     33  C2  SIA B   4      -5.718   2.626   0.856  1.00  0.00     0.177 C 
ATOM     34  C3  SIA B   4      -5.101   1.871   1.998  1.00  0.00     0.071 C 
BRANCH  30  35
ATOM     35  N5  SIA B   4      -6.402  -1.309   0.604  1.00  0.00    -0.285 NA
ATOM     36  H   UNL     1      -7.317  -0.811   0.683  1.00  0.00     0.125 HD
BRANCH  35  37
ATOM     37  C10 SIA B   4      -6.281  -2.253   1.666  1.00  0.00     0.179 C 
ATOM     38  C11 SIA B   4      -7.082  -3.512   1.308  1.00  0.00     0.056 C 
BRANCH  37  39
ATOM     39  O10 SIA B   4      -4.970  -2.629   1.824  1.00  0.00    -0.379 OA
ATOM     40  H   UNL     1      -4.948  -3.392   2.462  1.00  0.00     0.212 HD
ENDBRANCH  37  39
ENDBRANCH  35  37
ENDBRANCH  30  35
BRANCH  32  41
ATOM     41  O4  SIA B   4      -5.159  -0.232   3.074  1.00  0.00    -0.391 OA
ATOM     42  H   UNL     1      -5.343   0.330   3.868  1.00  0.00     0.211 HD
ENDBRANCH  32  41
BRANCH  33  43
ATOM     43  C1  SIA B   4      -6.806   3.520   1.471  1.00  0.00     0.273 C 
BRANCH  43  44
ATOM     44  O1A SIA B   4      -6.250   4.362   2.443  1.00  0.00    -0.366 OA
ATOM     45  H   UNL     1      -5.268   4.285   2.413  1.00  0.00     0.213 HD
ENDBRANCH  43  44
BRANCH  43  46
ATOM     46  O1B SIA B   4      -7.803   2.750   2.064  1.00  0.00    -0.366 OA
ATOM     47  H   UNL     1      -8.669   3.048   1.657  1.00  0.00     0.213 HD
ENDBRANCH  43  46
ENDBRANCH  33  43
ENDBRANCH  28  29
BRANCH  28  48
ATOM     48  O7  SIA B   4      -4.860   1.951  -2.323  1.00  0.00    -0.388 OA
ATOM     49  H   UNL     1      -4.359   2.771  -2.456  1.00  0.00     0.211 HD
ENDBRANCH  28  48
ENDBRANCH  27  28
BRANCH  27  50
ATOM     50  O8  SIA B   4      -2.859  -0.659  -0.882  1.00  0.00    -0.389 OA
ATOM     51  H   UNL     1      -2.163  -0.199  -0.349  1.00  0.00     0.211 HD
ENDBRANCH  27  50
ENDBRANCH  26  27
ENDBRANCH  24  26
ENDBRANCH   1  24
TORSDOF 23
