REMARK SMILES CC(O)N[C@H]1[C@H]([C@H](O)[C@H](O)CNC(O)OCCC2CN(C3CCCCC3)NN2)O[C@@H](C(O)O)C[C@@H]1O
REMARK SMILES IDX 11 1 12 2 13 4 15 5 16 6 17 7 18 8 28 9 27 10 20 12 19 14
REMARK SMILES IDX 21 15 26 16 22 17 25 18 23 19 24 20 14 21 9 23 7 24 6 25
REMARK SMILES IDX 5 26 29 27 35 28 30 29 34 30 4 31 2 33 1 34 3 35 36 37 31 39
REMARK SMILES IDX 32 40 33 42 8 44 10 46
REMARK H PARENT 12 3 28 11 27 13 14 22 4 32 3 36 36 38 32 41 33 43 8 45 10 47
REMARK Flexibility Score: inf
ROOT
ATOM      1  C9  SIA B   4      -0.792   0.401   0.674  1.00  0.00     0.120 C 
ENDROOT
BRANCH   1   2
ATOM      2  N04 SIA B   4      -0.733  -0.787   1.477  1.00  0.00    -0.266 NA
ATOM      3  H   UNL     1      -1.277  -0.644   2.356  1.00  0.00     0.127 HD
BRANCH   2   4
ATOM      4  C02 SIA B   4       0.620  -1.187   1.832  1.00  0.00     0.325 C 
BRANCH   4   5
ATOM      5  O01 SIA B   4       1.231  -0.193   2.550  1.00  0.00    -0.340 OA
BRANCH   5   6
ATOM      6  C01 SIA B   4       2.491   0.186   2.183  1.00  0.00     0.166 C 
BRANCH   6   7
ATOM      7  C03 SIA B   4       3.512  -0.919   2.295  1.00  0.00     0.050 C 
BRANCH   7   8
ATOM      8  C04 SIA B   4       4.892  -0.460   1.945  1.00  0.00     0.088 C 
ATOM      9  N   SIA B   4       5.871  -1.557   2.091  1.00  0.00    -0.239 NA
ATOM     10  N14 SIA B   4       6.995  -0.910   1.510  1.00  0.00    -0.191 NA
ATOM     11  H   UNL     1       6.033  -1.741   3.101  1.00  0.00     0.143 HD
ATOM     12  N06 SIA B   4       6.519  -0.410   0.321  1.00  0.00    -0.226 NA
ATOM     13  H   UNL     1       7.237  -0.121   2.141  1.00  0.00     0.161 HD
ATOM     14  C05 SIA B   4       5.087  -0.191   0.444  1.00  0.00     0.124 C 
BRANCH  12  15
ATOM     15  C07 SIA B   4       7.223   0.752  -0.150  1.00  0.00     0.074 C 
ATOM     16  C   SIA B   4       6.785   1.072  -1.565  1.00  0.00     0.021 C 
ATOM     17  C08 SIA B   4       8.707   0.587  -0.092  1.00  0.00     0.021 C 
ATOM     18  C13 SIA B   4       7.321   0.047  -2.548  1.00  0.00     0.002 C 
ATOM     19  C09 SIA B   4       9.165  -0.493  -1.028  1.00  0.00     0.002 C 
ATOM     20  C12 SIA B   4       8.815  -0.032  -2.437  1.00  0.00     0.000 C 
ENDBRANCH  12  15
ENDBRANCH   7   8
ENDBRANCH   6   7
ENDBRANCH   5   6
ENDBRANCH   4   5
BRANCH   4  21
ATOM     21  O02 SIA B   4       0.426  -2.320   2.700  1.00  0.00    -0.356 OA
ATOM     22  H   UNL     1      -0.367  -2.110   3.261  1.00  0.00     0.215 HD
ENDBRANCH   4  21
ENDBRANCH   2   4
ENDBRANCH   1   2
BRANCH   1  23
ATOM     23  C8  SIA B   4      -2.207   0.868   0.449  1.00  0.00     0.159 C 
BRANCH  23  24
ATOM     24  C7  SIA B   4      -3.093  -0.160  -0.175  1.00  0.00     0.175 C 
BRANCH  24  25
ATOM     25  C6  SIA B   4      -4.534   0.370  -0.295  1.00  0.00     0.169 C 
ATOM     26  C5  SIA B   4      -5.349  -0.771  -0.910  1.00  0.00     0.116 C 
ATOM     27  O6  SIA B   4      -4.915   0.710   0.971  1.00  0.00    -0.365 OA
ATOM     28  C4  SIA B   4      -6.576  -0.972  -0.061  1.00  0.00     0.137 C 
ATOM     29  C2  SIA B   4      -6.218   1.063   1.170  1.00  0.00     0.177 C 
ATOM     30  C3  SIA B   4      -7.162   0.439   0.150  1.00  0.00     0.071 C 
BRANCH  26  31
ATOM     31  N5  SIA B   4      -5.656  -0.383  -2.224  1.00  0.00    -0.285 NA
ATOM     32  H   UNL     1      -5.550   0.628  -2.434  1.00  0.00     0.125 HD
BRANCH  31  33
ATOM     33  C10 SIA B   4      -6.356  -1.174  -3.126  1.00  0.00     0.179 C 
ATOM     34  C11 SIA B   4      -7.796  -1.494  -2.847  1.00  0.00     0.056 C 
BRANCH  33  35
ATOM     35  O10 SIA B   4      -6.366  -0.472  -4.372  1.00  0.00    -0.379 OA
ATOM     36  H   UNL     1      -7.038   0.275  -4.249  1.00  0.00     0.212 HD
ENDBRANCH  33  35
ENDBRANCH  31  33
ENDBRANCH  26  31
BRANCH  28  37
ATOM     37  O4  SIA B   4      -6.201  -1.448   1.223  1.00  0.00    -0.391 OA
ATOM     38  H   UNL     1      -6.281  -2.436   1.252  1.00  0.00     0.211 HD
ENDBRANCH  28  37
BRANCH  29  39
ATOM     39  C1  SIA B   4      -6.498   2.520   1.331  1.00  0.00     0.273 C 
BRANCH  39  40
ATOM     40  O1A SIA B   4      -6.133   3.302   0.246  1.00  0.00    -0.366 OA
ATOM     41  H   UNL     1      -5.286   3.789   0.496  1.00  0.00     0.213 HD
ENDBRANCH  39  40
BRANCH  39  42
ATOM     42  O1B SIA B   4      -5.926   2.992   2.518  1.00  0.00    -0.366 OA
ATOM     43  H   UNL     1      -4.983   2.700   2.520  1.00  0.00     0.213 HD
ENDBRANCH  39  42
ENDBRANCH  29  39
ENDBRANCH  24  25
BRANCH  24  44
ATOM     44  O7  SIA B   4      -3.073  -1.278   0.665  1.00  0.00    -0.388 OA
ATOM     45  H   UNL     1      -3.496  -1.042   1.540  1.00  0.00     0.211 HD
ENDBRANCH  24  44
ENDBRANCH  23  24
BRANCH  23  46
ATOM     46  O8  SIA B   4      -2.178   2.017  -0.349  1.00  0.00    -0.389 OA
ATOM     47  H   UNL     1      -1.874   1.785  -1.258  1.00  0.00     0.211 HD
ENDBRANCH  23  46
ENDBRANCH   1  23
TORSDOF 20
