REMARK SMILES CC(O)N[C@H]1[C@H]([C@H](O)[C@H](O)CNC(O)OCCC2CN(C3NCCCC3CN)NN2)O[C@@H](C(O)O)C[C@@H]1O
REMARK SMILES IDX 13 1 15 2 16 3 17 4 18 5 30 6 29 7 20 9 19 11 21 12 22 13
REMARK SMILES IDX 26 14 23 15 25 17 24 18 27 19 28 20 14 23 12 25 11 27 9 28
REMARK SMILES IDX 7 29 6 30 5 31 31 32 37 33 32 34 36 35 4 36 2 38 1 39 3 40
REMARK SMILES IDX 38 42 33 44 34 45 35 47 8 49 10 51
REMARK H PARENT 30 8 29 10 22 16 28 21 28 22 14 24 12 26 4 37 3 41 38 43 34 46
REMARK H PARENT 35 48 8 50 10 52
REMARK Flexibility Score: inf
ROOT
ATOM      1  C02 SIA B   4      -0.176   0.730  -0.515  1.00  0.00     0.325 C 
ENDROOT
BRANCH   1   2
ATOM      2  O01 SIA B   4       0.567   1.797   0.005  1.00  0.00    -0.340 OA
BRANCH   2   3
ATOM      3  C01 SIA B   4       1.812   1.465   0.450  1.00  0.00     0.166 C 
BRANCH   3   4
ATOM      4  C03 SIA B   4       2.777   0.899  -0.531  1.00  0.00     0.050 C 
BRANCH   4   5
ATOM      5  C04 SIA B   4       4.072   0.596   0.197  1.00  0.00     0.089 C 
ATOM      6  N   SIA B   4       4.634   1.813   0.776  1.00  0.00    -0.239 NA
ATOM      7  N16 SIA B   4       5.967   1.352   0.982  1.00  0.00    -0.190 NA
ATOM      8  H   UNL     1       4.180   2.035   1.693  1.00  0.00     0.143 HD
ATOM      9  N06 SIA B   4       6.317   0.996  -0.337  1.00  0.00    -0.212 NA
ATOM     10  H   UNL     1       5.802   0.458   1.549  1.00  0.00     0.161 HD
ATOM     11  C05 SIA B   4       5.165   0.162  -0.731  1.00  0.00     0.126 C 
BRANCH   9  12
ATOM     12  C07 SIA B   4       7.495   0.191  -0.388  1.00  0.00     0.144 C 
ATOM     13  N08 SIA B   4       8.742   0.883  -0.453  1.00  0.00    -0.300 NA
ATOM     14  C14 SIA B   4       7.591  -0.922   0.596  1.00  0.00     0.036 C 
ATOM     15  C09 SIA B   4       9.689   0.010  -1.117  1.00  0.00     0.082 C 
ATOM     16  H   UNL     1       9.141   1.208   0.421  1.00  0.00     0.124 HD
ATOM     17  C13 SIA B   4       8.501  -1.976  -0.084  1.00  0.00     0.009 C 
ATOM     18  C12 SIA B   4       9.780  -1.351  -0.534  1.00  0.00     0.016 C 
BRANCH  14  19
ATOM     19  C   SIA B   4       8.349  -0.559   1.863  1.00  0.00     0.084 C 
BRANCH  19  20
ATOM     20  N15 SIA B   4       8.372  -1.702   2.751  1.00  0.00    -0.330 NA
ATOM     21  H   UNL     1       8.917  -1.561   3.608  1.00  0.00     0.118 HD
ATOM     22  H   UNL     1       7.413  -2.038   2.980  1.00  0.00     0.118 HD
ENDBRANCH  19  20
ENDBRANCH  14  19
ENDBRANCH   9  12
ENDBRANCH   4   5
ENDBRANCH   3   4
ENDBRANCH   2   3
ENDBRANCH   1   2
BRANCH   1  23
ATOM     23  O02 SIA B   4      -0.470   0.901  -1.839  1.00  0.00    -0.356 OA
ATOM     24  H   UNL     1      -0.003   1.700  -2.199  1.00  0.00     0.215 HD
ENDBRANCH   1  23
BRANCH   1  25
ATOM     25  N04 SIA B   4      -1.271   0.372   0.277  1.00  0.00    -0.266 NA
ATOM     26  H   UNL     1      -1.386  -0.623   0.421  1.00  0.00     0.127 HD
BRANCH  25  27
ATOM     27  C9  SIA B   4      -2.304   1.237   0.616  1.00  0.00     0.120 C 
BRANCH  27  28
ATOM     28  C8  SIA B   4      -3.298   1.620  -0.451  1.00  0.00     0.159 C 
BRANCH  28  29
ATOM     29  C7  SIA B   4      -4.076   0.466  -1.010  1.00  0.00     0.175 C 
BRANCH  29  30
ATOM     30  C6  SIA B   4      -4.816  -0.284   0.026  1.00  0.00     0.169 C 
ATOM     31  C5  SIA B   4      -5.971   0.541   0.664  1.00  0.00     0.116 C 
ATOM     32  O6  SIA B   4      -5.431  -1.435  -0.404  1.00  0.00    -0.365 OA
ATOM     33  C4  SIA B   4      -6.921   0.927  -0.395  1.00  0.00     0.137 C 
ATOM     34  C2  SIA B   4      -6.277  -1.271  -1.454  1.00  0.00     0.177 C 
ATOM     35  C3  SIA B   4      -7.279  -0.182  -1.351  1.00  0.00     0.071 C 
BRANCH  31  36
ATOM     36  N5  SIA B   4      -6.403  -0.215   1.761  1.00  0.00    -0.285 NA
ATOM     37  H   UNL     1      -5.650  -0.857   2.091  1.00  0.00     0.125 HD
BRANCH  36  38
ATOM     38  C10 SIA B   4      -7.314   0.201   2.714  1.00  0.00     0.179 C 
ATOM     39  C11 SIA B   4      -8.696   0.444   2.230  1.00  0.00     0.056 C 
BRANCH  38  40
ATOM     40  O10 SIA B   4      -7.433  -0.863   3.667  1.00  0.00    -0.379 OA
ATOM     41  H   UNL     1      -8.197  -1.433   3.408  1.00  0.00     0.212 HD
ENDBRANCH  38  40
ENDBRANCH  36  38
ENDBRANCH  31  36
BRANCH  33  42
ATOM     42  O4  SIA B   4      -6.387   2.038  -1.111  1.00  0.00    -0.391 OA
ATOM     43  H   UNL     1      -6.876   2.107  -1.974  1.00  0.00     0.211 HD
ENDBRANCH  33  42
BRANCH  34  44
ATOM     44  C1  SIA B   4      -7.074  -2.583  -1.567  1.00  0.00     0.273 C 
BRANCH  44  45
ATOM     45  O1A SIA B   4      -6.252  -3.668  -1.788  1.00  0.00    -0.366 OA
ATOM     46  H   UNL     1      -5.300  -3.432  -1.793  1.00  0.00     0.213 HD
ENDBRANCH  44  45
BRANCH  44  47
ATOM     47  O1B SIA B   4      -8.060  -2.453  -2.539  1.00  0.00    -0.366 OA
ATOM     48  H   UNL     1      -8.947  -2.244  -2.131  1.00  0.00     0.213 HD
ENDBRANCH  44  47
ENDBRANCH  34  44
ENDBRANCH  29  30
BRANCH  29  49
ATOM     49  O7  SIA B   4      -3.114  -0.429  -1.538  1.00  0.00    -0.388 OA
ATOM     50  H   UNL     1      -3.320  -1.355  -1.318  1.00  0.00     0.211 HD
ENDBRANCH  29  49
ENDBRANCH  28  29
BRANCH  28  51
ATOM     51  O8  SIA B   4      -2.601   2.236  -1.486  1.00  0.00    -0.389 OA
ATOM     52  H   UNL     1      -2.883   3.196  -1.606  1.00  0.00     0.211 HD
ENDBRANCH  28  51
ENDBRANCH  27  28
ENDBRANCH  25  27
ENDBRANCH   1  25
TORSDOF 22
