REMARK SMILES CC(O)N[C@H]1[C@H]([C@H](O)[C@H](O)CNC(O)OCCC2CN(C3CCCC(S(N)(O)O)C3)NN2)O[C@@H](C(O)O)C[C@@H]1O
REMARK SMILES IDX 13 1 15 2 16 3 17 4 18 5 32 6 31 7 20 9 19 11 21 12 22 13
REMARK SMILES IDX 30 14 23 15 25 16 24 17 26 18 27 19 28 22 29 24 14 26 12 28
REMARK SMILES IDX 11 30 9 31 7 32 6 33 5 34 33 35 39 36 34 37 38 38 4 39 2 41
REMARK SMILES IDX 1 42 3 43 40 45 35 47 36 48 37 50 8 52 10 54
REMARK H PARENT 32 8 31 10 27 20 27 21 28 23 29 25 14 27 12 29 4 40 3 44 40 46
REMARK H PARENT 36 49 37 51 8 53 10 55
REMARK Flexibility Score: inf
ROOT
ATOM      1  C02 SIA B   4       0.088   1.365   0.279  1.00  0.00     0.325 C 
ENDROOT
BRANCH   1   2
ATOM      2  O01 SIA B   4       1.477   1.129   0.419  1.00  0.00    -0.340 OA
BRANCH   2   3
ATOM      3  C01 SIA B   4       1.770  -0.058   1.035  1.00  0.00     0.166 C 
BRANCH   3   4
ATOM      4  C03 SIA B   4       1.464  -1.310   0.307  1.00  0.00     0.050 C 
BRANCH   4   5
ATOM      5  C04 SIA B   4       2.290  -1.539  -0.942  1.00  0.00     0.088 C 
ATOM      6  N   SIA B   4       2.223  -0.566  -1.943  1.00  0.00    -0.239 NA
ATOM      7  N15 SIA B   4       3.364   0.206  -1.836  1.00  0.00    -0.191 NA
ATOM      8  H   UNL     1       2.051  -0.848  -2.913  1.00  0.00     0.143 HD
ATOM      9  N06 SIA B   4       4.268  -0.376  -0.983  1.00  0.00    -0.226 NA
ATOM     10  H   UNL     1       3.225   1.210  -1.682  1.00  0.00     0.161 HD
ATOM     11  C05 SIA B   4       3.750  -1.650  -0.582  1.00  0.00     0.124 C 
BRANCH   9  12
ATOM     12  C07 SIA B   4       5.533  -0.569  -1.669  1.00  0.00     0.076 C 
ATOM     13  C   SIA B   4       6.095   0.750  -2.142  1.00  0.00     0.021 C 
ATOM     14  C08 SIA B   4       6.537  -1.203  -0.739  1.00  0.00     0.046 C 
ATOM     15  C14 SIA B   4       6.745   1.547  -1.063  1.00  0.00     0.004 C 
ATOM     16  C09 SIA B   4       6.614  -0.382   0.524  1.00  0.00     0.119 C 
ATOM     17  C13 SIA B   4       6.407   1.082   0.316  1.00  0.00     0.026 C 
BRANCH  16  18
ATOM     18  S   SIA B   4       8.191  -0.715   1.357  1.00  0.00    -0.140 S 
BRANCH  18  19
ATOM     19  N12 SIA B   4       9.478  -0.111   0.346  1.00  0.00    -0.233 NA
ATOM     20  H   UNL     1       9.625   0.901   0.448  1.00  0.00     0.143 HD
ATOM     21  H   UNL     1       9.297  -0.334  -0.652  1.00  0.00     0.143 HD
ENDBRANCH  18  19
BRANCH  18  22
ATOM     22  O   SIA B   4       8.411  -2.397   1.524  1.00  0.00    -0.286 OA
ATOM     23  H   UNL     1       7.993  -2.906   0.781  1.00  0.00     0.243 HD
ENDBRANCH  18  22
BRANCH  18  24
ATOM     24  O11 SIA B   4       8.206   0.052   2.864  1.00  0.00    -0.286 OA
ATOM     25  H   UNL     1       9.104   0.063   3.261  1.00  0.00     0.243 HD
ENDBRANCH  18  24
ENDBRANCH  16  18
ENDBRANCH   9  12
ENDBRANCH   4   5
ENDBRANCH   3   4
ENDBRANCH   2   3
ENDBRANCH   1   2
BRANCH   1  26
ATOM     26  O02 SIA B   4      -0.254   2.401   1.177  1.00  0.00    -0.356 OA
ATOM     27  H   UNL     1      -0.694   2.080   1.981  1.00  0.00     0.215 HD
ENDBRANCH   1  26
BRANCH   1  28
ATOM     28  N04 SIA B   4      -0.302   1.627  -1.020  1.00  0.00    -0.266 NA
ATOM     29  H   UNL     1      -0.019   0.845  -1.660  1.00  0.00     0.127 HD
BRANCH  28  30
ATOM     30  C9  SIA B   4      -1.572   2.160  -1.323  1.00  0.00     0.120 C 
BRANCH  30  31
ATOM     31  C8  SIA B   4      -2.774   1.302  -1.098  1.00  0.00     0.159 C 
BRANCH  31  32
ATOM     32  C7  SIA B   4      -3.198   1.271   0.296  1.00  0.00     0.175 C 
BRANCH  32  33
ATOM     33  C6  SIA B   4      -4.579   0.654   0.573  1.00  0.00     0.169 C 
ATOM     34  C5  SIA B   4      -4.698  -0.762   0.085  1.00  0.00     0.116 C 
ATOM     35  O6  SIA B   4      -4.724   0.834   1.929  1.00  0.00    -0.365 OA
ATOM     36  C4  SIA B   4      -5.657  -1.533   0.930  1.00  0.00     0.137 C 
ATOM     37  C2  SIA B   4      -5.845   0.329   2.513  1.00  0.00     0.177 C 
ATOM     38  C3  SIA B   4      -6.630  -0.556   1.552  1.00  0.00     0.071 C 
BRANCH  34  39
ATOM     39  N5  SIA B   4      -4.939  -0.933  -1.265  1.00  0.00    -0.285 NA
ATOM     40  H   UNL     1      -4.466  -1.829  -1.598  1.00  0.00     0.125 HD
BRANCH  39  41
ATOM     41  C10 SIA B   4      -6.040  -0.623  -2.017  1.00  0.00     0.179 C 
ATOM     42  C11 SIA B   4      -7.258  -1.453  -1.766  1.00  0.00     0.056 C 
BRANCH  41  43
ATOM     43  O10 SIA B   4      -5.706  -0.891  -3.389  1.00  0.00    -0.379 OA
ATOM     44  H   UNL     1      -5.671  -1.876  -3.504  1.00  0.00     0.212 HD
ENDBRANCH  41  43
ENDBRANCH  39  41
ENDBRANCH  34  39
BRANCH  36  45
ATOM     45  O4  SIA B   4      -5.014  -2.294   1.915  1.00  0.00    -0.391 OA
ATOM     46  H   UNL     1      -4.392  -1.780   2.458  1.00  0.00     0.211 HD
ENDBRANCH  36  45
BRANCH  37  47
ATOM     47  C1  SIA B   4      -6.724   1.400   3.115  1.00  0.00     0.273 C 
BRANCH  47  48
ATOM     48  O1A SIA B   4      -7.856   0.885   3.712  1.00  0.00    -0.366 OA
ATOM     49  H   UNL     1      -8.523   0.538   3.072  1.00  0.00     0.213 HD
ENDBRANCH  47  48
BRANCH  47  50
ATOM     50  O1B SIA B   4      -7.078   2.325   2.103  1.00  0.00    -0.366 OA
ATOM     51  H   UNL     1      -7.732   1.926   1.478  1.00  0.00     0.213 HD
ENDBRANCH  47  50
ENDBRANCH  37  47
ENDBRANCH  32  33
BRANCH  32  52
ATOM     52  O7  SIA B   4      -3.288   2.639   0.709  1.00  0.00    -0.388 OA
ATOM     53  H   UNL     1      -3.979   2.687   1.411  1.00  0.00     0.211 HD
ENDBRANCH  32  52
ENDBRANCH  31  32
BRANCH  31  54
ATOM     54  O8  SIA B   4      -2.574   0.106  -1.774  1.00  0.00    -0.389 OA
ATOM     55  H   UNL     1      -1.779  -0.374  -1.498  1.00  0.00     0.211 HD
ENDBRANCH  31  54
ENDBRANCH  30  31
ENDBRANCH  28  30
ENDBRANCH   1  28
TORSDOF 24
