REMARK SMILES CC(O)N[C@H]1[C@H]([C@H](O)[C@H](O)CNC(O)OCCC2CN(CC(O)NC[C@@H](O)CN3CCNC3[NH+]([O-])O)NN2)O[C@@H](C(O)O)C[C@@H]1O
REMARK SMILES IDX 17 1 18 2 38 3 37 4 20 6 19 8 21 9 22 10 24 11 25 13 26 14
REMARK SMILES IDX 28 15 29 16 33 17 30 18 32 19 31 20 34 22 35 23 36 25 27 27
REMARK SMILES IDX 23 29 16 31 15 32 13 33 14 34 12 36 11 38 9 39 7 40 6 41
REMARK SMILES IDX 5 42 39 43 45 44 40 45 44 46 4 47 2 49 1 50 3 51 46 53 41 55
REMARK SMILES IDX 42 56 43 58 8 60 10 62
REMARK H PARENT 38 5 37 7 24 12 32 21 34 24 36 26 27 28 23 30 14 35 12 37 4 48
REMARK H PARENT 3 52 46 54 42 57 43 59 8 61 10 63
REMARK Flexibility Score: inf
ROOT
ATOM      1  C03 SIA B   4      -0.230  -1.137   1.563  1.00  0.00     0.050 C 
ENDROOT
BRANCH   1   2
ATOM      2  C04 SIA B   4       1.033  -0.457   1.299  1.00  0.00     0.088 C 
ATOM      3  N   SIA B   4       1.016   0.819   0.688  1.00  0.00    -0.239 NA
ATOM      4  N22 SIA B   4       2.121   0.884  -0.180  1.00  0.00    -0.191 NA
ATOM      5  H   UNL     1       0.973   1.625   1.328  1.00  0.00     0.143 HD
ATOM      6  N06 SIA B   4       2.343  -0.434  -0.601  1.00  0.00    -0.225 NA
ATOM      7  H   UNL     1       1.785   1.411  -1.032  1.00  0.00     0.161 HD
ATOM      8  C05 SIA B   4       1.994  -1.302   0.468  1.00  0.00     0.124 C 
BRANCH   6   9
ATOM      9  C07 SIA B   4       3.689  -0.578  -1.096  1.00  0.00     0.152 C 
BRANCH   9  10
ATOM     10  C08 SIA B   4       4.708  -0.108  -0.091  1.00  0.00     0.198 C 
BRANCH  10  11
ATOM     11  N10 SIA B   4       6.060  -0.255  -0.597  1.00  0.00    -0.289 NA
ATOM     12  H   UNL     1       6.197  -1.275  -0.843  1.00  0.00     0.125 HD
BRANCH  11  13
ATOM     13  C12 SIA B   4       6.306   0.547  -1.765  1.00  0.00     0.116 C 
BRANCH  13  14
ATOM     14  C13 SIA B   4       7.768   0.404  -2.164  1.00  0.00     0.142 C 
BRANCH  14  15
ATOM     15  C15 SIA B   4       8.587   0.990  -1.036  1.00  0.00     0.125 C 
BRANCH  15  16
ATOM     16  N16 SIA B   4       8.424   0.198   0.140  1.00  0.00    -0.234 NA
ATOM     17  C   SIA B   4       9.019  -1.105   0.082  1.00  0.00     0.370 C 
ATOM     18  C17 SIA B   4       8.962   0.767   1.338  1.00  0.00     0.107 C 
ATOM     19  N19 SIA B   4       8.785  -1.600   1.446  1.00  0.00    -0.250 NA
ATOM     20  C18 SIA B   4       9.052  -0.430   2.272  1.00  0.00     0.104 C 
ATOM     21  H   UNL     1       7.766  -1.796   1.495  1.00  0.00     0.130 HD
BRANCH  17  22
ATOM     22  N20 SIA B   4      10.453  -1.065  -0.148  1.00  0.00    -0.199 N 
ATOM     23  O   SIA B   4      10.744  -1.606  -1.371  1.00  0.00    -0.598 OA
ATOM     24  H   UNL     1      10.773  -0.073  -0.174  1.00  0.00     0.391 HD
BRANCH  22  25
ATOM     25  O21 SIA B   4      11.061  -1.776   0.810  1.00  0.00    -0.216 OA
ATOM     26  H   UNL     1      11.935  -1.334   0.990  1.00  0.00     0.288 HD
ENDBRANCH  22  25
ENDBRANCH  17  22
ENDBRANCH  15  16
ENDBRANCH  14  15
BRANCH  14  27
ATOM     27  O14 SIA B   4       7.987   1.191  -3.310  1.00  0.00    -0.390 OA
ATOM     28  H   UNL     1       8.439   0.625  -3.987  1.00  0.00     0.211 HD
ENDBRANCH  14  27
ENDBRANCH  13  14
ENDBRANCH  11  13
ENDBRANCH  10  11
BRANCH  10  29
ATOM     29  O09 SIA B   4       4.506   1.244   0.220  1.00  0.00    -0.377 OA
ATOM     30  H   UNL     1       4.309   1.729  -0.616  1.00  0.00     0.212 HD
ENDBRANCH  10  29
ENDBRANCH   9  10
ENDBRANCH   6   9
ENDBRANCH   1   2
BRANCH   1  31
ATOM     31  C01 SIA B   4      -1.173  -1.523   0.500  1.00  0.00     0.166 C 
BRANCH  31  32
ATOM     32  O01 SIA B   4      -1.786  -0.697  -0.316  1.00  0.00    -0.340 OA
BRANCH  32  33
ATOM     33  C02 SIA B   4      -1.278   0.060  -1.274  1.00  0.00     0.325 C 
BRANCH  33  34
ATOM     34  O02 SIA B   4      -1.806  -0.357  -2.572  1.00  0.00    -0.356 OA
ATOM     35  H   UNL     1      -1.658  -1.345  -2.562  1.00  0.00     0.215 HD
ENDBRANCH  33  34
BRANCH  33  36
ATOM     36  N04 SIA B   4      -1.684   1.439  -1.104  1.00  0.00    -0.266 NA
ATOM     37  H   UNL     1      -1.255   1.942  -0.334  1.00  0.00     0.127 HD
BRANCH  36  38
ATOM     38  C9  SIA B   4      -3.054   1.701  -1.342  1.00  0.00     0.120 C 
BRANCH  38  39
ATOM     39  C8  SIA B   4      -4.039   1.114  -0.364  1.00  0.00     0.159 C 
BRANCH  39  40
ATOM     40  C7  SIA B   4      -5.433   1.495  -0.797  1.00  0.00     0.175 C 
BRANCH  40  41
ATOM     41  C6  SIA B   4      -6.510   0.980   0.113  1.00  0.00     0.169 C 
ATOM     42  C5  SIA B   4      -6.706  -0.495   0.016  1.00  0.00     0.116 C 
ATOM     43  O6  SIA B   4      -6.319   1.462   1.373  1.00  0.00    -0.365 OA
ATOM     44  C4  SIA B   4      -6.663  -1.173   1.352  1.00  0.00     0.137 C 
ATOM     45  C2  SIA B   4      -7.194   1.069   2.345  1.00  0.00     0.177 C 
ATOM     46  C3  SIA B   4      -7.463  -0.402   2.401  1.00  0.00     0.071 C 
BRANCH  42  47
ATOM     47  N5  SIA B   4      -7.891  -0.810  -0.716  1.00  0.00    -0.285 NA
ATOM     48  H   UNL     1      -8.133  -0.136  -1.450  1.00  0.00     0.125 HD
BRANCH  47  49
ATOM     49  C10 SIA B   4      -8.071  -2.179  -1.067  1.00  0.00     0.179 C 
ATOM     50  C11 SIA B   4      -6.921  -2.586  -1.983  1.00  0.00     0.056 C 
BRANCH  49  51
ATOM     51  O10 SIA B   4      -9.223  -2.249  -1.888  1.00  0.00    -0.379 OA
ATOM     52  H   UNL     1      -9.990  -1.769  -1.460  1.00  0.00     0.212 HD
ENDBRANCH  49  51
ENDBRANCH  47  49
ENDBRANCH  42  47
BRANCH  44  53
ATOM     53  O4  SIA B   4      -5.322  -1.197   1.778  1.00  0.00    -0.391 OA
ATOM     54  H   UNL     1      -5.252  -1.033   2.730  1.00  0.00     0.211 HD
ENDBRANCH  44  53
BRANCH  45  55
ATOM     55  C1  SIA B   4      -8.453   1.902   2.400  1.00  0.00     0.273 C 
BRANCH  55  56
ATOM     56  O1A SIA B   4      -9.189   1.890   1.255  1.00  0.00    -0.366 OA
ATOM     57  H   UNL     1     -10.095   1.505   1.332  1.00  0.00     0.213 HD
ENDBRANCH  55  56
BRANCH  55  58
ATOM     58  O1B SIA B   4      -8.024   3.232   2.621  1.00  0.00    -0.366 OA
ATOM     59  H   UNL     1      -7.914   3.724   1.770  1.00  0.00     0.213 HD
ENDBRANCH  55  58
ENDBRANCH  45  55
ENDBRANCH  40  41
BRANCH  40  60
ATOM     60  O7  SIA B   4      -5.642   0.970  -2.069  1.00  0.00    -0.388 OA
ATOM     61  H   UNL     1      -6.290   1.499  -2.588  1.00  0.00     0.211 HD
ENDBRANCH  40  60
ENDBRANCH  39  40
BRANCH  39  62
ATOM     62  O8  SIA B   4      -3.729   1.603   0.897  1.00  0.00    -0.389 OA
ATOM     63  H   UNL     1      -3.961   2.573   0.903  1.00  0.00     0.211 HD
ENDBRANCH  39  62
ENDBRANCH  38  39
ENDBRANCH  36  38
ENDBRANCH  33  36
ENDBRANCH  32  33
ENDBRANCH  31  32
ENDBRANCH   1  31
TORSDOF 30
