REMARK SMILES CCCCCCN1CC(CCOC(O)NC[C@@H](O)[C@@H](O)[C@@H]2O[C@@H](C(O)O)C[C@H](O)[C@H]2NC(C)O)NN1
REMARK SMILES IDX 13 1 12 2 11 3 10 4 9 5 35 6 36 7 7 9 8 11 6 12 5 13 4 14
REMARK SMILES IDX 3 15 2 16 1 17 14 18 15 20 16 22 17 23 19 24 21 25 30 26
REMARK SMILES IDX 22 27 28 28 23 29 27 30 31 31 32 33 33 34 34 35 29 37 24 39
REMARK SMILES IDX 25 40 26 42 20 44 18 46
REMARK H PARENT 35 8 36 10 14 19 15 21 31 32 34 36 29 38 25 41 26 43 20 45
REMARK H PARENT 18 47
REMARK Flexibility Score: inf
ROOT
ATOM      1  C02 SIA B   4       0.138   1.400   1.358  1.00  0.00     0.325 C 
ENDROOT
BRANCH   1   2
ATOM      2  O01 SIA B   4       1.235   0.627   0.817  1.00  0.00    -0.340 OA
BRANCH   2   3
ATOM      3  C01 SIA B   4       2.053   0.299   1.894  1.00  0.00     0.166 C 
BRANCH   3   4
ATOM      4  C03 SIA B   4       3.028  -0.736   1.570  1.00  0.00     0.050 C 
BRANCH   4   5
ATOM      5  C04 SIA B   4       4.078  -0.454   0.603  1.00  0.00     0.088 C 
ATOM      6  N   SIA B   4       3.658  -0.036  -0.705  1.00  0.00    -0.240 NA
ATOM      7  N14 SIA B   4       4.874  -0.285  -1.462  1.00  0.00    -0.191 NA
ATOM      8  H   UNL     1       3.373   0.945  -0.789  1.00  0.00     0.143 HD
ATOM      9  N06 SIA B   4       5.414  -1.426  -1.015  1.00  0.00    -0.229 NA
ATOM     10  H   UNL     1       5.447   0.576  -1.469  1.00  0.00     0.161 HD
ATOM     11  C05 SIA B   4       4.685  -1.863   0.168  1.00  0.00     0.124 C 
BRANCH   9  12
ATOM     12  C07 SIA B   4       6.779  -1.425  -0.630  1.00  0.00     0.104 C 
BRANCH  12  13
ATOM     13  C08 SIA B   4       7.803  -0.917  -1.580  1.00  0.00     0.017 C 
BRANCH  13  14
ATOM     14  C09 SIA B   4       9.155  -1.162  -0.914  1.00  0.00     0.001 C 
BRANCH  14  15
ATOM     15  C12 SIA B   4       9.310  -0.553   0.431  1.00  0.00    -0.000 C 
BRANCH  15  16
ATOM     16  C13 SIA B   4       9.147   0.922   0.529  1.00  0.00    -0.003 C 
ATOM     17  C   SIA B   4      10.112   1.717  -0.272  1.00  0.00     0.004 C 
ENDBRANCH  15  16
ENDBRANCH  14  15
ENDBRANCH  13  14
ENDBRANCH  12  13
ENDBRANCH   9  12
ENDBRANCH   4   5
ENDBRANCH   3   4
ENDBRANCH   2   3
ENDBRANCH   1   2
BRANCH   1  18
ATOM     18  O02 SIA B   4      -0.262   2.427   0.646  1.00  0.00    -0.356 OA
ATOM     19  H   UNL     1       0.083   2.431  -0.277  1.00  0.00     0.215 HD
ENDBRANCH   1  18
BRANCH   1  20
ATOM     20  N04 SIA B   4      -0.858   0.336   1.505  1.00  0.00    -0.266 NA
ATOM     21  H   UNL     1      -0.905  -0.074   2.415  1.00  0.00     0.127 HD
BRANCH  20  22
ATOM     22  C9  SIA B   4      -1.526  -0.138   0.397  1.00  0.00     0.120 C 
BRANCH  22  23
ATOM     23  C8  SIA B   4      -2.725   0.673   0.038  1.00  0.00     0.159 C 
BRANCH  23  24
ATOM     24  C7  SIA B   4      -3.644  -0.058  -0.918  1.00  0.00     0.175 C 
BRANCH  24  25
ATOM     25  C6  SIA B   4      -5.108   0.161  -0.386  1.00  0.00     0.169 C 
ATOM     26  C5  SIA B   4      -5.953  -0.727  -1.222  1.00  0.00     0.116 C 
ATOM     27  O6  SIA B   4      -4.993  -0.239   0.931  1.00  0.00    -0.365 OA
ATOM     28  C4  SIA B   4      -6.582  -1.805  -0.358  1.00  0.00     0.137 C 
ATOM     29  C2  SIA B   4      -6.123  -0.477   1.630  1.00  0.00     0.177 C 
ATOM     30  C3  SIA B   4      -7.188  -1.230   0.899  1.00  0.00     0.071 C 
BRANCH  26  31
ATOM     31  N5  SIA B   4      -7.037  -0.099  -1.924  1.00  0.00    -0.285 NA
ATOM     32  H   UNL     1      -7.804  -0.707  -2.197  1.00  0.00     0.125 HD
BRANCH  31  33
ATOM     33  C10 SIA B   4      -6.695   0.986  -2.777  1.00  0.00     0.179 C 
ATOM     34  C11 SIA B   4      -7.704   2.109  -2.538  1.00  0.00     0.056 C 
BRANCH  33  35
ATOM     35  O10 SIA B   4      -6.864   0.578  -4.111  1.00  0.00    -0.379 OA
ATOM     36  H   UNL     1      -7.135  -0.394  -4.152  1.00  0.00     0.212 HD
ENDBRANCH  33  35
ENDBRANCH  31  33
ENDBRANCH  26  31
BRANCH  28  37
ATOM     37  O4  SIA B   4      -5.630  -2.735  -0.036  1.00  0.00    -0.391 OA
ATOM     38  H   UNL     1      -5.657  -3.551  -0.573  1.00  0.00     0.211 HD
ENDBRANCH  28  37
BRANCH  29  39
ATOM     39  C1  SIA B   4      -6.679   0.773   2.310  1.00  0.00     0.273 C 
BRANCH  39  40
ATOM     40  O1A SIA B   4      -6.975   1.756   1.397  1.00  0.00    -0.366 OA
ATOM     41  H   UNL     1      -7.398   2.511   1.841  1.00  0.00     0.213 HD
ENDBRANCH  39  40
BRANCH  39  42
ATOM     42  O1B SIA B   4      -5.803   1.156   3.316  1.00  0.00    -0.366 OA
ATOM     43  H   UNL     1      -4.994   1.606   3.041  1.00  0.00     0.213 HD
ENDBRANCH  39  42
ENDBRANCH  29  39
ENDBRANCH  24  25
BRANCH  24  44
ATOM     44  O7  SIA B   4      -3.501  -1.451  -0.693  1.00  0.00    -0.388 OA
ATOM     45  H   UNL     1      -2.972  -1.857  -1.422  1.00  0.00     0.211 HD
ENDBRANCH  24  44
ENDBRANCH  23  24
BRANCH  23  46
ATOM     46  O8  SIA B   4      -2.638   1.981  -0.248  1.00  0.00    -0.389 OA
ATOM     47  H   UNL     1      -3.119   2.220  -1.103  1.00  0.00     0.211 HD
ENDBRANCH  23  46
ENDBRANCH  22  23
ENDBRANCH  20  22
ENDBRANCH   1  20
TORSDOF 24
