REMARK SMILES CC(O)N[C@H]1[C@H]([C@H](O)[C@H](O)CNC(O)OCCC2CN(CCOC(C)O)NN2)O[C@@H](C(O)O)C[C@@H]1O
REMARK SMILES IDX 13 1 15 2 16 3 17 4 18 5 28 6 27 7 20 9 19 11 21 12 22 13
REMARK SMILES IDX 23 14 24 15 25 16 26 17 14 19 12 21 11 23 9 24 7 25 6 26
REMARK SMILES IDX 5 27 29 28 35 29 30 30 34 31 4 32 2 34 1 35 3 36 36 38 31 40
REMARK SMILES IDX 32 41 33 43 8 45 10 47
REMARK H PARENT 28 8 27 10 26 18 14 20 12 22 4 33 3 37 36 39 32 42 33 44 8 46
REMARK H PARENT 10 48
REMARK Flexibility Score: inf
ROOT
ATOM      1  C02 SIA B   4      -0.011   0.816  -0.824  1.00  0.00     0.325 C 
ENDROOT
BRANCH   1   2
ATOM      2  O01 SIA B   4       1.281   0.999  -0.398  1.00  0.00    -0.340 OA
BRANCH   2   3
ATOM      3  C01 SIA B   4       2.033  -0.114  -0.188  1.00  0.00     0.166 C 
BRANCH   3   4
ATOM      4  C03 SIA B   4       3.457   0.309   0.150  1.00  0.00     0.050 C 
BRANCH   4   5
ATOM      5  C04 SIA B   4       4.090   1.033  -1.025  1.00  0.00     0.088 C 
ATOM      6  N   SIA B   4       4.110   0.119  -2.186  1.00  0.00    -0.240 NA
ATOM      7  N13 SIA B   4       4.953  -0.924  -1.757  1.00  0.00    -0.191 NA
ATOM      8  H   UNL     1       4.604   0.632  -2.968  1.00  0.00     0.143 HD
ATOM      9  N06 SIA B   4       5.974  -0.338  -0.983  1.00  0.00    -0.227 NA
ATOM     10  H   UNL     1       4.456  -1.665  -1.244  1.00  0.00     0.161 HD
ATOM     11  C05 SIA B   4       5.598   1.051  -0.763  1.00  0.00     0.124 C 
BRANCH   9  12
ATOM     12  C07 SIA B   4       7.230  -0.399  -1.697  1.00  0.00     0.132 C 
BRANCH  12  13
ATOM     13  C08 SIA B   4       8.347   0.124  -0.835  1.00  0.00     0.180 C 
BRANCH  13  14
ATOM     14  O09 SIA B   4       8.490  -0.603   0.350  1.00  0.00    -0.352 OA
BRANCH  14  15
ATOM     15  C12 SIA B   4       9.545  -0.075   1.111  1.00  0.00     0.243 C 
ATOM     16  C   SIA B   4       8.994   0.401   2.425  1.00  0.00     0.071 C 
BRANCH  15  17
ATOM     17  O   SIA B   4      10.537  -1.028   1.299  1.00  0.00    -0.368 OA
ATOM     18  H   UNL     1      10.282  -1.931   1.025  1.00  0.00     0.213 HD
ENDBRANCH  15  17
ENDBRANCH  14  15
ENDBRANCH  13  14
ENDBRANCH  12  13
ENDBRANCH   9  12
ENDBRANCH   4   5
ENDBRANCH   3   4
ENDBRANCH   2   3
ENDBRANCH   1   2
BRANCH   1  19
ATOM     19  O02 SIA B   4      -0.348   1.419  -2.005  1.00  0.00    -0.356 OA
ATOM     20  H   UNL     1      -0.431   2.402  -1.952  1.00  0.00     0.215 HD
ENDBRANCH   1  19
BRANCH   1  21
ATOM     21  N04 SIA B   4      -0.914   1.195   0.287  1.00  0.00    -0.266 NA
ATOM     22  H   UNL     1      -1.601   1.852  -0.080  1.00  0.00     0.127 HD
BRANCH  21  23
ATOM     23  C9  SIA B   4      -1.381  -0.013   0.868  1.00  0.00     0.120 C 
BRANCH  23  24
ATOM     24  C8  SIA B   4      -2.258   0.053   2.048  1.00  0.00     0.159 C 
BRANCH  24  25
ATOM     25  C7  SIA B   4      -3.600   0.645   1.955  1.00  0.00     0.175 C 
BRANCH  25  26
ATOM     26  C6  SIA B   4      -4.668  -0.179   1.276  1.00  0.00     0.169 C 
ATOM     27  C5  SIA B   4      -5.043   0.239  -0.094  1.00  0.00     0.116 C 
ATOM     28  O6  SIA B   4      -4.492  -1.482   1.547  1.00  0.00    -0.365 OA
ATOM     29  C4  SIA B   4      -4.619  -0.680  -1.195  1.00  0.00     0.137 C 
ATOM     30  C2  SIA B   4      -4.626  -2.390   0.563  1.00  0.00     0.177 C 
ATOM     31  C3  SIA B   4      -4.189  -2.043  -0.808  1.00  0.00     0.071 C 
BRANCH  27  32
ATOM     32  N5  SIA B   4      -6.459   0.470  -0.253  1.00  0.00    -0.285 NA
ATOM     33  H   UNL     1      -6.754   0.108  -1.177  1.00  0.00     0.125 HD
BRANCH  32  34
ATOM     34  C10 SIA B   4      -6.934   1.786  -0.070  1.00  0.00     0.179 C 
ATOM     35  C11 SIA B   4      -6.349   2.764  -1.058  1.00  0.00     0.056 C 
BRANCH  34  36
ATOM     36  O10 SIA B   4      -8.332   1.804  -0.292  1.00  0.00    -0.379 OA
ATOM     37  H   UNL     1      -8.809   1.487   0.490  1.00  0.00     0.212 HD
ENDBRANCH  34  36
ENDBRANCH  32  34
ENDBRANCH  27  32
BRANCH  29  38
ATOM     38  O4  SIA B   4      -3.592  -0.116  -1.993  1.00  0.00    -0.391 OA
ATOM     39  H   UNL     1      -3.511  -0.634  -2.842  1.00  0.00     0.211 HD
ENDBRANCH  29  38
BRANCH  30  40
ATOM     40  C1  SIA B   4      -6.001  -3.060   0.495  1.00  0.00     0.273 C 
BRANCH  40  41
ATOM     41  O1A SIA B   4      -6.246  -3.724   1.710  1.00  0.00    -0.366 OA
ATOM     42  H   UNL     1      -7.204  -3.862   1.753  1.00  0.00     0.213 HD
ENDBRANCH  40  41
BRANCH  40  43
ATOM     43  O1B SIA B   4      -5.868  -4.076  -0.452  1.00  0.00    -0.366 OA
ATOM     44  H   UNL     1      -6.527  -4.019  -1.168  1.00  0.00     0.213 HD
ENDBRANCH  40  43
ENDBRANCH  30  40
ENDBRANCH  25  26
BRANCH  25  45
ATOM     45  O7  SIA B   4      -3.608   1.981   1.653  1.00  0.00    -0.388 OA
ATOM     46  H   UNL     1      -4.516   2.348   1.580  1.00  0.00     0.211 HD
ENDBRANCH  25  45
ENDBRANCH  24  25
BRANCH  24  47
ATOM     47  O8  SIA B   4      -1.532   0.737   3.065  1.00  0.00    -0.389 OA
ATOM     48  H   UNL     1      -0.715   1.159   2.710  1.00  0.00     0.211 HD
ENDBRANCH  24  47
ENDBRANCH  23  24
ENDBRANCH  21  23
ENDBRANCH   1  21
TORSDOF 24
