REMARK SMILES CC(O)N[C@H]1[C@H]([C@H](O)[C@H](O)CNC(O)OCCC2CN(C3CCC(O)C([N@@H+]([O-])O)C3)NN2)O[C@@H](C(O)O)C[C@@H]1O
REMARK SMILES IDX 13 1 15 2 16 3 17 4 18 5 32 6 31 7 20 9 19 11 21 12 30 13
REMARK SMILES IDX 22 14 26 15 23 16 24 17 27 18 28 19 29 21 25 23 14 25 12 27
REMARK SMILES IDX 11 29 9 30 7 31 6 32 5 33 33 34 39 35 34 36 38 37 4 38 2 40
REMARK SMILES IDX 1 41 3 42 40 44 35 46 36 47 37 49 8 51 10 53
REMARK H PARENT 32 8 31 10 27 20 29 22 25 24 14 26 12 28 4 39 3 43 40 45 36 48
REMARK H PARENT 37 50 8 52 10 54
REMARK Flexibility Score: inf
ROOT
ATOM      1  C02 SIA B   4      -0.114   2.400   0.525  1.00  0.00     0.325 C 
ENDROOT
BRANCH   1   2
ATOM      2  O01 SIA B   4       1.245   2.291   0.102  1.00  0.00    -0.340 OA
BRANCH   2   3
ATOM      3  C01 SIA B   4       2.033   2.420   1.242  1.00  0.00     0.166 C 
BRANCH   3   4
ATOM      4  C03 SIA B   4       3.491   2.327   0.830  1.00  0.00     0.050 C 
BRANCH   4   5
ATOM      5  C04 SIA B   4       3.815   1.029   0.171  1.00  0.00     0.088 C 
ATOM      6  N   SIA B   4       3.583  -0.128   0.986  1.00  0.00    -0.239 NA
ATOM      7  N17 SIA B   4       4.362  -1.103   0.347  1.00  0.00    -0.191 NA
ATOM      8  H   UNL     1       3.841   0.000   1.978  1.00  0.00     0.143 HD
ATOM      9  N06 SIA B   4       5.551  -0.487  -0.058  1.00  0.00    -0.226 NA
ATOM     10  H   UNL     1       4.499  -1.907   0.966  1.00  0.00     0.161 HD
ATOM     11  C05 SIA B   4       5.334   0.946  -0.013  1.00  0.00     0.124 C 
BRANCH   9  12
ATOM     12  C07 SIA B   4       6.648  -0.821   0.838  1.00  0.00     0.080 C 
ATOM     13  C   SIA B   4       7.908  -0.167   0.392  1.00  0.00     0.092 C 
ATOM     14  C08 SIA B   4       6.746  -2.309   1.025  1.00  0.00     0.024 C 
ATOM     15  C14 SIA B   4       8.774  -1.038  -0.487  1.00  0.00     0.247 C 
ATOM     16  C09 SIA B   4       8.177  -2.682   1.304  1.00  0.00     0.040 C 
ATOM     17  C12 SIA B   4       9.050  -2.380   0.095  1.00  0.00     0.175 C 
BRANCH  15  18
ATOM     18  N15 SIA B   4       8.148  -1.095  -1.792  1.00  0.00    -0.222 N 
ATOM     19  O   SIA B   4       7.702   0.130  -2.164  1.00  0.00    -0.600 OA
ATOM     20  H   UNL     1       7.316  -1.730  -1.802  1.00  0.00     0.389 HD
BRANCH  18  21
ATOM     21  O16 SIA B   4       8.984  -1.523  -2.757  1.00  0.00    -0.218 OA
ATOM     22  H   UNL     1       9.783  -0.939  -2.826  1.00  0.00     0.288 HD
ENDBRANCH  18  21
ENDBRANCH  15  18
BRANCH  17  23
ATOM     23  O13 SIA B   4       8.924  -3.420  -0.806  1.00  0.00    -0.387 OA
ATOM     24  H   UNL     1       9.699  -3.557  -1.382  1.00  0.00     0.211 HD
ENDBRANCH  17  23
ENDBRANCH   9  12
ENDBRANCH   4   5
ENDBRANCH   3   4
ENDBRANCH   2   3
ENDBRANCH   1   2
BRANCH   1  25
ATOM     25  O02 SIA B   4      -0.589   3.528  -0.097  1.00  0.00    -0.356 OA
ATOM     26  H   UNL     1       0.075   4.193  -0.362  1.00  0.00     0.215 HD
ENDBRANCH   1  25
BRANCH   1  27
ATOM     27  N04 SIA B   4      -0.744   1.176   0.217  1.00  0.00    -0.266 NA
ATOM     28  H   UNL     1      -0.629   0.942  -0.793  1.00  0.00     0.127 HD
BRANCH  27  29
ATOM     29  C9  SIA B   4      -2.111   0.987   0.595  1.00  0.00     0.120 C 
BRANCH  29  30
ATOM     30  C8  SIA B   4      -3.017   1.840  -0.208  1.00  0.00     0.159 C 
BRANCH  30  31
ATOM     31  C7  SIA B   4      -4.490   1.749   0.181  1.00  0.00     0.175 C 
BRANCH  31  32
ATOM     32  C6  SIA B   4      -4.960   0.348   0.026  1.00  0.00     0.169 C 
ATOM     33  C5  SIA B   4      -6.305   0.095   0.672  1.00  0.00     0.116 C 
ATOM     34  O6  SIA B   4      -4.888  -0.227  -1.186  1.00  0.00    -0.365 OA
ATOM     35  C4  SIA B   4      -7.415   0.218  -0.272  1.00  0.00     0.137 C 
ATOM     36  C2  SIA B   4      -5.760   0.170  -2.165  1.00  0.00     0.177 C 
ATOM     37  C3  SIA B   4      -7.099   0.563  -1.701  1.00  0.00     0.071 C 
BRANCH  33  38
ATOM     38  N5  SIA B   4      -6.244  -1.166   1.323  1.00  0.00    -0.285 NA
ATOM     39  H   UNL     1      -5.787  -1.905   0.750  1.00  0.00     0.125 HD
BRANCH  38  40
ATOM     40  C10 SIA B   4      -7.219  -1.584   2.227  1.00  0.00     0.179 C 
ATOM     41  C11 SIA B   4      -8.621  -1.827   1.799  1.00  0.00     0.056 C 
BRANCH  40  42
ATOM     42  O10 SIA B   4      -7.277  -0.720   3.374  1.00  0.00    -0.379 OA
ATOM     43  H   UNL     1      -8.107  -0.175   3.294  1.00  0.00     0.212 HD
ENDBRANCH  40  42
ENDBRANCH  38  40
ENDBRANCH  33  38
BRANCH  35  44
ATOM     44  O4  SIA B   4      -8.389   1.150   0.190  1.00  0.00    -0.391 OA
ATOM     45  H   UNL     1      -8.206   2.044  -0.193  1.00  0.00     0.211 HD
ENDBRANCH  35  44
BRANCH  36  46
ATOM     46  C1  SIA B   4      -5.918  -1.062  -3.077  1.00  0.00     0.273 C 
BRANCH  46  47
ATOM     47  O1A SIA B   4      -4.718  -1.446  -3.623  1.00  0.00    -0.366 OA
ATOM     48  H   UNL     1      -4.153  -1.809  -2.878  1.00  0.00     0.213 HD
ENDBRANCH  46  47
BRANCH  46  49
ATOM     49  O1B SIA B   4      -6.925  -0.855  -4.006  1.00  0.00    -0.366 OA
ATOM     50  H   UNL     1      -7.075  -1.662  -4.521  1.00  0.00     0.213 HD
ENDBRANCH  46  49
ENDBRANCH  36  46
ENDBRANCH  31  32
BRANCH  31  51
ATOM     51  O7  SIA B   4      -5.140   2.699  -0.570  1.00  0.00    -0.388 OA
ATOM     52  H   UNL     1      -4.690   2.790  -1.433  1.00  0.00     0.211 HD
ENDBRANCH  31  51
ENDBRANCH  30  31
BRANCH  30  53
ATOM     53  O8  SIA B   4      -2.928   1.570  -1.570  1.00  0.00    -0.389 OA
ATOM     54  H   UNL     1      -2.775   0.621  -1.765  1.00  0.00     0.211 HD
ENDBRANCH  30  53
ENDBRANCH  29  30
ENDBRANCH  27  29
ENDBRANCH   1  27
TORSDOF 23
