REMARK SMILES CC(O)N[C@H]1[C@H]([C@H](O)[C@H](O)CNC(O)OCCC2CN(C3CCC4NNCC4C3)NN2)O[C@@H](C(O)O)C[C@@H]1O
REMARK SMILES IDX 11 1 12 2 13 4 15 5 16 6 17 7 18 8 31 9 30 10 20 12 19 14
REMARK SMILES IDX 21 15 29 16 22 17 28 18 23 19 24 20 27 21 25 22 26 23 14 26
REMARK SMILES IDX 9 28 7 29 6 30 5 31 32 32 38 33 33 34 37 35 4 36 2 38 1 39
REMARK SMILES IDX 3 40 39 42 34 44 35 45 36 47 8 49 10 51
REMARK H PARENT 12 3 31 11 30 13 25 24 26 25 14 27 4 37 3 41 39 43 35 46 36 48
REMARK H PARENT 8 50 10 52
REMARK Flexibility Score: inf
ROOT
ATOM      1  C9  SIA B   4      -1.688   1.571   2.885  1.00  0.00     0.120 C 
ENDROOT
BRANCH   1   2
ATOM      2  N04 SIA B   4      -0.757   1.082   3.851  1.00  0.00    -0.266 NA
ATOM      3  H   UNL     1      -0.401   1.898   4.395  1.00  0.00     0.127 HD
BRANCH   2   4
ATOM      4  C02 SIA B   4       0.343   0.324   3.236  1.00  0.00     0.325 C 
BRANCH   4   5
ATOM      5  O01 SIA B   4       0.992   1.170   2.388  1.00  0.00    -0.340 OA
BRANCH   5   6
ATOM      6  C01 SIA B   4       1.107   0.760   1.071  1.00  0.00     0.166 C 
BRANCH   6   7
ATOM      7  C03 SIA B   4       1.879  -0.511   1.003  1.00  0.00     0.050 C 
BRANCH   7   8
ATOM      8  C04 SIA B   4       2.056  -1.023  -0.407  1.00  0.00     0.088 C 
ATOM      9  N   SIA B   4       2.810  -2.260  -0.424  1.00  0.00    -0.239 NA
ATOM     10  N18 SIA B   4       3.698  -2.164  -1.501  1.00  0.00    -0.191 NA
ATOM     11  H   UNL     1       3.255  -2.500   0.466  1.00  0.00     0.143 HD
ATOM     12  N06 SIA B   4       4.137  -0.812  -1.520  1.00  0.00    -0.226 NA
ATOM     13  H   UNL     1       3.127  -2.328  -2.368  1.00  0.00     0.161 HD
ATOM     14  C05 SIA B   4       2.913  -0.122  -1.247  1.00  0.00     0.124 C 
BRANCH  12  15
ATOM     15  C07 SIA B   4       5.144  -0.692  -0.521  1.00  0.00     0.074 C 
ATOM     16  C   SIA B   4       6.375  -1.435  -0.985  1.00  0.00     0.027 C 
ATOM     17  C08 SIA B   4       5.524   0.711  -0.166  1.00  0.00     0.022 C 
ATOM     18  C17 SIA B   4       7.059  -0.756  -2.137  1.00  0.00     0.024 C 
ATOM     19  C09 SIA B   4       6.177   1.451  -1.306  1.00  0.00     0.022 C 
ATOM     20  C12 SIA B   4       7.324   0.707  -1.905  1.00  0.00     0.074 C 
ATOM     21  C16 SIA B   4       8.491  -1.306  -2.179  1.00  0.00     0.104 C 
ATOM     22  N13 SIA B   4       8.490   0.689  -1.059  1.00  0.00    -0.254 NA
ATOM     23  N15 SIA B   4       9.282  -0.369  -1.442  1.00  0.00    -0.257 NA
ATOM     24  H   UNL     1       8.224   0.683  -0.060  1.00  0.00     0.142 HD
ATOM     25  H   UNL     1      10.177  -0.097  -1.905  1.00  0.00     0.141 HD
ENDBRANCH  12  15
ENDBRANCH   7   8
ENDBRANCH   6   7
ENDBRANCH   5   6
ENDBRANCH   4   5
BRANCH   4  26
ATOM     26  O02 SIA B   4       1.232   0.080   4.312  1.00  0.00    -0.356 OA
ATOM     27  H   UNL     1       1.025  -0.838   4.620  1.00  0.00     0.215 HD
ENDBRANCH   4  26
ENDBRANCH   2   4
ENDBRANCH   1   2
BRANCH   1  28
ATOM     28  C8  SIA B   4      -2.489   0.481   2.209  1.00  0.00     0.159 C 
BRANCH  28  29
ATOM     29  C7  SIA B   4      -3.451   1.147   1.255  1.00  0.00     0.175 C 
BRANCH  29  30
ATOM     30  C6  SIA B   4      -4.336   0.091   0.629  1.00  0.00     0.169 C 
ATOM     31  C5  SIA B   4      -5.364   0.740  -0.303  1.00  0.00     0.116 C 
ATOM     32  O6  SIA B   4      -3.568  -0.763  -0.128  1.00  0.00    -0.365 OA
ATOM     33  C4  SIA B   4      -6.387  -0.310  -0.636  1.00  0.00     0.137 C 
ATOM     34  C2  SIA B   4      -4.328  -1.738  -0.769  1.00  0.00     0.177 C 
ATOM     35  C3  SIA B   4      -5.778  -1.674  -0.392  1.00  0.00     0.071 C 
BRANCH  31  36
ATOM     36  N5  SIA B   4      -5.895   1.938   0.274  1.00  0.00    -0.285 NA
ATOM     37  H   UNL     1      -6.376   1.722   1.168  1.00  0.00     0.125 HD
BRANCH  36  38
ATOM     38  C10 SIA B   4      -6.795   2.641  -0.607  1.00  0.00     0.179 C 
ATOM     39  C11 SIA B   4      -6.119   3.101  -1.870  1.00  0.00     0.056 C 
BRANCH  38  40
ATOM     40  O10 SIA B   4      -7.940   1.948  -0.927  1.00  0.00    -0.379 OA
ATOM     41  H   UNL     1      -8.543   1.885  -0.136  1.00  0.00     0.212 HD
ENDBRANCH  38  40
ENDBRANCH  36  38
ENDBRANCH  31  36
BRANCH  33  42
ATOM     42  O4  SIA B   4      -6.875  -0.203  -1.941  1.00  0.00    -0.391 OA
ATOM     43  H   UNL     1      -7.792  -0.616  -1.901  1.00  0.00     0.211 HD
ENDBRANCH  33  42
BRANCH  34  44
ATOM     44  C1  SIA B   4      -3.789  -3.086  -0.342  1.00  0.00     0.273 C 
BRANCH  44  45
ATOM     45  O1A SIA B   4      -3.919  -3.166   1.045  1.00  0.00    -0.366 OA
ATOM     46  H   UNL     1      -3.416  -2.402   1.421  1.00  0.00     0.213 HD
ENDBRANCH  44  45
BRANCH  44  47
ATOM     47  O1B SIA B   4      -2.423  -3.216  -0.628  1.00  0.00    -0.366 OA
ATOM     48  H   UNL     1      -2.316  -3.628  -1.507  1.00  0.00     0.213 HD
ENDBRANCH  44  47
ENDBRANCH  34  44
ENDBRANCH  29  30
BRANCH  29  49
ATOM     49  O7  SIA B   4      -2.784   1.896   0.312  1.00  0.00    -0.388 OA
ATOM     50  H   UNL     1      -3.212   2.790   0.263  1.00  0.00     0.211 HD
ENDBRANCH  29  49
ENDBRANCH  28  29
BRANCH  28  51
ATOM     51  O8  SIA B   4      -3.236  -0.254   3.129  1.00  0.00    -0.389 OA
ATOM     52  H   UNL     1      -3.479   0.283   3.926  1.00  0.00     0.211 HD
ENDBRANCH  28  51
ENDBRANCH   1  28
TORSDOF 20
