REMARK SMILES CC(O)N[C@H]1[C@H]([C@H](O)[C@H](O)CNC(O)OCCC2CN(C3CCC(Cl)CC3)NN2)O[C@@H](C(O)O)C[C@@H]1O
REMARK SMILES IDX 11 1 12 2 13 4 15 5 16 6 17 7 18 8 29 9 28 10 20 12 19 14
REMARK SMILES IDX 21 15 27 16 22 17 26 18 23 19 24 20 25 21 14 22 9 24 7 25
REMARK SMILES IDX 6 26 5 27 30 28 36 29 31 30 35 31 4 32 2 34 1 35 3 36 37 38
REMARK SMILES IDX 32 40 33 41 34 43 8 45 10 47
REMARK H PARENT 12 3 29 11 28 13 14 23 4 33 3 37 37 39 33 42 34 44 8 46 10 48
REMARK Flexibility Score: inf
ROOT
ATOM      1  C9  SIA B   4      -1.507   1.083   1.986  1.00  0.00     0.120 C 
ENDROOT
BRANCH   1   2
ATOM      2  N04 SIA B   4      -0.521   1.947   1.421  1.00  0.00    -0.266 NA
ATOM      3  H   UNL     1      -0.637   1.945   0.362  1.00  0.00     0.127 HD
BRANCH   2   4
ATOM      4  C02 SIA B   4       0.771   1.198   1.568  1.00  0.00     0.325 C 
BRANCH   4   5
ATOM      5  O01 SIA B   4       1.758   1.990   1.044  1.00  0.00    -0.340 OA
BRANCH   5   6
ATOM      6  C01 SIA B   4       2.685   2.491   1.900  1.00  0.00     0.166 C 
BRANCH   6   7
ATOM      7  C03 SIA B   4       3.576   1.557   2.635  1.00  0.00     0.050 C 
BRANCH   7   8
ATOM      8  C04 SIA B   4       4.494   0.718   1.812  1.00  0.00     0.088 C 
ATOM      9  N   SIA B   4       5.288  -0.086   2.743  1.00  0.00    -0.239 NA
ATOM     10  N14 SIA B   4       5.660  -1.226   2.032  1.00  0.00    -0.191 NA
ATOM     11  H   UNL     1       6.072   0.443   3.146  1.00  0.00     0.143 HD
ATOM     12  N06 SIA B   4       4.886  -1.344   0.899  1.00  0.00    -0.226 NA
ATOM     13  H   UNL     1       5.638  -2.092   2.601  1.00  0.00     0.161 HD
ATOM     14  C05 SIA B   4       3.821  -0.361   0.991  1.00  0.00     0.124 C 
BRANCH  12  15
ATOM     15  C07 SIA B   4       5.605  -1.340  -0.328  1.00  0.00     0.074 C 
ATOM     16  C   SIA B   4       6.354  -0.090  -0.648  1.00  0.00     0.022 C 
ATOM     17  C08 SIA B   4       4.729  -1.739  -1.491  1.00  0.00     0.022 C 
ATOM     18  C13 SIA B   4       7.342  -0.442  -1.771  1.00  0.00     0.021 C 
ATOM     19  C09 SIA B   4       5.672  -2.111  -2.629  1.00  0.00     0.021 C 
ATOM     20  C12 SIA B   4       6.633  -1.014  -2.959  1.00  0.00     0.081 C 
ATOM     21 Cl   SIA B   4       7.874  -1.696  -4.052  1.00  0.00    -0.123 Cl
ENDBRANCH  12  15
ENDBRANCH   7   8
ENDBRANCH   6   7
ENDBRANCH   5   6
ENDBRANCH   4   5
BRANCH   4  22
ATOM     22  O02 SIA B   4       0.625   0.043   0.838  1.00  0.00    -0.356 OA
ATOM     23  H   UNL     1       0.441  -0.767   1.375  1.00  0.00     0.215 HD
ENDBRANCH   4  22
ENDBRANCH   2   4
ENDBRANCH   1   2
BRANCH   1  24
ATOM     24  C8  SIA B   4      -2.901   1.602   1.986  1.00  0.00     0.159 C 
BRANCH  24  25
ATOM     25  C7  SIA B   4      -3.485   1.888   0.646  1.00  0.00     0.175 C 
BRANCH  25  26
ATOM     26  C6  SIA B   4      -3.473   0.706  -0.278  1.00  0.00     0.169 C 
ATOM     27  C5  SIA B   4      -4.066  -0.549   0.306  1.00  0.00     0.116 C 
ATOM     28  O6  SIA B   4      -4.021   1.054  -1.489  1.00  0.00    -0.365 OA
ATOM     29  C4  SIA B   4      -5.577  -0.497   0.304  1.00  0.00     0.137 C 
ATOM     30  C2  SIA B   4      -5.405   1.156  -1.462  1.00  0.00     0.177 C 
ATOM     31  C3  SIA B   4      -5.982  -0.232  -1.146  1.00  0.00     0.071 C 
BRANCH  27  32
ATOM     32  N5  SIA B   4      -3.658  -1.647  -0.541  1.00  0.00    -0.285 NA
ATOM     33  H   UNL     1      -2.653  -1.598  -0.735  1.00  0.00     0.125 HD
BRANCH  32  34
ATOM     34  C10 SIA B   4      -4.060  -2.942  -0.111  1.00  0.00     0.179 C 
ATOM     35  C11 SIA B   4      -3.215  -3.936  -0.930  1.00  0.00     0.056 C 
BRANCH  34  36
ATOM     36  O10 SIA B   4      -5.379  -3.283  -0.403  1.00  0.00    -0.379 OA
ATOM     37  H   UNL     1      -5.490  -3.677  -1.304  1.00  0.00     0.212 HD
ENDBRANCH  34  36
ENDBRANCH  32  34
ENDBRANCH  27  32
BRANCH  29  38
ATOM     38  O4  SIA B   4      -6.050   0.592   1.044  1.00  0.00    -0.391 OA
ATOM     39  H   UNL     1      -5.935   0.466   2.006  1.00  0.00     0.211 HD
ENDBRANCH  29  38
BRANCH  30  40
ATOM     40  C1  SIA B   4      -5.863   1.477  -2.870  1.00  0.00     0.273 C 
BRANCH  40  41
ATOM     41  O1A SIA B   4      -5.286   2.672  -3.258  1.00  0.00    -0.366 OA
ATOM     42  H   UNL     1      -5.697   3.445  -2.787  1.00  0.00     0.213 HD
ENDBRANCH  40  41
BRANCH  40  43
ATOM     43  O1B SIA B   4      -7.260   1.540  -2.945  1.00  0.00    -0.366 OA
ATOM     44  H   UNL     1      -7.557   2.385  -2.567  1.00  0.00     0.213 HD
ENDBRANCH  40  43
ENDBRANCH  30  40
ENDBRANCH  25  26
BRANCH  25  45
ATOM     45  O7  SIA B   4      -2.725   2.883   0.031  1.00  0.00    -0.388 OA
ATOM     46  H   UNL     1      -2.814   2.868  -0.944  1.00  0.00     0.211 HD
ENDBRANCH  25  45
ENDBRANCH  24  25
BRANCH  24  47
ATOM     47  O8  SIA B   4      -2.923   2.798   2.733  1.00  0.00    -0.389 OA
ATOM     48  H   UNL     1      -2.118   3.342   2.570  1.00  0.00     0.211 HD
ENDBRANCH  24  47
ENDBRANCH   1  24
TORSDOF 20
