REMARK SMILES CC(O)N[C@H]1[C@H]([C@H](O)[C@H](O)CNC(O)OCCC2CN(C[C@@H](O)CO)NN2)O[C@@H](C(O)O)C[C@@H]1O
REMARK SMILES IDX 13 1 15 2 16 3 17 4 18 5 27 6 26 7 20 9 19 11 21 12 22 13
REMARK SMILES IDX 24 14 25 15 23 17 14 19 12 21 11 23 9 24 7 25 6 26 5 27
REMARK SMILES IDX 28 28 34 29 29 30 33 31 4 32 2 34 1 35 3 36 35 38 30 40
REMARK SMILES IDX 31 41 32 43 8 45 10 47
REMARK H PARENT 27 8 26 10 25 16 23 18 14 20 12 22 4 33 3 37 35 39 31 42 32 44
REMARK H PARENT 8 46 10 48
REMARK Flexibility Score: inf
ROOT
ATOM      1  C02 SIA B   4       1.389  -1.158   0.914  1.00  0.00     0.325 C 
ENDROOT
BRANCH   1   2
ATOM      2  O01 SIA B   4       1.403  -1.218  -0.410  1.00  0.00    -0.340 OA
BRANCH   2   3
ATOM      3  C01 SIA B   4       2.445  -1.100  -1.208  1.00  0.00     0.166 C 
BRANCH   3   4
ATOM      4  C03 SIA B   4       3.300   0.096  -1.327  1.00  0.00     0.050 C 
BRANCH   4   5
ATOM      5  C04 SIA B   4       4.012   0.588  -0.116  1.00  0.00     0.088 C 
ATOM      6  N   SIA B   4       4.883   1.744  -0.443  1.00  0.00    -0.240 NA
ATOM      7  N10 SIA B   4       6.040   1.110  -0.899  1.00  0.00    -0.191 NA
ATOM      8  H   UNL     1       5.079   2.223   0.442  1.00  0.00     0.143 HD
ATOM      9  N06 SIA B   4       6.328   0.032  -0.089  1.00  0.00    -0.227 NA
ATOM     10  H   UNL     1       5.925   0.824  -1.914  1.00  0.00     0.161 HD
ATOM     11  C05 SIA B   4       5.010  -0.359   0.440  1.00  0.00     0.124 C 
BRANCH   9  12
ATOM     12  C07 SIA B   4       7.180   0.299   1.031  1.00  0.00     0.138 C 
BRANCH  12  13
ATOM     13  C08 SIA B   4       8.607   0.362   0.694  1.00  0.00     0.155 C 
BRANCH  13  14
ATOM     14  C   SIA B   4       8.985   1.459  -0.228  1.00  0.00     0.189 C 
BRANCH  14  15
ATOM     15  O   SIA B   4       8.560   1.318  -1.525  1.00  0.00    -0.394 OA
ATOM     16  H   UNL     1       9.309   0.861  -2.041  1.00  0.00     0.210 HD
ENDBRANCH  14  15
ENDBRANCH  13  14
BRANCH  13  17
ATOM     17  O09 SIA B   4       9.084  -0.855   0.149  1.00  0.00    -0.389 OA
ATOM     18  H   UNL     1       8.481  -1.594   0.391  1.00  0.00     0.211 HD
ENDBRANCH  13  17
ENDBRANCH  12  13
ENDBRANCH   9  12
ENDBRANCH   4   5
ENDBRANCH   3   4
ENDBRANCH   2   3
ENDBRANCH   1   2
BRANCH   1  19
ATOM     19  O02 SIA B   4       1.238  -2.547   1.400  1.00  0.00    -0.356 OA
ATOM     20  H   UNL     1       0.879  -3.073   0.639  1.00  0.00     0.215 HD
ENDBRANCH   1  19
BRANCH   1  21
ATOM     21  N04 SIA B   4       0.229  -0.470   1.470  1.00  0.00    -0.266 NA
ATOM     22  H   UNL     1       0.064   0.445   1.035  1.00  0.00     0.127 HD
BRANCH  21  23
ATOM     23  C9  SIA B   4      -0.945  -1.324   1.332  1.00  0.00     0.120 C 
BRANCH  23  24
ATOM     24  C8  SIA B   4      -1.485  -1.503  -0.016  1.00  0.00     0.159 C 
BRANCH  24  25
ATOM     25  C7  SIA B   4      -2.322  -0.312  -0.533  1.00  0.00     0.175 C 
BRANCH  25  26
ATOM     26  C6  SIA B   4      -3.506  -0.158   0.419  1.00  0.00     0.169 C 
ATOM     27  C5  SIA B   4      -4.517   0.873  -0.200  1.00  0.00     0.116 C 
ATOM     28  O6  SIA B   4      -4.097  -1.353   0.673  1.00  0.00    -0.365 OA
ATOM     29  C4  SIA B   4      -5.652   0.978   0.754  1.00  0.00     0.137 C 
ATOM     30  C2  SIA B   4      -5.414  -1.461   0.348  1.00  0.00     0.177 C 
ATOM     31  C3  SIA B   4      -6.260  -0.403   0.981  1.00  0.00     0.071 C 
BRANCH  27  32
ATOM     32  N5  SIA B   4      -3.804   2.012  -0.527  1.00  0.00    -0.285 NA
ATOM     33  H   UNL     1      -2.950   2.210   0.052  1.00  0.00     0.125 HD
BRANCH  32  34
ATOM     34  C10 SIA B   4      -4.309   3.116  -1.186  1.00  0.00     0.179 C 
ATOM     35  C11 SIA B   4      -5.293   4.031  -0.540  1.00  0.00     0.056 C 
BRANCH  34  36
ATOM     36  O10 SIA B   4      -4.944   2.693  -2.403  1.00  0.00    -0.379 OA
ATOM     37  H   UNL     1      -5.895   2.939  -2.405  1.00  0.00     0.212 HD
ENDBRANCH  34  36
ENDBRANCH  32  34
ENDBRANCH  27  32
BRANCH  29  38
ATOM     38  O4  SIA B   4      -6.698   1.812   0.300  1.00  0.00    -0.391 OA
ATOM     39  H   UNL     1      -7.195   2.046   1.141  1.00  0.00     0.211 HD
ENDBRANCH  29  38
BRANCH  30  40
ATOM     40  C1  SIA B   4      -5.915  -2.801   0.904  1.00  0.00     0.273 C 
BRANCH  40  41
ATOM     41  O1A SIA B   4      -5.741  -2.823   2.305  1.00  0.00    -0.366 OA
ATOM     42  H   UNL     1      -5.424  -3.700   2.609  1.00  0.00     0.213 HD
ENDBRANCH  40  41
BRANCH  40  43
ATOM     43  O1B SIA B   4      -5.291  -3.882   0.355  1.00  0.00    -0.366 OA
ATOM     44  H   UNL     1      -4.944  -3.720  -0.556  1.00  0.00     0.213 HD
ENDBRANCH  40  43
ENDBRANCH  30  40
ENDBRANCH  25  26
BRANCH  25  45
ATOM     45  O7  SIA B   4      -2.797  -0.794  -1.779  1.00  0.00    -0.388 OA
ATOM     46  H   UNL     1      -3.286  -1.632  -1.564  1.00  0.00     0.211 HD
ENDBRANCH  25  45
ENDBRANCH  24  25
BRANCH  24  47
ATOM     47  O8  SIA B   4      -2.504  -2.513   0.103  1.00  0.00    -0.389 OA
ATOM     48  H   UNL     1      -2.098  -3.312   0.494  1.00  0.00     0.211 HD
ENDBRANCH  24  47
ENDBRANCH  23  24
ENDBRANCH  21  23
ENDBRANCH   1  21
TORSDOF 24
