REMARK SMILES CC(O)N[C@H]1[C@H]([C@H](O)[C@H](O)CNC(O)OCCC2CN(C[C@H]3CC[C@H]4C[C@@H]3C4(C)C)NN2)O[C@@H](C(O)O)C[C@@H]1O
REMARK SMILES IDX 12 1 13 3 15 4 16 5 17 6 18 7 32 8 31 9 20 11 19 13 21 14
REMARK SMILES IDX 22 15 23 16 27 17 24 18 26 19 28 20 25 21 29 22 30 23 14 24
REMARK SMILES IDX 11 26 9 27 7 28 6 29 5 30 33 31 39 32 34 33 38 34 4 35 2 37
REMARK SMILES IDX 1 38 3 39 40 41 35 43 36 44 37 46 8 48 10 50
REMARK H PARENT 12 2 32 10 31 12 14 25 4 36 3 40 40 42 36 45 37 47 8 49 10 51
REMARK Flexibility Score: inf
ROOT
ATOM      1  N04 SIA B   4      -1.390   0.902  -0.380  1.00  0.00    -0.266 NA
ATOM      2  H   UNL     1      -1.092   1.230   0.566  1.00  0.00     0.127 HD
ENDROOT
BRANCH   1   3
ATOM      3  C02 SIA B   4      -0.430   0.170  -1.093  1.00  0.00     0.325 C 
BRANCH   3   4
ATOM      4  O01 SIA B   4       0.570  -0.120  -0.181  1.00  0.00    -0.340 OA
BRANCH   4   5
ATOM      5  C01 SIA B   4       1.135  -1.346  -0.135  1.00  0.00     0.166 C 
BRANCH   5   6
ATOM      6  C03 SIA B   4       2.135  -1.321   1.078  1.00  0.00     0.050 C 
BRANCH   6   7
ATOM      7  C04 SIA B   4       3.056  -0.168   0.852  1.00  0.00     0.088 C 
ATOM      8  N   SIA B   4       3.806  -0.331  -0.408  1.00  0.00    -0.240 NA
ATOM      9  N20 SIA B   4       4.832   0.598  -0.151  1.00  0.00    -0.191 NA
ATOM     10  H   UNL     1       4.263  -1.289  -0.299  1.00  0.00     0.143 HD
ATOM     11  N06 SIA B   4       5.361   0.010   1.073  1.00  0.00    -0.229 NA
ATOM     12  H   UNL     1       4.357   1.468   0.209  1.00  0.00     0.161 HD
ATOM     13  C05 SIA B   4       4.116   0.083   1.861  1.00  0.00     0.124 C 
BRANCH  11  14
ATOM     14  C07 SIA B   4       6.335   1.003   1.529  1.00  0.00     0.107 C 
BRANCH  14  15
ATOM     15  C08 SIA B   4       7.662   0.742   0.803  1.00  0.00     0.008 C 
ATOM     16  C09 SIA B   4       8.098  -0.652   1.238  1.00  0.00     0.005 C 
ATOM     17  C16 SIA B   4       7.369   0.706  -0.670  1.00  0.00    -0.000 C 
ATOM     18  C12 SIA B   4       9.008  -1.297   0.250  1.00  0.00     0.004 C 
ATOM     19  C15 SIA B   4       7.088  -0.724  -1.106  1.00  0.00     0.008 C 
ATOM     20  C18 SIA B   4       8.693   0.556  -1.433  1.00  0.00    -0.029 C 
ATOM     21  C13 SIA B   4       8.622  -0.915  -1.156  1.00  0.00    -0.005 C 
ATOM     22  C   SIA B   4       8.509   0.848  -2.913  1.00  0.00     0.011 C 
ATOM     23  C19 SIA B   4       9.809   1.334  -0.828  1.00  0.00     0.011 C 
ENDBRANCH  14  15
ENDBRANCH  11  14
ENDBRANCH   6   7
ENDBRANCH   5   6
ENDBRANCH   4   5
ENDBRANCH   3   4
BRANCH   3  24
ATOM     24  O02 SIA B   4       0.210   1.077  -2.001  1.00  0.00    -0.356 OA
ATOM     25  H   UNL     1      -0.449   1.652  -2.442  1.00  0.00     0.215 HD
ENDBRANCH   3  24
ENDBRANCH   1   3
BRANCH   1  26
ATOM     26  C9  SIA B   4      -2.640   1.266  -0.815  1.00  0.00     0.120 C 
BRANCH  26  27
ATOM     27  C8  SIA B   4      -3.621   0.105  -0.986  1.00  0.00     0.159 C 
BRANCH  27  28
ATOM     28  C7  SIA B   4      -5.012   0.752  -0.996  1.00  0.00     0.175 C 
BRANCH  28  29
ATOM     29  C6  SIA B   4      -6.038  -0.197  -0.543  1.00  0.00     0.169 C 
ATOM     30  C5  SIA B   4      -7.192   0.309   0.274  1.00  0.00     0.116 C 
ATOM     31  O6  SIA B   4      -6.444  -1.122  -1.469  1.00  0.00    -0.365 OA
ATOM     32  C4  SIA B   4      -7.541  -0.794   1.239  1.00  0.00     0.137 C 
ATOM     33  C2  SIA B   4      -7.563  -1.834  -1.039  1.00  0.00     0.177 C 
ATOM     34  C3  SIA B   4      -7.478  -2.104   0.452  1.00  0.00     0.071 C 
BRANCH  30  35
ATOM     35  N5  SIA B   4      -6.878   1.532   0.938  1.00  0.00    -0.285 NA
ATOM     36  H   UNL     1      -5.920   1.497   1.404  1.00  0.00     0.125 HD
BRANCH  35  37
ATOM     37  C10 SIA B   4      -7.834   2.175   1.741  1.00  0.00     0.179 C 
ATOM     38  C11 SIA B   4      -7.324   2.308   3.170  1.00  0.00     0.056 C 
BRANCH  37  39
ATOM     39  O10 SIA B   4      -8.236   3.438   1.302  1.00  0.00    -0.379 OA
ATOM     40  H   UNL     1      -8.079   3.514   0.315  1.00  0.00     0.212 HD
ENDBRANCH  37  39
ENDBRANCH  35  37
ENDBRANCH  30  35
BRANCH  32  41
ATOM     41  O4  SIA B   4      -8.743  -0.658   1.888  1.00  0.00    -0.391 OA
ATOM     42  H   UNL     1      -8.663  -1.189   2.735  1.00  0.00     0.211 HD
ENDBRANCH  32  41
BRANCH  33  43
ATOM     43  C1  SIA B   4      -7.558  -3.161  -1.756  1.00  0.00     0.273 C 
BRANCH  43  44
ATOM     44  O1A SIA B   4      -7.601  -3.015  -3.139  1.00  0.00    -0.366 OA
ATOM     45  H   UNL     1      -8.410  -2.480  -3.396  1.00  0.00     0.213 HD
ENDBRANCH  43  44
BRANCH  43  46
ATOM     46  O1B SIA B   4      -8.693  -3.925  -1.407  1.00  0.00    -0.366 OA
ATOM     47  H   UNL     1      -9.326  -3.269  -0.981  1.00  0.00     0.213 HD
ENDBRANCH  43  46
ENDBRANCH  33  43
ENDBRANCH  28  29
BRANCH  28  48
ATOM     48  O7  SIA B   4      -5.212   1.447  -2.150  1.00  0.00    -0.388 OA
ATOM     49  H   UNL     1      -4.747   2.324  -2.172  1.00  0.00     0.211 HD
ENDBRANCH  28  48
ENDBRANCH  27  28
BRANCH  27  50
ATOM     50  O8  SIA B   4      -3.603  -0.609   0.263  1.00  0.00    -0.389 OA
ATOM     51  H   UNL     1      -3.094  -0.116   0.948  1.00  0.00     0.211 HD
ENDBRANCH  27  50
ENDBRANCH  26  27
ENDBRANCH   1  26
TORSDOF 21
