REMARK SMILES COC1CCC(N2CC(CCOC(O)NC[C@@H](O)[C@@H](O)[C@@H]3O[C@@H](C(O)O)C[C@H](O)[C@H]3NC(C)O)NN2)CC1
REMARK SMILES IDX 15 1 13 3 12 4 11 5 10 6 9 7 35 8 36 9 7 11 8 13 6 14 37 15
REMARK SMILES IDX 5 16 38 17 4 18 3 19 2 20 1 21 14 22 16 24 17 25 19 26 21 27
REMARK SMILES IDX 30 28 22 29 28 30 23 31 27 32 31 33 32 35 33 36 34 37 29 39
REMARK SMILES IDX 24 41 25 42 26 44 20 46 18 48
REMARK H PARENT 15 2 35 10 36 12 14 23 31 34 34 38 29 40 25 43 26 45 20 47
REMARK H PARENT 18 49
REMARK Flexibility Score: inf
ROOT
ATOM      1  N04 SIA B   4      -1.018  -3.084  -0.705  1.00  0.00    -0.266 NA
ATOM      2  H   UNL     1      -0.272  -3.775  -0.501  1.00  0.00     0.127 HD
ENDROOT
BRANCH   1   3
ATOM      3  C02 SIA B   4      -0.815  -2.392  -1.974  1.00  0.00     0.325 C 
BRANCH   3   4
ATOM      4  O01 SIA B   4       0.484  -1.903  -2.040  1.00  0.00    -0.340 OA
BRANCH   4   5
ATOM      5  C01 SIA B   4       0.524  -0.509  -2.075  1.00  0.00     0.166 C 
BRANCH   5   6
ATOM      6  C03 SIA B   4       1.950  -0.005  -2.155  1.00  0.00     0.050 C 
BRANCH   6   7
ATOM      7  C04 SIA B   4       2.763  -0.464  -0.960  1.00  0.00     0.088 C 
ATOM      8  N   SIA B   4       2.166   0.041   0.247  1.00  0.00    -0.239 NA
ATOM      9  N15 SIA B   4       3.019   0.972   0.775  1.00  0.00    -0.191 NA
ATOM     10  H   UNL     1       1.960  -0.689   0.942  1.00  0.00     0.143 HD
ATOM     11  N06 SIA B   4       4.107   1.130  -0.035  1.00  0.00    -0.226 NA
ATOM     12  H   UNL     1       3.241   0.828   1.786  1.00  0.00     0.161 HD
ATOM     13  C05 SIA B   4       4.147   0.135  -1.011  1.00  0.00     0.124 C 
BRANCH  11  14
ATOM     14  C07 SIA B   4       5.312   1.568   0.555  1.00  0.00     0.074 C 
ATOM     15  C   SIA B   4       6.180   2.187  -0.521  1.00  0.00     0.023 C 
ATOM     16  C08 SIA B   4       6.098   0.551   1.300  1.00  0.00     0.023 C 
ATOM     17  C14 SIA B   4       7.541   2.590  -0.008  1.00  0.00     0.034 C 
ATOM     18  C09 SIA B   4       7.343   0.193   0.517  1.00  0.00     0.034 C 
ATOM     19  C12 SIA B   4       8.260   1.423   0.574  1.00  0.00     0.118 C 
BRANCH  19  20
ATOM     20  O   SIA B   4       8.648   1.557   1.887  1.00  0.00    -0.381 OA
ATOM     21  C13 SIA B   4      10.017   1.399   2.074  1.00  0.00     0.195 C 
ENDBRANCH  19  20
ENDBRANCH  11  14
ENDBRANCH   6   7
ENDBRANCH   5   6
ENDBRANCH   4   5
ENDBRANCH   3   4
BRANCH   3  22
ATOM     22  O02 SIA B   4      -1.166  -3.172  -3.055  1.00  0.00    -0.356 OA
ATOM     23  H   UNL     1      -1.953  -2.804  -3.565  1.00  0.00     0.215 HD
ENDBRANCH   3  22
ENDBRANCH   1   3
BRANCH   1  24
ATOM     24  C9  SIA B   4      -2.323  -3.658  -0.606  1.00  0.00     0.120 C 
BRANCH  24  25
ATOM     25  C8  SIA B   4      -3.419  -2.631  -0.505  1.00  0.00     0.159 C 
BRANCH  25  26
ATOM     26  C7  SIA B   4      -3.222  -1.787   0.739  1.00  0.00     0.175 C 
BRANCH  26  27
ATOM     27  C6  SIA B   4      -4.444  -0.919   1.000  1.00  0.00     0.169 C 
ATOM     28  C5  SIA B   4      -4.620   0.110  -0.109  1.00  0.00     0.116 C 
ATOM     29  O6  SIA B   4      -5.534  -1.745   1.022  1.00  0.00    -0.365 OA
ATOM     30  C4  SIA B   4      -5.867   0.881   0.158  1.00  0.00     0.137 C 
ATOM     31  C2  SIA B   4      -6.691  -1.157   1.440  1.00  0.00     0.177 C 
ATOM     32  C3  SIA B   4      -6.980   0.168   0.846  1.00  0.00     0.071 C 
BRANCH  28  33
ATOM     33  N5  SIA B   4      -3.491   0.920  -0.261  1.00  0.00    -0.285 NA
ATOM     34  H   UNL     1      -2.923   1.061   0.617  1.00  0.00     0.125 HD
BRANCH  33  35
ATOM     35  C10 SIA B   4      -3.263   1.828  -1.276  1.00  0.00     0.179 C 
ATOM     36  C11 SIA B   4      -4.109   3.031  -1.425  1.00  0.00     0.056 C 
BRANCH  35  37
ATOM     37  O10 SIA B   4      -1.910   2.290  -1.105  1.00  0.00    -0.379 OA
ATOM     38  H   UNL     1      -1.930   2.965  -0.364  1.00  0.00     0.212 HD
ENDBRANCH  35  37
ENDBRANCH  33  35
ENDBRANCH  28  33
BRANCH  30  39
ATOM     39  O4  SIA B   4      -6.395   1.450  -1.015  1.00  0.00    -0.391 OA
ATOM     40  H   UNL     1      -7.351   1.608  -0.883  1.00  0.00     0.211 HD
ENDBRANCH  30  39
BRANCH  31  41
ATOM     41  C1  SIA B   4      -6.854  -1.150   2.968  1.00  0.00     0.273 C 
BRANCH  41  42
ATOM     42  O1A SIA B   4      -8.089  -0.531   3.279  1.00  0.00    -0.366 OA
ATOM     43  H   UNL     1      -8.069  -0.084   4.158  1.00  0.00     0.213 HD
ENDBRANCH  41  42
BRANCH  41  44
ATOM     44  O1B SIA B   4      -5.890  -0.384   3.590  1.00  0.00    -0.366 OA
ATOM     45  H   UNL     1      -5.243  -0.879   4.131  1.00  0.00     0.213 HD
ENDBRANCH  41  44
ENDBRANCH  31  41
ENDBRANCH  26  27
BRANCH  26  46
ATOM     46  O7  SIA B   4      -2.042  -1.080   0.685  1.00  0.00    -0.388 OA
ATOM     47  H   UNL     1      -1.715  -0.945   1.609  1.00  0.00     0.211 HD
ENDBRANCH  26  46
ENDBRANCH  25  26
BRANCH  25  48
ATOM     48  O8  SIA B   4      -4.622  -3.346  -0.430  1.00  0.00    -0.389 OA
ATOM     49  H   UNL     1      -4.527  -4.109  -1.057  1.00  0.00     0.211 HD
ENDBRANCH  25  48
ENDBRANCH  24  25
ENDBRANCH   1  24
TORSDOF 21
