REMARK SMILES CC(O)N[C@H]1[C@H]([C@H](O)[C@H](O)CNC(O)OCCC2CN(C[C@@H](O)CCC3CCCCC3)NN2)O[C@@H](C(O)O)C[C@@H]1O
REMARK SMILES IDX 13 1 15 2 16 3 17 4 18 5 33 6 32 7 20 9 19 11 21 12 22 13
REMARK SMILES IDX 24 14 25 15 26 16 31 17 27 18 30 19 28 20 29 21 23 22 14 24
REMARK SMILES IDX 12 26 11 28 9 29 7 30 6 31 5 32 34 33 40 34 35 35 39 36 4 37
REMARK SMILES IDX 2 39 1 40 3 41 41 43 36 45 37 46 38 48 8 50 10 52
REMARK H PARENT 33 8 32 10 23 23 14 25 12 27 4 38 3 42 41 44 37 47 38 49 8 51
REMARK H PARENT 10 53
REMARK Flexibility Score: inf
ROOT
ATOM      1  C02 SIA B   4      -1.434  -2.696   0.129  1.00  0.00     0.325 C 
ENDROOT
BRANCH   1   2
ATOM      2  O01 SIA B   4      -0.407  -3.260  -0.582  1.00  0.00    -0.340 OA
BRANCH   2   3
ATOM      3  C01 SIA B   4       0.336  -2.419  -1.365  1.00  0.00     0.166 C 
BRANCH   3   4
ATOM      4  C03 SIA B   4       1.045  -1.368  -0.532  1.00  0.00     0.050 C 
BRANCH   4   5
ATOM      5  C04 SIA B   4       1.956  -1.994   0.467  1.00  0.00     0.088 C 
ATOM      6  N   SIA B   4       3.004  -2.819  -0.133  1.00  0.00    -0.240 NA
ATOM      7  N18 SIA B   4       3.998  -2.880   0.852  1.00  0.00    -0.191 NA
ATOM      8  H   UNL     1       2.668  -3.732  -0.458  1.00  0.00     0.143 HD
ATOM      9  N06 SIA B   4       4.040  -1.596   1.383  1.00  0.00    -0.227 NA
ATOM     10  H   UNL     1       4.859  -3.219   0.421  1.00  0.00     0.161 HD
ATOM     11  C05 SIA B   4       2.812  -0.930   1.123  1.00  0.00     0.124 C 
BRANCH   9  12
ATOM     12  C07 SIA B   4       5.182  -0.828   0.934  1.00  0.00     0.135 C 
BRANCH  12  13
ATOM     13  C08 SIA B   4       5.333  -0.705  -0.522  1.00  0.00     0.130 C 
BRANCH  13  14
ATOM     14  C09 SIA B   4       6.630  -0.159  -0.961  1.00  0.00     0.033 C 
BRANCH  14  15
ATOM     15  C12 SIA B   4       7.102   1.169  -0.601  1.00  0.00     0.006 C 
BRANCH  15  16
ATOM     16  C13 SIA B   4       7.373   1.606   0.762  1.00  0.00    -0.011 C 
ATOM     17  C   SIA B   4       8.411   0.819   1.520  1.00  0.00     0.003 C 
ATOM     18  C14 SIA B   4       7.969   3.038   0.658  1.00  0.00     0.003 C 
ATOM     19  C17 SIA B   4       9.752   0.772   0.811  1.00  0.00     0.000 C 
ATOM     20  C15 SIA B   4       9.354   3.062   0.130  1.00  0.00     0.000 C 
ATOM     21  C16 SIA B   4      10.300   2.201   0.939  1.00  0.00     0.000 C 
ENDBRANCH  15  16
ENDBRANCH  14  15
ENDBRANCH  13  14
BRANCH  13  22
ATOM     22  O   SIA B   4       4.289  -0.034  -1.175  1.00  0.00    -0.392 OA
ATOM     23  H   UNL     1       4.630   0.593  -1.861  1.00  0.00     0.211 HD
ENDBRANCH  13  22
ENDBRANCH  12  13
ENDBRANCH   9  12
ENDBRANCH   4   5
ENDBRANCH   3   4
ENDBRANCH   2   3
ENDBRANCH   1   2
BRANCH   1  24
ATOM     24  O02 SIA B   4      -1.347  -2.931   1.508  1.00  0.00    -0.356 OA
ATOM     25  H   UNL     1      -1.302  -3.913   1.625  1.00  0.00     0.215 HD
ENDBRANCH   1  24
BRANCH   1  26
ATOM     26  N04 SIA B   4      -2.671  -3.247  -0.361  1.00  0.00    -0.266 NA
ATOM     27  H   UNL     1      -2.644  -4.256  -0.531  1.00  0.00     0.127 HD
BRANCH  26  28
ATOM     28  C9  SIA B   4      -3.765  -2.862   0.442  1.00  0.00     0.120 C 
BRANCH  28  29
ATOM     29  C8  SIA B   4      -4.149  -1.419   0.401  1.00  0.00     0.159 C 
BRANCH  29  30
ATOM     30  C7  SIA B   4      -4.646  -0.971  -0.945  1.00  0.00     0.175 C 
BRANCH  30  31
ATOM     31  C6  SIA B   4      -5.279   0.431  -0.853  1.00  0.00     0.169 C 
ATOM     32  C5  SIA B   4      -6.712   0.322  -0.371  1.00  0.00     0.116 C 
ATOM     33  O6  SIA B   4      -4.461   1.300  -0.309  1.00  0.00    -0.365 OA
ATOM     34  C4  SIA B   4      -7.203   1.414   0.479  1.00  0.00     0.137 C 
ATOM     35  C2  SIA B   4      -4.822   2.288   0.503  1.00  0.00     0.177 C 
ATOM     36  C3  SIA B   4      -6.144   2.281   1.130  1.00  0.00     0.071 C 
BRANCH  32  37
ATOM     37  N5  SIA B   4      -7.550  -0.120  -1.427  1.00  0.00    -0.285 NA
ATOM     38  H   UNL     1      -7.521   0.532  -2.262  1.00  0.00     0.125 HD
BRANCH  37  39
ATOM     39  C10 SIA B   4      -8.775  -0.736  -1.211  1.00  0.00     0.179 C 
ATOM     40  C11 SIA B   4      -9.910  -0.015  -0.593  1.00  0.00     0.056 C 
BRANCH  39  41
ATOM     41  O10 SIA B   4      -9.178  -1.350  -2.446  1.00  0.00    -0.379 OA
ATOM     42  H   UNL     1     -10.006  -1.836  -2.201  1.00  0.00     0.212 HD
ENDBRANCH  39  41
ENDBRANCH  37  39
ENDBRANCH  32  37
BRANCH  34  43
ATOM     43  O4  SIA B   4      -8.101   0.961   1.481  1.00  0.00    -0.391 OA
ATOM     44  H   UNL     1      -7.744   0.147   1.897  1.00  0.00     0.211 HD
ENDBRANCH  34  43
BRANCH  35  45
ATOM     45  C1  SIA B   4      -4.691   3.590  -0.311  1.00  0.00     0.273 C 
BRANCH  45  46
ATOM     46  O1A SIA B   4      -5.523   3.510  -1.407  1.00  0.00    -0.366 OA
ATOM     47  H   UNL     1      -5.348   4.262  -2.027  1.00  0.00     0.213 HD
ENDBRANCH  45  46
BRANCH  45  48
ATOM     48  O1B SIA B   4      -3.382   3.822  -0.682  1.00  0.00    -0.366 OA
ATOM     49  H   UNL     1      -3.135   4.757  -0.457  1.00  0.00     0.213 HD
ENDBRANCH  45  48
ENDBRANCH  35  45
ENDBRANCH  30  31
BRANCH  30  50
ATOM     50  O7  SIA B   4      -5.605  -1.769  -1.513  1.00  0.00    -0.388 OA
ATOM     51  H   UNL     1      -5.349  -2.227  -2.326  1.00  0.00     0.211 HD
ENDBRANCH  30  50
ENDBRANCH  29  30
BRANCH  29  52
ATOM     52  O8  SIA B   4      -3.177  -0.528   0.825  1.00  0.00    -0.389 OA
ATOM     53  H   UNL     1      -3.080  -0.510   1.808  1.00  0.00     0.211 HD
ENDBRANCH  29  52
ENDBRANCH  28  29
ENDBRANCH  26  28
ENDBRANCH   1  26
TORSDOF 25
