REMARK SMILES CC(O)N[C@H]1[C@H]([C@H](O)[C@H](O)CNC(O)OCCC2CN(C3CCC(Br)CC3)NN2)O[C@@H](C(O)O)C[C@@H]1O
REMARK SMILES IDX 11 1 12 2 13 4 15 5 16 6 17 7 18 8 29 9 28 10 20 12 19 14
REMARK SMILES IDX 21 15 27 16 22 17 26 18 23 19 24 20 25 21 14 22 9 24 7 25
REMARK SMILES IDX 6 26 5 27 30 28 36 29 31 30 35 31 4 32 2 34 1 35 3 36 37 38
REMARK SMILES IDX 32 40 33 41 34 43 8 45 10 47
REMARK H PARENT 12 3 29 11 28 13 14 23 4 33 3 37 37 39 33 42 34 44 8 46 10 48
REMARK Flexibility Score: inf
ROOT
ATOM      1  C9  SIA B   4      -0.685   0.918  -0.460  1.00  0.00     0.120 C 
ENDROOT
BRANCH   1   2
ATOM      2  N04 SIA B   4      -0.777   1.556  -1.721  1.00  0.00    -0.266 NA
ATOM      3  H   UNL     1      -1.572   2.201  -1.838  1.00  0.00     0.127 HD
BRANCH   2   4
ATOM      4  C02 SIA B   4       0.405   1.872  -2.417  1.00  0.00     0.325 C 
BRANCH   4   5
ATOM      5  O01 SIA B   4       1.314   2.705  -1.825  1.00  0.00    -0.340 OA
BRANCH   5   6
ATOM      6  C01 SIA B   4       2.630   2.384  -1.952  1.00  0.00     0.166 C 
BRANCH   6   7
ATOM      7  C03 SIA B   4       3.112   1.103  -1.386  1.00  0.00     0.050 C 
BRANCH   7   8
ATOM      8  C04 SIA B   4       2.980   0.930   0.091  1.00  0.00     0.088 C 
ATOM      9  N   SIA B   4       3.728   1.970   0.780  1.00  0.00    -0.239 NA
ATOM     10  N14 SIA B   4       5.048   1.543   0.883  1.00  0.00    -0.191 NA
ATOM     11  H   UNL     1       3.261   2.094   1.719  1.00  0.00     0.143 HD
ATOM     12  N06 SIA B   4       5.165   0.344   0.227  1.00  0.00    -0.226 NA
ATOM     13  H   UNL     1       5.275   1.505   1.901  1.00  0.00     0.161 HD
ATOM     14  C05 SIA B   4       3.882  -0.275   0.447  1.00  0.00     0.124 C 
BRANCH  12  15
ATOM     15  C07 SIA B   4       6.297  -0.441   0.548  1.00  0.00     0.074 C 
ATOM     16  C   SIA B   4       6.459  -0.850   1.968  1.00  0.00     0.022 C 
ATOM     17  C08 SIA B   4       7.523   0.314   0.027  1.00  0.00     0.022 C 
ATOM     18  C13 SIA B   4       7.730  -1.707   2.047  1.00  0.00     0.017 C 
ATOM     19  C09 SIA B   4       8.780  -0.477   0.222  1.00  0.00     0.017 C 
ATOM     20  C12 SIA B   4       8.952  -0.930   1.648  1.00  0.00     0.057 C 
ATOM     21 Br   SIA B   4      10.458  -2.141   1.712  1.00  0.00    -0.089 Br
ENDBRANCH  12  15
ENDBRANCH   7   8
ENDBRANCH   6   7
ENDBRANCH   5   6
ENDBRANCH   4   5
BRANCH   4  22
ATOM     22  O02 SIA B   4      -0.034   2.607  -3.579  1.00  0.00    -0.356 OA
ATOM     23  H   UNL     1      -0.702   2.048  -4.069  1.00  0.00     0.215 HD
ENDBRANCH   4  22
ENDBRANCH   2   4
ENDBRANCH   1   2
BRANCH   1  24
ATOM     24  C8  SIA B   4      -2.127   0.697   0.030  1.00  0.00     0.159 C 
BRANCH  24  25
ATOM     25  C7  SIA B   4      -2.855  -0.104  -1.027  1.00  0.00     0.175 C 
BRANCH  25  26
ATOM     26  C6  SIA B   4      -4.335  -0.157  -0.807  1.00  0.00     0.169 C 
ATOM     27  C5  SIA B   4      -4.729  -0.872   0.461  1.00  0.00     0.116 C 
ATOM     28  O6  SIA B   4      -4.841   1.154  -0.694  1.00  0.00    -0.365 OA
ATOM     29  C4  SIA B   4      -6.228  -1.055   0.476  1.00  0.00     0.137 C 
ATOM     30  C2  SIA B   4      -6.216   1.125  -0.702  1.00  0.00     0.177 C 
ATOM     31  C3  SIA B   4      -6.811  -0.251  -0.663  1.00  0.00     0.071 C 
BRANCH  27  32
ATOM     32  N5  SIA B   4      -4.111  -2.162   0.587  1.00  0.00    -0.285 NA
ATOM     33  H   UNL     1      -4.506  -2.790  -0.137  1.00  0.00     0.125 HD
BRANCH  32  34
ATOM     34  C10 SIA B   4      -4.460  -2.725   1.872  1.00  0.00     0.179 C 
ATOM     35  C11 SIA B   4      -3.931  -1.910   3.030  1.00  0.00     0.056 C 
BRANCH  34  36
ATOM     36  O10 SIA B   4      -3.986  -4.041   1.997  1.00  0.00    -0.379 OA
ATOM     37  H   UNL     1      -3.983  -4.307   2.954  1.00  0.00     0.212 HD
ENDBRANCH  34  36
ENDBRANCH  32  34
ENDBRANCH  27  32
BRANCH  29  38
ATOM     38  O4  SIA B   4      -6.780  -0.644   1.674  1.00  0.00    -0.391 OA
ATOM     39  H   UNL     1      -7.371   0.152   1.586  1.00  0.00     0.211 HD
ENDBRANCH  29  38
BRANCH  30  40
ATOM     40  C1  SIA B   4      -6.691   1.759  -2.017  1.00  0.00     0.273 C 
BRANCH  40  41
ATOM     41  O1A SIA B   4      -8.072   1.762  -2.094  1.00  0.00    -0.366 OA
ATOM     42  H   UNL     1      -8.514   1.877  -1.216  1.00  0.00     0.213 HD
ENDBRANCH  40  41
BRANCH  40  43
ATOM     43  O1B SIA B   4      -6.118   0.998  -3.052  1.00  0.00    -0.366 OA
ATOM     44  H   UNL     1      -6.801   0.401  -3.413  1.00  0.00     0.213 HD
ENDBRANCH  40  43
ENDBRANCH  30  40
ENDBRANCH  25  26
BRANCH  25  45
ATOM     45  O7  SIA B   4      -2.332  -1.388  -1.146  1.00  0.00    -0.388 OA
ATOM     46  H   UNL     1      -2.864  -1.975  -1.705  1.00  0.00     0.211 HD
ENDBRANCH  25  45
ENDBRANCH  24  25
BRANCH  24  47
ATOM     47  O8  SIA B   4      -2.685   1.971   0.114  1.00  0.00    -0.389 OA
ATOM     48  H   UNL     1      -2.098   2.608   0.589  1.00  0.00     0.211 HD
ENDBRANCH  24  47
ENDBRANCH   1  24
TORSDOF 20
