REMARK SMILES CCN(CC)CCN1CC(CCOC(O)NC[C@@H](O)[C@@H](O)[C@@H]2O[C@@H](C(O)O)C[C@H](O)[C@H]2NC(C)O)NN1
REMARK SMILES IDX 14 1 13 2 12 3 11 4 10 5 36 6 37 7 8 9 9 11 7 12 6 13 3 14
REMARK SMILES IDX 4 15 5 16 2 17 1 18 15 19 16 21 17 23 18 24 20 25 22 26
REMARK SMILES IDX 31 27 23 28 29 29 24 30 28 31 32 32 33 34 34 35 35 36 30 38
REMARK SMILES IDX 25 40 26 41 27 43 21 45 19 47
REMARK H PARENT 36 8 37 10 15 20 16 22 32 33 35 37 30 39 26 42 27 44 21 46
REMARK H PARENT 19 48
REMARK Flexibility Score: inf
ROOT
ATOM      1  C02 SIA B   4      -0.286  -1.350  -0.272  1.00  0.00     0.325 C 
ENDROOT
BRANCH   1   2
ATOM      2  O01 SIA B   4       0.979  -0.918  -0.735  1.00  0.00    -0.340 OA
BRANCH   2   3
ATOM      3  C01 SIA B   4       1.608  -0.020   0.093  1.00  0.00     0.166 C 
BRANCH   3   4
ATOM      4  C03 SIA B   4       2.874   0.462  -0.601  1.00  0.00     0.050 C 
BRANCH   4   5
ATOM      5  C04 SIA B   4       3.773  -0.682  -0.898  1.00  0.00     0.088 C 
ATOM      6  N   SIA B   4       4.202  -1.345   0.302  1.00  0.00    -0.240 NA
ATOM      7  N15 SIA B   4       5.492  -1.800  -0.079  1.00  0.00    -0.191 NA
ATOM      8  H   UNL     1       3.606  -2.199   0.411  1.00  0.00     0.143 HD
ATOM      9  N06 SIA B   4       6.102  -0.768  -0.794  1.00  0.00    -0.228 NA
ATOM     10  H   UNL     1       5.312  -2.581  -0.780  1.00  0.00     0.161 HD
ATOM     11  C05 SIA B   4       5.028  -0.263  -1.614  1.00  0.00     0.124 C 
BRANCH   9  12
ATOM     12  C07 SIA B   4       6.606   0.264   0.058  1.00  0.00     0.119 C 
BRANCH  12  13
ATOM     13  C08 SIA B   4       7.888  -0.120   0.772  1.00  0.00     0.101 C 
BRANCH  13  14
ATOM     14  N09 SIA B   4       8.927  -0.409  -0.205  1.00  0.00    -0.303 NA
BRANCH  14  15
ATOM     15  C12 SIA B   4      10.193  -0.696   0.354  1.00  0.00     0.081 C 
ATOM     16  C13 SIA B   4      10.904   0.395   1.065  1.00  0.00     0.021 C 
ENDBRANCH  14  15
BRANCH  14  17
ATOM     17  C14 SIA B   4       8.898   0.482  -1.322  1.00  0.00     0.081 C 
ATOM     18  C   SIA B   4       9.226   1.911  -1.018  1.00  0.00     0.021 C 
ENDBRANCH  14  17
ENDBRANCH  13  14
ENDBRANCH  12  13
ENDBRANCH   9  12
ENDBRANCH   4   5
ENDBRANCH   3   4
ENDBRANCH   2   3
ENDBRANCH   1   2
BRANCH   1  19
ATOM     19  O02 SIA B   4      -0.183  -2.709   0.076  1.00  0.00    -0.356 OA
ATOM     20  H   UNL     1       0.754  -2.905   0.287  1.00  0.00     0.215 HD
ENDBRANCH   1  19
BRANCH   1  21
ATOM     21  N04 SIA B   4      -1.200  -1.230  -1.335  1.00  0.00    -0.266 NA
ATOM     22  H   UNL     1      -0.914  -0.477  -1.993  1.00  0.00     0.127 HD
BRANCH  21  23
ATOM     23  C9  SIA B   4      -2.527  -1.610  -1.286  1.00  0.00     0.120 C 
BRANCH  23  24
ATOM     24  C8  SIA B   4      -3.358  -0.693  -0.367  1.00  0.00     0.159 C 
BRANCH  24  25
ATOM     25  C7  SIA B   4      -4.828  -1.068  -0.588  1.00  0.00     0.175 C 
BRANCH  25  26
ATOM     26  C6  SIA B   4      -5.764   0.062  -0.298  1.00  0.00     0.169 C 
ATOM     27  C5  SIA B   4      -6.258   0.056   1.058  1.00  0.00     0.116 C 
ATOM     28  O6  SIA B   4      -5.177   1.203  -0.795  1.00  0.00    -0.365 OA
ATOM     29  C4  SIA B   4      -7.110   1.344   1.287  1.00  0.00     0.137 C 
ATOM     30  C2  SIA B   4      -5.501   2.392  -0.300  1.00  0.00     0.177 C 
ATOM     31  C3  SIA B   4      -6.122   2.458   1.048  1.00  0.00     0.071 C 
BRANCH  27  32
ATOM     32  N5  SIA B   4      -6.830  -1.057   1.627  1.00  0.00    -0.285 NA
ATOM     33  H   UNL     1      -6.324  -1.414   2.494  1.00  0.00     0.125 HD
BRANCH  32  34
ATOM     34  C10 SIA B   4      -8.066  -1.618   1.415  1.00  0.00     0.179 C 
ATOM     35  C11 SIA B   4      -8.353  -2.200   0.079  1.00  0.00     0.056 C 
BRANCH  34  36
ATOM     36  O10 SIA B   4      -8.174  -2.744   2.319  1.00  0.00    -0.379 OA
ATOM     37  H   UNL     1      -9.044  -2.717   2.778  1.00  0.00     0.212 HD
ENDBRANCH  34  36
ENDBRANCH  32  34
ENDBRANCH  27  32
BRANCH  29  38
ATOM     38  O4  SIA B   4      -7.461   1.350   2.626  1.00  0.00    -0.391 OA
ATOM     39  H   UNL     1      -8.455   1.291   2.723  1.00  0.00     0.211 HD
ENDBRANCH  29  38
BRANCH  30  40
ATOM     40  C1  SIA B   4      -6.439   3.090  -1.285  1.00  0.00     0.273 C 
BRANCH  40  41
ATOM     41  O1A SIA B   4      -6.816   4.333  -0.802  1.00  0.00    -0.366 OA
ATOM     42  H   UNL     1      -6.061   4.881  -0.488  1.00  0.00     0.213 HD
ENDBRANCH  40  41
BRANCH  40  43
ATOM     43  O1B SIA B   4      -7.541   2.317  -1.534  1.00  0.00    -0.366 OA
ATOM     44  H   UNL     1      -8.403   2.807  -1.366  1.00  0.00     0.213 HD
ENDBRANCH  40  43
ENDBRANCH  30  40
ENDBRANCH  25  26
BRANCH  25  45
ATOM     45  O7  SIA B   4      -5.130  -2.289  -0.085  1.00  0.00    -0.388 OA
ATOM     46  H   UNL     1      -4.453  -2.571   0.586  1.00  0.00     0.211 HD
ENDBRANCH  25  45
ENDBRANCH  24  25
BRANCH  24  47
ATOM     47  O8  SIA B   4      -3.140   0.592  -0.907  1.00  0.00    -0.389 OA
ATOM     48  H   UNL     1      -2.188   0.774  -1.005  1.00  0.00     0.211 HD
ENDBRANCH  24  47
ENDBRANCH  23  24
ENDBRANCH  21  23
ENDBRANCH   1  21
TORSDOF 24
