REMARK SMILES CC(O)N[C@H]1[C@H]([C@H](O)[C@H](O)CNC(O)OCCC2CN(CC3CCSC3)NN2)O[C@@H](C(O)O)C[C@@H]1O
REMARK SMILES IDX 12 1 13 3 15 4 16 5 17 6 18 7 28 8 27 9 20 11 19 13 21 14
REMARK SMILES IDX 22 15 26 16 23 17 25 18 24 19 14 20 11 22 9 23 7 24 6 25
REMARK SMILES IDX 5 26 29 27 35 28 30 29 34 30 4 31 2 33 1 34 3 35 36 37 31 39
REMARK SMILES IDX 32 40 33 42 8 44 10 46
REMARK H PARENT 12 2 28 10 27 12 14 21 4 32 3 36 36 38 32 41 33 43 8 45 10 47
REMARK Flexibility Score: inf
ROOT
ATOM      1  N04 SIA B   4       0.228   0.042   1.304  1.00  0.00    -0.266 NA
ATOM      2  H   UNL     1       0.191   0.902   1.919  1.00  0.00     0.127 HD
ENDROOT
BRANCH   1   3
ATOM      3  C02 SIA B   4       0.662   0.445   0.023  1.00  0.00     0.325 C 
BRANCH   3   4
ATOM      4  O01 SIA B   4       0.723  -0.683  -0.800  1.00  0.00    -0.340 OA
BRANCH   4   5
ATOM      5  C01 SIA B   4       1.961  -0.955  -1.316  1.00  0.00     0.166 C 
BRANCH   5   6
ATOM      6  C03 SIA B   4       3.048  -1.192  -0.318  1.00  0.00     0.050 C 
BRANCH   6   7
ATOM      7  C04 SIA B   4       4.320  -1.505  -1.069  1.00  0.00     0.088 C 
ATOM      8  N   SIA B   4       4.683  -0.386  -1.946  1.00  0.00    -0.240 NA
ATOM      9  N13 SIA B   4       6.079  -0.572  -2.160  1.00  0.00    -0.191 NA
ATOM     10  H   UNL     1       4.244  -0.489  -2.889  1.00  0.00     0.143 HD
ATOM     11  N06 SIA B   4       6.606  -0.981  -0.927  1.00  0.00    -0.229 NA
ATOM     12  H   UNL     1       6.112  -1.430  -2.795  1.00  0.00     0.161 HD
ATOM     13  C05 SIA B   4       5.550  -1.418  -0.109  1.00  0.00     0.124 C 
BRANCH  11  14
ATOM     14  C07 SIA B   4       7.602  -0.108  -0.437  1.00  0.00     0.108 C 
BRANCH  14  15
ATOM     15  C08 SIA B   4       8.574  -0.608   0.551  1.00  0.00     0.015 C 
ATOM     16  C   SIA B   4       8.094  -1.087   1.860  1.00  0.00     0.074 C 
ATOM     17  C09 SIA B   4       9.707   0.369   0.817  1.00  0.00     0.016 C 
ATOM     18  S   SIA B   4       8.074   0.505   2.809  1.00  0.00    -0.162 SA
ATOM     19  C12 SIA B   4       9.106   1.487   1.642  1.00  0.00     0.070 C 
ENDBRANCH  14  15
ENDBRANCH  11  14
ENDBRANCH   6   7
ENDBRANCH   5   6
ENDBRANCH   4   5
ENDBRANCH   3   4
BRANCH   3  20
ATOM     20  O02 SIA B   4      -0.141   1.388  -0.546  1.00  0.00    -0.356 OA
ATOM     21  H   UNL     1      -0.182   2.246  -0.089  1.00  0.00     0.215 HD
ENDBRANCH   3  20
ENDBRANCH   1   3
BRANCH   1  22
ATOM     22  C9  SIA B   4      -0.959  -0.681   1.407  1.00  0.00     0.120 C 
BRANCH  22  23
ATOM     23  C8  SIA B   4      -2.288  -0.070   1.239  1.00  0.00     0.159 C 
BRANCH  23  24
ATOM     24  C7  SIA B   4      -2.814   0.277  -0.090  1.00  0.00     0.175 C 
BRANCH  24  25
ATOM     25  C6  SIA B   4      -4.372   0.172   0.013  1.00  0.00     0.169 C 
ATOM     26  C5  SIA B   4      -4.967   0.580  -1.318  1.00  0.00     0.116 C 
ATOM     27  O6  SIA B   4      -4.637  -1.153   0.270  1.00  0.00    -0.365 OA
ATOM     28  C4  SIA B   4      -6.403   0.194  -1.379  1.00  0.00     0.137 C 
ATOM     29  C2  SIA B   4      -5.967  -1.478   0.402  1.00  0.00     0.177 C 
ATOM     30  C3  SIA B   4      -6.869  -0.322  -0.002  1.00  0.00     0.071 C 
BRANCH  26  31
ATOM     31  N5  SIA B   4      -4.602   1.886  -1.696  1.00  0.00    -0.285 NA
ATOM     32  H   UNL     1      -3.809   1.953  -2.338  1.00  0.00     0.125 HD
BRANCH  31  33
ATOM     33  C10 SIA B   4      -4.998   3.021  -1.003  1.00  0.00     0.179 C 
ATOM     34  C11 SIA B   4      -6.481   3.267  -1.019  1.00  0.00     0.056 C 
BRANCH  33  35
ATOM     35  O10 SIA B   4      -4.632   3.036   0.355  1.00  0.00    -0.379 OA
ATOM     36  H   UNL     1      -5.351   3.309   0.953  1.00  0.00     0.212 HD
ENDBRANCH  33  35
ENDBRANCH  31  33
ENDBRANCH  26  31
BRANCH  28  37
ATOM     37  O4  SIA B   4      -6.582  -0.959  -2.210  1.00  0.00    -0.391 OA
ATOM     38  H   UNL     1      -5.673  -1.189  -2.519  1.00  0.00     0.211 HD
ENDBRANCH  28  37
BRANCH  29  39
ATOM     39  C1  SIA B   4      -6.359  -1.913   1.788  1.00  0.00     0.273 C 
BRANCH  39  40
ATOM     40  O1A SIA B   4      -7.727  -2.209   1.755  1.00  0.00    -0.366 OA
ATOM     41  H   UNL     1      -8.173  -1.992   2.609  1.00  0.00     0.213 HD
ENDBRANCH  39  40
BRANCH  39  42
ATOM     42  O1B SIA B   4      -6.160  -0.877   2.684  1.00  0.00    -0.366 OA
ATOM     43  H   UNL     1      -5.701  -1.264   3.481  1.00  0.00     0.213 HD
ENDBRANCH  39  42
ENDBRANCH  29  39
ENDBRANCH  24  25
BRANCH  24  44
ATOM     44  O7  SIA B   4      -2.491  -0.640  -1.066  1.00  0.00    -0.388 OA
ATOM     45  H   UNL     1      -3.079  -1.424  -0.999  1.00  0.00     0.211 HD
ENDBRANCH  24  44
ENDBRANCH  23  24
BRANCH  23  46
ATOM     46  O8  SIA B   4      -2.566   0.964   2.171  1.00  0.00    -0.389 OA
ATOM     47  H   UNL     1      -2.083   1.788   1.882  1.00  0.00     0.211 HD
ENDBRANCH  23  46
ENDBRANCH  22  23
ENDBRANCH   1  22
TORSDOF 21
