REMARK SMILES CC(O)N[C@H]1[C@H]([C@H](O)[C@H](O)CNC(O)OCCC2CN(CCCCCC(O)O)NN2)O[C@@H](C(O)O)C[C@@H]1O
REMARK SMILES IDX 16 1 17 2 18 3 30 4 29 5 20 7 19 9 21 10 22 11 23 12 24 13
REMARK SMILES IDX 25 14 26 15 27 16 28 18 15 20 13 21 14 22 12 24 11 26 9 27
REMARK SMILES IDX 7 28 6 29 5 30 31 31 37 32 32 33 36 34 4 35 2 37 1 38 3 39
REMARK SMILES IDX 38 41 33 43 34 44 35 46 8 48 10 50
REMARK H PARENT 30 6 29 8 27 17 28 19 14 23 12 25 4 36 3 40 38 42 34 45 35 47
REMARK H PARENT 8 49 10 51
REMARK Flexibility Score: inf
ROOT
ATOM      1  C01 SIA B   4       1.278  -0.066   0.742  1.00  0.00     0.166 C 
ENDROOT
BRANCH   1   2
ATOM      2  C03 SIA B   4       2.685   0.142   1.159  1.00  0.00     0.050 C 
BRANCH   2   3
ATOM      3  C04 SIA B   4       3.597   0.693   0.078  1.00  0.00     0.088 C 
ATOM      4  N   SIA B   4       3.679  -0.192  -1.055  1.00  0.00    -0.240 NA
ATOM      5  N15 SIA B   4       4.946   0.013  -1.570  1.00  0.00    -0.191 NA
ATOM      6  H   UNL     1       3.610  -1.173  -0.727  1.00  0.00     0.143 HD
ATOM      7  N06 SIA B   4       5.802   0.428  -0.581  1.00  0.00    -0.229 NA
ATOM      8  H   UNL     1       4.873   0.751  -2.328  1.00  0.00     0.161 HD
ATOM      9  C05 SIA B   4       5.019   0.780   0.563  1.00  0.00     0.124 C 
BRANCH   7  10
ATOM     10  C07 SIA B   4       6.727  -0.654  -0.234  1.00  0.00     0.104 C 
BRANCH  10  11
ATOM     11  C08 SIA B   4       7.746  -0.079   0.739  1.00  0.00     0.017 C 
BRANCH  11  12
ATOM     12  C09 SIA B   4       8.755  -1.076   1.200  1.00  0.00     0.002 C 
BRANCH  12  13
ATOM     13  C12 SIA B   4       9.581  -1.685   0.105  1.00  0.00     0.005 C 
BRANCH  13  14
ATOM     14  C13 SIA B   4      10.339  -0.621  -0.665  1.00  0.00     0.062 C 
BRANCH  14  15
ATOM     15  C   SIA B   4      11.264   0.155   0.237  1.00  0.00     0.243 C 
BRANCH  15  16
ATOM     16  O   SIA B   4      12.201  -0.684   0.838  1.00  0.00    -0.368 OA
ATOM     17  H   UNL     1      13.093  -0.535   0.443  1.00  0.00     0.213 HD
ENDBRANCH  15  16
BRANCH  15  18
ATOM     18  O14 SIA B   4      11.947   1.104  -0.554  1.00  0.00    -0.368 OA
ATOM     19  H   UNL     1      11.484   1.193  -1.446  1.00  0.00     0.213 HD
ENDBRANCH  15  18
ENDBRANCH  14  15
ENDBRANCH  13  14
ENDBRANCH  12  13
ENDBRANCH  11  12
ENDBRANCH  10  11
ENDBRANCH   7  10
ENDBRANCH   2   3
ENDBRANCH   1   2
BRANCH   1  20
ATOM     20  O01 SIA B   4       0.613   1.090   0.330  1.00  0.00    -0.340 OA
BRANCH  20  21
ATOM     21  C02 SIA B   4      -0.733   0.765   0.031  1.00  0.00     0.325 C 
BRANCH  21  22
ATOM     22  O02 SIA B   4      -1.008   1.120  -1.252  1.00  0.00    -0.356 OA
ATOM     23  H   UNL     1      -0.591   1.999  -1.450  1.00  0.00     0.215 HD
ENDBRANCH  21  22
BRANCH  21  24
ATOM     24  N04 SIA B   4      -1.577   1.409   1.019  1.00  0.00    -0.266 NA
ATOM     25  H   UNL     1      -1.314   1.084   1.972  1.00  0.00     0.127 HD
BRANCH  24  26
ATOM     26  C9  SIA B   4      -2.985   1.183   0.805  1.00  0.00     0.120 C 
BRANCH  26  27
ATOM     27  C8  SIA B   4      -3.247  -0.270   1.002  1.00  0.00     0.159 C 
BRANCH  27  28
ATOM     28  C7  SIA B   4      -4.735  -0.633   1.007  1.00  0.00     0.175 C 
BRANCH  28  29
ATOM     29  C6  SIA B   4      -5.361  -0.132  -0.285  1.00  0.00     0.169 C 
ATOM     30  C5  SIA B   4      -6.783  -0.597  -0.419  1.00  0.00     0.116 C 
ATOM     31  O6  SIA B   4      -5.302   1.248  -0.330  1.00  0.00    -0.365 OA
ATOM     32  C4  SIA B   4      -7.201  -0.339  -1.877  1.00  0.00     0.137 C 
ATOM     33  C2  SIA B   4      -6.287   1.834  -1.056  1.00  0.00     0.177 C 
ATOM     34  C3  SIA B   4      -6.706   1.018  -2.262  1.00  0.00     0.071 C 
BRANCH  30  35
ATOM     35  N5  SIA B   4      -7.019  -1.973  -0.166  1.00  0.00    -0.285 NA
ATOM     36  H   UNL     1      -7.443  -2.491  -0.969  1.00  0.00     0.125 HD
BRANCH  35  37
ATOM     37  C10 SIA B   4      -7.484  -2.373   1.106  1.00  0.00     0.179 C 
ATOM     38  C11 SIA B   4      -8.811  -1.792   1.542  1.00  0.00     0.056 C 
BRANCH  37  39
ATOM     39  O10 SIA B   4      -7.759  -3.777   0.980  1.00  0.00    -0.379 OA
ATOM     40  H   UNL     1      -8.710  -3.937   0.805  1.00  0.00     0.212 HD
ENDBRANCH  37  39
ENDBRANCH  35  37
ENDBRANCH  30  35
BRANCH  32  41
ATOM     41  O4  SIA B   4      -8.588  -0.455  -2.001  1.00  0.00    -0.391 OA
ATOM     42  H   UNL     1      -8.764  -1.406  -2.270  1.00  0.00     0.211 HD
ENDBRANCH  32  41
BRANCH  33  43
ATOM     43  C1  SIA B   4      -5.758   3.156  -1.634  1.00  0.00     0.273 C 
BRANCH  43  44
ATOM     44  O1A SIA B   4      -5.367   4.011  -0.622  1.00  0.00    -0.366 OA
ATOM     45  H   UNL     1      -5.920   4.832  -0.644  1.00  0.00     0.213 HD
ENDBRANCH  43  44
BRANCH  43  46
ATOM     46  O1B SIA B   4      -6.796   3.700  -2.383  1.00  0.00    -0.366 OA
ATOM     47  H   UNL     1      -6.552   3.805  -3.338  1.00  0.00     0.213 HD
ENDBRANCH  43  46
ENDBRANCH  33  43
ENDBRANCH  28  29
BRANCH  28  48
ATOM     48  O7  SIA B   4      -5.388  -0.057   2.100  1.00  0.00    -0.388 OA
ATOM     49  H   UNL     1      -5.030  -0.505   2.926  1.00  0.00     0.211 HD
ENDBRANCH  28  48
ENDBRANCH  27  28
BRANCH  27  50
ATOM     50  O8  SIA B   4      -2.748  -0.708   2.270  1.00  0.00    -0.389 OA
ATOM     51  H   UNL     1      -2.328  -1.571   2.146  1.00  0.00     0.211 HD
ENDBRANCH  27  50
ENDBRANCH  26  27
ENDBRANCH  24  26
ENDBRANCH  21  24
ENDBRANCH  20  21
ENDBRANCH   1  20
TORSDOF 27
