REMARK SMILES CC(O)N[C@H]1[C@H]([C@H](O)[C@H](O)CNC(O)OCCC2CN(CC(O)NCC3CCCS3)NN2)O[C@@H](C(O)O)C[C@@H]1O
REMARK SMILES IDX 13 1 15 2 16 3 17 4 18 5 32 6 31 7 20 9 19 11 21 12 22 13
REMARK SMILES IDX 24 14 25 16 26 17 27 18 30 19 28 20 29 21 23 22 14 24 12 26
REMARK SMILES IDX 11 28 9 29 7 30 6 31 5 32 33 33 39 34 34 35 38 36 4 37 2 39
REMARK SMILES IDX 1 40 3 41 40 43 35 45 36 46 37 48 8 50 10 52
REMARK H PARENT 32 8 31 10 24 15 23 23 14 25 12 27 4 38 3 42 40 44 36 47 37 49
REMARK H PARENT 8 51 10 53
REMARK Flexibility Score: inf
ROOT
ATOM      1  C02 SIA B   4      -0.727   2.616   3.242  1.00  0.00     0.325 C 
ENDROOT
BRANCH   1   2
ATOM      2  O01 SIA B   4       0.104   2.003   4.159  1.00  0.00    -0.340 OA
BRANCH   2   3
ATOM      3  C01 SIA B   4       1.095   1.202   3.663  1.00  0.00     0.166 C 
BRANCH   3   4
ATOM      4  C03 SIA B   4       0.531   0.056   2.901  1.00  0.00     0.050 C 
BRANCH   4   5
ATOM      5  C04 SIA B   4       1.582  -0.870   2.358  1.00  0.00     0.088 C 
ATOM      6  N   SIA B   4       0.893  -1.940   1.627  1.00  0.00    -0.239 NA
ATOM      7  N16 SIA B   4       1.925  -2.346   0.734  1.00  0.00    -0.191 NA
ATOM      8  H   UNL     1       0.106  -1.508   1.059  1.00  0.00     0.143 HD
ATOM      9  N06 SIA B   4       2.258  -1.090   0.158  1.00  0.00    -0.225 NA
ATOM     10  H   UNL     1       1.534  -2.919  -0.047  1.00  0.00     0.161 HD
ATOM     11  C05 SIA B   4       2.493  -0.286   1.341  1.00  0.00     0.124 C 
BRANCH   9  12
ATOM     12  C07 SIA B   4       3.609  -1.355  -0.433  1.00  0.00     0.152 C 
BRANCH  12  13
ATOM     13  C08 SIA B   4       4.086  -0.035  -0.902  1.00  0.00     0.198 C 
BRANCH  13  14
ATOM     14  N09 SIA B   4       5.277   0.089  -1.616  1.00  0.00    -0.290 NA
ATOM     15  H   UNL     1       5.309   1.031  -2.071  1.00  0.00     0.125 HD
BRANCH  14  16
ATOM     16  C12 SIA B   4       6.530  -0.275  -1.123  1.00  0.00     0.098 C 
BRANCH  16  17
ATOM     17  C13 SIA B   4       6.757  -1.738  -1.042  1.00  0.00     0.060 C 
ATOM     18  C14 SIA B   4       8.171  -2.025  -0.481  1.00  0.00     0.016 C 
ATOM     19  S   SIA B   4       7.021  -2.453  -2.726  1.00  0.00    -0.157 SA
ATOM     20  C15 SIA B   4       8.380  -3.503  -0.791  1.00  0.00     0.012 C 
ATOM     21  C   SIA B   4       8.420  -3.573  -2.323  1.00  0.00     0.070 C 
ENDBRANCH  16  17
ENDBRANCH  14  16
ENDBRANCH  13  14
BRANCH  13  22
ATOM     22  O   SIA B   4       3.060   0.406  -1.825  1.00  0.00    -0.377 OA
ATOM     23  H   UNL     1       3.405   1.191  -2.329  1.00  0.00     0.212 HD
ENDBRANCH  13  22
ENDBRANCH  12  13
ENDBRANCH   9  12
ENDBRANCH   4   5
ENDBRANCH   3   4
ENDBRANCH   2   3
ENDBRANCH   1   2
BRANCH   1  24
ATOM     24  O02 SIA B   4      -0.577   4.015   3.272  1.00  0.00    -0.356 OA
ATOM     25  H   UNL     1      -1.106   4.421   3.999  1.00  0.00     0.215 HD
ENDBRANCH   1  24
BRANCH   1  26
ATOM     26  N04 SIA B   4      -2.071   2.233   3.590  1.00  0.00    -0.266 NA
ATOM     27  H   UNL     1      -2.092   1.215   3.705  1.00  0.00     0.127 HD
BRANCH  26  28
ATOM     28  C9  SIA B   4      -3.113   2.802   2.827  1.00  0.00     0.120 C 
BRANCH  28  29
ATOM     29  C8  SIA B   4      -3.236   2.367   1.405  1.00  0.00     0.159 C 
BRANCH  29  30
ATOM     30  C7  SIA B   4      -3.810   0.949   1.303  1.00  0.00     0.175 C 
BRANCH  30  31
ATOM     31  C6  SIA B   4      -4.490   0.685   0.015  1.00  0.00     0.169 C 
ATOM     32  C5  SIA B   4      -3.618   0.157  -1.128  1.00  0.00     0.116 C 
ATOM     33  O6  SIA B   4      -5.382  -0.394   0.257  1.00  0.00    -0.365 OA
ATOM     34  C4  SIA B   4      -4.487   0.408  -2.340  1.00  0.00     0.137 C 
ATOM     35  C2  SIA B   4      -6.247  -0.579  -0.790  1.00  0.00     0.177 C 
ATOM     36  C3  SIA B   4      -5.715  -0.462  -2.162  1.00  0.00     0.071 C 
BRANCH  32  37
ATOM     37  N5  SIA B   4      -2.351   0.755  -1.094  1.00  0.00    -0.285 NA
ATOM     38  H   UNL     1      -1.844   0.252  -0.262  1.00  0.00     0.125 HD
BRANCH  37  39
ATOM     39  C10 SIA B   4      -1.467   0.358  -2.190  1.00  0.00     0.179 C 
ATOM     40  C11 SIA B   4      -1.221  -1.127  -2.101  1.00  0.00     0.056 C 
BRANCH  39  41
ATOM     41  O10 SIA B   4      -0.224   0.967  -1.887  1.00  0.00    -0.379 OA
ATOM     42  H   UNL     1       0.290   1.126  -2.740  1.00  0.00     0.212 HD
ENDBRANCH  39  41
ENDBRANCH  37  39
ENDBRANCH  32  37
BRANCH  34  43
ATOM     43  O4  SIA B   4      -3.913   0.020  -3.542  1.00  0.00    -0.391 OA
ATOM     44  H   UNL     1      -4.616   0.128  -4.230  1.00  0.00     0.211 HD
ENDBRANCH  34  43
BRANCH  35  45
ATOM     45  C1  SIA B   4      -7.540   0.222  -0.646  1.00  0.00     0.273 C 
BRANCH  45  46
ATOM     46  O1A SIA B   4      -8.307  -0.078  -1.792  1.00  0.00    -0.366 OA
ATOM     47  H   UNL     1      -9.269  -0.105  -1.607  1.00  0.00     0.213 HD
ENDBRANCH  45  46
BRANCH  45  48
ATOM     48  O1B SIA B   4      -7.328   1.574  -0.539  1.00  0.00    -0.366 OA
ATOM     49  H   UNL     1      -7.767   2.018  -1.312  1.00  0.00     0.213 HD
ENDBRANCH  45  48
ENDBRANCH  35  45
ENDBRANCH  30  31
BRANCH  30  50
ATOM     50  O7  SIA B   4      -4.899   1.083   2.279  1.00  0.00    -0.388 OA
ATOM     51  H   UNL     1      -5.483   1.805   1.972  1.00  0.00     0.211 HD
ENDBRANCH  30  50
ENDBRANCH  29  30
BRANCH  29  52
ATOM     52  O8  SIA B   4      -2.138   2.646   0.688  1.00  0.00    -0.389 OA
ATOM     53  H   UNL     1      -2.255   3.342  -0.022  1.00  0.00     0.211 HD
ENDBRANCH  29  52
ENDBRANCH  28  29
ENDBRANCH  26  28
ENDBRANCH   1  26
TORSDOF 25
