REMARK SMILES CC(O)N[C@H]1[C@H]([C@H](O)[C@H](O)CNC(O)OCCC2CN(C3CCCNC3)NN2)O[C@@H](C(O)O)C[C@@H]1O
REMARK SMILES IDX 11 1 12 2 13 4 15 5 16 6 17 7 18 8 28 9 27 10 20 12 19 14
REMARK SMILES IDX 21 15 26 16 22 17 25 18 23 19 24 20 14 22 9 24 7 25 6 26
REMARK SMILES IDX 5 27 29 28 35 29 30 30 34 31 4 32 2 34 1 35 3 36 36 38 31 40
REMARK SMILES IDX 32 41 33 43 8 45 10 47
REMARK H PARENT 12 3 28 11 27 13 25 21 14 23 4 33 3 37 36 39 32 42 33 44 8 46
REMARK H PARENT 10 48
REMARK Flexibility Score: inf
ROOT
ATOM      1  C9  SIA B   4      -1.806  -2.941  -0.560  1.00  0.00     0.120 C 
ENDROOT
BRANCH   1   2
ATOM      2  N04 SIA B   4      -0.502  -3.026  -0.034  1.00  0.00    -0.266 NA
ATOM      3  H   UNL     1      -0.535  -3.329   0.967  1.00  0.00     0.127 HD
BRANCH   2   4
ATOM      4  C02 SIA B   4       0.409  -1.952  -0.141  1.00  0.00     0.325 C 
BRANCH   4   5
ATOM      5  O01 SIA B   4       1.693  -2.367   0.289  1.00  0.00    -0.340 OA
BRANCH   5   6
ATOM      6  C01 SIA B   4       2.085  -1.751   1.462  1.00  0.00     0.166 C 
BRANCH   6   7
ATOM      7  C03 SIA B   4       3.449  -2.189   1.922  1.00  0.00     0.050 C 
BRANCH   7   8
ATOM      8  C04 SIA B   4       4.447  -1.829   0.843  1.00  0.00     0.088 C 
ATOM      9  N   SIA B   4       5.797  -2.237   1.229  1.00  0.00    -0.239 NA
ATOM     10  N14 SIA B   4       6.650  -1.353   0.545  1.00  0.00    -0.191 NA
ATOM     11  H   UNL     1       5.889  -2.000   2.256  1.00  0.00     0.143 HD
ATOM     12  N06 SIA B   4       5.975  -0.164   0.429  1.00  0.00    -0.225 NA
ATOM     13  H   UNL     1       7.569  -1.257   1.043  1.00  0.00     0.161 HD
ATOM     14  C05 SIA B   4       4.617  -0.321   0.783  1.00  0.00     0.124 C 
BRANCH  12  15
ATOM     15  C07 SIA B   4       6.289   0.504  -0.775  1.00  0.00     0.088 C 
ATOM     16  C   SIA B   4       5.858   1.946  -0.813  1.00  0.00     0.101 C 
ATOM     17  C08 SIA B   4       7.774   0.359  -1.054  1.00  0.00     0.023 C 
ATOM     18  N13 SIA B   4       6.856   2.733  -1.472  1.00  0.00    -0.315 NA
ATOM     19  C09 SIA B   4       8.519   1.403  -0.254  1.00  0.00     0.017 C 
ATOM     20  C12 SIA B   4       8.146   2.746  -0.865  1.00  0.00     0.081 C 
ATOM     21  H   UNL     1       6.507   3.730  -1.495  1.00  0.00     0.122 HD
ENDBRANCH  12  15
ENDBRANCH   7   8
ENDBRANCH   6   7
ENDBRANCH   5   6
ENDBRANCH   4   5
BRANCH   4  22
ATOM     22  O02 SIA B   4       0.466  -1.291  -1.337  1.00  0.00    -0.356 OA
ATOM     23  H   UNL     1       0.693  -1.962  -2.039  1.00  0.00     0.215 HD
ENDBRANCH   4  22
ENDBRANCH   2   4
ENDBRANCH   1   2
BRANCH   1  24
ATOM     24  C8  SIA B   4      -2.778  -2.009   0.084  1.00  0.00     0.159 C 
BRANCH  24  25
ATOM     25  C7  SIA B   4      -2.585  -0.604  -0.310  1.00  0.00     0.175 C 
BRANCH  25  26
ATOM     26  C6  SIA B   4      -3.854   0.249   0.019  1.00  0.00     0.169 C 
ATOM     27  C5  SIA B   4      -4.958  -0.003  -0.908  1.00  0.00     0.116 C 
ATOM     28  O6  SIA B   4      -3.990   0.199   1.342  1.00  0.00    -0.365 OA
ATOM     29  C4  SIA B   4      -6.266  -0.407  -0.271  1.00  0.00     0.137 C 
ATOM     30  C2  SIA B   4      -5.161  -0.052   1.944  1.00  0.00     0.177 C 
ATOM     31  C3  SIA B   4      -6.404   0.123   1.136  1.00  0.00     0.071 C 
BRANCH  27  32
ATOM     32  N5  SIA B   4      -5.126   0.938  -1.977  1.00  0.00    -0.285 NA
ATOM     33  H   UNL     1      -5.223   0.550  -2.922  1.00  0.00     0.125 HD
BRANCH  32  34
ATOM     34  C10 SIA B   4      -5.691   2.189  -1.731  1.00  0.00     0.179 C 
ATOM     35  C11 SIA B   4      -4.982   3.135  -0.817  1.00  0.00     0.056 C 
BRANCH  34  36
ATOM     36  O10 SIA B   4      -5.741   2.860  -2.984  1.00  0.00    -0.379 OA
ATOM     37  H   UNL     1      -6.281   3.681  -2.842  1.00  0.00     0.212 HD
ENDBRANCH  34  36
ENDBRANCH  32  34
ENDBRANCH  27  32
BRANCH  29  38
ATOM     38  O4  SIA B   4      -6.482  -1.784  -0.268  1.00  0.00    -0.391 OA
ATOM     39  H   UNL     1      -6.665  -2.146   0.620  1.00  0.00     0.211 HD
ENDBRANCH  29  38
BRANCH  30  40
ATOM     40  C1  SIA B   4      -5.259   0.810   3.184  1.00  0.00     0.273 C 
BRANCH  40  41
ATOM     41  O1A SIA B   4      -5.192   2.164   2.871  1.00  0.00    -0.366 OA
ATOM     42  H   UNL     1      -6.078   2.575   2.713  1.00  0.00     0.213 HD
ENDBRANCH  40  41
BRANCH  40  43
ATOM     43  O1B SIA B   4      -4.208   0.540   4.060  1.00  0.00    -0.366 OA
ATOM     44  H   UNL     1      -3.414   1.082   3.868  1.00  0.00     0.213 HD
ENDBRANCH  40  43
ENDBRANCH  30  40
ENDBRANCH  25  26
BRANCH  25  45
ATOM     45  O7  SIA B   4      -2.480  -0.560  -1.723  1.00  0.00    -0.388 OA
ATOM     46  H   UNL     1      -2.325   0.358  -2.037  1.00  0.00     0.211 HD
ENDBRANCH  25  45
ENDBRANCH  24  25
BRANCH  24  47
ATOM     47  O8  SIA B   4      -2.881  -2.296   1.428  1.00  0.00    -0.389 OA
ATOM     48  H   UNL     1      -2.341  -1.747   2.019  1.00  0.00     0.211 HD
ENDBRANCH  24  47
ENDBRANCH   1  24
TORSDOF 20
