REMARK SMILES CC(O)N[C@H]1[C@H]([C@H](O)[C@H](O)CNC(O)OCCC2CN(C3CCC(S(N)(O)O)CC3)NN2)O[C@@H](C(O)O)C[C@@H]1O
REMARK SMILES IDX 13 1 15 2 16 3 17 4 18 5 32 6 31 7 20 9 19 11 21 12 22 13
REMARK SMILES IDX 30 14 23 15 29 16 24 17 25 18 26 19 27 22 28 24 14 26 12 28
REMARK SMILES IDX 11 30 9 31 7 32 6 33 5 34 33 35 39 36 34 37 38 38 4 39 2 41
REMARK SMILES IDX 1 42 3 43 40 45 35 47 36 48 37 50 8 52 10 54
REMARK H PARENT 32 8 31 10 26 20 26 21 27 23 28 25 14 27 12 29 4 40 3 44 40 46
REMARK H PARENT 36 49 37 51 8 53 10 55
REMARK Flexibility Score: inf
ROOT
ATOM      1  C02 SIA B   4      -0.401   1.404  -0.628  1.00  0.00     0.325 C 
ENDROOT
BRANCH   1   2
ATOM      2  O01 SIA B   4       0.306   0.267  -0.792  1.00  0.00    -0.340 OA
BRANCH   2   3
ATOM      3  C01 SIA B   4       0.643  -0.525   0.230  1.00  0.00     0.166 C 
BRANCH   3   4
ATOM      4  C03 SIA B   4       1.469   0.010   1.347  1.00  0.00     0.050 C 
BRANCH   4   5
ATOM      5  C04 SIA B   4       2.767   0.596   0.934  1.00  0.00     0.088 C 
ATOM      6  N   SIA B   4       3.518   0.997   2.096  1.00  0.00    -0.239 NA
ATOM      7  N16 SIA B   4       4.543   0.058   2.245  1.00  0.00    -0.191 NA
ATOM      8  H   UNL     1       2.947   1.045   2.966  1.00  0.00     0.143 HD
ATOM      9  N06 SIA B   4       4.630  -0.741   1.106  1.00  0.00    -0.226 NA
ATOM     10  H   UNL     1       4.304  -0.577   3.064  1.00  0.00     0.161 HD
ATOM     11  C05 SIA B   4       3.684  -0.216   0.135  1.00  0.00     0.124 C 
BRANCH   9  12
ATOM     12  C07 SIA B   4       5.989  -0.539   0.574  1.00  0.00     0.074 C 
ATOM     13  C   SIA B   4       6.423   0.889   0.536  1.00  0.00     0.022 C 
ATOM     14  C08 SIA B   4       6.978  -1.443   1.205  1.00  0.00     0.022 C 
ATOM     15  C15 SIA B   4       7.850   0.923   0.016  1.00  0.00     0.028 C 
ATOM     16  C09 SIA B   4       8.319  -1.431   0.463  1.00  0.00     0.028 C 
ATOM     17  C12 SIA B   4       8.251  -0.409  -0.614  1.00  0.00     0.117 C 
BRANCH  17  18
ATOM     18  S   SIA B   4       9.839  -0.138  -1.451  1.00  0.00    -0.140 S 
BRANCH  18  19
ATOM     19  N14 SIA B   4      11.070   0.244  -0.297  1.00  0.00    -0.233 NA
ATOM     20  H   UNL     1      11.984   0.446  -0.719  1.00  0.00     0.143 HD
ATOM     21  H   UNL     1      11.180  -0.578   0.364  1.00  0.00     0.143 HD
ENDBRANCH  18  19
BRANCH  18  22
ATOM     22  O   SIA B   4       9.581   1.221  -2.477  1.00  0.00    -0.286 OA
ATOM     23  H   UNL     1       9.600   2.014  -1.896  1.00  0.00     0.243 HD
ENDBRANCH  18  22
BRANCH  18  24
ATOM     24  O13 SIA B   4      10.187  -1.522  -2.338  1.00  0.00    -0.286 OA
ATOM     25  H   UNL     1       9.419  -1.836  -2.886  1.00  0.00     0.243 HD
ENDBRANCH  18  24
ENDBRANCH  17  18
ENDBRANCH   9  12
ENDBRANCH   4   5
ENDBRANCH   3   4
ENDBRANCH   2   3
ENDBRANCH   1   2
BRANCH   1  26
ATOM     26  O02 SIA B   4       0.387   2.463  -1.154  1.00  0.00    -0.356 OA
ATOM     27  H   UNL     1       0.292   2.485  -2.143  1.00  0.00     0.215 HD
ENDBRANCH   1  26
BRANCH   1  28
ATOM     28  N04 SIA B   4      -1.604   1.425  -1.450  1.00  0.00    -0.266 NA
ATOM     29  H   UNL     1      -2.032   2.365  -1.359  1.00  0.00     0.127 HD
BRANCH  28  30
ATOM     30  C9  SIA B   4      -2.571   0.427  -1.112  1.00  0.00     0.120 C 
BRANCH  30  31
ATOM     31  C8  SIA B   4      -3.135   0.779   0.234  1.00  0.00     0.159 C 
BRANCH  31  32
ATOM     32  C7  SIA B   4      -4.200  -0.235   0.688  1.00  0.00     0.175 C 
BRANCH  32  33
ATOM     33  C6  SIA B   4      -5.344  -0.096  -0.303  1.00  0.00     0.169 C 
ATOM     34  C5  SIA B   4      -6.536  -0.913   0.140  1.00  0.00     0.116 C 
ATOM     35  O6  SIA B   4      -5.615   1.249  -0.375  1.00  0.00    -0.365 OA
ATOM     36  C4  SIA B   4      -7.704  -0.615  -0.768  1.00  0.00     0.137 C 
ATOM     37  C2  SIA B   4      -6.934   1.612  -0.218  1.00  0.00     0.177 C 
ATOM     38  C3  SIA B   4      -7.704   0.812  -1.271  1.00  0.00     0.071 C 
BRANCH  34  39
ATOM     39  N5  SIA B   4      -6.200  -2.311  -0.033  1.00  0.00    -0.285 NA
ATOM     40  H   UNL     1      -6.965  -2.828  -0.572  1.00  0.00     0.125 HD
BRANCH  39  41
ATOM     41  C10 SIA B   4      -6.080  -3.043   1.205  1.00  0.00     0.179 C 
ATOM     42  C11 SIA B   4      -4.992  -4.093   0.943  1.00  0.00     0.056 C 
BRANCH  41  43
ATOM     43  O10 SIA B   4      -7.226  -3.732   1.559  1.00  0.00    -0.379 OA
ATOM     44  H   UNL     1      -8.069  -3.283   1.339  1.00  0.00     0.212 HD
ENDBRANCH  41  43
ENDBRANCH  39  41
ENDBRANCH  34  39
BRANCH  36  45
ATOM     45  O4  SIA B   4      -8.916  -0.971  -0.197  1.00  0.00    -0.391 OA
ATOM     46  H   UNL     1      -9.574  -1.249  -0.907  1.00  0.00     0.211 HD
ENDBRANCH  36  45
BRANCH  37  47
ATOM     47  C1  SIA B   4      -7.065   3.072  -0.569  1.00  0.00     0.273 C 
BRANCH  47  48
ATOM     48  O1A SIA B   4      -6.700   3.286  -1.882  1.00  0.00    -0.366 OA
ATOM     49  H   UNL     1      -5.885   3.800  -1.983  1.00  0.00     0.213 HD
ENDBRANCH  47  48
BRANCH  47  50
ATOM     50  O1B SIA B   4      -6.247   3.864   0.250  1.00  0.00    -0.366 OA
ATOM     51  H   UNL     1      -6.644   3.921   1.146  1.00  0.00     0.213 HD
ENDBRANCH  47  50
ENDBRANCH  37  47
ENDBRANCH  32  33
BRANCH  32  52
ATOM     52  O7  SIA B   4      -4.610   0.239   1.941  1.00  0.00    -0.388 OA
ATOM     53  H   UNL     1      -4.459   1.191   2.030  1.00  0.00     0.211 HD
ENDBRANCH  32  52
ENDBRANCH  31  32
BRANCH  31  54
ATOM     54  O8  SIA B   4      -3.700   2.053   0.159  1.00  0.00    -0.389 OA
ATOM     55  H   UNL     1      -3.063   2.761   0.337  1.00  0.00     0.211 HD
ENDBRANCH  31  54
ENDBRANCH  30  31
ENDBRANCH  28  30
ENDBRANCH   1  28
TORSDOF 24
