REMARK SMILES CC(O)N[C@H]1[C@H]([C@H](O)[C@H](O)CNC(O)OCCC2CN(C3CCC(S(O)(O)[C@H]4CC[C@@H](N)CC4)CC3)NN2)O[C@@H](C(O)O)C[C@@H]1O
REMARK SMILES IDX 13 1 15 2 16 3 17 4 18 5 38 6 37 7 20 9 19 11 21 12 22 13
REMARK SMILES IDX 36 14 23 15 35 16 24 17 25 18 28 19 34 20 29 21 33 22 30 23
REMARK SMILES IDX 31 24 32 25 26 28 27 30 14 32 12 34 11 36 9 37 7 38 6 39
REMARK SMILES IDX 5 40 39 41 45 42 40 43 44 44 4 45 2 47 1 48 3 49 46 51 41 53
REMARK SMILES IDX 42 54 43 56 8 58 10 60
REMARK H PARENT 38 8 37 10 32 26 32 27 26 29 27 31 14 33 12 35 4 46 3 50 46 52
REMARK H PARENT 42 55 43 57 8 59 10 61
REMARK Flexibility Score: inf
ROOT
ATOM      1  C02 SIA B   4      -1.981  -1.308   0.031  1.00  0.00     0.325 C 
ENDROOT
BRANCH   1   2
ATOM      2  O01 SIA B   4      -2.324  -0.247   0.784  1.00  0.00    -0.340 OA
BRANCH   2   3
ATOM      3  C01 SIA B   4      -1.374   0.504   1.409  1.00  0.00     0.166 C 
BRANCH   3   4
ATOM      4  C03 SIA B   4      -0.424   1.268   0.600  1.00  0.00     0.050 C 
BRANCH   4   5
ATOM      5  C04 SIA B   4       0.489   0.668  -0.360  1.00  0.00     0.088 C 
ATOM      6  N   SIA B   4       1.289   1.803  -0.924  1.00  0.00    -0.239 NA
ATOM      7  N22 SIA B   4       2.390   1.919  -0.076  1.00  0.00    -0.191 NA
ATOM      8  H   UNL     1       1.550   1.605  -1.904  1.00  0.00     0.143 HD
ATOM      9  N06 SIA B   4       2.496   0.754   0.693  1.00  0.00    -0.226 NA
ATOM     10  H   UNL     1       2.447   2.795   0.446  1.00  0.00     0.161 HD
ATOM     11  C05 SIA B   4       1.609  -0.176   0.080  1.00  0.00     0.124 C 
BRANCH   9  12
ATOM     12  C07 SIA B   4       3.843   0.296   0.607  1.00  0.00     0.074 C 
ATOM     13  C   SIA B   4       4.427   0.262  -0.774  1.00  0.00     0.022 C 
ATOM     14  C08 SIA B   4       4.802   1.042   1.507  1.00  0.00     0.022 C 
ATOM     15  C21 SIA B   4       5.695  -0.583  -0.726  1.00  0.00     0.026 C 
ATOM     16  C09 SIA B   4       6.073   0.225   1.640  1.00  0.00     0.026 C 
ATOM     17  C12 SIA B   4       6.162  -0.892   0.673  1.00  0.00     0.101 C 
BRANCH  17  18
ATOM     18  S   SIA B   4       7.840  -1.517   0.591  1.00  0.00    -0.191 S 
BRANCH  18  19
ATOM     19  C14 SIA B   4       9.064  -0.281   0.237  1.00  0.00     0.101 C 
ATOM     20  C15 SIA B   4      10.426  -0.956   0.458  1.00  0.00     0.026 C 
ATOM     21  C20 SIA B   4       8.986   0.347  -1.106  1.00  0.00     0.026 C 
ATOM     22  C16 SIA B   4      11.550   0.044   0.412  1.00  0.00     0.020 C 
ATOM     23  C19 SIA B   4      10.332   0.980  -1.500  1.00  0.00     0.020 C 
ATOM     24  C17 SIA B   4      11.110   1.339  -0.243  1.00  0.00     0.050 C 
BRANCH  24  25
ATOM     25  N18 SIA B   4      12.266   2.122  -0.657  1.00  0.00    -0.328 NA
ATOM     26  H   UNL     1      13.009   1.508  -1.048  1.00  0.00     0.119 HD
ATOM     27  H   UNL     1      12.615   2.718   0.138  1.00  0.00     0.119 HD
ENDBRANCH  24  25
ENDBRANCH  18  19
BRANCH  18  28
ATOM     28  O   SIA B   4       7.856  -2.636  -0.731  1.00  0.00    -0.299 OA
ATOM     29  H   UNL     1       7.641  -2.133  -1.563  1.00  0.00     0.241 HD
ENDBRANCH  18  28
BRANCH  18  30
ATOM     30  O13 SIA B   4       8.232  -2.417   1.985  1.00  0.00    -0.299 OA
ATOM     31  H   UNL     1       7.752  -3.264   1.941  1.00  0.00     0.241 HD
ENDBRANCH  18  30
ENDBRANCH  17  18
ENDBRANCH   9  12
ENDBRANCH   4   5
ENDBRANCH   3   4
ENDBRANCH   2   3
ENDBRANCH   1   2
BRANCH   1  32
ATOM     32  O02 SIA B   4      -2.441  -2.519   0.643  1.00  0.00    -0.356 OA
ATOM     33  H   UNL     1      -2.395  -3.190  -0.100  1.00  0.00     0.215 HD
ENDBRANCH   1  32
BRANCH   1  34
ATOM     34  N04 SIA B   4      -2.487  -1.247  -1.317  1.00  0.00    -0.266 NA
ATOM     35  H   UNL     1      -2.202  -0.392  -1.813  1.00  0.00     0.127 HD
BRANCH  34  36
ATOM     36  C9  SIA B   4      -3.895  -1.419  -1.413  1.00  0.00     0.120 C 
BRANCH  36  37
ATOM     37  C8  SIA B   4      -4.741  -0.300  -0.861  1.00  0.00     0.159 C 
BRANCH  37  38
ATOM     38  C7  SIA B   4      -6.188  -0.808  -0.966  1.00  0.00     0.175 C 
BRANCH  38  39
ATOM     39  C6  SIA B   4      -7.176   0.128  -0.357  1.00  0.00     0.169 C 
ATOM     40  C5  SIA B   4      -8.505  -0.681  -0.282  1.00  0.00     0.116 C 
ATOM     41  O6  SIA B   4      -6.818   0.488   0.941  1.00  0.00    -0.365 OA
ATOM     42  C4  SIA B   4      -9.605   0.209   0.151  1.00  0.00     0.137 C 
ATOM     43  C2  SIA B   4      -7.825   1.292   1.479  1.00  0.00     0.177 C 
ATOM     44  C3  SIA B   4      -8.972   1.539   0.560  1.00  0.00     0.071 C 
BRANCH  40  45
ATOM     45  N5  SIA B   4      -8.596  -1.402  -1.478  1.00  0.00    -0.285 NA
ATOM     46  H   UNL     1      -8.447  -0.869  -2.352  1.00  0.00     0.125 HD
BRANCH  45  47
ATOM     47  C10 SIA B   4      -9.534  -2.423  -1.670  1.00  0.00     0.179 C 
ATOM     48  C11 SIA B   4     -10.954  -1.943  -1.652  1.00  0.00     0.056 C 
BRANCH  47  49
ATOM     49  O10 SIA B   4      -9.356  -3.500  -0.770  1.00  0.00    -0.379 OA
ATOM     50  H   UNL     1      -9.340  -3.150   0.153  1.00  0.00     0.212 HD
ENDBRANCH  47  49
ENDBRANCH  45  47
ENDBRANCH  40  45
BRANCH  42  51
ATOM     51  O4  SIA B   4     -10.171  -0.282   1.353  1.00  0.00    -0.391 OA
ATOM     52  H   UNL     1      -9.436  -0.681   1.887  1.00  0.00     0.211 HD
ENDBRANCH  42  51
BRANCH  43  53
ATOM     53  C1  SIA B   4      -7.266   2.662   1.853  1.00  0.00     0.273 C 
BRANCH  53  54
ATOM     54  O1A SIA B   4      -8.336   3.385   2.378  1.00  0.00    -0.366 OA
ATOM     55  H   UNL     1      -8.796   3.928   1.682  1.00  0.00     0.213 HD
ENDBRANCH  53  54
BRANCH  53  56
ATOM     56  O1B SIA B   4      -6.771   3.339   0.746  1.00  0.00    -0.366 OA
ATOM     57  H   UNL     1      -7.053   4.278   0.813  1.00  0.00     0.213 HD
ENDBRANCH  53  56
ENDBRANCH  43  53
ENDBRANCH  38  39
BRANCH  38  58
ATOM     58  O7  SIA B   4      -6.153  -2.017  -0.223  1.00  0.00    -0.388 OA
ATOM     59  H   UNL     1      -5.712  -1.873   0.648  1.00  0.00     0.211 HD
ENDBRANCH  38  58
ENDBRANCH  37  38
BRANCH  37  60
ATOM     60  O8  SIA B   4      -4.533   0.893  -1.498  1.00  0.00    -0.389 OA
ATOM     61  H   UNL     1      -4.303   1.600  -0.832  1.00  0.00     0.211 HD
ENDBRANCH  37  60
ENDBRANCH  36  37
ENDBRANCH  34  36
ENDBRANCH   1  34
TORSDOF 25
