REMARK SMILES CC(O)N[C@H]1[C@H]([C@H](O)[C@H](O)CNC(O)OCCC2CN(C3CCCC(Cl)C3)NN2)O[C@@H](C(O)O)C[C@@H]1O
REMARK SMILES IDX 11 1 12 2 13 4 15 5 16 6 17 7 18 8 29 9 28 10 20 12 19 14
REMARK SMILES IDX 21 15 27 16 22 17 25 18 23 19 24 20 26 21 14 22 9 24 7 25
REMARK SMILES IDX 6 26 5 27 30 28 36 29 31 30 35 31 4 32 2 34 1 35 3 36 37 38
REMARK SMILES IDX 32 40 33 41 34 43 8 45 10 47
REMARK H PARENT 12 3 29 11 28 13 14 23 4 33 3 37 37 39 33 42 34 44 8 46 10 48
REMARK Flexibility Score: inf
ROOT
ATOM      1  C9  SIA B   4      -1.274   1.739   0.108  1.00  0.00     0.120 C 
ENDROOT
BRANCH   1   2
ATOM      2  N04 SIA B   4      -0.299   1.169  -0.693  1.00  0.00    -0.266 NA
ATOM      3  H   UNL     1       0.455   1.863  -0.982  1.00  0.00     0.127 HD
BRANCH   2   4
ATOM      4  C02 SIA B   4       0.343   0.004  -0.159  1.00  0.00     0.325 C 
BRANCH   4   5
ATOM      5  O01 SIA B   4       1.017   0.213   1.025  1.00  0.00    -0.340 OA
BRANCH   5   6
ATOM      6  C01 SIA B   4       2.376   0.053   0.930  1.00  0.00     0.166 C 
BRANCH   6   7
ATOM      7  C03 SIA B   4       2.819  -1.320   0.509  1.00  0.00     0.050 C 
BRANCH   7   8
ATOM      8  C04 SIA B   4       4.330  -1.304   0.500  1.00  0.00     0.088 C 
ATOM      9  N   SIA B   4       4.920  -2.571   0.103  1.00  0.00    -0.239 NA
ATOM     10  N14 SIA B   4       5.889  -2.275  -0.887  1.00  0.00    -0.191 NA
ATOM     11  H   UNL     1       5.297  -3.116   0.884  1.00  0.00     0.143 HD
ATOM     12  N06 SIA B   4       6.183  -0.886  -0.727  1.00  0.00    -0.226 NA
ATOM     13  H   UNL     1       5.537  -2.451  -1.854  1.00  0.00     0.161 HD
ATOM     14  C05 SIA B   4       4.826  -0.396  -0.563  1.00  0.00     0.124 C 
BRANCH  12  15
ATOM     15  C07 SIA B   4       7.004  -0.809   0.439  1.00  0.00     0.075 C 
ATOM     16  C   SIA B   4       8.379  -1.325   0.079  1.00  0.00     0.040 C 
ATOM     17  C08 SIA B   4       7.150   0.520   1.069  1.00  0.00     0.021 C 
ATOM     18  C13 SIA B   4       8.964  -0.404  -0.969  1.00  0.00     0.082 C 
ATOM     19  C09 SIA B   4       8.529   1.152   0.874  1.00  0.00     0.003 C 
ATOM     20  C12 SIA B   4       8.943   1.045  -0.556  1.00  0.00     0.020 C 
ATOM     21 Cl   SIA B   4      10.647  -0.860  -1.350  1.00  0.00    -0.123 Cl
ENDBRANCH  12  15
ENDBRANCH   7   8
ENDBRANCH   6   7
ENDBRANCH   5   6
ENDBRANCH   4   5
BRANCH   4  22
ATOM     22  O02 SIA B   4      -0.577  -1.027  -0.050  1.00  0.00    -0.356 OA
ATOM     23  H   UNL     1      -0.486  -1.487   0.807  1.00  0.00     0.215 HD
ENDBRANCH   4  22
ENDBRANCH   2   4
ENDBRANCH   1   2
BRANCH   1  24
ATOM     24  C8  SIA B   4      -2.606   1.033   0.265  1.00  0.00     0.159 C 
BRANCH  24  25
ATOM     25  C7  SIA B   4      -3.268   1.020  -1.108  1.00  0.00     0.175 C 
BRANCH  25  26
ATOM     26  C6  SIA B   4      -4.755   0.952  -1.034  1.00  0.00     0.169 C 
ATOM     27  C5  SIA B   4      -5.328  -0.324  -0.480  1.00  0.00     0.116 C 
ATOM     28  O6  SIA B   4      -5.234   2.052  -0.322  1.00  0.00    -0.365 OA
ATOM     29  C4  SIA B   4      -6.832  -0.215  -0.790  1.00  0.00     0.137 C 
ATOM     30  C2  SIA B   4      -6.374   1.966   0.364  1.00  0.00     0.177 C 
ATOM     31  C3  SIA B   4      -7.336   0.871   0.111  1.00  0.00     0.071 C 
BRANCH  27  32
ATOM     32  N5  SIA B   4      -4.865  -1.522  -1.077  1.00  0.00    -0.285 NA
ATOM     33  H   UNL     1      -3.862  -1.658  -1.188  1.00  0.00     0.125 HD
BRANCH  32  34
ATOM     34  C10 SIA B   4      -5.409  -2.689  -0.418  1.00  0.00     0.179 C 
ATOM     35  C11 SIA B   4      -4.238  -3.602   0.003  1.00  0.00     0.056 C 
BRANCH  34  36
ATOM     36  O10 SIA B   4      -5.951  -2.314   0.852  1.00  0.00    -0.379 OA
ATOM     37  H   UNL     1      -6.397  -3.083   1.268  1.00  0.00     0.212 HD
ENDBRANCH  34  36
ENDBRANCH  32  34
ENDBRANCH  27  32
BRANCH  29  38
ATOM     38  O4  SIA B   4      -7.512  -1.386  -0.780  1.00  0.00    -0.391 OA
ATOM     39  H   UNL     1      -8.096  -1.429  -1.590  1.00  0.00     0.211 HD
ENDBRANCH  29  38
BRANCH  30  40
ATOM     40  C1  SIA B   4      -7.158   3.270   0.042  1.00  0.00     0.273 C 
BRANCH  40  41
ATOM     41  O1A SIA B   4      -6.411   4.354   0.430  1.00  0.00    -0.366 OA
ATOM     42  H   UNL     1      -6.503   5.074  -0.260  1.00  0.00     0.213 HD
ENDBRANCH  40  41
BRANCH  40  43
ATOM     43  O1B SIA B   4      -8.335   3.280   0.812  1.00  0.00    -0.366 OA
ATOM     44  H   UNL     1      -8.051   3.572   1.732  1.00  0.00     0.213 HD
ENDBRANCH  40  43
ENDBRANCH  30  40
ENDBRANCH  25  26
BRANCH  25  45
ATOM     45  O7  SIA B   4      -2.623   0.111  -1.879  1.00  0.00    -0.388 OA
ATOM     46  H   UNL     1      -1.976   0.434  -2.524  1.00  0.00     0.211 HD
ENDBRANCH  25  45
ENDBRANCH  24  25
BRANCH  24  47
ATOM     47  O8  SIA B   4      -3.334   1.871   1.131  1.00  0.00    -0.389 OA
ATOM     48  H   UNL     1      -2.769   2.588   1.494  1.00  0.00     0.211 HD
ENDBRANCH  24  47
ENDBRANCH   1  24
TORSDOF 20
