REMARK SMILES CC(O)N[C@H]1[C@H]([C@H](O)[C@H](O)CNC(O)OCCC2CN(C[C@@H](C)CN3CCN(C4CCC(Cl)CC4)CC3)NN2)O[C@@H](C(O)O)C[C@@H]1O
REMARK SMILES IDX 13 1 15 2 16 3 17 4 18 5 39 6 38 7 20 9 19 11 21 12 22 13
REMARK SMILES IDX 23 14 24 15 25 16 26 17 37 18 27 19 36 20 28 21 29 22 30 23
REMARK SMILES IDX 35 24 31 25 34 26 32 27 33 28 14 29 12 31 11 33 9 34 7 35
REMARK SMILES IDX 6 36 5 37 40 38 46 39 41 40 45 41 4 42 2 44 1 45 3 46 47 48
REMARK SMILES IDX 42 50 43 51 44 53 8 55 10 57
REMARK H PARENT 39 8 38 10 14 30 12 32 4 43 3 47 47 49 43 52 44 54 8 56 10 58
REMARK Flexibility Score: inf
ROOT
ATOM      1  C02 SIA B   4       4.050   1.527   0.502  1.00  0.00     0.325 C 
ENDROOT
BRANCH   1   2
ATOM      2  O01 SIA B   4       2.908   1.769   1.296  1.00  0.00    -0.340 OA
BRANCH   2   3
ATOM      3  C01 SIA B   4       2.411   3.049   1.138  1.00  0.00     0.166 C 
BRANCH   3   4
ATOM      4  C03 SIA B   4       1.205   3.147   2.067  1.00  0.00     0.050 C 
BRANCH   4   5
ATOM      5  C04 SIA B   4       0.211   2.096   1.642  1.00  0.00     0.088 C 
ATOM      6  N   SIA B   4      -0.254   2.251   0.294  1.00  0.00    -0.240 NA
ATOM      7  N25 SIA B   4      -1.438   1.491   0.304  1.00  0.00    -0.191 NA
ATOM      8  H   UNL     1      -0.526   3.251   0.136  1.00  0.00     0.143 HD
ATOM      9  N06 SIA B   4      -2.041   1.668   1.534  1.00  0.00    -0.229 NA
ATOM     10  H   UNL     1      -1.172   0.509   0.119  1.00  0.00     0.161 HD
ATOM     11  C05 SIA B   4      -1.042   2.180   2.456  1.00  0.00     0.124 C 
BRANCH   9  12
ATOM     12  C07 SIA B   4      -2.534   0.427   2.063  1.00  0.00     0.108 C 
BRANCH  12  13
ATOM     13  C08 SIA B   4      -3.598  -0.214   1.198  1.00  0.00     0.015 C 
ATOM     14  C12 SIA B   4      -4.014  -1.492   1.877  1.00  0.00     0.010 C 
BRANCH  13  15
ATOM     15  C13 SIA B   4      -4.746   0.731   1.111  1.00  0.00     0.089 C 
BRANCH  15  16
ATOM     16  N14 SIA B   4      -5.851   0.320   0.358  1.00  0.00    -0.300 NA
ATOM     17  C   SIA B   4      -6.868   1.340   0.334  1.00  0.00     0.100 C 
ATOM     18  C15 SIA B   4      -5.689  -0.316  -0.883  1.00  0.00     0.100 C 
ATOM     19  C24 SIA B   4      -8.220   0.727  -0.066  1.00  0.00     0.100 C 
ATOM     20  C16 SIA B   4      -6.780   0.091  -1.866  1.00  0.00     0.100 C 
ATOM     21  N17 SIA B   4      -8.019  -0.043  -1.221  1.00  0.00    -0.298 NA
BRANCH  21  22
ATOM     22  C18 SIA B   4      -9.060  -0.764  -1.797  1.00  0.00     0.056 C 
ATOM     23  C19 SIA B   4     -10.172   0.182  -2.268  1.00  0.00     0.020 C 
ATOM     24  C23 SIA B   4      -9.708  -1.817  -0.953  1.00  0.00     0.020 C 
ATOM     25  C20 SIA B   4     -11.320  -0.706  -2.685  1.00  0.00     0.021 C 
ATOM     26  C22 SIA B   4     -10.980  -1.330  -0.286  1.00  0.00     0.021 C 
ATOM     27  C21 SIA B   4     -12.005  -1.139  -1.382  1.00  0.00     0.081 C 
ATOM     28 Cl   SIA B   4     -13.167   0.085  -0.836  1.00  0.00    -0.123 Cl
ENDBRANCH  21  22
ENDBRANCH  15  16
ENDBRANCH  13  15
ENDBRANCH  12  13
ENDBRANCH   9  12
ENDBRANCH   4   5
ENDBRANCH   3   4
ENDBRANCH   2   3
ENDBRANCH   1   2
BRANCH   1  29
ATOM     29  O02 SIA B   4       5.099   1.247   1.346  1.00  0.00    -0.356 OA
ATOM     30  H   UNL     1       4.886   1.463   2.274  1.00  0.00     0.215 HD
ENDBRANCH   1  29
BRANCH   1  31
ATOM     31  N04 SIA B   4       3.753   0.433  -0.394  1.00  0.00    -0.266 NA
ATOM     32  H   UNL     1       3.170   0.696  -1.194  1.00  0.00     0.127 HD
BRANCH  31  33
ATOM     33  C9  SIA B   4       3.451  -0.796   0.214  1.00  0.00     0.120 C 
BRANCH  33  34
ATOM     34  C8  SIA B   4       4.576  -1.541   0.893  1.00  0.00     0.159 C 
BRANCH  34  35
ATOM     35  C7  SIA B   4       5.558  -2.136  -0.147  1.00  0.00     0.175 C 
BRANCH  35  36
ATOM     36  C6  SIA B   4       6.372  -1.086  -0.786  1.00  0.00     0.169 C 
ATOM     37  C5  SIA B   4       7.663  -0.787   0.031  1.00  0.00     0.116 C 
ATOM     38  O6  SIA B   4       6.930  -1.579  -2.001  1.00  0.00    -0.365 OA
ATOM     39  C4  SIA B   4       8.097   0.585  -0.388  1.00  0.00     0.137 C 
ATOM     40  C2  SIA B   4       7.870  -0.719  -2.515  1.00  0.00     0.177 C 
ATOM     41  C3  SIA B   4       7.861   0.657  -1.901  1.00  0.00     0.071 C 
BRANCH  37  42
ATOM     42  N5  SIA B   4       7.441  -0.872   1.432  1.00  0.00    -0.285 NA
ATOM     43  H   UNL     1       7.120  -1.875   1.691  1.00  0.00     0.125 HD
BRANCH  42  44
ATOM     44  C10 SIA B   4       8.621  -0.586   2.235  1.00  0.00     0.179 C 
ATOM     45  C11 SIA B   4       9.755  -1.518   2.032  1.00  0.00     0.056 C 
BRANCH  44  46
ATOM     46  O10 SIA B   4       8.274  -0.598   3.602  1.00  0.00    -0.379 OA
ATOM     47  H   UNL     1       7.924  -1.515   3.801  1.00  0.00     0.212 HD
ENDBRANCH  44  46
ENDBRANCH  42  44
ENDBRANCH  37  42
BRANCH  39  48
ATOM     48  O4  SIA B   4       9.466   0.822  -0.140  1.00  0.00    -0.391 OA
ATOM     49  H   UNL     1       9.588   1.792   0.008  1.00  0.00     0.211 HD
ENDBRANCH  39  48
BRANCH  40  50
ATOM     50  C1  SIA B   4       7.597  -0.542  -4.005  1.00  0.00     0.273 C 
BRANCH  50  51
ATOM     51  O1A SIA B   4       6.333  -0.017  -4.226  1.00  0.00    -0.366 OA
ATOM     52  H   UNL     1       6.429   0.732  -4.889  1.00  0.00     0.213 HD
ENDBRANCH  50  51
BRANCH  50  53
ATOM     53  O1B SIA B   4       7.801  -1.746  -4.672  1.00  0.00    -0.366 OA
ATOM     54  H   UNL     1       8.210  -1.547  -5.537  1.00  0.00     0.213 HD
ENDBRANCH  50  53
ENDBRANCH  40  50
ENDBRANCH  35  36
BRANCH  35  55
ATOM     55  O7  SIA B   4       4.646  -2.686  -1.106  1.00  0.00    -0.388 OA
ATOM     56  H   UNL     1       5.064  -2.654  -2.021  1.00  0.00     0.211 HD
ENDBRANCH  35  55
ENDBRANCH  34  35
BRANCH  34  57
ATOM     57  O8  SIA B   4       3.887  -2.684   1.450  1.00  0.00    -0.389 OA
ATOM     58  H   UNL     1       4.546  -3.427   1.478  1.00  0.00     0.211 HD
ENDBRANCH  34  57
ENDBRANCH  33  34
ENDBRANCH  31  33
ENDBRANCH   1  31
TORSDOF 24
