REMARK SMILES CC(O)N[C@H]1[C@H]([C@H](O)[C@H](O)CNC(O)OCCC2CN(C3CCCCC3)NN2)O[C@@H](C(O)O)C[C@@H]1O
REMARK SMILES IDX 11 1 12 2 13 4 15 5 16 6 17 7 18 8 28 9 27 10 20 12 19 14
REMARK SMILES IDX 21 15 26 16 22 17 25 18 23 19 24 20 14 21 9 23 7 24 6 25
REMARK SMILES IDX 5 26 29 27 35 28 30 29 34 30 4 31 2 33 1 34 3 35 36 37 31 39
REMARK SMILES IDX 32 40 33 42 8 44 10 46
REMARK H PARENT 12 3 28 11 27 13 14 22 4 32 3 36 36 38 32 41 33 43 8 45 10 47
REMARK Flexibility Score: inf
ROOT
ATOM      1  C9  SIA B   4      -1.785   0.614  -1.249  1.00  0.00     0.120 C 
ENDROOT
BRANCH   1   2
ATOM      2  N04 SIA B   4      -0.457   0.347  -1.671  1.00  0.00    -0.266 NA
ATOM      3  H   UNL     1      -0.454  -0.067  -2.612  1.00  0.00     0.127 HD
BRANCH   2   4
ATOM      4  C02 SIA B   4       0.392   1.504  -1.622  1.00  0.00     0.325 C 
BRANCH   4   5
ATOM      5  O01 SIA B   4       1.558   1.176  -2.305  1.00  0.00    -0.340 OA
BRANCH   5   6
ATOM      6  C01 SIA B   4       2.726   1.335  -1.622  1.00  0.00     0.166 C 
BRANCH   6   7
ATOM      7  C03 SIA B   4       2.781   0.442  -0.427  1.00  0.00     0.050 C 
BRANCH   7   8
ATOM      8  C04 SIA B   4       4.102   0.649   0.290  1.00  0.00     0.088 C 
ATOM      9  N   SIA B   4       4.201  -0.193   1.436  1.00  0.00    -0.239 NA
ATOM     10  N14 SIA B   4       5.307  -1.036   1.296  1.00  0.00    -0.191 NA
ATOM     11  H   UNL     1       3.360  -0.817   1.568  1.00  0.00     0.143 HD
ATOM     12  N06 SIA B   4       6.164  -0.470   0.352  1.00  0.00    -0.226 NA
ATOM     13  H   UNL     1       5.835  -0.981   2.218  1.00  0.00     0.161 HD
ATOM     14  C05 SIA B   4       5.285   0.285  -0.550  1.00  0.00     0.124 C 
BRANCH  12  15
ATOM     15  C07 SIA B   4       6.880  -1.410  -0.451  1.00  0.00     0.074 C 
ATOM     16  C   SIA B   4       7.765  -2.353   0.301  1.00  0.00     0.021 C 
ATOM     17  C08 SIA B   4       7.814  -0.577  -1.344  1.00  0.00     0.021 C 
ATOM     18  C13 SIA B   4       8.814  -1.699   1.141  1.00  0.00     0.002 C 
ATOM     19  C09 SIA B   4       8.607   0.293  -0.381  1.00  0.00     0.002 C 
ATOM     20  C12 SIA B   4       9.492  -0.525   0.514  1.00  0.00     0.000 C 
ENDBRANCH  12  15
ENDBRANCH   7   8
ENDBRANCH   6   7
ENDBRANCH   5   6
ENDBRANCH   4   5
BRANCH   4  21
ATOM     21  O02 SIA B   4      -0.273   2.537  -2.321  1.00  0.00    -0.356 OA
ATOM     22  H   UNL     1      -0.484   2.133  -3.208  1.00  0.00     0.215 HD
ENDBRANCH   4  21
ENDBRANCH   2   4
ENDBRANCH   1   2
BRANCH   1  23
ATOM     23  C8  SIA B   4      -1.995   0.921   0.192  1.00  0.00     0.159 C 
BRANCH  23  24
ATOM     24  C7  SIA B   4      -3.453   1.309   0.401  1.00  0.00     0.175 C 
BRANCH  24  25
ATOM     25  C6  SIA B   4      -4.371   0.136   0.353  1.00  0.00     0.169 C 
ATOM     26  C5  SIA B   4      -5.729   0.491   0.956  1.00  0.00     0.116 C 
ATOM     27  O6  SIA B   4      -4.530  -0.402  -0.917  1.00  0.00    -0.365 OA
ATOM     28  C4  SIA B   4      -6.422  -0.800   1.306  1.00  0.00     0.137 C 
ATOM     29  C2  SIA B   4      -5.520  -1.369  -0.959  1.00  0.00     0.177 C 
ATOM     30  C3  SIA B   4      -5.878  -1.896   0.408  1.00  0.00     0.071 C 
BRANCH  26  31
ATOM     31  N5  SIA B   4      -5.508   1.256   2.133  1.00  0.00    -0.285 NA
ATOM     32  H   UNL     1      -4.907   0.757   2.844  1.00  0.00     0.125 HD
BRANCH  31  33
ATOM     33  C10 SIA B   4      -6.680   1.690   2.830  1.00  0.00     0.179 C 
ATOM     34  C11 SIA B   4      -7.552   2.610   2.016  1.00  0.00     0.056 C 
BRANCH  33  35
ATOM     35  O10 SIA B   4      -7.448   0.688   3.372  1.00  0.00    -0.379 OA
ATOM     36  H   UNL     1      -8.139   1.147   3.951  1.00  0.00     0.212 HD
ENDBRANCH  33  35
ENDBRANCH  31  33
ENDBRANCH  26  31
BRANCH  28  37
ATOM     37  O4  SIA B   4      -7.809  -0.690   1.174  1.00  0.00    -0.391 OA
ATOM     38  H   UNL     1      -8.216  -1.525   1.490  1.00  0.00     0.211 HD
ENDBRANCH  28  37
BRANCH  29  39
ATOM     39  C1  SIA B   4      -5.004  -2.532  -1.780  1.00  0.00     0.273 C 
BRANCH  39  40
ATOM     40  O1A SIA B   4      -3.848  -2.993  -1.117  1.00  0.00    -0.366 OA
ATOM     41  H   UNL     1      -3.883  -3.971  -0.967  1.00  0.00     0.213 HD
ENDBRANCH  39  40
BRANCH  39  42
ATOM     42  O1B SIA B   4      -4.559  -2.052  -3.014  1.00  0.00    -0.366 OA
ATOM     43  H   UNL     1      -5.063  -2.413  -3.781  1.00  0.00     0.213 HD
ENDBRANCH  39  42
ENDBRANCH  29  39
ENDBRANCH  24  25
BRANCH  24  44
ATOM     44  O7  SIA B   4      -3.841   2.382  -0.391  1.00  0.00    -0.388 OA
ATOM     45  H   UNL     1      -4.115   2.092  -1.299  1.00  0.00     0.211 HD
ENDBRANCH  24  44
ENDBRANCH  23  24
BRANCH  23  46
ATOM     46  O8  SIA B   4      -1.242   2.050   0.588  1.00  0.00    -0.389 OA
ATOM     47  H   UNL     1      -1.200   2.073   1.571  1.00  0.00     0.211 HD
ENDBRANCH  23  46
ENDBRANCH   1  23
TORSDOF 20
