REMARK SMILES CC(O)N[C@H]1[C@H]([C@H](O)[C@H](O)CNC(O)OCCC2CN(CCC3OCCO3)NN2)O[C@@H](C(O)O)C[C@@H]1O
REMARK SMILES IDX 13 1 15 2 16 3 17 4 18 5 29 6 28 7 20 9 19 11 21 12 22 13
REMARK SMILES IDX 23 14 24 15 27 16 25 17 26 18 14 19 12 21 11 23 9 24 7 25
REMARK SMILES IDX 6 26 5 27 30 28 36 29 31 30 35 31 4 32 2 34 1 35 3 36 37 38
REMARK SMILES IDX 32 40 33 41 34 43 8 45 10 47
REMARK H PARENT 29 8 28 10 14 20 12 22 4 33 3 37 37 39 33 42 34 44 8 46 10 48
REMARK Flexibility Score: inf
ROOT
ATOM      1  C02 SIA B   4       0.197   0.420  -0.973  1.00  0.00     0.325 C 
ENDROOT
BRANCH   1   2
ATOM      2  O01 SIA B   4       0.999  -0.326  -0.439  1.00  0.00    -0.340 OA
BRANCH   2   3
ATOM      3  C01 SIA B   4       2.282  -0.380  -0.137  1.00  0.00     0.166 C 
BRANCH   3   4
ATOM      4  C03 SIA B   4       2.881   0.587   0.825  1.00  0.00     0.050 C 
BRANCH   4   5
ATOM      5  C04 SIA B   4       4.336   0.429   1.107  1.00  0.00     0.088 C 
ATOM      6  N   SIA B   4       4.629  -0.892   1.683  1.00  0.00    -0.240 NA
ATOM      7  N13 SIA B   4       6.052  -0.948   1.476  1.00  0.00    -0.191 NA
ATOM      8  H   UNL     1       4.272  -1.607   0.983  1.00  0.00     0.143 HD
ATOM      9  N06 SIA B   4       6.053  -0.700   0.095  1.00  0.00    -0.229 NA
ATOM     10  H   UNL     1       6.364  -1.902   1.694  1.00  0.00     0.161 HD
ATOM     11  C05 SIA B   4       5.244   0.451  -0.102  1.00  0.00     0.124 C 
BRANCH   9  12
ATOM     12  C07 SIA B   4       7.309  -0.782  -0.528  1.00  0.00     0.109 C 
BRANCH  12  13
ATOM     13  C08 SIA B   4       8.365   0.173  -0.049  1.00  0.00     0.079 C 
BRANCH  13  14
ATOM     14  C09 SIA B   4       9.641  -0.167  -0.863  1.00  0.00     0.251 C 
ATOM     15  O   SIA B   4       9.992  -1.449  -0.621  1.00  0.00    -0.350 OA
ATOM     16  O11 SIA B   4      10.616   0.662  -0.373  1.00  0.00    -0.350 OA
ATOM     17  C   SIA B   4      11.290  -1.476  -0.218  1.00  0.00     0.192 C 
ATOM     18  C12 SIA B   4      11.608  -0.084   0.207  1.00  0.00     0.192 C 
ENDBRANCH  13  14
ENDBRANCH  12  13
ENDBRANCH   9  12
ENDBRANCH   4   5
ENDBRANCH   3   4
ENDBRANCH   2   3
ENDBRANCH   1   2
BRANCH   1  19
ATOM     19  O02 SIA B   4       1.128   1.785  -0.921  1.00  0.00    -0.356 OA
ATOM     20  H   UNL     1       1.498   1.716  -1.805  1.00  0.00     0.215 HD
ENDBRANCH   1  19
BRANCH   1  21
ATOM     21  N04 SIA B   4      -0.472   0.895   0.485  1.00  0.00    -0.266 NA
ATOM     22  H   UNL     1      -0.659  -0.041   0.900  1.00  0.00     0.127 HD
BRANCH  21  23
ATOM     23  C9  SIA B   4      -1.594   1.669   0.198  1.00  0.00     0.120 C 
BRANCH  23  24
ATOM     24  C8  SIA B   4      -2.832   0.985  -0.330  1.00  0.00     0.159 C 
BRANCH  24  25
ATOM     25  C7  SIA B   4      -3.379   0.149   0.785  1.00  0.00     0.175 C 
BRANCH  25  26
ATOM     26  C6  SIA B   4      -4.675  -0.568   0.530  1.00  0.00     0.169 C 
ATOM     27  C5  SIA B   4      -5.869   0.352   0.472  1.00  0.00     0.116 C 
ATOM     28  O6  SIA B   4      -4.534  -1.481  -0.449  1.00  0.00    -0.365 OA
ATOM     29  C4  SIA B   4      -6.490   0.574  -0.840  1.00  0.00     0.137 C 
ATOM     30  C2  SIA B   4      -5.267  -1.489  -1.560  1.00  0.00     0.177 C 
ATOM     31  C3  SIA B   4      -5.897  -0.226  -1.985  1.00  0.00     0.071 C 
BRANCH  27  32
ATOM     32  N5  SIA B   4      -6.791   0.062   1.499  1.00  0.00    -0.285 NA
ATOM     33  H   UNL     1      -6.599  -0.810   2.022  1.00  0.00     0.125 HD
BRANCH  32  34
ATOM     34  C10 SIA B   4      -7.745   0.910   2.002  1.00  0.00     0.179 C 
ATOM     35  C11 SIA B   4      -8.850   1.327   1.079  1.00  0.00     0.056 C 
BRANCH  34  36
ATOM     36  O10 SIA B   4      -7.234   2.117   2.540  1.00  0.00    -0.379 OA
ATOM     37  H   UNL     1      -6.796   2.650   1.805  1.00  0.00     0.212 HD
ENDBRANCH  34  36
ENDBRANCH  32  34
ENDBRANCH  27  32
BRANCH  29  38
ATOM     38  O4  SIA B   4      -6.383   1.943  -1.244  1.00  0.00    -0.391 OA
ATOM     39  H   UNL     1      -5.922   2.434  -0.512  1.00  0.00     0.211 HD
ENDBRANCH  29  38
BRANCH  30  40
ATOM     40  C1  SIA B   4      -6.275  -2.634  -1.483  1.00  0.00     0.273 C 
BRANCH  40  41
ATOM     41  O1A SIA B   4      -7.139  -2.468  -0.404  1.00  0.00    -0.366 OA
ATOM     42  H   UNL     1      -7.155  -3.295   0.131  1.00  0.00     0.213 HD
ENDBRANCH  40  41
BRANCH  40  43
ATOM     43  O1B SIA B   4      -5.570  -3.858  -1.316  1.00  0.00    -0.366 OA
ATOM     44  H   UNL     1      -5.400  -3.905  -0.347  1.00  0.00     0.213 HD
ENDBRANCH  40  43
ENDBRANCH  30  40
ENDBRANCH  25  26
BRANCH  25  45
ATOM     45  O7  SIA B   4      -3.531   1.078   1.850  1.00  0.00    -0.388 OA
ATOM     46  H   UNL     1      -4.175   0.698   2.499  1.00  0.00     0.211 HD
ENDBRANCH  25  45
ENDBRANCH  24  25
BRANCH  24  47
ATOM     47  O8  SIA B   4      -2.544   0.350  -1.493  1.00  0.00    -0.389 OA
ATOM     48  H   UNL     1      -2.767   0.921  -2.293  1.00  0.00     0.211 HD
ENDBRANCH  24  47
ENDBRANCH  23  24
ENDBRANCH  21  23
ENDBRANCH   1  21
TORSDOF 22
