REMARK SMILES CC(O)N[C@H]1[C@H]([C@H](O)[C@H](O)CNC(O)OCCC2CN(CC3CCCC(CN)C3)NN2)O[C@@H](C(O)O)C[C@@H]1O
REMARK SMILES IDX 13 1 15 2 16 3 17 4 18 5 31 6 30 7 20 9 19 11 21 12 22 13
REMARK SMILES IDX 29 14 23 15 26 16 24 17 25 18 27 19 28 20 14 23 12 25 11 27
REMARK SMILES IDX 9 28 7 29 6 30 5 31 32 32 38 33 33 34 37 35 4 36 2 38 1 39
REMARK SMILES IDX 3 40 39 42 34 44 35 45 36 47 8 49 10 51
REMARK H PARENT 31 8 30 10 28 21 28 22 14 24 12 26 4 37 3 41 39 43 35 46 36 48
REMARK H PARENT 8 50 10 52
REMARK Flexibility Score: inf
ROOT
ATOM      1  C02 SIA B   4      -0.235  -0.972  -0.038  1.00  0.00     0.325 C 
ENDROOT
BRANCH   1   2
ATOM      2  O01 SIA B   4       0.876  -1.396  -0.756  1.00  0.00    -0.340 OA
BRANCH   2   3
ATOM      3  C01 SIA B   4       1.163  -2.724  -0.604  1.00  0.00     0.166 C 
BRANCH   3   4
ATOM      4  C03 SIA B   4       2.349  -3.113  -1.397  1.00  0.00     0.050 C 
BRANCH   4   5
ATOM      5  C04 SIA B   4       3.639  -2.487  -1.123  1.00  0.00     0.088 C 
ATOM      6  N   SIA B   4       4.189  -2.648   0.210  1.00  0.00    -0.240 NA
ATOM      7  N17 SIA B   4       5.376  -1.917   0.071  1.00  0.00    -0.191 NA
ATOM      8  H   UNL     1       3.606  -2.093   0.906  1.00  0.00     0.143 HD
ATOM      9  N06 SIA B   4       5.062  -0.771  -0.662  1.00  0.00    -0.229 NA
ATOM     10  H   UNL     1       6.015  -2.497  -0.519  1.00  0.00     0.161 HD
ATOM     11  C05 SIA B   4       3.736  -0.989  -1.252  1.00  0.00     0.124 C 
BRANCH   9  12
ATOM     12  C07 SIA B   4       4.992   0.424   0.113  1.00  0.00     0.107 C 
BRANCH  12  13
ATOM     13  C08 SIA B   4       6.261   0.849   0.773  1.00  0.00     0.005 C 
ATOM     14  C   SIA B   4       7.395   1.117  -0.191  1.00  0.00     0.010 C 
ATOM     15  C09 SIA B   4       6.648  -0.149   1.825  1.00  0.00     0.005 C 
ATOM     16  C14 SIA B   4       8.702   0.814   0.508  1.00  0.00     0.003 C 
ATOM     17  C12 SIA B   4       7.620   0.559   2.759  1.00  0.00     0.001 C 
ATOM     18  C13 SIA B   4       8.695   1.280   1.959  1.00  0.00     0.005 C 
BRANCH  16  19
ATOM     19  C15 SIA B   4       9.797   1.561  -0.205  1.00  0.00     0.081 C 
BRANCH  19  20
ATOM     20  N16 SIA B   4       9.890   1.152  -1.597  1.00  0.00    -0.330 NA
ATOM     21  H   UNL     1       9.040   1.484  -2.080  1.00  0.00     0.118 HD
ATOM     22  H   UNL     1      10.724   1.646  -2.002  1.00  0.00     0.118 HD
ENDBRANCH  19  20
ENDBRANCH  16  19
ENDBRANCH  12  13
ENDBRANCH   9  12
ENDBRANCH   4   5
ENDBRANCH   3   4
ENDBRANCH   2   3
ENDBRANCH   1   2
BRANCH   1  23
ATOM     23  O02 SIA B   4       0.246  -0.025   0.897  1.00  0.00    -0.356 OA
ATOM     24  H   UNL     1       0.814   0.587   0.362  1.00  0.00     0.215 HD
ENDBRANCH   1  23
BRANCH   1  25
ATOM     25  N04 SIA B   4      -1.113  -0.230  -0.925  1.00  0.00    -0.266 NA
ATOM     26  H   UNL     1      -1.397  -0.870  -1.674  1.00  0.00     0.127 HD
BRANCH  25  27
ATOM     27  C9  SIA B   4      -2.299   0.235  -0.250  1.00  0.00     0.120 C 
BRANCH  27  28
ATOM     28  C8  SIA B   4      -3.144   1.000  -1.245  1.00  0.00     0.159 C 
BRANCH  28  29
ATOM     29  C7  SIA B   4      -4.356   1.639  -0.631  1.00  0.00     0.175 C 
BRANCH  29  30
ATOM     30  C6  SIA B   4      -5.313   0.556  -0.220  1.00  0.00     0.169 C 
ATOM     31  C5  SIA B   4      -6.565   1.074   0.441  1.00  0.00     0.116 C 
ATOM     32  O6  SIA B   4      -5.545  -0.234  -1.333  1.00  0.00    -0.365 OA
ATOM     33  C4  SIA B   4      -7.441  -0.102   0.778  1.00  0.00     0.137 C 
ATOM     34  C2  SIA B   4      -6.868  -0.544  -1.538  1.00  0.00     0.177 C 
ATOM     35  C3  SIA B   4      -7.368  -1.209  -0.267  1.00  0.00     0.071 C 
BRANCH  31  36
ATOM     36  N5  SIA B   4      -6.133   1.674   1.710  1.00  0.00    -0.285 NA
ATOM     37  H   UNL     1      -5.554   2.548   1.532  1.00  0.00     0.125 HD
BRANCH  36  38
ATOM     38  C10 SIA B   4      -7.281   2.173   2.473  1.00  0.00     0.179 C 
ATOM     39  C11 SIA B   4      -6.695   2.770   3.742  1.00  0.00     0.056 C 
BRANCH  38  40
ATOM     40  O10 SIA B   4      -7.919   3.185   1.784  1.00  0.00    -0.379 OA
ATOM     41  H   UNL     1      -7.214   3.824   1.492  1.00  0.00     0.212 HD
ENDBRANCH  38  40
ENDBRANCH  36  38
ENDBRANCH  31  36
BRANCH  33  42
ATOM     42  O4  SIA B   4      -8.790   0.257   0.853  1.00  0.00    -0.391 OA
ATOM     43  H   UNL     1      -9.326  -0.516   1.131  1.00  0.00     0.211 HD
ENDBRANCH  33  42
BRANCH  34  44
ATOM     44  C1  SIA B   4      -6.993  -1.449  -2.730  1.00  0.00     0.273 C 
BRANCH  44  45
ATOM     45  O1A SIA B   4      -6.309  -2.635  -2.592  1.00  0.00    -0.366 OA
ATOM     46  H   UNL     1      -5.406  -2.540  -3.037  1.00  0.00     0.213 HD
ENDBRANCH  44  45
BRANCH  44  47
ATOM     47  O1B SIA B   4      -6.534  -0.777  -3.851  1.00  0.00    -0.366 OA
ATOM     48  H   UNL     1      -6.974   0.107  -3.962  1.00  0.00     0.213 HD
ENDBRANCH  44  47
ENDBRANCH  34  44
ENDBRANCH  29  30
BRANCH  29  49
ATOM     49  O7  SIA B   4      -4.998   2.350  -1.668  1.00  0.00    -0.388 OA
ATOM     50  H   UNL     1      -5.254   1.672  -2.362  1.00  0.00     0.211 HD
ENDBRANCH  29  49
ENDBRANCH  28  29
BRANCH  28  51
ATOM     51  O8  SIA B   4      -3.470   0.119  -2.274  1.00  0.00    -0.389 OA
ATOM     52  H   UNL     1      -3.400  -0.826  -2.036  1.00  0.00     0.211 HD
ENDBRANCH  28  51
ENDBRANCH  27  28
ENDBRANCH  25  27
ENDBRANCH   1  25
TORSDOF 23
