REMARK SMILES CCOCC[C@H]1C(C2CCCCC2)NC(N)NC1N1CC(CCOC(O)NC[C@@H](O)[C@@H](O)[C@@H]2O[C@@H](C(O)O)C[C@H](O)[C@H]2NC(C)O)NN1
REMARK SMILES IDX 25 1 24 2 23 3 22 4 21 5 47 6 48 7 19 9 20 11 18 12 17 13
REMARK SMILES IDX 6 14 15 15 7 17 14 18 5 20 4 21 3 22 2 23 1 24 16 25 8 28
REMARK SMILES IDX 9 29 13 30 10 31 12 32 11 33 26 34 27 36 28 38 29 39 31 40
REMARK SMILES IDX 33 41 42 42 34 43 40 44 35 45 39 46 43 47 44 49 45 50 46 51
REMARK SMILES IDX 41 53 36 55 37 56 38 58 32 60 30 62
REMARK H PARENT 47 8 48 10 17 16 14 19 16 26 16 27 26 35 27 37 43 48 46 52
REMARK H PARENT 41 54 37 57 38 59 32 61 30 63
REMARK Flexibility Score: inf
ROOT
ATOM      1  C02 SIA B   4       2.108  -1.330   0.195  1.00  0.00     0.325 C 
ENDROOT
BRANCH   1   2
ATOM      2  O01 SIA B   4       1.434  -0.301   0.521  1.00  0.00    -0.340 OA
BRANCH   2   3
ATOM      3  C01 SIA B   4       0.665  -0.136   1.617  1.00  0.00     0.166 C 
BRANCH   3   4
ATOM      4  C03 SIA B   4      -0.148   1.140   1.465  1.00  0.00     0.050 C 
BRANCH   4   5
ATOM      5  C04 SIA B   4      -1.130   1.147   0.388  1.00  0.00     0.089 C 
ATOM      6  N   SIA B   4      -0.755   0.973  -0.965  1.00  0.00    -0.239 NA
ATOM      7  N23 SIA B   4      -1.928   0.527  -1.631  1.00  0.00    -0.190 NA
ATOM      8  H   UNL     1      -0.043   0.242  -1.145  1.00  0.00     0.143 HD
ATOM      9  N06 SIA B   4      -2.812   0.073  -0.667  1.00  0.00    -0.212 NA
ATOM     10  H   UNL     1      -1.720  -0.147  -2.386  1.00  0.00     0.161 HD
ATOM     11  C05 SIA B   4      -2.186   0.019   0.578  1.00  0.00     0.126 C 
BRANCH   9  12
ATOM     12  C07 SIA B   4      -4.142   0.503  -0.827  1.00  0.00     0.147 C 
ATOM     13  N08 SIA B   4      -4.351   0.672  -2.267  1.00  0.00    -0.273 NA
ATOM     14  C19 SIA B   4      -5.228  -0.340  -0.201  1.00  0.00     0.042 C 
ATOM     15  C09 SIA B   4      -5.639   1.134  -2.632  1.00  0.00     0.192 C 
ATOM     16  H   UNL     1      -3.961  -0.111  -2.816  1.00  0.00     0.127 HD
ATOM     17  C12 SIA B   4      -6.207  -0.670  -1.237  1.00  0.00     0.065 C 
ATOM     18  N11 SIA B   4      -6.726   0.439  -2.023  1.00  0.00    -0.286 NA
ATOM     19  H   UNL     1      -7.352   0.070  -2.756  1.00  0.00     0.125 HD
BRANCH  14  20
ATOM     20  C20 SIA B   4      -5.666   0.213   1.073  1.00  0.00     0.037 C 
BRANCH  20  21
ATOM     21  C21 SIA B   4      -6.235   1.579   1.129  1.00  0.00     0.160 C 
BRANCH  21  22
ATOM     22  O   SIA B   4      -6.588   1.867   2.472  1.00  0.00    -0.382 OA
BRANCH  22  23
ATOM     23  C22 SIA B   4      -7.123   3.135   2.614  1.00  0.00     0.156 C 
ATOM     24  C   SIA B   4      -8.357   3.222   1.743  1.00  0.00     0.035 C 
ENDBRANCH  22  23
ENDBRANCH  21  22
ENDBRANCH  20  21
ENDBRANCH  14  20
BRANCH  15  25
ATOM     25  N10 SIA B   4      -5.796   2.550  -2.303  1.00  0.00    -0.304 NA
ATOM     26  H   UNL     1      -6.047   3.117  -3.130  1.00  0.00     0.121 HD
ATOM     27  H   UNL     1      -5.011   2.930  -1.762  1.00  0.00     0.121 HD
ENDBRANCH  15  25
BRANCH  17  28
ATOM     28  C13 SIA B   4      -7.338  -1.584  -0.978  1.00  0.00     0.006 C 
ATOM     29  C14 SIA B   4      -8.564  -0.956  -0.342  1.00  0.00     0.005 C 
ATOM     30  C18 SIA B   4      -7.043  -2.817  -0.176  1.00  0.00     0.005 C 
ATOM     31  C15 SIA B   4      -9.577  -2.096  -0.158  1.00  0.00     0.000 C 
ATOM     32  C17 SIA B   4      -7.940  -3.939  -0.662  1.00  0.00     0.000 C 
ATOM     33  C16 SIA B   4      -9.269  -3.293  -0.995  1.00  0.00     0.000 C 
ENDBRANCH  17  28
ENDBRANCH   9  12
ENDBRANCH   4   5
ENDBRANCH   3   4
ENDBRANCH   2   3
ENDBRANCH   1   2
BRANCH   1  34
ATOM     34  O02 SIA B   4       1.187  -2.330   1.154  1.00  0.00    -0.356 OA
ATOM     35  H   UNL     1       1.922  -2.678   1.675  1.00  0.00     0.215 HD
ENDBRANCH   1  34
BRANCH   1  36
ATOM     36  N04 SIA B   4       3.256  -1.149   1.429  1.00  0.00    -0.266 NA
ATOM     37  H   UNL     1       2.621  -1.244   2.190  1.00  0.00     0.127 HD
BRANCH  36  38
ATOM     38  C9  SIA B   4       3.718   0.154   1.207  1.00  0.00     0.120 C 
BRANCH  38  39
ATOM     39  C8  SIA B   4       4.633   0.354   0.007  1.00  0.00     0.159 C 
BRANCH  39  40
ATOM     40  C7  SIA B   4       5.962  -0.329   0.274  1.00  0.00     0.175 C 
BRANCH  40  41
ATOM     41  C6  SIA B   4       7.142   0.339  -0.336  1.00  0.00     0.169 C 
ATOM     42  C5  SIA B   4       8.382  -0.066   0.489  1.00  0.00     0.116 C 
ATOM     43  O6  SIA B   4       7.283   0.137  -1.674  1.00  0.00    -0.365 OA
ATOM     44  C4  SIA B   4       9.522   0.786   0.074  1.00  0.00     0.137 C 
ATOM     45  C2  SIA B   4       8.574  -0.051  -2.100  1.00  0.00     0.177 C 
ATOM     46  C3  SIA B   4       9.563   0.868  -1.455  1.00  0.00     0.071 C 
BRANCH  42  47
ATOM     47  N5  SIA B   4       7.965  -0.033   1.823  1.00  0.00    -0.285 NA
ATOM     48  H   UNL     1       7.583   0.936   2.073  1.00  0.00     0.125 HD
BRANCH  47  49
ATOM     49  C10 SIA B   4       8.761  -0.493   2.855  1.00  0.00     0.179 C 
ATOM     50  C11 SIA B   4       9.980   0.273   3.234  1.00  0.00     0.056 C 
BRANCH  49  51
ATOM     51  O10 SIA B   4       7.935  -0.704   3.995  1.00  0.00    -0.379 OA
ATOM     52  H   UNL     1       6.987  -0.846   3.675  1.00  0.00     0.212 HD
ENDBRANCH  49  51
ENDBRANCH  47  49
ENDBRANCH  42  47
BRANCH  44  53
ATOM     53  O4  SIA B   4      10.780   0.344   0.525  1.00  0.00    -0.391 OA
ATOM     54  H   UNL     1      11.044  -0.411  -0.054  1.00  0.00     0.211 HD
ENDBRANCH  44  53
BRANCH  45  55
ATOM     55  C1  SIA B   4       8.565   0.297  -3.600  1.00  0.00     0.273 C 
BRANCH  55  56
ATOM     56  O1A SIA B   4       7.687  -0.524  -4.284  1.00  0.00    -0.366 OA
ATOM     57  H   UNL     1       8.090  -1.095  -4.962  1.00  0.00     0.213 HD
ENDBRANCH  55  56
BRANCH  55  58
ATOM     58  O1B SIA B   4       9.846   0.282  -4.138  1.00  0.00    -0.366 OA
ATOM     59  H   UNL     1      10.481  -0.242  -3.634  1.00  0.00     0.213 HD
ENDBRANCH  55  58
ENDBRANCH  45  55
ENDBRANCH  40  41
BRANCH  40  60
ATOM     60  O7  SIA B   4       5.907  -1.703   0.171  1.00  0.00    -0.388 OA
ATOM     61  H   UNL     1       5.475  -1.933  -0.686  1.00  0.00     0.211 HD
ENDBRANCH  40  60
ENDBRANCH  39  40
BRANCH  39  62
ATOM     62  O8  SIA B   4       4.924   1.747   0.043  1.00  0.00    -0.389 OA
ATOM     63  H   UNL     1       5.222   2.015  -0.863  1.00  0.00     0.211 HD
ENDBRANCH  39  62
ENDBRANCH  38  39
ENDBRANCH  36  38
ENDBRANCH   1  36
TORSDOF 26
