REMARK SMILES CC(O)N[C@H]1[C@H]([C@H](O)[C@H](O)CNC(O)OCCC2CN(CCC(O)O)NN2)O[C@@H](C(O)O)C[C@@H]1O
REMARK SMILES IDX 13 1 15 2 16 3 17 4 18 5 27 6 26 7 20 9 19 11 21 12 22 13
REMARK SMILES IDX 23 14 24 15 25 17 14 19 12 21 11 23 9 24 7 25 6 26 5 27
REMARK SMILES IDX 28 28 34 29 29 30 33 31 4 32 2 34 1 35 3 36 35 38 30 40
REMARK SMILES IDX 31 41 32 43 8 45 10 47
REMARK H PARENT 27 8 26 10 24 16 25 18 14 20 12 22 4 33 3 37 35 39 31 42 32 44
REMARK H PARENT 8 46 10 48
REMARK Flexibility Score: inf
ROOT
ATOM      1  C02 SIA B   4       1.312  -0.549   1.211  1.00  0.00     0.325 C 
ENDROOT
BRANCH   1   2
ATOM      2  O01 SIA B   4       2.440  -1.169   1.670  1.00  0.00    -0.340 OA
BRANCH   2   3
ATOM      3  C01 SIA B   4       3.534  -0.384   1.895  1.00  0.00     0.166 C 
BRANCH   3   4
ATOM      4  C03 SIA B   4       4.027   0.319   0.659  1.00  0.00     0.050 C 
BRANCH   4   5
ATOM      5  C04 SIA B   4       4.417  -0.697  -0.395  1.00  0.00     0.088 C 
ATOM      6  N   SIA B   4       4.896  -0.037  -1.588  1.00  0.00    -0.240 NA
ATOM      7  N10 SIA B   4       5.960  -0.790  -2.035  1.00  0.00    -0.191 NA
ATOM      8  H   UNL     1       5.230   0.920  -1.281  1.00  0.00     0.143 HD
ATOM      9  N06 SIA B   4       6.624  -1.344  -0.958  1.00  0.00    -0.229 NA
ATOM     10  H   UNL     1       5.651  -1.534  -2.705  1.00  0.00     0.161 HD
ATOM     11  C05 SIA B   4       5.582  -1.502   0.063  1.00  0.00     0.124 C 
BRANCH   9  12
ATOM     12  C07 SIA B   4       7.648  -0.550  -0.372  1.00  0.00     0.109 C 
BRANCH  12  13
ATOM     13  C08 SIA B   4       8.906  -0.355  -1.126  1.00  0.00     0.079 C 
BRANCH  13  14
ATOM     14  C   SIA B   4       8.807   0.306  -2.462  1.00  0.00     0.244 C 
BRANCH  14  15
ATOM     15  O   SIA B   4       8.046  -0.365  -3.380  1.00  0.00    -0.368 OA
ATOM     16  H   UNL     1       7.683   0.222  -4.088  1.00  0.00     0.213 HD
ENDBRANCH  14  15
BRANCH  14  17
ATOM     17  O09 SIA B   4       8.315   1.617  -2.362  1.00  0.00    -0.368 OA
ATOM     18  H   UNL     1       7.997   1.728  -1.432  1.00  0.00     0.213 HD
ENDBRANCH  14  17
ENDBRANCH  13  14
ENDBRANCH  12  13
ENDBRANCH   9  12
ENDBRANCH   4   5
ENDBRANCH   3   4
ENDBRANCH   2   3
ENDBRANCH   1   2
BRANCH   1  19
ATOM     19  O02 SIA B   4       0.928  -1.102  -0.000  1.00  0.00    -0.356 OA
ATOM     20  H   UNL     1       1.005  -2.075  -0.027  1.00  0.00     0.215 HD
ENDBRANCH   1  19
BRANCH   1  21
ATOM     21  N04 SIA B   4       0.207  -0.620   2.164  1.00  0.00    -0.266 NA
ATOM     22  H   UNL     1       0.464  -0.179   3.058  1.00  0.00     0.127 HD
BRANCH  21  23
ATOM     23  C9  SIA B   4      -0.914   0.044   1.499  1.00  0.00     0.120 C 
BRANCH  23  24
ATOM     24  C8  SIA B   4      -2.109   0.053   2.418  1.00  0.00     0.159 C 
BRANCH  24  25
ATOM     25  C7  SIA B   4      -3.286   0.789   1.834  1.00  0.00     0.175 C 
BRANCH  25  26
ATOM     26  C6  SIA B   4      -3.950   0.017   0.714  1.00  0.00     0.169 C 
ATOM     27  C5  SIA B   4      -5.256   0.726   0.297  1.00  0.00     0.116 C 
ATOM     28  O6  SIA B   4      -3.153  -0.041  -0.411  1.00  0.00    -0.365 OA
ATOM     29  C4  SIA B   4      -6.065  -0.290  -0.454  1.00  0.00     0.137 C 
ATOM     30  C2  SIA B   4      -3.817  -0.520  -1.510  1.00  0.00     0.177 C 
ATOM     31  C3  SIA B   4      -5.080  -1.254  -1.123  1.00  0.00     0.071 C 
BRANCH  27  32
ATOM     32  N5  SIA B   4      -5.849   1.380   1.387  1.00  0.00    -0.285 NA
ATOM     33  H   UNL     1      -6.027   0.761   2.209  1.00  0.00     0.125 HD
BRANCH  32  34
ATOM     34  C10 SIA B   4      -6.960   2.235   1.214  1.00  0.00     0.179 C 
ATOM     35  C11 SIA B   4      -8.243   1.634   0.731  1.00  0.00     0.056 C 
BRANCH  34  36
ATOM     36  O10 SIA B   4      -7.208   2.871   2.455  1.00  0.00    -0.379 OA
ATOM     37  H   UNL     1      -7.060   2.173   3.148  1.00  0.00     0.212 HD
ENDBRANCH  34  36
ENDBRANCH  32  34
ENDBRANCH  27  32
BRANCH  29  38
ATOM     38  O4  SIA B   4      -6.903   0.263  -1.425  1.00  0.00    -0.391 OA
ATOM     39  H   UNL     1      -7.627  -0.399  -1.580  1.00  0.00     0.211 HD
ENDBRANCH  29  38
BRANCH  30  40
ATOM     40  C1  SIA B   4      -2.927  -1.454  -2.297  1.00  0.00     0.273 C 
BRANCH  40  41
ATOM     41  O1A SIA B   4      -1.762  -0.784  -2.730  1.00  0.00    -0.366 OA
ATOM     42  H   UNL     1      -1.425  -1.141  -3.577  1.00  0.00     0.213 HD
ENDBRANCH  40  41
BRANCH  40  43
ATOM     43  O1B SIA B   4      -3.551  -1.889  -3.468  1.00  0.00    -0.366 OA
ATOM     44  H   UNL     1      -4.192  -1.174  -3.771  1.00  0.00     0.213 HD
ENDBRANCH  40  43
ENDBRANCH  30  40
ENDBRANCH  25  26
BRANCH  25  45
ATOM     45  O7  SIA B   4      -2.998   2.095   1.489  1.00  0.00    -0.388 OA
ATOM     46  H   UNL     1      -2.525   2.123   0.608  1.00  0.00     0.211 HD
ENDBRANCH  25  45
ENDBRANCH  24  25
BRANCH  24  47
ATOM     47  O8  SIA B   4      -1.730   0.766   3.581  1.00  0.00    -0.389 OA
ATOM     48  H   UNL     1      -1.585   1.728   3.348  1.00  0.00     0.211 HD
ENDBRANCH  24  47
ENDBRANCH  23  24
ENDBRANCH  21  23
ENDBRANCH   1  21
TORSDOF 24
