REMARK SMILES CC(O)N[C@H]1[C@H]([C@H](O)[C@H](O)CNC(O)OCCC2CN(CCNS(C)(O)O)NN2)O[C@@H](C(O)O)C[C@@H]1O
REMARK SMILES IDX 13 1 15 2 16 3 17 4 18 5 29 6 28 7 20 9 19 11 21 12 22 13
REMARK SMILES IDX 23 14 24 16 25 17 26 18 27 20 14 22 12 24 11 26 9 27 7 28
REMARK SMILES IDX 6 29 5 30 30 31 36 32 31 33 35 34 4 35 2 37 1 38 3 39 37 41
REMARK SMILES IDX 32 43 33 44 34 46 8 48 10 50
REMARK H PARENT 29 8 28 10 23 15 26 19 27 21 14 23 12 25 4 36 3 40 37 42 33 45
REMARK H PARENT 34 47 8 49 10 51
REMARK Flexibility Score: inf
ROOT
ATOM      1  C02 SIA B   4       0.044  -0.313  -0.652  1.00  0.00     0.325 C 
ENDROOT
BRANCH   1   2
ATOM      2  O01 SIA B   4       0.405   0.072   0.630  1.00  0.00    -0.340 OA
BRANCH   2   3
ATOM      3  C01 SIA B   4       1.748   0.304   0.795  1.00  0.00     0.166 C 
BRANCH   3   4
ATOM      4  C03 SIA B   4       2.609  -0.886   0.531  1.00  0.00     0.050 C 
BRANCH   4   5
ATOM      5  C04 SIA B   4       4.067  -0.454   0.729  1.00  0.00     0.088 C 
ATOM      6  N   SIA B   4       4.374   0.615  -0.169  1.00  0.00    -0.240 NA
ATOM      7  N12 SIA B   4       5.647   0.419  -0.609  1.00  0.00    -0.191 NA
ATOM      8  H   UNL     1       4.296   1.529   0.351  1.00  0.00     0.143 HD
ATOM      9  N06 SIA B   4       6.040  -0.866  -0.346  1.00  0.00    -0.228 NA
ATOM     10  H   UNL     1       5.766   0.643  -1.645  1.00  0.00     0.161 HD
ATOM     11  C05 SIA B   4       4.964  -1.592   0.214  1.00  0.00     0.124 C 
BRANCH   9  12
ATOM     12  C07 SIA B   4       7.270  -0.987   0.397  1.00  0.00     0.121 C 
BRANCH  12  13
ATOM     13  C08 SIA B   4       8.319  -0.038  -0.150  1.00  0.00     0.121 C 
BRANCH  13  14
ATOM     14  N09 SIA B   4       9.581  -0.095   0.511  1.00  0.00    -0.219 NA
ATOM     15  H   UNL     1       9.560  -0.063   1.533  1.00  0.00     0.147 HD
BRANCH  14  16
ATOM     16  S   SIA B   4      10.700   1.084  -0.149  1.00  0.00    -0.143 S 
ATOM     17  C   SIA B   4      11.856   0.250  -1.234  1.00  0.00     0.181 C 
BRANCH  16  18
ATOM     18  O   SIA B   4      11.475   1.852   1.141  1.00  0.00    -0.286 OA
ATOM     19  H   UNL     1      10.906   1.859   1.967  1.00  0.00     0.243 HD
ENDBRANCH  16  18
BRANCH  16  20
ATOM     20  O11 SIA B   4       9.819   2.226  -1.096  1.00  0.00    -0.286 OA
ATOM     21  H   UNL     1       9.150   2.625  -0.474  1.00  0.00     0.243 HD
ENDBRANCH  16  20
ENDBRANCH  14  16
ENDBRANCH  13  14
ENDBRANCH  12  13
ENDBRANCH   9  12
ENDBRANCH   4   5
ENDBRANCH   3   4
ENDBRANCH   2   3
ENDBRANCH   1   2
BRANCH   1  22
ATOM     22  O02 SIA B   4      -0.692   0.674  -1.333  1.00  0.00    -0.356 OA
ATOM     23  H   UNL     1      -0.725   1.521  -0.829  1.00  0.00     0.215 HD
ENDBRANCH   1  22
BRANCH   1  24
ATOM     24  N04 SIA B   4      -0.521  -1.617  -0.725  1.00  0.00    -0.266 NA
ATOM     25  H   UNL     1       0.243  -2.327  -0.531  1.00  0.00     0.127 HD
BRANCH  24  26
ATOM     26  C9  SIA B   4      -1.671  -1.846   0.111  1.00  0.00     0.120 C 
BRANCH  26  27
ATOM     27  C8  SIA B   4      -2.838  -1.060  -0.368  1.00  0.00     0.159 C 
BRANCH  27  28
ATOM     28  C7  SIA B   4      -4.049  -1.196   0.567  1.00  0.00     0.175 C 
BRANCH  28  29
ATOM     29  C6  SIA B   4      -5.023  -0.091   0.077  1.00  0.00     0.169 C 
ATOM     30  C5  SIA B   4      -6.104   0.045   1.095  1.00  0.00     0.116 C 
ATOM     31  O6  SIA B   4      -4.246   1.058   0.109  1.00  0.00    -0.365 OA
ATOM     32  C4  SIA B   4      -6.914   1.312   0.935  1.00  0.00     0.137 C 
ATOM     33  C2  SIA B   4      -4.899   2.168  -0.288  1.00  0.00     0.177 C 
ATOM     34  C3  SIA B   4      -6.062   2.501   0.615  1.00  0.00     0.071 C 
BRANCH  30  35
ATOM     35  N5  SIA B   4      -6.905  -1.067   1.382  1.00  0.00    -0.285 NA
ATOM     36  H   UNL     1      -7.014  -1.326   2.363  1.00  0.00     0.125 HD
BRANCH  35  37
ATOM     37  C10 SIA B   4      -7.895  -1.514   0.502  1.00  0.00     0.179 C 
ATOM     38  C11 SIA B   4      -7.428  -2.005  -0.846  1.00  0.00     0.056 C 
BRANCH  37  39
ATOM     39  O10 SIA B   4      -8.527  -2.626   1.128  1.00  0.00    -0.379 OA
ATOM     40  H   UNL     1      -9.454  -2.450   1.363  1.00  0.00     0.212 HD
ENDBRANCH  37  39
ENDBRANCH  35  37
ENDBRANCH  30  35
BRANCH  32  41
ATOM     41  O4  SIA B   4      -7.521   1.551   2.173  1.00  0.00    -0.391 OA
ATOM     42  H   UNL     1      -7.639   2.540   2.257  1.00  0.00     0.211 HD
ENDBRANCH  32  41
BRANCH  33  43
ATOM     43  C1  SIA B   4      -5.258   2.280  -1.743  1.00  0.00     0.273 C 
BRANCH  43  44
ATOM     44  O1A SIA B   4      -5.899   3.531  -1.960  1.00  0.00    -0.366 OA
ATOM     45  H   UNL     1      -5.719   3.870  -2.864  1.00  0.00     0.213 HD
ENDBRANCH  43  44
BRANCH  43  46
ATOM     46  O1B SIA B   4      -6.156   1.325  -2.189  1.00  0.00    -0.366 OA
ATOM     47  H   UNL     1      -6.215   1.378  -3.175  1.00  0.00     0.213 HD
ENDBRANCH  43  46
ENDBRANCH  33  43
ENDBRANCH  28  29
BRANCH  28  48
ATOM     48  O7  SIA B   4      -3.639  -0.876   1.846  1.00  0.00    -0.388 OA
ATOM     49  H   UNL     1      -3.506  -1.699   2.417  1.00  0.00     0.211 HD
ENDBRANCH  28  48
ENDBRANCH  27  28
BRANCH  27  50
ATOM     50  O8  SIA B   4      -3.188  -1.383  -1.652  1.00  0.00    -0.389 OA
ATOM     51  H   UNL     1      -4.005  -1.915  -1.713  1.00  0.00     0.211 HD
ENDBRANCH  27  50
ENDBRANCH  26  27
ENDBRANCH  24  26
ENDBRANCH   1  24
TORSDOF 25
