REMARK SMILES CCOC(CCN1CC(CCOC(O)NC[C@@H](O)[C@@H](O)[C@@H]2O[C@@H](C(O)O)C[C@H](O)[C@H]2NC(C)O)NN1)OCC
REMARK SMILES IDX 13 1 12 2 11 3 10 4 9 5 35 6 36 7 7 9 8 11 6 12 5 13 4 14
REMARK SMILES IDX 3 15 2 16 1 17 37 18 38 19 39 20 14 21 15 23 16 25 17 26
REMARK SMILES IDX 19 27 21 28 30 29 22 30 28 31 23 32 27 33 31 34 32 36 33 37
REMARK SMILES IDX 34 38 29 40 24 42 25 43 26 45 20 47 18 49
REMARK H PARENT 35 8 36 10 14 22 15 24 31 35 34 39 29 41 25 44 26 46 20 48
REMARK H PARENT 18 50
REMARK Flexibility Score: inf
ROOT
ATOM      1  C02 SIA B   4      -0.922   0.944   0.070  1.00  0.00     0.325 C 
ENDROOT
BRANCH   1   2
ATOM      2  O01 SIA B   4      -0.054   0.070   0.662  1.00  0.00    -0.340 OA
BRANCH   2   3
ATOM      3  C01 SIA B   4       1.292   0.309   0.386  1.00  0.00     0.166 C 
BRANCH   3   4
ATOM      4  C03 SIA B   4       1.615   0.224  -1.062  1.00  0.00     0.050 C 
BRANCH   4   5
ATOM      5  C04 SIA B   4       3.027   0.474  -1.427  1.00  0.00     0.088 C 
ATOM      6  N   SIA B   4       3.538   1.763  -1.067  1.00  0.00    -0.240 NA
ATOM      7  N15 SIA B   4       4.137   1.656   0.157  1.00  0.00    -0.191 NA
ATOM      8  H   UNL     1       2.869   2.542  -1.185  1.00  0.00     0.143 HD
ATOM      9  N06 SIA B   4       4.375   0.336   0.437  1.00  0.00    -0.229 NA
ATOM     10  H   UNL     1       3.796   2.246   0.917  1.00  0.00     0.161 HD
ATOM     11  C05 SIA B   4       3.963  -0.451  -0.695  1.00  0.00     0.124 C 
BRANCH   9  12
ATOM     12  C07 SIA B   4       5.741   0.077   0.843  1.00  0.00     0.109 C 
BRANCH  12  13
ATOM     13  C08 SIA B   4       6.744   0.560  -0.157  1.00  0.00     0.079 C 
BRANCH  13  14
ATOM     14  C09 SIA B   4       8.175   0.269   0.311  1.00  0.00     0.251 C 
BRANCH  14  15
ATOM     15  O   SIA B   4       8.430   0.902   1.521  1.00  0.00    -0.353 OA
BRANCH  15  16
ATOM     16  C14 SIA B   4       8.726   0.059   2.563  1.00  0.00     0.160 C 
ATOM     17  C   SIA B   4       9.935  -0.799   2.371  1.00  0.00     0.035 C 
ENDBRANCH  15  16
ENDBRANCH  14  15
BRANCH  14  18
ATOM     18  O11 SIA B   4       9.075   0.757  -0.626  1.00  0.00    -0.353 OA
BRANCH  18  19
ATOM     19  C12 SIA B   4       9.910  -0.188  -1.167  1.00  0.00     0.160 C 
ATOM     20  C13 SIA B   4       9.203  -1.311  -1.890  1.00  0.00     0.035 C 
ENDBRANCH  18  19
ENDBRANCH  14  18
ENDBRANCH  13  14
ENDBRANCH  12  13
ENDBRANCH   9  12
ENDBRANCH   4   5
ENDBRANCH   3   4
ENDBRANCH   2   3
ENDBRANCH   1   2
BRANCH   1  21
ATOM     21  O02 SIA B   4      -1.652   1.563   1.091  1.00  0.00    -0.356 OA
ATOM     22  H   UNL     1      -2.033   0.888   1.708  1.00  0.00     0.215 HD
ENDBRANCH   1  21
BRANCH   1  23
ATOM     23  N04 SIA B   4      -1.853   0.189  -0.732  1.00  0.00    -0.266 NA
ATOM     24  H   UNL     1      -1.437  -0.497  -1.367  1.00  0.00     0.127 HD
BRANCH  23  25
ATOM     25  C9  SIA B   4      -2.781   1.011  -1.466  1.00  0.00     0.120 C 
BRANCH  25  26
ATOM     26  C8  SIA B   4      -3.697   0.075  -2.237  1.00  0.00     0.159 C 
BRANCH  26  27
ATOM     27  C7  SIA B   4      -4.470  -0.830  -1.306  1.00  0.00     0.175 C 
BRANCH  27  28
ATOM     28  C6  SIA B   4      -5.478  -0.020  -0.554  1.00  0.00     0.169 C 
ATOM     29  C5  SIA B   4      -6.485  -0.885   0.175  1.00  0.00     0.116 C 
ATOM     30  O6  SIA B   4      -4.960   0.851   0.374  1.00  0.00    -0.365 OA
ATOM     31  C4  SIA B   4      -7.723  -0.054   0.390  1.00  0.00     0.137 C 
ATOM     32  C2  SIA B   4      -5.955   1.614   0.930  1.00  0.00     0.177 C 
ATOM     33  C3  SIA B   4      -7.314   1.401   0.331  1.00  0.00     0.071 C 
BRANCH  29  34
ATOM     34  N5  SIA B   4      -6.703  -2.138  -0.469  1.00  0.00    -0.285 NA
ATOM     35  H   UNL     1      -7.108  -2.050  -1.421  1.00  0.00     0.125 HD
BRANCH  34  36
ATOM     36  C10 SIA B   4      -7.542  -3.044   0.285  1.00  0.00     0.179 C 
ATOM     37  C11 SIA B   4      -6.898  -3.414   1.621  1.00  0.00     0.056 C 
BRANCH  36  38
ATOM     38  O10 SIA B   4      -8.814  -2.580   0.510  1.00  0.00    -0.379 OA
ATOM     39  H   UNL     1      -9.262  -3.155   1.177  1.00  0.00     0.212 HD
ENDBRANCH  36  38
ENDBRANCH  34  36
ENDBRANCH  29  34
BRANCH  31  40
ATOM     40  O4  SIA B   4      -8.304  -0.275   1.643  1.00  0.00    -0.391 OA
ATOM     41  H   UNL     1      -9.084   0.350   1.681  1.00  0.00     0.211 HD
ENDBRANCH  31  40
BRANCH  32  42
ATOM     42  C1  SIA B   4      -5.606   3.100   0.837  1.00  0.00     0.273 C 
BRANCH  42  43
ATOM     43  O1A SIA B   4      -5.451   3.492  -0.479  1.00  0.00    -0.366 OA
ATOM     44  H   UNL     1      -4.848   4.274  -0.502  1.00  0.00     0.213 HD
ENDBRANCH  42  43
BRANCH  42  45
ATOM     45  O1B SIA B   4      -4.426   3.334   1.541  1.00  0.00    -0.366 OA
ATOM     46  H   UNL     1      -4.027   4.206   1.301  1.00  0.00     0.213 HD
ENDBRANCH  42  45
ENDBRANCH  32  42
ENDBRANCH  27  28
BRANCH  27  47
ATOM     47  O7  SIA B   4      -3.660  -1.629  -0.529  1.00  0.00    -0.388 OA
ATOM     48  H   UNL     1      -4.002  -1.792   0.386  1.00  0.00     0.211 HD
ENDBRANCH  27  47
ENDBRANCH  26  27
BRANCH  26  49
ATOM     49  O8  SIA B   4      -2.924  -0.707  -3.125  1.00  0.00    -0.389 OA
ATOM     50  H   UNL     1      -3.541  -1.134  -3.770  1.00  0.00     0.211 HD
ENDBRANCH  26  49
ENDBRANCH  25  26
ENDBRANCH  23  25
ENDBRANCH   1  23
TORSDOF 26
