REMARK SMILES CC(O)N[C@H]1[C@H]([C@H](O)[C@H](O)CNC(O)OCCC2CN(C[C@H]3CCCC(Br)C3)NN2)O[C@@H](C(O)O)C[C@@H]1O
REMARK SMILES IDX 12 1 13 3 15 4 16 5 17 6 18 7 30 8 29 9 20 11 19 13 21 14
REMARK SMILES IDX 22 15 28 16 23 17 26 18 24 19 25 20 27 21 14 22 11 24 9 25
REMARK SMILES IDX 7 26 6 27 5 28 31 29 37 30 32 31 36 32 4 33 2 35 1 36 3 37
REMARK SMILES IDX 38 39 33 41 34 42 35 44 8 46 10 48
REMARK H PARENT 12 2 30 10 29 12 14 23 4 34 3 38 38 40 34 43 35 45 8 47 10 49
REMARK Flexibility Score: inf
ROOT
ATOM      1  N04 SIA B   4      -1.016  -0.626  -1.532  1.00  0.00    -0.266 NA
ATOM      2  H   UNL     1      -0.374  -0.253  -2.274  1.00  0.00     0.127 HD
ENDROOT
BRANCH   1   3
ATOM      3  C02 SIA B   4      -0.373  -1.277  -0.438  1.00  0.00     0.325 C 
BRANCH   3   4
ATOM      4  O01 SIA B   4       0.881  -1.374  -0.449  1.00  0.00    -0.340 OA
BRANCH   4   5
ATOM      5  C01 SIA B   4       2.114  -1.479  -0.458  1.00  0.00     0.166 C 
BRANCH   5   6
ATOM      6  C03 SIA B   4       2.766  -0.116  -0.839  1.00  0.00     0.050 C 
BRANCH   6   7
ATOM      7  C04 SIA B   4       4.259  -0.164  -0.610  1.00  0.00     0.088 C 
ATOM      8  N   SIA B   4       4.491  -0.446   0.818  1.00  0.00    -0.240 NA
ATOM      9  N15 SIA B   4       5.404   0.451   1.287  1.00  0.00    -0.191 NA
ATOM     10  H   UNL     1       4.835  -1.406   0.907  1.00  0.00     0.143 HD
ATOM     11  N06 SIA B   4       5.510   1.520   0.455  1.00  0.00    -0.229 NA
ATOM     12  H   UNL     1       5.145   0.797   2.264  1.00  0.00     0.161 HD
ATOM     13  C05 SIA B   4       4.768   1.247  -0.745  1.00  0.00     0.124 C 
BRANCH  11  14
ATOM     14  C07 SIA B   4       6.845   1.990   0.181  1.00  0.00     0.107 C 
BRANCH  14  15
ATOM     15  C08 SIA B   4       7.758   0.965  -0.422  1.00  0.00     0.006 C 
ATOM     16  C   SIA B   4       7.960  -0.207   0.471  1.00  0.00     0.020 C 
ATOM     17  C09 SIA B   4       9.011   1.676  -0.847  1.00  0.00     0.005 C 
ATOM     18  C14 SIA B   4       9.146  -1.085   0.133  1.00  0.00     0.057 C 
ATOM     19  C12 SIA B   4      10.242   1.085  -0.188  1.00  0.00     0.001 C 
ATOM     20  C13 SIA B   4      10.246  -0.376  -0.585  1.00  0.00     0.015 C 
ATOM     21 Br   SIA B   4       8.555  -2.630  -0.913  1.00  0.00    -0.089 Br
ENDBRANCH  14  15
ENDBRANCH  11  14
ENDBRANCH   6   7
ENDBRANCH   5   6
ENDBRANCH   4   5
ENDBRANCH   3   4
BRANCH   3  22
ATOM     22  O02 SIA B   4      -0.706  -0.569   0.795  1.00  0.00    -0.356 OA
ATOM     23  H   UNL     1      -0.236   0.274   0.812  1.00  0.00     0.215 HD
ENDBRANCH   3  22
ENDBRANCH   1   3
BRANCH   1  24
ATOM     24  C9  SIA B   4      -2.191   0.101  -1.381  1.00  0.00     0.120 C 
BRANCH  24  25
ATOM     25  C8  SIA B   4      -3.484  -0.546  -1.043  1.00  0.00     0.159 C 
BRANCH  25  26
ATOM     26  C7  SIA B   4      -3.662  -0.808   0.403  1.00  0.00     0.175 C 
BRANCH  26  27
ATOM     27  C6  SIA B   4      -5.124  -1.031   0.788  1.00  0.00     0.169 C 
ATOM     28  C5  SIA B   4      -5.921   0.279   0.655  1.00  0.00     0.116 C 
ATOM     29  O6  SIA B   4      -5.664  -2.070   0.096  1.00  0.00    -0.365 OA
ATOM     30  C4  SIA B   4      -7.261   0.016   1.248  1.00  0.00     0.137 C 
ATOM     31  C2  SIA B   4      -6.896  -1.810  -0.453  1.00  0.00     0.177 C 
ATOM     32  C3  SIA B   4      -7.855  -1.169   0.483  1.00  0.00     0.071 C 
BRANCH  28  33
ATOM     33  N5  SIA B   4      -5.125   1.345   1.104  1.00  0.00    -0.285 NA
ATOM     34  H   UNL     1      -4.978   1.296   2.185  1.00  0.00     0.125 HD
BRANCH  33  35
ATOM     35  C10 SIA B   4      -5.356   2.690   0.841  1.00  0.00     0.179 C 
ATOM     36  C11 SIA B   4      -6.560   3.409   1.322  1.00  0.00     0.056 C 
BRANCH  35  37
ATOM     37  O10 SIA B   4      -5.232   3.019  -0.538  1.00  0.00    -0.379 OA
ATOM     38  H   UNL     1      -5.616   2.303  -1.116  1.00  0.00     0.212 HD
ENDBRANCH  35  37
ENDBRANCH  33  35
ENDBRANCH  28  33
BRANCH  30  39
ATOM     39  O4  SIA B   4      -8.142   1.043   1.347  1.00  0.00    -0.391 OA
ATOM     40  H   UNL     1      -8.304   1.253   2.301  1.00  0.00     0.211 HD
ENDBRANCH  30  39
BRANCH  31  41
ATOM     41  C1  SIA B   4      -7.473  -3.159  -0.855  1.00  0.00     0.273 C 
BRANCH  41  42
ATOM     42  O1A SIA B   4      -8.718  -3.041  -1.415  1.00  0.00    -0.366 OA
ATOM     43  H   UNL     1      -8.952  -2.137  -1.749  1.00  0.00     0.213 HD
ENDBRANCH  41  42
BRANCH  41  44
ATOM     44  O1B SIA B   4      -7.409  -3.991   0.235  1.00  0.00    -0.366 OA
ATOM     45  H   UNL     1      -8.313  -4.329   0.483  1.00  0.00     0.213 HD
ENDBRANCH  41  44
ENDBRANCH  31  41
ENDBRANCH  26  27
BRANCH  26  46
ATOM     46  O7  SIA B   4      -3.246   0.295   1.158  1.00  0.00    -0.388 OA
ATOM     47  H   UNL     1      -2.993   0.006   2.091  1.00  0.00     0.211 HD
ENDBRANCH  26  46
ENDBRANCH  25  26
BRANCH  25  48
ATOM     48  O8  SIA B   4      -3.886  -1.555  -1.913  1.00  0.00    -0.389 OA
ATOM     49  H   UNL     1      -3.090  -1.740  -2.474  1.00  0.00     0.211 HD
ENDBRANCH  25  48
ENDBRANCH  24  25
ENDBRANCH   1  24
TORSDOF 21
