REMARK SMILES CC(O)N[C@H]1[C@H]([C@H](O)[C@H](O)CNC(O)OCCC2CN(C[C@H](O)NC3NCCCN3)NN2)O[C@@H](C(O)O)C[C@@H]1O
REMARK SMILES IDX 13 1 15 2 16 3 17 4 18 5 32 6 31 7 20 9 19 11 21 12 22 13
REMARK SMILES IDX 24 14 25 16 30 17 26 18 29 19 27 21 28 23 23 24 14 26 12 28
REMARK SMILES IDX 11 30 9 31 7 32 6 33 5 34 33 35 39 36 34 37 38 38 4 39 2 41
REMARK SMILES IDX 1 42 3 43 40 45 35 47 36 48 37 50 8 52 10 54
REMARK H PARENT 32 8 31 10 24 15 30 20 26 22 23 25 14 27 12 29 4 40 3 44 40 46
REMARK H PARENT 36 49 37 51 8 53 10 55
REMARK Flexibility Score: inf
ROOT
ATOM      1  C02 SIA B   4      -0.936   0.713   0.045  1.00  0.00     0.325 C 
ENDROOT
BRANCH   1   2
ATOM      2  O01 SIA B   4      -0.208   1.339   1.060  1.00  0.00    -0.340 OA
BRANCH   2   3
ATOM      3  C01 SIA B   4       1.112   1.565   0.775  1.00  0.00     0.166 C 
BRANCH   3   4
ATOM      4  C03 SIA B   4       1.936   0.346   0.463  1.00  0.00     0.050 C 
BRANCH   4   5
ATOM      5  C04 SIA B   4       3.356   0.802   0.194  1.00  0.00     0.088 C 
ATOM      6  N   SIA B   4       3.818   1.448   1.406  1.00  0.00    -0.239 NA
ATOM      7  N17 SIA B   4       5.114   1.074   1.616  1.00  0.00    -0.191 NA
ATOM      8  H   UNL     1       3.259   1.102   2.232  1.00  0.00     0.143 HD
ATOM      9  N06 SIA B   4       5.342  -0.073   0.897  1.00  0.00    -0.225 NA
ATOM     10  H   UNL     1       5.826   1.801   1.465  1.00  0.00     0.161 HD
ATOM     11  C05 SIA B   4       4.326  -0.286  -0.064  1.00  0.00     0.124 C 
BRANCH   9  12
ATOM     12  C07 SIA B   4       6.695  -0.168   0.402  1.00  0.00     0.152 C 
BRANCH  12  13
ATOM     13  C08 SIA B   4       7.129  -1.512  -0.029  1.00  0.00     0.200 C 
BRANCH  13  14
ATOM     14  N09 SIA B   4       8.426  -1.488  -0.592  1.00  0.00    -0.263 NA
ATOM     15  H   UNL     1       8.599  -2.170  -1.337  1.00  0.00     0.128 HD
BRANCH  14  16
ATOM     16  C12 SIA B   4       9.527  -1.115   0.202  1.00  0.00     0.195 C 
ATOM     17  N13 SIA B   4      10.732  -1.275  -0.620  1.00  0.00    -0.290 NA
ATOM     18  N16 SIA B   4       9.563   0.218   0.714  1.00  0.00    -0.290 NA
ATOM     19  C14 SIA B   4      10.741  -0.430  -1.780  1.00  0.00     0.085 C 
ATOM     20  H   UNL     1      10.832  -2.258  -0.928  1.00  0.00     0.125 HD
ATOM     21  C   SIA B   4      10.498   1.100   0.081  1.00  0.00     0.085 C 
ATOM     22  H   UNL     1       9.676   0.272   1.749  1.00  0.00     0.125 HD
ATOM     23  C15 SIA B   4      10.437   1.013  -1.433  1.00  0.00     0.031 C 
ENDBRANCH  14  16
ENDBRANCH  13  14
BRANCH  13  24
ATOM     24  O   SIA B   4       7.077  -2.449   1.032  1.00  0.00    -0.377 OA
ATOM     25  H   UNL     1       7.418  -3.318   0.646  1.00  0.00     0.212 HD
ENDBRANCH  13  24
ENDBRANCH  12  13
ENDBRANCH   9  12
ENDBRANCH   4   5
ENDBRANCH   3   4
ENDBRANCH   2   3
ENDBRANCH   1   2
BRANCH   1  26
ATOM     26  O02 SIA B   4      -1.842   1.602  -0.512  1.00  0.00    -0.356 OA
ATOM     27  H   UNL     1      -1.634   2.503  -0.176  1.00  0.00     0.215 HD
ENDBRANCH   1  26
BRANCH   1  28
ATOM     28  N04 SIA B   4      -1.537  -0.485   0.497  1.00  0.00    -0.266 NA
ATOM     29  H   UNL     1      -1.256  -0.864   1.406  1.00  0.00     0.127 HD
BRANCH  28  30
ATOM     30  C9  SIA B   4      -2.306  -1.264  -0.381  1.00  0.00     0.120 C 
BRANCH  30  31
ATOM     31  C8  SIA B   4      -3.659  -0.719  -0.787  1.00  0.00     0.159 C 
BRANCH  31  32
ATOM     32  C7  SIA B   4      -4.551  -0.585   0.418  1.00  0.00     0.175 C 
BRANCH  32  33
ATOM     33  C6  SIA B   4      -5.821   0.217   0.192  1.00  0.00     0.169 C 
ATOM     34  C5  SIA B   4      -6.901  -0.461  -0.574  1.00  0.00     0.116 C 
ATOM     35  O6  SIA B   4      -6.328   0.477   1.515  1.00  0.00    -0.365 OA
ATOM     36  C4  SIA B   4      -8.039   0.534  -0.779  1.00  0.00     0.137 C 
ATOM     37  C2  SIA B   4      -7.503   1.155   1.520  1.00  0.00     0.177 C 
ATOM     38  C3  SIA B   4      -7.917   1.670   0.162  1.00  0.00     0.071 C 
BRANCH  34  39
ATOM     39  N5  SIA B   4      -6.500  -0.896  -1.876  1.00  0.00    -0.285 NA
ATOM     40  H   UNL     1      -6.289  -0.027  -2.452  1.00  0.00     0.125 HD
BRANCH  39  41
ATOM     41  C10 SIA B   4      -7.546  -1.598  -2.589  1.00  0.00     0.179 C 
ATOM     42  C11 SIA B   4      -7.960  -2.868  -1.884  1.00  0.00     0.056 C 
BRANCH  41  43
ATOM     43  O10 SIA B   4      -7.021  -1.968  -3.837  1.00  0.00    -0.379 OA
ATOM     44  H   UNL     1      -6.985  -2.950  -3.943  1.00  0.00     0.212 HD
ENDBRANCH  41  43
ENDBRANCH  39  41
ENDBRANCH  34  39
BRANCH  36  45
ATOM     45  O4  SIA B   4      -9.291  -0.082  -0.751  1.00  0.00    -0.391 OA
ATOM     46  H   UNL     1      -9.921   0.629  -1.093  1.00  0.00     0.211 HD
ENDBRANCH  36  45
BRANCH  37  47
ATOM     47  C1  SIA B   4      -7.344   2.361   2.457  1.00  0.00     0.273 C 
BRANCH  47  48
ATOM     48  O1A SIA B   4      -7.038   1.937   3.747  1.00  0.00    -0.366 OA
ATOM     49  H   UNL     1      -7.826   1.448   4.135  1.00  0.00     0.213 HD
ENDBRANCH  47  48
BRANCH  47  50
ATOM     50  O1B SIA B   4      -8.570   3.052   2.565  1.00  0.00    -0.366 OA
ATOM     51  H   UNL     1      -9.077   2.741   3.346  1.00  0.00     0.213 HD
ENDBRANCH  47  50
ENDBRANCH  37  47
ENDBRANCH  32  33
BRANCH  32  52
ATOM     52  O7  SIA B   4      -3.803   0.277   1.287  1.00  0.00    -0.388 OA
ATOM     53  H   UNL     1      -4.037   1.211   1.068  1.00  0.00     0.211 HD
ENDBRANCH  32  52
ENDBRANCH  31  32
BRANCH  31  54
ATOM     54  O8  SIA B   4      -4.180  -1.628  -1.716  1.00  0.00    -0.389 OA
ATOM     55  H   UNL     1      -3.828  -1.491  -2.624  1.00  0.00     0.211 HD
ENDBRANCH  31  54
ENDBRANCH  30  31
ENDBRANCH  28  30
ENDBRANCH   1  28
TORSDOF 24
