REMARK SMILES CC(O)N[C@H]1[C@H]([C@H](O)[C@H](O)CNC(O)OCCC2CN(C3CC(C(O)O)NC(C4CCCCC4)C3)NN2)O[C@@H](C(O)O)C[C@@H]1O
REMARK SMILES IDX 13 1 15 2 16 3 17 4 18 5 37 6 36 7 20 9 19 11 21 12 35 13
REMARK SMILES IDX 22 14 28 15 23 16 27 17 29 19 30 20 34 21 31 22 33 23 32 24
REMARK SMILES IDX 24 25 25 26 26 28 14 30 12 32 11 34 9 35 7 36 6 37 5 38
REMARK SMILES IDX 38 39 44 40 39 41 43 42 4 43 2 45 1 46 3 47 45 49 40 51
REMARK SMILES IDX 41 52 42 54 8 56 10 58
REMARK H PARENT 37 8 36 10 27 18 25 27 26 29 14 31 12 33 4 44 3 48 45 50 41 53
REMARK H PARENT 42 55 8 57 10 59
REMARK Flexibility Score: inf
ROOT
ATOM      1  C02 SIA B   4      -1.364   1.332   0.440  1.00  0.00     0.325 C 
ENDROOT
BRANCH   1   2
ATOM      2  O01 SIA B   4      -0.974   0.836  -0.767  1.00  0.00    -0.340 OA
BRANCH   2   3
ATOM      3  C01 SIA B   4       0.343   0.427  -0.745  1.00  0.00     0.166 C 
BRANCH   3   4
ATOM      4  C03 SIA B   4       0.523  -0.701   0.210  1.00  0.00     0.050 C 
BRANCH   4   5
ATOM      5  C04 SIA B   4       1.934  -1.219   0.299  1.00  0.00     0.088 C 
ATOM      6  N   SIA B   4       2.467  -1.708  -0.934  1.00  0.00    -0.239 NA
ATOM      7  N22 SIA B   4       3.627  -1.001  -1.201  1.00  0.00    -0.191 NA
ATOM      8  H   UNL     1       2.697  -2.724  -0.866  1.00  0.00     0.143 HD
ATOM      9  N06 SIA B   4       3.671   0.106  -0.379  1.00  0.00    -0.226 NA
ATOM     10  H   UNL     1       3.586  -0.677  -2.194  1.00  0.00     0.161 HD
ATOM     11  C05 SIA B   4       2.868  -0.143   0.770  1.00  0.00     0.124 C 
BRANCH   9  12
ATOM     12  C07 SIA B   4       4.977   0.565  -0.073  1.00  0.00     0.077 C 
ATOM     13  C   SIA B   4       5.820  -0.438   0.668  1.00  0.00     0.040 C 
ATOM     14  C08 SIA B   4       5.751   0.850  -1.373  1.00  0.00     0.045 C 
ATOM     15  C15 SIA B   4       7.123   0.252   1.013  1.00  0.00     0.058 C 
ATOM     16  C09 SIA B   4       6.987   1.621  -0.964  1.00  0.00     0.112 C 
ATOM     17  N14 SIA B   4       7.263   1.558   0.431  1.00  0.00    -0.306 NA
ATOM     18  H   UNL     1       6.786   2.320   0.960  1.00  0.00     0.123 HD
BRANCH  15  19
ATOM     19  C16 SIA B   4       8.319  -0.627   0.756  1.00  0.00     0.006 C 
ATOM     20  C17 SIA B   4       9.586  -0.034   1.332  1.00  0.00     0.005 C 
ATOM     21  C21 SIA B   4       8.168  -2.010   1.290  1.00  0.00     0.005 C 
ATOM     22  C18 SIA B   4      10.774  -0.848   0.942  1.00  0.00     0.000 C 
ATOM     23  C20 SIA B   4       9.290  -2.856   0.721  1.00  0.00     0.000 C 
ATOM     24  C19 SIA B   4      10.367  -2.027   0.093  1.00  0.00     0.000 C 
ENDBRANCH  15  19
BRANCH  16  25
ATOM     25  C12 SIA B   4       6.695   3.089  -1.300  1.00  0.00     0.260 C 
BRANCH  25  26
ATOM     26  O   SIA B   4       7.787   3.892  -0.994  1.00  0.00    -0.367 OA
ATOM     27  H   UNL     1       8.516   3.657  -1.630  1.00  0.00     0.213 HD
ENDBRANCH  25  26
BRANCH  25  28
ATOM     28  O13 SIA B   4       5.640   3.516  -0.490  1.00  0.00    -0.367 OA
ATOM     29  H   UNL     1       5.684   4.479  -0.274  1.00  0.00     0.213 HD
ENDBRANCH  25  28
ENDBRANCH  16  25
ENDBRANCH   9  12
ENDBRANCH   4   5
ENDBRANCH   3   4
ENDBRANCH   2   3
ENDBRANCH   1   2
BRANCH   1  30
ATOM     30  O02 SIA B   4      -1.793   2.676   0.302  1.00  0.00    -0.356 OA
ATOM     31  H   UNL     1      -1.287   3.294   0.860  1.00  0.00     0.215 HD
ENDBRANCH   1  30
BRANCH   1  32
ATOM     32  N04 SIA B   4      -2.463   0.561   1.040  1.00  0.00    -0.266 NA
ATOM     33  H   UNL     1      -2.156  -0.432   1.117  1.00  0.00     0.127 HD
BRANCH  32  34
ATOM     34  C9  SIA B   4      -3.565   0.633   0.131  1.00  0.00     0.120 C 
BRANCH  34  35
ATOM     35  C8  SIA B   4      -4.783  -0.126   0.652  1.00  0.00     0.159 C 
BRANCH  35  36
ATOM     36  C7  SIA B   4      -5.953   0.132  -0.279  1.00  0.00     0.175 C 
BRANCH  36  37
ATOM     37  C6  SIA B   4      -7.247  -0.234   0.398  1.00  0.00     0.169 C 
ATOM     38  C5  SIA B   4      -8.447   0.411  -0.234  1.00  0.00     0.116 C 
ATOM     39  O6  SIA B   4      -7.321  -1.590   0.555  1.00  0.00    -0.365 OA
ATOM     40  C4  SIA B   4      -9.578  -0.630  -0.170  1.00  0.00     0.137 C 
ATOM     41  C2  SIA B   4      -7.808  -2.317  -0.495  1.00  0.00     0.177 C 
ATOM     42  C3  SIA B   4      -9.215  -1.917  -0.826  1.00  0.00     0.071 C 
BRANCH  38  43
ATOM     43  N5  SIA B   4      -8.949   1.557   0.464  1.00  0.00    -0.285 NA
ATOM     44  H   UNL     1      -9.833   1.844  -0.009  1.00  0.00     0.125 HD
BRANCH  43  45
ATOM     45  C10 SIA B   4      -8.085   2.686   0.528  1.00  0.00     0.179 C 
ATOM     46  C11 SIA B   4      -8.864   3.775   1.285  1.00  0.00     0.056 C 
BRANCH  45  47
ATOM     47  O10 SIA B   4      -7.793   3.251  -0.711  1.00  0.00    -0.379 OA
ATOM     48  H   UNL     1      -8.218   2.814  -1.465  1.00  0.00     0.212 HD
ENDBRANCH  45  47
ENDBRANCH  43  45
ENDBRANCH  38  43
BRANCH  40  49
ATOM     49  O4  SIA B   4     -10.724  -0.049  -0.692  1.00  0.00    -0.391 OA
ATOM     50  H   UNL     1     -11.262   0.379   0.037  1.00  0.00     0.211 HD
ENDBRANCH  40  49
BRANCH  41  51
ATOM     51  C1  SIA B   4      -7.755  -3.793  -0.144  1.00  0.00     0.273 C 
BRANCH  51  52
ATOM     52  O1A SIA B   4      -8.248  -4.571  -1.199  1.00  0.00    -0.366 OA
ATOM     53  H   UNL     1      -8.540  -5.441  -0.834  1.00  0.00     0.213 HD
ENDBRANCH  51  52
BRANCH  51  54
ATOM     54  O1B SIA B   4      -8.346  -4.089   1.062  1.00  0.00    -0.366 OA
ATOM     55  H   UNL     1      -9.255  -4.428   0.901  1.00  0.00     0.213 HD
ENDBRANCH  51  54
ENDBRANCH  41  51
ENDBRANCH  36  37
BRANCH  36  56
ATOM     56  O7  SIA B   4      -5.787  -0.422  -1.530  1.00  0.00    -0.388 OA
ATOM     57  H   UNL     1      -4.877  -0.752  -1.693  1.00  0.00     0.211 HD
ENDBRANCH  36  56
ENDBRANCH  35  36
BRANCH  35  58
ATOM     58  O8  SIA B   4      -5.110   0.492   1.873  1.00  0.00    -0.389 OA
ATOM     59  H   UNL     1      -4.763   1.417   1.911  1.00  0.00     0.211 HD
ENDBRANCH  35  58
ENDBRANCH  34  35
ENDBRANCH  32  34
ENDBRANCH   1  32
TORSDOF 24
