REMARK SMILES CC(O)N[C@H]1[C@H]([C@H](O)[C@H](O)CNC(O)OCCC2CN(CCNC(O)NCC3CCCO3)NN2)O[C@@H](C(O)O)C[C@@H]1O
REMARK SMILES IDX 16 1 17 2 18 3 34 4 33 5 20 7 19 9 21 10 22 11 23 12 24 14
REMARK SMILES IDX 26 15 27 17 28 18 29 19 32 20 30 21 31 22 25 23 15 25 13 26
REMARK SMILES IDX 14 27 12 29 11 31 9 32 7 33 6 34 5 35 35 36 41 37 36 38
REMARK SMILES IDX 40 39 4 40 2 42 1 43 3 44 42 46 37 48 38 49 39 51 8 53 10 55
REMARK H PARENT 34 6 33 8 23 13 26 16 25 24 14 28 12 30 4 41 3 45 42 47 38 50
REMARK H PARENT 39 52 8 54 10 56
REMARK Flexibility Score: inf
ROOT
ATOM      1  C01 SIA B   4       0.220  -0.753   1.012  1.00  0.00     0.166 C 
ENDROOT
BRANCH   1   2
ATOM      2  C03 SIA B   4       0.878  -1.509  -0.072  1.00  0.00     0.050 C 
BRANCH   2   3
ATOM      3  C04 SIA B   4       2.099  -0.981  -0.689  1.00  0.00     0.088 C 
ATOM      4  N   SIA B   4       2.036   0.351  -1.238  1.00  0.00    -0.240 NA
ATOM      5  N19 SIA B   4       3.346   0.612  -1.528  1.00  0.00    -0.191 NA
ATOM      6  H   UNL     1       1.800   0.980  -0.406  1.00  0.00     0.143 HD
ATOM      7  N06 SIA B   4       4.089   0.178  -0.409  1.00  0.00    -0.228 NA
ATOM      8  H   UNL     1       3.693   0.114  -2.394  1.00  0.00     0.161 HD
ATOM      9  C05 SIA B   4       3.290  -0.863   0.215  1.00  0.00     0.124 C 
BRANCH   7  10
ATOM     10  C07 SIA B   4       5.318  -0.398  -0.884  1.00  0.00     0.119 C 
BRANCH  10  11
ATOM     11  C08 SIA B   4       6.217  -0.817   0.238  1.00  0.00     0.102 C 
BRANCH  11  12
ATOM     12  N09 SIA B   4       7.442  -1.391  -0.315  1.00  0.00    -0.278 NA
ATOM     13  H   UNL     1       7.147  -2.209  -0.907  1.00  0.00     0.126 HD
BRANCH  12  14
ATOM     14  C12 SIA B   4       8.291  -1.833   0.761  1.00  0.00     0.256 C 
BRANCH  14  15
ATOM     15  N14 SIA B   4       9.516  -2.322   0.223  1.00  0.00    -0.277 NA
ATOM     16  H   UNL     1      10.132  -2.681   0.978  1.00  0.00     0.126 HD
BRANCH  15  17
ATOM     17  C15 SIA B   4      10.135  -1.445  -0.688  1.00  0.00     0.116 C 
BRANCH  17  18
ATOM     18  C16 SIA B   4      10.769  -0.221  -0.156  1.00  0.00     0.132 C 
ATOM     19  C17 SIA B   4       9.896   0.807   0.465  1.00  0.00     0.036 C 
ATOM     20  O   SIA B   4      11.334   0.483  -1.255  1.00  0.00    -0.377 OA
ATOM     21  C18 SIA B   4      10.680   2.115   0.241  1.00  0.00     0.031 C 
ATOM     22  C   SIA B   4      11.665   1.731  -0.810  1.00  0.00     0.160 C 
ENDBRANCH  17  18
ENDBRANCH  15  17
ENDBRANCH  14  15
BRANCH  14  23
ATOM     23  O13 SIA B   4       7.626  -2.866   1.488  1.00  0.00    -0.365 OA
ATOM     24  H   UNL     1       7.913  -3.748   1.148  1.00  0.00     0.214 HD
ENDBRANCH  14  23
ENDBRANCH  12  14
ENDBRANCH  11  12
ENDBRANCH  10  11
ENDBRANCH   7  10
ENDBRANCH   2   3
ENDBRANCH   1   2
BRANCH   1  25
ATOM     25  O01 SIA B   4      -0.200   0.522   0.598  1.00  0.00    -0.340 OA
BRANCH  25  26
ATOM     26  C02 SIA B   4      -1.053   0.446  -0.439  1.00  0.00     0.325 C 
BRANCH  26  27
ATOM     27  O02 SIA B   4      -0.798   1.224  -1.564  1.00  0.00    -0.356 OA
ATOM     28  H   UNL     1      -0.570   2.145  -1.358  1.00  0.00     0.215 HD
ENDBRANCH  26  27
BRANCH  26  29
ATOM     29  N04 SIA B   4      -2.409   0.920  -0.008  1.00  0.00    -0.266 NA
ATOM     30  H   UNL     1      -2.359   1.958   0.137  1.00  0.00     0.127 HD
BRANCH  29  31
ATOM     31  C9  SIA B   4      -3.271   0.621  -1.173  1.00  0.00     0.120 C 
BRANCH  31  32
ATOM     32  C8  SIA B   4      -4.699   0.932  -0.792  1.00  0.00     0.159 C 
BRANCH  32  33
ATOM     33  C7  SIA B   4      -4.963   0.055   0.437  1.00  0.00     0.175 C 
BRANCH  33  34
ATOM     34  C6  SIA B   4      -6.391  -0.302   0.567  1.00  0.00     0.169 C 
ATOM     35  C5  SIA B   4      -7.356   0.818   0.436  1.00  0.00     0.116 C 
ATOM     36  O6  SIA B   4      -6.720  -1.154  -0.551  1.00  0.00    -0.365 OA
ATOM     37  C4  SIA B   4      -8.705   0.367   0.946  1.00  0.00     0.137 C 
ATOM     38  C2  SIA B   4      -8.033  -1.535  -0.474  1.00  0.00     0.177 C 
ATOM     39  C3  SIA B   4      -8.745  -1.157   0.796  1.00  0.00     0.071 C 
BRANCH  35  40
ATOM     40  N5  SIA B   4      -7.007   2.086   0.966  1.00  0.00    -0.285 NA
ATOM     41  H   UNL     1      -7.071   2.171   2.003  1.00  0.00     0.125 HD
BRANCH  40  42
ATOM     42  C10 SIA B   4      -7.915   3.124   0.437  1.00  0.00     0.179 C 
ATOM     43  C11 SIA B   4      -7.111   4.394   0.127  1.00  0.00     0.056 C 
BRANCH  42  44
ATOM     44  O10 SIA B   4      -9.014   3.350   1.202  1.00  0.00    -0.379 OA
ATOM     45  H   UNL     1      -9.349   4.271   1.043  1.00  0.00     0.212 HD
ENDBRANCH  42  44
ENDBRANCH  40  42
ENDBRANCH  35  40
BRANCH  37  46
ATOM     46  O4  SIA B   4      -9.776   0.887   0.270  1.00  0.00    -0.391 OA
ATOM     47  H   UNL     1     -10.530   0.947   0.907  1.00  0.00     0.211 HD
ENDBRANCH  37  46
BRANCH  38  48
ATOM     48  C1  SIA B   4      -8.031  -3.062  -0.603  1.00  0.00     0.273 C 
BRANCH  48  49
ATOM     49  O1A SIA B   4      -7.273  -3.657   0.401  1.00  0.00    -0.366 OA
ATOM     50  H   UNL     1      -6.317  -3.380   0.231  1.00  0.00     0.213 HD
ENDBRANCH  48  49
BRANCH  48  51
ATOM     51  O1B SIA B   4      -7.494  -3.457  -1.837  1.00  0.00    -0.366 OA
ATOM     52  H   UNL     1      -7.062  -4.337  -1.726  1.00  0.00     0.213 HD
ENDBRANCH  48  51
ENDBRANCH  38  48
ENDBRANCH  33  34
BRANCH  33  53
ATOM     53  O7  SIA B   4      -4.347   0.708   1.477  1.00  0.00    -0.388 OA
ATOM     54  H   UNL     1      -4.792   1.520   1.764  1.00  0.00     0.211 HD
ENDBRANCH  33  53
ENDBRANCH  32  33
BRANCH  32  55
ATOM     55  O8  SIA B   4      -5.460   0.553  -1.900  1.00  0.00    -0.389 OA
ATOM     56  H   UNL     1      -4.915   0.028  -2.506  1.00  0.00     0.211 HD
ENDBRANCH  32  55
ENDBRANCH  31  32
ENDBRANCH  29  31
ENDBRANCH  26  29
ENDBRANCH  25  26
ENDBRANCH   1  25
TORSDOF 27
