REMARK SMILES CC(O)N[C@H]1[C@H]([C@H](O)[C@H](O)CNC(O)OCCC2CN([C@@H](CC(O)O)C(O)O)NN2)O[C@@H](C(O)O)C[C@@H]1O
REMARK SMILES IDX 13 1 15 2 16 3 17 4 18 5 30 6 29 7 20 9 19 11 21 12 26 13
REMARK SMILES IDX 27 14 28 16 22 18 23 19 24 20 25 22 14 24 12 26 11 28 9 29
REMARK SMILES IDX 7 30 6 31 5 32 31 33 37 34 32 35 36 36 4 37 2 39 1 40 3 41
REMARK SMILES IDX 38 43 33 45 34 46 35 48 8 50 10 52
REMARK H PARENT 30 8 29 10 27 15 28 17 24 21 25 23 14 25 12 27 4 38 3 42 38 44
REMARK H PARENT 34 47 35 49 8 51 10 53
REMARK Flexibility Score: inf
ROOT
ATOM      1  C02 SIA B   4       1.595  -2.338  -1.634  1.00  0.00     0.325 C 
ENDROOT
BRANCH   1   2
ATOM      2  O01 SIA B   4       2.168  -2.032  -2.836  1.00  0.00    -0.340 OA
BRANCH   2   3
ATOM      3  C01 SIA B   4       3.513  -2.139  -2.941  1.00  0.00     0.166 C 
BRANCH   3   4
ATOM      4  C03 SIA B   4       4.386  -1.303  -2.077  1.00  0.00     0.050 C 
BRANCH   4   5
ATOM      5  C04 SIA B   4       4.230   0.158  -2.297  1.00  0.00     0.088 C 
ATOM      6  N   SIA B   4       2.941   0.671  -2.031  1.00  0.00    -0.239 NA
ATOM      7  N16 SIA B   4       2.996   1.403  -0.844  1.00  0.00    -0.191 NA
ATOM      8  H   UNL     1       2.522   1.230  -2.812  1.00  0.00     0.143 HD
ATOM      9  N06 SIA B   4       4.306   1.705  -0.590  1.00  0.00    -0.221 NA
ATOM     10  H   UNL     1       2.462   1.035  -0.056  1.00  0.00     0.161 HD
ATOM     11  C05 SIA B   4       5.162   0.980  -1.423  1.00  0.00     0.124 C 
BRANCH   9  12
ATOM     12  C07 SIA B   4       4.658   1.812   0.814  1.00  0.00     0.135 C 
BRANCH  12  13
ATOM     13  C   SIA B   4       5.936   2.584   0.862  1.00  0.00     0.262 C 
BRANCH  13  14
ATOM     14  O   SIA B   4       6.455   2.857   2.094  1.00  0.00    -0.367 OA
ATOM     15  H   UNL     1       7.447   2.851   2.123  1.00  0.00     0.213 HD
ENDBRANCH  13  14
BRANCH  13  16
ATOM     16  O15 SIA B   4       6.884   2.076  -0.030  1.00  0.00    -0.367 OA
ATOM     17  H   UNL     1       7.623   2.766  -0.054  1.00  0.00     0.213 HD
ENDBRANCH  13  16
ENDBRANCH  12  13
BRANCH  12  18
ATOM     18  C09 SIA B   4       4.627   0.487   1.476  1.00  0.00     0.087 C 
BRANCH  18  19
ATOM     19  C12 SIA B   4       4.965   0.401   2.910  1.00  0.00     0.245 C 
BRANCH  19  20
ATOM     20  O13 SIA B   4       4.811  -0.986   3.250  1.00  0.00    -0.368 OA
ATOM     21  H   UNL     1       5.447  -1.523   2.695  1.00  0.00     0.213 HD
ENDBRANCH  19  20
BRANCH  19  22
ATOM     22  O14 SIA B   4       6.348   0.589   3.153  1.00  0.00    -0.368 OA
ATOM     23  H   UNL     1       6.800   0.042   2.429  1.00  0.00     0.213 HD
ENDBRANCH  19  22
ENDBRANCH  18  19
ENDBRANCH  12  18
ENDBRANCH   9  12
ENDBRANCH   4   5
ENDBRANCH   3   4
ENDBRANCH   2   3
ENDBRANCH   1   2
BRANCH   1  24
ATOM     24  O02 SIA B   4       1.017  -3.651  -1.793  1.00  0.00    -0.356 OA
ATOM     25  H   UNL     1       0.574  -3.896  -0.950  1.00  0.00     0.215 HD
ENDBRANCH   1  24
BRANCH   1  26
ATOM     26  N04 SIA B   4       0.615  -1.432  -1.176  1.00  0.00    -0.266 NA
ATOM     27  H   UNL     1       0.986  -0.648  -0.668  1.00  0.00     0.127 HD
BRANCH  26  28
ATOM     28  C9  SIA B   4      -0.486  -1.165  -2.011  1.00  0.00     0.120 C 
BRANCH  28  29
ATOM     29  C8  SIA B   4      -1.474  -0.155  -1.415  1.00  0.00     0.159 C 
BRANCH  29  30
ATOM     30  C7  SIA B   4      -2.042  -0.751  -0.161  1.00  0.00     0.175 C 
BRANCH  30  31
ATOM     31  C6  SIA B   4      -3.008   0.106   0.600  1.00  0.00     0.169 C 
ATOM     32  C5  SIA B   4      -4.186   0.515  -0.175  1.00  0.00     0.116 C 
ATOM     33  O6  SIA B   4      -3.263  -0.531   1.785  1.00  0.00    -0.365 OA
ATOM     34  C4  SIA B   4      -5.137  -0.639  -0.387  1.00  0.00     0.137 C 
ATOM     35  C2  SIA B   4      -4.318  -1.371   1.850  1.00  0.00     0.177 C 
ATOM     36  C3  SIA B   4      -5.506  -1.098   1.027  1.00  0.00     0.071 C 
BRANCH  32  37
ATOM     37  N5  SIA B   4      -4.962   1.498   0.624  1.00  0.00    -0.285 NA
ATOM     38  H   UNL     1      -5.073   1.220   1.598  1.00  0.00     0.125 HD
BRANCH  37  39
ATOM     39  C10 SIA B   4      -6.112   1.993  -0.047  1.00  0.00     0.179 C 
ATOM     40  C11 SIA B   4      -5.676   2.721  -1.325  1.00  0.00     0.056 C 
BRANCH  39  41
ATOM     41  O10 SIA B   4      -6.622   3.037   0.783  1.00  0.00    -0.379 OA
ATOM     42  H   UNL     1      -7.281   3.556   0.249  1.00  0.00     0.212 HD
ENDBRANCH  39  41
ENDBRANCH  37  39
ENDBRANCH  32  37
BRANCH  34  43
ATOM     43  O4  SIA B   4      -4.592  -1.735  -1.010  1.00  0.00    -0.391 OA
ATOM     44  H   UNL     1      -4.714  -2.585  -0.525  1.00  0.00     0.211 HD
ENDBRANCH  34  43
BRANCH  35  45
ATOM     45  C1  SIA B   4      -4.729  -1.540   3.298  1.00  0.00     0.273 C 
BRANCH  45  46
ATOM     46  O1A SIA B   4      -5.825  -2.391   3.455  1.00  0.00    -0.366 OA
ATOM     47  H   UNL     1      -6.680  -1.888   3.473  1.00  0.00     0.213 HD
ENDBRANCH  45  46
BRANCH  45  48
ATOM     48  O1B SIA B   4      -5.060  -0.324   3.882  1.00  0.00    -0.366 OA
ATOM     49  H   UNL     1      -5.928   0.046   3.570  1.00  0.00     0.213 HD
ENDBRANCH  45  48
ENDBRANCH  35  45
ENDBRANCH  30  31
BRANCH  30  50
ATOM     50  O7  SIA B   4      -0.868  -0.907   0.680  1.00  0.00    -0.388 OA
ATOM     51  H   UNL     1      -1.164  -1.411   1.501  1.00  0.00     0.211 HD
ENDBRANCH  30  50
ENDBRANCH  29  30
BRANCH  29  52
ATOM     52  O8  SIA B   4      -2.470  -0.005  -2.358  1.00  0.00    -0.389 OA
ATOM     53  H   UNL     1      -2.240   0.610  -3.095  1.00  0.00     0.211 HD
ENDBRANCH  29  52
ENDBRANCH  28  29
ENDBRANCH  26  28
ENDBRANCH   1  26
TORSDOF 27
