REMARK SMILES CC(O)N[C@H]1[C@H]([C@H](O)[C@H](O)CNC(O)OCCC2CN([C@@H](C)C(O)O)NN2)O[C@@H](C(O)O)C[C@@H]1O
REMARK SMILES IDX 13 1 15 2 16 3 17 4 18 5 27 6 26 7 20 9 19 11 21 12 22 13
REMARK SMILES IDX 23 14 24 15 25 17 14 19 12 21 11 23 9 24 7 25 6 26 5 27
REMARK SMILES IDX 28 28 34 29 29 30 33 31 4 32 2 34 1 35 3 36 35 38 30 40
REMARK SMILES IDX 31 41 32 43 8 45 10 47
REMARK H PARENT 27 8 26 10 24 16 25 18 14 20 12 22 4 33 3 37 35 39 31 42 32 44
REMARK H PARENT 8 46 10 48
REMARK Flexibility Score: inf
ROOT
ATOM      1  C02 SIA B   4       1.413  -0.267   0.634  1.00  0.00     0.325 C 
ENDROOT
BRANCH   1   2
ATOM      2  O01 SIA B   4       2.574  -0.532   1.360  1.00  0.00    -0.340 OA
BRANCH   2   3
ATOM      3  C01 SIA B   4       3.745  -0.392   0.633  1.00  0.00     0.166 C 
BRANCH   3   4
ATOM      4  C03 SIA B   4       3.832  -1.335  -0.515  1.00  0.00     0.050 C 
BRANCH   4   5
ATOM      5  C04 SIA B   4       5.112  -1.187  -1.304  1.00  0.00     0.088 C 
ATOM      6  N   SIA B   4       5.279   0.118  -1.871  1.00  0.00    -0.239 NA
ATOM      7  N12 SIA B   4       6.156   0.826  -1.089  1.00  0.00    -0.191 NA
ATOM      8  H   UNL     1       5.650   0.065  -2.856  1.00  0.00     0.143 HD
ATOM      9  N06 SIA B   4       6.748  -0.005  -0.149  1.00  0.00    -0.221 NA
ATOM     10  H   UNL     1       5.698   1.655  -0.702  1.00  0.00     0.161 HD
ATOM     11  C05 SIA B   4       6.340  -1.344  -0.438  1.00  0.00     0.124 C 
BRANCH   9  12
ATOM     12  C07 SIA B   4       8.182   0.155  -0.135  1.00  0.00     0.127 C 
ATOM     13  C09 SIA B   4       8.602   1.594  -0.034  1.00  0.00     0.032 C 
BRANCH  12  14
ATOM     14  C   SIA B   4       8.757  -0.682   0.963  1.00  0.00     0.262 C 
BRANCH  14  15
ATOM     15  O   SIA B   4      10.145  -0.545   1.005  1.00  0.00    -0.367 OA
ATOM     16  H   UNL     1      10.598  -1.086   0.293  1.00  0.00     0.213 HD
ENDBRANCH  14  15
BRANCH  14  17
ATOM     17  O11 SIA B   4       8.476  -2.025   0.803  1.00  0.00    -0.367 OA
ATOM     18  H   UNL     1       8.696  -2.539   1.614  1.00  0.00     0.213 HD
ENDBRANCH  14  17
ENDBRANCH  12  14
ENDBRANCH   9  12
ENDBRANCH   4   5
ENDBRANCH   3   4
ENDBRANCH   2   3
ENDBRANCH   1   2
BRANCH   1  19
ATOM     19  O02 SIA B   4       0.591  -1.395   0.611  1.00  0.00    -0.356 OA
ATOM     20  H   UNL     1       0.948  -2.126   1.206  1.00  0.00     0.215 HD
ENDBRANCH   1  19
BRANCH   1  21
ATOM     21  N04 SIA B   4       0.751   0.835   1.294  1.00  0.00    -0.266 NA
ATOM     22  H   UNL     1       0.558   0.664   2.301  1.00  0.00     0.127 HD
BRANCH  21  23
ATOM     23  C9  SIA B   4      -0.432   1.315   0.652  1.00  0.00     0.120 C 
BRANCH  23  24
ATOM     24  C8  SIA B   4      -1.615   0.398   0.682  1.00  0.00     0.159 C 
BRANCH  24  25
ATOM     25  C7  SIA B   4      -2.829   1.085   0.028  1.00  0.00     0.175 C 
BRANCH  25  26
ATOM     26  C6  SIA B   4      -4.027   0.244   0.293  1.00  0.00     0.169 C 
ATOM     27  C5  SIA B   4      -5.307   0.889  -0.257  1.00  0.00     0.116 C 
ATOM     28  O6  SIA B   4      -3.893  -0.995  -0.268  1.00  0.00    -0.365 OA
ATOM     29  C4  SIA B   4      -6.455   0.204   0.428  1.00  0.00     0.137 C 
ATOM     30  C2  SIA B   4      -5.104  -1.672  -0.399  1.00  0.00     0.177 C 
ATOM     31  C3  SIA B   4      -6.033  -1.236   0.710  1.00  0.00     0.071 C 
BRANCH  27  32
ATOM     32  N5  SIA B   4      -5.236   2.286  -0.203  1.00  0.00    -0.285 NA
ATOM     33  H   UNL     1      -4.856   2.646   0.707  1.00  0.00     0.125 HD
BRANCH  32  34
ATOM     34  C10 SIA B   4      -6.208   3.115  -0.788  1.00  0.00     0.179 C 
ATOM     35  C11 SIA B   4      -7.594   3.091  -0.227  1.00  0.00     0.056 C 
BRANCH  34  36
ATOM     36  O10 SIA B   4      -6.351   2.873  -2.175  1.00  0.00    -0.379 OA
ATOM     37  H   UNL     1      -6.834   2.005  -2.257  1.00  0.00     0.212 HD
ENDBRANCH  34  36
ENDBRANCH  32  34
ENDBRANCH  27  32
BRANCH  29  38
ATOM     38  O4  SIA B   4      -7.636   0.207  -0.319  1.00  0.00    -0.391 OA
ATOM     39  H   UNL     1      -8.374   0.075   0.328  1.00  0.00     0.211 HD
ENDBRANCH  29  38
BRANCH  30  40
ATOM     40  C1  SIA B   4      -4.815  -3.151  -0.284  1.00  0.00     0.273 C 
BRANCH  40  41
ATOM     41  O1A SIA B   4      -6.059  -3.804  -0.421  1.00  0.00    -0.366 OA
ATOM     42  H   UNL     1      -6.481  -3.574  -1.294  1.00  0.00     0.213 HD
ENDBRANCH  40  41
BRANCH  40  43
ATOM     43  O1B SIA B   4      -4.252  -3.507   0.916  1.00  0.00    -0.366 OA
ATOM     44  H   UNL     1      -3.954  -4.432   0.880  1.00  0.00     0.213 HD
ENDBRANCH  40  43
ENDBRANCH  30  40
ENDBRANCH  25  26
BRANCH  25  45
ATOM     45  O7  SIA B   4      -2.595   1.284  -1.322  1.00  0.00    -0.388 OA
ATOM     46  H   UNL     1      -2.575   0.448  -1.844  1.00  0.00     0.211 HD
ENDBRANCH  25  45
ENDBRANCH  24  25
BRANCH  24  47
ATOM     47  O8  SIA B   4      -1.904   0.188   2.053  1.00  0.00    -0.389 OA
ATOM     48  H   UNL     1      -2.370   1.012   2.379  1.00  0.00     0.211 HD
ENDBRANCH  24  47
ENDBRANCH  23  24
ENDBRANCH  21  23
ENDBRANCH   1  21
TORSDOF 23
