REMARK SMILES COC[C@@H]([C@H](N)O)N1CC(CCOC(O)NC[C@@H](O)[C@@H](O)[C@@H]2O[C@@H](C(O)O)C[C@H](O)[C@H]2NC(C)O)NN1
REMARK SMILES IDX 14 1 13 2 12 3 11 4 10 5 36 6 37 7 8 9 9 11 4 12 5 13 6 14
REMARK SMILES IDX 7 17 3 19 2 20 1 21 15 22 16 24 17 26 18 27 20 28 22 29
REMARK SMILES IDX 31 30 23 31 29 32 24 33 28 34 32 35 33 37 34 38 35 39 30 41
REMARK SMILES IDX 25 43 26 44 27 46 21 48 19 50
REMARK H PARENT 36 8 37 10 6 15 6 16 7 18 15 23 16 25 32 36 35 40 30 42 26 45
REMARK H PARENT 27 47 21 49 19 51
REMARK Flexibility Score: inf
ROOT
ATOM      1  C02 SIA B   4       0.901   1.426   1.059  1.00  0.00     0.325 C 
ENDROOT
BRANCH   1   2
ATOM      2  O01 SIA B   4       2.039   2.239   0.825  1.00  0.00    -0.340 OA
BRANCH   2   3
ATOM      3  C01 SIA B   4       3.158   1.457   1.196  1.00  0.00     0.166 C 
BRANCH   3   4
ATOM      4  C03 SIA B   4       3.298   0.219   0.383  1.00  0.00     0.050 C 
BRANCH   4   5
ATOM      5  C04 SIA B   4       4.465  -0.607   0.810  1.00  0.00     0.088 C 
ATOM      6  N   SIA B   4       4.563  -1.844   0.031  1.00  0.00    -0.239 NA
ATOM      7  N14 SIA B   4       4.993  -1.392  -1.199  1.00  0.00    -0.191 NA
ATOM      8  H   UNL     1       3.667  -2.336  -0.045  1.00  0.00     0.143 HD
ATOM      9  N06 SIA B   4       5.979  -0.413  -0.940  1.00  0.00    -0.220 NA
ATOM     10  H   UNL     1       4.209  -1.056  -1.764  1.00  0.00     0.161 HD
ATOM     11  C05 SIA B   4       5.763   0.053   0.367  1.00  0.00     0.125 C 
BRANCH   9  12
ATOM     12  C07 SIA B   4       7.240  -0.856  -1.365  1.00  0.00     0.143 C 
BRANCH  12  13
ATOM     13  C   SIA B   4       7.679  -2.107  -0.688  1.00  0.00     0.200 C 
BRANCH  13  14
ATOM     14  N13 SIA B   4       7.884  -1.993   0.733  1.00  0.00    -0.305 NA
ATOM     15  H   UNL     1       7.784  -2.930   1.186  1.00  0.00     0.121 HD
ATOM     16  H   UNL     1       8.890  -1.712   0.866  1.00  0.00     0.121 HD
ENDBRANCH  13  14
BRANCH  13  17
ATOM     17  O   SIA B   4       8.935  -2.484  -1.238  1.00  0.00    -0.377 OA
ATOM     18  H   UNL     1       9.239  -3.247  -0.662  1.00  0.00     0.212 HD
ENDBRANCH  13  17
ENDBRANCH  12  13
BRANCH  12  19
ATOM     19  C08 SIA B   4       8.284   0.237  -1.226  1.00  0.00     0.184 C 
BRANCH  19  20
ATOM     20  O09 SIA B   4       8.435   0.665   0.081  1.00  0.00    -0.383 OA
ATOM     21  C12 SIA B   4       9.418   1.654   0.155  1.00  0.00     0.194 C 
ENDBRANCH  19  20
ENDBRANCH  12  19
ENDBRANCH   9  12
ENDBRANCH   4   5
ENDBRANCH   3   4
ENDBRANCH   2   3
ENDBRANCH   1   2
BRANCH   1  22
ATOM     22  O02 SIA B   4       0.071   2.217   1.874  1.00  0.00    -0.356 OA
ATOM     23  H   UNL     1       0.279   2.000   2.844  1.00  0.00     0.215 HD
ENDBRANCH   1  22
BRANCH   1  24
ATOM     24  N04 SIA B   4       0.222   1.167  -0.165  1.00  0.00    -0.266 NA
ATOM     25  H   UNL     1       0.013   1.983  -0.746  1.00  0.00     0.127 HD
BRANCH  24  26
ATOM     26  C9  SIA B   4      -0.671   0.083  -0.133  1.00  0.00     0.120 C 
BRANCH  26  27
ATOM     27  C8  SIA B   4      -1.917   0.221   0.634  1.00  0.00     0.159 C 
BRANCH  27  28
ATOM     28  C7  SIA B   4      -3.074   0.921  -0.071  1.00  0.00     0.175 C 
BRANCH  28  29
ATOM     29  C6  SIA B   4      -4.424   0.282   0.361  1.00  0.00     0.169 C 
ATOM     30  C5  SIA B   4      -5.531   1.120  -0.121  1.00  0.00     0.116 C 
ATOM     31  O6  SIA B   4      -4.354  -1.022   0.106  1.00  0.00    -0.365 OA
ATOM     32  C4  SIA B   4      -6.086   0.603  -1.401  1.00  0.00     0.137 C 
ATOM     33  C2  SIA B   4      -5.182  -1.656  -0.736  1.00  0.00     0.177 C 
ATOM     34  C3  SIA B   4      -6.340  -0.845  -1.270  1.00  0.00     0.071 C 
BRANCH  30  35
ATOM     35  N5  SIA B   4      -6.509   1.189   0.942  1.00  0.00    -0.285 NA
ATOM     36  H   UNL     1      -6.028   1.442   1.814  1.00  0.00     0.125 HD
BRANCH  35  37
ATOM     37  C10 SIA B   4      -7.644   2.008   0.727  1.00  0.00     0.179 C 
ATOM     38  C11 SIA B   4      -8.880   1.124   0.975  1.00  0.00     0.056 C 
BRANCH  37  39
ATOM     39  O10 SIA B   4      -7.744   3.093   1.583  1.00  0.00    -0.379 OA
ATOM     40  H   UNL     1      -8.300   3.819   1.202  1.00  0.00     0.212 HD
ENDBRANCH  37  39
ENDBRANCH  35  37
ENDBRANCH  30  35
BRANCH  32  41
ATOM     41  O4  SIA B   4      -5.219   0.928  -2.439  1.00  0.00    -0.391 OA
ATOM     42  H   UNL     1      -5.573   0.684  -3.318  1.00  0.00     0.211 HD
ENDBRANCH  32  41
BRANCH  33  43
ATOM     43  C1  SIA B   4      -5.708  -2.999  -0.197  1.00  0.00     0.273 C 
BRANCH  43  44
ATOM     44  O1A SIA B   4      -6.521  -3.518  -1.202  1.00  0.00    -0.366 OA
ATOM     45  H   UNL     1      -7.297  -3.978  -0.772  1.00  0.00     0.213 HD
ENDBRANCH  43  44
BRANCH  43  46
ATOM     46  O1B SIA B   4      -6.388  -2.831   0.990  1.00  0.00    -0.366 OA
ATOM     47  H   UNL     1      -7.345  -2.639   0.711  1.00  0.00     0.213 HD
ENDBRANCH  43  46
ENDBRANCH  33  43
ENDBRANCH  28  29
BRANCH  28  48
ATOM     48  O7  SIA B   4      -2.918   0.620  -1.446  1.00  0.00    -0.388 OA
ATOM     49  H   UNL     1      -2.889  -0.350  -1.590  1.00  0.00     0.211 HD
ENDBRANCH  28  48
ENDBRANCH  27  28
BRANCH  27  50
ATOM     50  O8  SIA B   4      -1.827   0.495   1.967  1.00  0.00    -0.389 OA
ATOM     51  H   UNL     1      -2.431   1.262   2.201  1.00  0.00     0.211 HD
ENDBRANCH  27  50
ENDBRANCH  26  27
ENDBRANCH  24  26
ENDBRANCH   1  24
TORSDOF 25
