REMARK SMILES CC(O)N[C@H]1[C@H]([C@H](O)[C@H](O)CNC(O)OCCC2CN(C[C@@H](C(O)O)C(C3CCCCC3)C3CCCCC3)NN2)O[C@@H](C(O)O)C[C@@H]1O
REMARK SMILES IDX 13 1 15 2 16 3 17 4 18 5 40 6 39 7 20 9 19 11 21 12 22 13
REMARK SMILES IDX 23 14 24 15 25 17 26 19 27 20 28 21 32 22 29 23 31 24 30 25
REMARK SMILES IDX 33 26 38 27 34 28 37 29 35 30 36 31 14 32 12 34 11 36 9 37
REMARK SMILES IDX 7 38 6 39 5 40 41 41 47 42 42 43 46 44 4 45 2 47 1 48 3 49
REMARK SMILES IDX 48 51 43 53 44 54 45 56 8 58 10 60
REMARK H PARENT 40 8 39 10 24 16 25 18 14 33 12 35 4 46 3 50 48 52 44 55 45 57
REMARK H PARENT 8 59 10 61
REMARK Flexibility Score: inf
ROOT
ATOM      1  C02 SIA B   4       2.689   0.191  -0.133  1.00  0.00     0.325 C 
ENDROOT
BRANCH   1   2
ATOM      2  O01 SIA B   4       1.816   0.465  -1.178  1.00  0.00    -0.340 OA
BRANCH   2   3
ATOM      3  C01 SIA B   4       0.481   0.201  -0.868  1.00  0.00     0.166 C 
BRANCH   3   4
ATOM      4  C03 SIA B   4      -0.423   0.517  -2.033  1.00  0.00     0.050 C 
BRANCH   4   5
ATOM      5  C04 SIA B   4      -1.838   0.188  -1.712  1.00  0.00     0.088 C 
ATOM      6  N   SIA B   4      -2.677   0.507  -2.863  1.00  0.00    -0.240 NA
ATOM      7  N26 SIA B   4      -3.839   1.085  -2.383  1.00  0.00    -0.191 NA
ATOM      8  H   UNL     1      -2.916  -0.314  -3.438  1.00  0.00     0.143 HD
ATOM      9  N06 SIA B   4      -3.703   1.279  -0.996  1.00  0.00    -0.229 NA
ATOM     10  H   UNL     1      -3.992   2.032  -2.801  1.00  0.00     0.161 HD
ATOM     11  C05 SIA B   4      -2.394   1.104  -0.633  1.00  0.00     0.124 C 
BRANCH   9  12
ATOM     12  C07 SIA B   4      -4.880   1.229  -0.277  1.00  0.00     0.113 C 
BRANCH  12  13
ATOM     13  C08 SIA B   4      -5.520  -0.042   0.213  1.00  0.00     0.064 C 
BRANCH  13  14
ATOM     14  C12 SIA B   4      -4.701  -0.753   1.192  1.00  0.00     0.248 C 
BRANCH  14  15
ATOM     15  O   SIA B   4      -3.496  -1.238   0.648  1.00  0.00    -0.368 OA
ATOM     16  H   UNL     1      -2.970  -1.556   1.447  1.00  0.00     0.213 HD
ENDBRANCH  14  15
BRANCH  14  17
ATOM     17  O13 SIA B   4      -5.137  -1.657   2.073  1.00  0.00    -0.368 OA
ATOM     18  H   UNL     1      -4.483  -2.373   2.230  1.00  0.00     0.213 HD
ENDBRANCH  14  17
ENDBRANCH  13  14
BRANCH  13  19
ATOM     19  C14 SIA B   4      -7.022  -0.060   0.224  1.00  0.00     0.005 C 
BRANCH  19  20
ATOM     20  C15 SIA B   4      -7.405  -1.492   0.544  1.00  0.00    -0.007 C 
ATOM     21  C16 SIA B   4      -6.797  -2.410  -0.563  1.00  0.00     0.004 C 
ATOM     22  C20 SIA B   4      -8.805  -1.900   0.767  1.00  0.00     0.004 C 
ATOM     23  C17 SIA B   4      -7.497  -3.747  -0.501  1.00  0.00     0.000 C 
ATOM     24  C19 SIA B   4      -9.537  -2.350  -0.496  1.00  0.00     0.000 C 
ATOM     25  C18 SIA B   4      -8.930  -3.670  -0.924  1.00  0.00     0.000 C 
ENDBRANCH  19  20
BRANCH  19  26
ATOM     26  C21 SIA B   4      -7.698   0.914   1.155  1.00  0.00    -0.007 C 
ATOM     27  C   SIA B   4      -7.312   2.347   0.993  1.00  0.00     0.004 C 
ATOM     28  C22 SIA B   4      -9.199   0.974   0.844  1.00  0.00     0.004 C 
ATOM     29  C25 SIA B   4      -8.179   3.091   2.075  1.00  0.00     0.000 C 
ATOM     30  C23 SIA B   4      -9.667   2.358   0.344  1.00  0.00     0.000 C 
ATOM     31  C24 SIA B   4      -9.481   3.419   1.375  1.00  0.00     0.000 C 
ENDBRANCH  19  26
ENDBRANCH  13  19
ENDBRANCH  12  13
ENDBRANCH   9  12
ENDBRANCH   4   5
ENDBRANCH   3   4
ENDBRANCH   2   3
ENDBRANCH   1   2
BRANCH   1  32
ATOM     32  O02 SIA B   4       3.476   1.295   0.091  1.00  0.00    -0.356 OA
ATOM     33  H   UNL     1       3.046   2.151  -0.127  1.00  0.00     0.215 HD
ENDBRANCH   1  32
BRANCH   1  34
ATOM     34  N04 SIA B   4       3.531  -0.947  -0.433  1.00  0.00    -0.266 NA
ATOM     35  H   UNL     1       3.887  -0.960  -1.392  1.00  0.00     0.127 HD
BRANCH  34  36
ATOM     36  C9  SIA B   4       4.483  -1.302   0.548  1.00  0.00     0.120 C 
BRANCH  36  37
ATOM     37  C8  SIA B   4       5.649  -0.390   0.739  1.00  0.00     0.159 C 
BRANCH  37  38
ATOM     38  C7  SIA B   4       6.586  -0.458  -0.474  1.00  0.00     0.175 C 
BRANCH  38  39
ATOM     39  C6  SIA B   4       7.934   0.094  -0.108  1.00  0.00     0.169 C 
ATOM     40  C5  SIA B   4       9.006  -0.373  -1.070  1.00  0.00     0.116 C 
ATOM     41  O6  SIA B   4       7.863   1.448   0.058  1.00  0.00    -0.365 OA
ATOM     42  C4  SIA B   4       9.531   0.825  -1.826  1.00  0.00     0.137 C 
ATOM     43  C2  SIA B   4       9.047   2.120   0.195  1.00  0.00     0.177 C 
ATOM     44  C3  SIA B   4      10.131   1.746  -0.762  1.00  0.00     0.071 C 
BRANCH  40  45
ATOM     45  N5  SIA B   4      10.114  -0.984  -0.369  1.00  0.00    -0.285 NA
ATOM     46  H   UNL     1       9.783  -1.685   0.321  1.00  0.00     0.125 HD
BRANCH  45  47
ATOM     47  C10 SIA B   4      11.134  -1.498  -1.224  1.00  0.00     0.179 C 
ATOM     48  C11 SIA B   4      10.557  -2.609  -2.093  1.00  0.00     0.056 C 
BRANCH  47  49
ATOM     49  O10 SIA B   4      12.101  -2.109  -0.405  1.00  0.00    -0.379 OA
ATOM     50  H   UNL     1      12.604  -2.804  -0.887  1.00  0.00     0.212 HD
ENDBRANCH  47  49
ENDBRANCH  45  47
ENDBRANCH  40  45
BRANCH  42  51
ATOM     51  O4  SIA B   4       8.499   1.541  -2.434  1.00  0.00    -0.391 OA
ATOM     52  H   UNL     1       8.915   2.248  -2.968  1.00  0.00     0.211 HD
ENDBRANCH  42  51
BRANCH  43  53
ATOM     53  C1  SIA B   4       9.597   2.145   1.607  1.00  0.00     0.273 C 
BRANCH  53  54
ATOM     54  O1A SIA B   4      10.800   2.860   1.564  1.00  0.00    -0.366 OA
ATOM     55  H   UNL     1      10.632   3.648   0.974  1.00  0.00     0.213 HD
ENDBRANCH  53  54
BRANCH  53  56
ATOM     56  O1B SIA B   4       9.856   0.902   2.130  1.00  0.00    -0.366 OA
ATOM     57  H   UNL     1      10.799   0.598   2.041  1.00  0.00     0.213 HD
ENDBRANCH  53  56
ENDBRANCH  43  53
ENDBRANCH  38  39
BRANCH  38  58
ATOM     58  O7  SIA B   4       6.042   0.060  -1.617  1.00  0.00    -0.388 OA
ATOM     59  H   UNL     1       5.646   0.943  -1.558  1.00  0.00     0.211 HD
ENDBRANCH  38  58
ENDBRANCH  37  38
BRANCH  37  60
ATOM     60  O8  SIA B   4       6.424  -0.968   1.782  1.00  0.00    -0.389 OA
ATOM     61  H   UNL     1       6.025  -1.781   2.132  1.00  0.00     0.211 HD
ENDBRANCH  37  60
ENDBRANCH  36  37
ENDBRANCH  34  36
ENDBRANCH   1  34
TORSDOF 27
