REMARK SMILES CC(O)N[C@H]1[C@H]([C@H](O)[C@H](O)CNC(O)OCCC2CN(CCCCCCCCCCC(O)O)NN2)O[C@@H](C(O)O)C[C@@H]1O
REMARK SMILES IDX 35 1 20 2 34 3 18 4 19 5 17 8 16 9 15 10 13 11 14 12 12 14
REMARK SMILES IDX 11 16 9 17 7 18 6 19 5 20 36 21 42 22 37 23 41 24 4 25 2 27
REMARK SMILES IDX 1 28 3 29 43 31 38 33 39 34 40 36 8 38 10 40 21 42 22 43
REMARK SMILES IDX 23 44 24 45 25 46 26 47 27 48 28 49 29 50 30 51 31 52 32 53
REMARK SMILES IDX 33 55
REMARK H PARENT 35 6 34 7 14 13 12 15 4 26 3 30 43 32 39 35 40 37 8 39 10 41
REMARK H PARENT 32 54 33 56
REMARK Flexibility Score: inf
ROOT
ATOM      1  N   SIA B   4       0.678  -0.043  -0.841  1.00  0.00    -0.240 NA
ATOM      2  N06 SIA B   4       2.835  -0.281  -0.370  1.00  0.00    -0.229 NA
ATOM      3  N20 SIA B   4       1.885   0.623  -0.699  1.00  0.00    -0.191 NA
ATOM      4  C04 SIA B   4       0.780  -1.309  -0.223  1.00  0.00     0.088 C 
ATOM      5  C05 SIA B   4       2.296  -1.580  -0.208  1.00  0.00     0.124 C 
ATOM      6  H   UNL     1       0.415  -0.160  -1.865  1.00  0.00     0.143 HD
ATOM      7  H   UNL     1       2.115   1.070  -1.618  1.00  0.00     0.161 HD
ENDROOT
BRANCH   4   8
ATOM      8  C03 SIA B   4       0.188  -1.508   1.116  1.00  0.00     0.050 C 
BRANCH   8   9
ATOM      9  C01 SIA B   4      -1.261  -1.385   1.263  1.00  0.00     0.166 C 
BRANCH   9  10
ATOM     10  O01 SIA B   4      -1.925  -0.309   0.977  1.00  0.00    -0.340 OA
BRANCH  10  11
ATOM     11  C02 SIA B   4      -2.217   0.236  -0.211  1.00  0.00     0.325 C 
BRANCH  11  12
ATOM     12  O02 SIA B   4      -1.842   1.573  -0.252  1.00  0.00    -0.356 OA
ATOM     13  H   UNL     1      -2.388   2.026   0.467  1.00  0.00     0.215 HD
ENDBRANCH  11  12
BRANCH  11  14
ATOM     14  N04 SIA B   4      -3.702   0.236  -0.414  1.00  0.00    -0.266 NA
ATOM     15  H   UNL     1      -4.096  -0.695  -0.251  1.00  0.00     0.127 HD
BRANCH  14  16
ATOM     16  C9  SIA B   4      -4.063   0.841  -1.661  1.00  0.00     0.120 C 
BRANCH  16  17
ATOM     17  C8  SIA B   4      -5.588   0.641  -1.777  1.00  0.00     0.159 C 
BRANCH  17  18
ATOM     18  C7  SIA B   4      -6.239   1.290  -0.558  1.00  0.00     0.175 C 
BRANCH  18  19
ATOM     19  C6  SIA B   4      -7.746   1.084  -0.611  1.00  0.00     0.169 C 
ATOM     20  C5  SIA B   4      -8.100  -0.376  -0.440  1.00  0.00     0.116 C 
ATOM     21  O6  SIA B   4      -8.358   1.837   0.368  1.00  0.00    -0.365 OA
ATOM     22  C4  SIA B   4      -9.194  -0.495   0.599  1.00  0.00     0.137 C 
ATOM     23  C2  SIA B   4      -8.166   1.423   1.658  1.00  0.00     0.177 C 
ATOM     24  C3  SIA B   4      -8.548  -0.027   1.911  1.00  0.00     0.071 C 
BRANCH  20  25
ATOM     25  N5  SIA B   4      -8.372  -1.081  -1.642  1.00  0.00    -0.285 NA
ATOM     26  H   UNL     1      -8.414  -2.086  -1.447  1.00  0.00     0.125 HD
BRANCH  25  27
ATOM     27  C10 SIA B   4      -9.510  -0.668  -2.388  1.00  0.00     0.179 C 
ATOM     28  C11 SIA B   4      -9.582  -1.586  -3.617  1.00  0.00     0.056 C 
BRANCH  27  29
ATOM     29  O10 SIA B   4     -10.713  -0.835  -1.718  1.00  0.00    -0.379 OA
ATOM     30  H   UNL     1     -11.017  -1.768  -1.667  1.00  0.00     0.212 HD
ENDBRANCH  27  29
ENDBRANCH  25  27
ENDBRANCH  20  25
BRANCH  22  31
ATOM     31  O4  SIA B   4      -9.576  -1.809   0.767  1.00  0.00    -0.391 OA
ATOM     32  H   UNL     1      -9.641  -2.086   1.715  1.00  0.00     0.211 HD
ENDBRANCH  22  31
BRANCH  23  33
ATOM     33  C1  SIA B   4      -9.127   2.251   2.523  1.00  0.00     0.273 C 
BRANCH  33  34
ATOM     34  O1A SIA B   4      -8.875   3.606   2.421  1.00  0.00    -0.366 OA
ATOM     35  H   UNL     1      -9.560   4.078   1.866  1.00  0.00     0.213 HD
ENDBRANCH  33  34
BRANCH  33  36
ATOM     36  O1B SIA B   4      -9.096   1.868   3.844  1.00  0.00    -0.366 OA
ATOM     37  H   UNL     1      -8.567   2.463   4.429  1.00  0.00     0.213 HD
ENDBRANCH  33  36
ENDBRANCH  23  33
ENDBRANCH  18  19
BRANCH  18  38
ATOM     38  O7  SIA B   4      -6.019   2.675  -0.743  1.00  0.00    -0.388 OA
ATOM     39  H   UNL     1      -5.285   3.011  -0.166  1.00  0.00     0.211 HD
ENDBRANCH  18  38
ENDBRANCH  17  18
BRANCH  17  40
ATOM     40  O8  SIA B   4      -5.744  -0.750  -1.758  1.00  0.00    -0.389 OA
ATOM     41  H   UNL     1      -5.117  -1.176  -2.384  1.00  0.00     0.211 HD
ENDBRANCH  17  40
ENDBRANCH  16  17
ENDBRANCH  14  16
ENDBRANCH  11  14
ENDBRANCH  10  11
ENDBRANCH   9  10
ENDBRANCH   8   9
ENDBRANCH   4   8
BRANCH   2  42
ATOM     42  C07 SIA B   4       4.050  -0.261  -1.163  1.00  0.00     0.104 C 
BRANCH  42  43
ATOM     43  C08 SIA B   4       5.186  -0.956  -0.437  1.00  0.00     0.017 C 
BRANCH  43  44
ATOM     44  C09 SIA B   4       5.496  -0.274   0.876  1.00  0.00     0.001 C 
BRANCH  44  45
ATOM     45  C12 SIA B   4       6.567  -0.922   1.667  1.00  0.00     0.000 C 
BRANCH  45  46
ATOM     46  C13 SIA B   4       7.903  -1.051   1.052  1.00  0.00     0.000 C 
BRANCH  46  47
ATOM     47  C14 SIA B   4       8.583   0.219   0.651  1.00  0.00     0.000 C 
BRANCH  47  48
ATOM     48  C15 SIA B   4       9.956  -0.092   0.055  1.00  0.00     0.000 C 
BRANCH  48  49
ATOM     49  C16 SIA B   4      10.637   1.197  -0.350  1.00  0.00     0.000 C 
BRANCH  49  50
ATOM     50  C17 SIA B   4      12.009   0.938  -0.932  1.00  0.00     0.005 C 
BRANCH  50  51
ATOM     51  C18 SIA B   4      12.912   0.244   0.065  1.00  0.00     0.062 C 
BRANCH  51  52
ATOM     52  C   SIA B   4      13.099   1.078   1.314  1.00  0.00     0.243 C 
BRANCH  52  53
ATOM     53  O   SIA B   4      13.932   0.425   2.218  1.00  0.00    -0.368 OA
ATOM     54  H   UNL     1      13.434  -0.161   2.835  1.00  0.00     0.213 HD
ENDBRANCH  52  53
BRANCH  52  55
ATOM     55  O19 SIA B   4      13.634   2.321   1.063  1.00  0.00    -0.368 OA
ATOM     56  H   UNL     1      14.164   2.269   0.230  1.00  0.00     0.213 HD
ENDBRANCH  52  55
ENDBRANCH  51  52
ENDBRANCH  50  51
ENDBRANCH  49  50
ENDBRANCH  48  49
ENDBRANCH  47  48
ENDBRANCH  46  47
ENDBRANCH  45  46
ENDBRANCH  44  45
ENDBRANCH  43  44
ENDBRANCH  42  43
ENDBRANCH   2  42
TORSDOF 32
