REMARK SMILES CC(O)N[C@H]1[C@H]([C@H](O)[C@H](O)CNC(O)OCCC2CN(C(C)(C)CO)NN2)O[C@@H](C(O)O)C[C@@H]1O
REMARK SMILES IDX 13 1 15 2 16 3 17 4 18 5 27 6 26 7 20 9 19 11 21 12 22 13
REMARK SMILES IDX 23 14 24 15 25 16 14 18 12 20 11 22 9 23 7 24 6 25 5 26
REMARK SMILES IDX 28 27 34 28 29 29 33 30 4 31 2 33 1 34 3 35 35 37 30 39
REMARK SMILES IDX 31 40 32 42 8 44 10 46
REMARK H PARENT 27 8 26 10 25 17 14 19 12 21 4 32 3 36 35 38 31 41 32 43 8 45
REMARK H PARENT 10 47
REMARK Flexibility Score: inf
ROOT
ATOM      1  C02 SIA B   4       0.757  -0.340   1.559  1.00  0.00     0.325 C 
ENDROOT
BRANCH   1   2
ATOM      2  O01 SIA B   4       0.628   0.169   0.305  1.00  0.00    -0.340 OA
BRANCH   2   3
ATOM      3  C01 SIA B   4       1.762   0.694  -0.279  1.00  0.00     0.166 C 
BRANCH   3   4
ATOM      4  C03 SIA B   4       2.874  -0.268  -0.464  1.00  0.00     0.050 C 
BRANCH   4   5
ATOM      5  C04 SIA B   4       4.045   0.417  -1.122  1.00  0.00     0.088 C 
ATOM      6  N   SIA B   4       5.075  -0.609  -1.285  1.00  0.00    -0.239 NA
ATOM      7  N10 SIA B   4       5.663  -0.642  -0.026  1.00  0.00    -0.191 NA
ATOM      8  H   UNL     1       4.604  -1.533  -1.429  1.00  0.00     0.143 HD
ATOM      9  N06 SIA B   4       5.760   0.662   0.413  1.00  0.00    -0.221 NA
ATOM     10  H   UNL     1       5.160  -1.217   0.658  1.00  0.00     0.161 HD
ATOM     11  C05 SIA B   4       4.722   1.418  -0.239  1.00  0.00     0.125 C 
BRANCH   9  12
ATOM     12  C07 SIA B   4       7.084   1.164   0.150  1.00  0.00     0.054 C 
ATOM     13  C08 SIA B   4       7.163   2.589   0.612  1.00  0.00     0.032 C 
ATOM     14  C09 SIA B   4       8.090   0.341   0.917  1.00  0.00     0.032 C 
BRANCH  12  15
ATOM     15  C   SIA B   4       7.463   1.102  -1.303  1.00  0.00     0.179 C 
BRANCH  15  16
ATOM     16  O   SIA B   4       8.760   1.612  -1.424  1.00  0.00    -0.394 OA
ATOM     17  H   UNL     1       9.388   0.865  -1.227  1.00  0.00     0.210 HD
ENDBRANCH  15  16
ENDBRANCH  12  15
ENDBRANCH   9  12
ENDBRANCH   4   5
ENDBRANCH   3   4
ENDBRANCH   2   3
ENDBRANCH   1   2
BRANCH   1  18
ATOM     18  O02 SIA B   4       0.039   0.529   2.421  1.00  0.00    -0.356 OA
ATOM     19  H   UNL     1      -0.636   1.034   1.906  1.00  0.00     0.215 HD
ENDBRANCH   1  18
BRANCH   1  20
ATOM     20  N04 SIA B   4       0.242  -1.644   1.799  1.00  0.00    -0.266 NA
ATOM     21  H   UNL     1       0.776  -2.430   1.421  1.00  0.00     0.127 HD
BRANCH  20  22
ATOM     22  C9  SIA B   4      -1.171  -1.815   1.607  1.00  0.00     0.120 C 
BRANCH  22  23
ATOM     23  C8  SIA B   4      -1.561  -1.712   0.174  1.00  0.00     0.159 C 
BRANCH  23  24
ATOM     24  C7  SIA B   4      -3.028  -2.118  -0.044  1.00  0.00     0.175 C 
BRANCH  24  25
ATOM     25  C6  SIA B   4      -3.980  -1.188   0.613  1.00  0.00     0.169 C 
ATOM     26  C5  SIA B   4      -3.965   0.231   0.036  1.00  0.00     0.116 C 
ATOM     27  O6  SIA B   4      -5.297  -1.592   0.550  1.00  0.00    -0.365 OA
ATOM     28  C4  SIA B   4      -4.397   0.203  -1.382  1.00  0.00     0.137 C 
ATOM     29  C2  SIA B   4      -5.765  -1.809  -0.724  1.00  0.00     0.177 C 
ATOM     30  C3  SIA B   4      -5.536  -0.713  -1.691  1.00  0.00     0.071 C 
BRANCH  26  31
ATOM     31  N5  SIA B   4      -4.754   1.007   0.933  1.00  0.00    -0.285 NA
ATOM     32  H   UNL     1      -5.709   0.614   0.974  1.00  0.00     0.125 HD
BRANCH  31  33
ATOM     33  C10 SIA B   4      -4.835   2.403   0.717  1.00  0.00     0.179 C 
ATOM     34  C11 SIA B   4      -3.509   3.122   0.820  1.00  0.00     0.056 C 
BRANCH  33  35
ATOM     35  O10 SIA B   4      -5.595   2.804  -0.376  1.00  0.00    -0.379 OA
ATOM     36  H   UNL     1      -5.989   3.690  -0.238  1.00  0.00     0.212 HD
ENDBRANCH  33  35
ENDBRANCH  31  33
ENDBRANCH  26  31
BRANCH  28  37
ATOM     37  O4  SIA B   4      -3.282  -0.190  -2.164  1.00  0.00    -0.391 OA
ATOM     38  H   UNL     1      -2.567   0.498  -2.090  1.00  0.00     0.211 HD
ENDBRANCH  28  37
BRANCH  29  39
ATOM     39  C1  SIA B   4      -7.231  -2.183  -0.615  1.00  0.00     0.273 C 
BRANCH  39  40
ATOM     40  O1A SIA B   4      -7.968  -1.169  -0.011  1.00  0.00    -0.366 OA
ATOM     41  H   UNL     1      -8.904  -1.154  -0.378  1.00  0.00     0.213 HD
ENDBRANCH  39  40
BRANCH  39  42
ATOM     42  O1B SIA B   4      -7.440  -3.419  -0.054  1.00  0.00    -0.366 OA
ATOM     43  H   UNL     1      -6.614  -3.972  -0.151  1.00  0.00     0.213 HD
ENDBRANCH  39  42
ENDBRANCH  29  39
ENDBRANCH  24  25
BRANCH  24  44
ATOM     44  O7  SIA B   4      -3.103  -3.402   0.555  1.00  0.00    -0.388 OA
ATOM     45  H   UNL     1      -2.415  -3.998   0.150  1.00  0.00     0.211 HD
ENDBRANCH  24  44
ENDBRANCH  23  24
BRANCH  23  46
ATOM     46  O8  SIA B   4      -0.841  -2.732  -0.502  1.00  0.00    -0.389 OA
ATOM     47  H   UNL     1      -0.187  -2.345  -1.137  1.00  0.00     0.211 HD
ENDBRANCH  23  46
ENDBRANCH  22  23
ENDBRANCH  20  22
ENDBRANCH   1  20
TORSDOF 22
