REMARK SMILES CC1CCC(N2CC(CCOC(O)NC[C@@H](O)[C@@H](O)[C@@H]3O[C@@H](C(O)O)C[C@H](O)[C@H]3NC(C)O)NN2)CC1
REMARK SMILES IDX 15 1 14 2 12 4 11 5 10 6 9 7 8 8 34 9 35 10 6 12 7 14 5 15
REMARK SMILES IDX 36 16 4 17 37 18 3 19 2 20 1 21 13 22 16 24 18 25 20 26
REMARK SMILES IDX 29 27 21 28 27 29 22 30 26 31 30 32 31 34 32 35 33 36 28 38
REMARK SMILES IDX 23 40 24 41 25 43 19 45 17 47
REMARK H PARENT 14 3 34 11 35 13 13 23 30 33 33 37 28 39 24 42 25 44 19 46
REMARK H PARENT 17 48
REMARK Flexibility Score: inf
ROOT
ATOM      1  C9  SIA B   4      -1.560   1.634  -2.656  1.00  0.00     0.120 C 
ENDROOT
BRANCH   1   2
ATOM      2  N04 SIA B   4      -0.832   0.473  -2.955  1.00  0.00    -0.266 NA
ATOM      3  H   UNL     1      -1.227  -0.241  -3.555  1.00  0.00     0.127 HD
BRANCH   2   4
ATOM      4  C02 SIA B   4       0.285   0.114  -2.156  1.00  0.00     0.325 C 
BRANCH   4   5
ATOM      5  O01 SIA B   4       0.092  -0.079  -0.823  1.00  0.00    -0.340 OA
BRANCH   5   6
ATOM      6  C01 SIA B   4       0.438  -1.287  -0.296  1.00  0.00     0.166 C 
BRANCH   6   7
ATOM      7  C03 SIA B   4       1.856  -1.704  -0.446  1.00  0.00     0.050 C 
BRANCH   7   8
ATOM      8  C04 SIA B   4       2.847  -0.782   0.161  1.00  0.00     0.088 C 
ATOM      9  N   SIA B   4       2.743  -0.558   1.567  1.00  0.00    -0.239 NA
ATOM     10  N15 SIA B   4       4.031  -0.229   2.043  1.00  0.00    -0.191 NA
ATOM     11  H   UNL     1       2.470  -1.439   2.053  1.00  0.00     0.143 HD
ATOM     12  N06 SIA B   4       4.927  -0.426   0.988  1.00  0.00    -0.226 NA
ATOM     13  H   UNL     1       4.008   0.795   2.267  1.00  0.00     0.161 HD
ATOM     14  C05 SIA B   4       4.258  -1.394   0.100  1.00  0.00     0.124 C 
BRANCH  12  15
ATOM     15  C07 SIA B   4       6.211  -0.945   1.418  1.00  0.00     0.074 C 
ATOM     16  C   SIA B   4       7.048  -1.116   0.158  1.00  0.00     0.021 C 
ATOM     17  C08 SIA B   4       6.886   0.125   2.238  1.00  0.00     0.021 C 
ATOM     18  C14 SIA B   4       8.529  -0.952   0.478  1.00  0.00     0.005 C 
ATOM     19  C09 SIA B   4       7.558   1.117   1.314  1.00  0.00     0.005 C 
ATOM     20  C12 SIA B   4       8.855   0.479   0.834  1.00  0.00    -0.014 C 
ATOM     21  C13 SIA B   4       9.423   1.235  -0.348  1.00  0.00     0.007 C 
ENDBRANCH  12  15
ENDBRANCH   7   8
ENDBRANCH   6   7
ENDBRANCH   5   6
ENDBRANCH   4   5
BRANCH   4  22
ATOM     22  O02 SIA B   4       1.210   1.188  -2.269  1.00  0.00    -0.356 OA
ATOM     23  H   UNL     1       1.352   1.640  -1.405  1.00  0.00     0.215 HD
ENDBRANCH   4  22
ENDBRANCH   2   4
ENDBRANCH   1   2
BRANCH   1  24
ATOM     24  C8  SIA B   4      -2.360   1.474  -1.388  1.00  0.00     0.159 C 
BRANCH  24  25
ATOM     25  C7  SIA B   4      -3.382   0.371  -1.667  1.00  0.00     0.175 C 
BRANCH  25  26
ATOM     26  C6  SIA B   4      -4.328   0.238  -0.477  1.00  0.00     0.169 C 
ATOM     27  C5  SIA B   4      -5.331  -0.896  -0.780  1.00  0.00     0.116 C 
ATOM     28  O6  SIA B   4      -3.568  -0.079   0.619  1.00  0.00    -0.365 OA
ATOM     29  C4  SIA B   4      -5.797  -1.570   0.434  1.00  0.00     0.137 C 
ATOM     30  C2  SIA B   4      -4.327   0.017   1.757  1.00  0.00     0.177 C 
ATOM     31  C3  SIA B   4      -5.511  -0.876   1.731  1.00  0.00     0.071 C 
BRANCH  27  32
ATOM     32  N5  SIA B   4      -6.220  -0.461  -1.767  1.00  0.00    -0.285 NA
ATOM     33  H   UNL     1      -5.737  -0.408  -2.699  1.00  0.00     0.125 HD
BRANCH  32  34
ATOM     34  C10 SIA B   4      -7.194   0.512  -1.561  1.00  0.00     0.179 C 
ATOM     35  C11 SIA B   4      -8.275   0.136  -0.581  1.00  0.00     0.056 C 
BRANCH  34  36
ATOM     36  O10 SIA B   4      -7.864   0.706  -2.802  1.00  0.00    -0.379 OA
ATOM     37  H   UNL     1      -8.248   1.620  -2.854  1.00  0.00     0.212 HD
ENDBRANCH  34  36
ENDBRANCH  32  34
ENDBRANCH  27  32
BRANCH  29  38
ATOM     38  O4  SIA B   4      -5.210  -2.865   0.564  1.00  0.00    -0.391 OA
ATOM     39  H   UNL     1      -5.770  -3.438   1.148  1.00  0.00     0.211 HD
ENDBRANCH  29  38
BRANCH  30  40
ATOM     40  C1  SIA B   4      -4.712   1.451   2.101  1.00  0.00     0.273 C 
BRANCH  40  41
ATOM     41  O1A SIA B   4      -3.523   2.152   2.291  1.00  0.00    -0.366 OA
ATOM     42  H   UNL     1      -3.650   3.100   2.513  1.00  0.00     0.213 HD
ENDBRANCH  40  41
BRANCH  40  43
ATOM     43  O1B SIA B   4      -5.357   1.380   3.355  1.00  0.00    -0.366 OA
ATOM     44  H   UNL     1      -6.332   1.613   3.268  1.00  0.00     0.213 HD
ENDBRANCH  40  43
ENDBRANCH  30  40
ENDBRANCH  25  26
BRANCH  25  45
ATOM     45  O7  SIA B   4      -2.711  -0.826  -1.860  1.00  0.00    -0.388 OA
ATOM     46  H   UNL     1      -2.428  -1.207  -0.997  1.00  0.00     0.211 HD
ENDBRANCH  25  45
ENDBRANCH  24  25
BRANCH  24  47
ATOM     47  O8  SIA B   4      -3.028   2.697  -1.201  1.00  0.00    -0.389 OA
ATOM     48  H   UNL     1      -2.911   2.954  -0.261  1.00  0.00     0.211 HD
ENDBRANCH  24  47
ENDBRANCH   1  24
TORSDOF 20
