REMARK SMILES CC(O)N[C@H]1[C@H]([C@H](O)[C@H](O)CNC(O)OCCC2CN([C@@H]3C[C@H]4CC[C@@H](C3)N4C)NN2)O[C@@H](C(O)O)C[C@@H]1O
REMARK SMILES IDX 11 1 12 2 13 4 15 5 16 6 17 7 18 8 31 9 30 10 20 12 19 14
REMARK SMILES IDX 21 15 27 16 22 17 26 18 23 19 28 20 25 21 24 22 29 23 14 24
REMARK SMILES IDX 9 26 7 27 6 28 5 29 32 30 38 31 33 32 37 33 4 34 2 36 1 37
REMARK SMILES IDX 3 38 39 40 34 42 35 43 36 45 8 47 10 49
REMARK H PARENT 12 3 31 11 30 13 14 25 4 35 3 39 39 41 35 44 36 46 8 48 10 50
REMARK Flexibility Score: inf
ROOT
ATOM      1  C9  SIA B   4       1.911   1.807  -1.741  1.00  0.00     0.120 C 
ENDROOT
BRANCH   1   2
ATOM      2  N04 SIA B   4       1.377   2.349  -2.932  1.00  0.00    -0.266 NA
ATOM      3  H   UNL     1       2.002   2.287  -3.775  1.00  0.00     0.127 HD
BRANCH   2   4
ATOM      4  C02 SIA B   4       0.042   2.189  -3.295  1.00  0.00     0.325 C 
BRANCH   4   5
ATOM      5  O01 SIA B   4      -0.884   2.688  -2.422  1.00  0.00    -0.340 OA
BRANCH   5   6
ATOM      6  C01 SIA B   4      -2.078   1.991  -2.415  1.00  0.00     0.166 C 
BRANCH   6   7
ATOM      7  C03 SIA B   4      -1.968   0.585  -1.986  1.00  0.00     0.050 C 
BRANCH   7   8
ATOM      8  C04 SIA B   4      -1.491   0.468  -0.574  1.00  0.00     0.088 C 
ATOM      9  N   SIA B   4      -1.384  -0.963  -0.297  1.00  0.00    -0.239 NA
ATOM     10  N20 SIA B   4      -2.691  -1.315   0.053  1.00  0.00    -0.191 NA
ATOM     11  H   UNL     1      -1.090  -1.473  -1.143  1.00  0.00     0.143 HD
ATOM     12  N06 SIA B   4      -3.108  -0.287   0.910  1.00  0.00    -0.226 NA
ATOM     13  H   UNL     1      -2.718  -2.195   0.578  1.00  0.00     0.161 HD
ATOM     14  C05 SIA B   4      -2.558   0.915   0.420  1.00  0.00     0.124 C 
BRANCH  12  15
ATOM     15  C07 SIA B   4      -4.487  -0.376   1.158  1.00  0.00     0.077 C 
ATOM     16  C09 SIA B   4      -5.040   0.523   2.206  1.00  0.00     0.040 C 
ATOM     17  C18 SIA B   4      -5.361  -0.212  -0.090  1.00  0.00     0.040 C 
ATOM     18  C12 SIA B   4      -6.463   0.068   2.487  1.00  0.00     0.058 C 
ATOM     19  C16 SIA B   4      -6.758  -0.606   0.321  1.00  0.00     0.058 C 
ATOM     20  N14 SIA B   4      -7.223   0.410   1.274  1.00  0.00    -0.300 NA
ATOM     21  C   SIA B   4      -6.622  -1.423   2.518  1.00  0.00     0.021 C 
ATOM     22  C19 SIA B   4      -6.810  -1.881   1.098  1.00  0.00     0.021 C 
ATOM     23  C15 SIA B   4      -8.645   0.317   1.517  1.00  0.00     0.105 C 
ENDBRANCH  12  15
ENDBRANCH   7   8
ENDBRANCH   6   7
ENDBRANCH   5   6
ENDBRANCH   4   5
BRANCH   4  24
ATOM     24  O02 SIA B   4      -0.192   3.055  -4.475  1.00  0.00    -0.356 OA
ATOM     25  H   UNL     1       0.630   2.972  -5.026  1.00  0.00     0.215 HD
ENDBRANCH   4  24
ENDBRANCH   2   4
ENDBRANCH   1   2
BRANCH   1  26
ATOM     26  C8  SIA B   4       1.952   0.312  -1.791  1.00  0.00     0.159 C 
BRANCH  26  27
ATOM     27  C7  SIA B   4       2.274  -0.385  -0.524  1.00  0.00     0.175 C 
BRANCH  27  28
ATOM     28  C6  SIA B   4       3.584  -0.053   0.128  1.00  0.00     0.169 C 
ATOM     29  C5  SIA B   4       4.730  -0.614  -0.671  1.00  0.00     0.116 C 
ATOM     30  O6  SIA B   4       3.697   1.293   0.287  1.00  0.00    -0.365 OA
ATOM     31  C4  SIA B   4       6.065  -0.145  -0.129  1.00  0.00     0.137 C 
ATOM     32  C2  SIA B   4       4.859   1.785   0.802  1.00  0.00     0.177 C 
ATOM     33  C3  SIA B   4       6.070   1.372   0.022  1.00  0.00     0.071 C 
BRANCH  29  34
ATOM     34  N5  SIA B   4       4.696  -1.976  -0.919  1.00  0.00    -0.285 NA
ATOM     35  H   UNL     1       4.422  -2.280  -1.880  1.00  0.00     0.125 HD
BRANCH  34  36
ATOM     36  C10 SIA B   4       4.822  -2.968   0.043  1.00  0.00     0.179 C 
ATOM     37  C11 SIA B   4       6.118  -3.074   0.806  1.00  0.00     0.056 C 
BRANCH  36  38
ATOM     38  O10 SIA B   4       4.673  -4.214  -0.637  1.00  0.00    -0.379 OA
ATOM     39  H   UNL     1       5.068  -4.938  -0.088  1.00  0.00     0.212 HD
ENDBRANCH  36  38
ENDBRANCH  34  36
ENDBRANCH  29  34
BRANCH  31  40
ATOM     40  O4  SIA B   4       7.029  -0.427  -1.093  1.00  0.00    -0.391 OA
ATOM     41  H   UNL     1       6.654  -0.364  -2.018  1.00  0.00     0.211 HD
ENDBRANCH  31  40
BRANCH  32  42
ATOM     42  C1  SIA B   4       5.045   1.588   2.286  1.00  0.00     0.273 C 
BRANCH  42  43
ATOM     43  O1A SIA B   4       6.298   2.172   2.591  1.00  0.00    -0.366 OA
ATOM     44  H   UNL     1       6.187   3.028   3.070  1.00  0.00     0.213 HD
ENDBRANCH  42  43
BRANCH  42  45
ATOM     45  O1B SIA B   4       5.158   0.259   2.654  1.00  0.00    -0.366 OA
ATOM     46  H   UNL     1       5.677   0.228   3.502  1.00  0.00     0.213 HD
ENDBRANCH  42  45
ENDBRANCH  32  42
ENDBRANCH  27  28
BRANCH  27  47
ATOM     47  O7  SIA B   4       2.123  -1.766  -0.728  1.00  0.00    -0.388 OA
ATOM     48  H   UNL     1       1.630  -2.212  -0.003  1.00  0.00     0.211 HD
ENDBRANCH  27  47
ENDBRANCH  26  27
BRANCH  26  49
ATOM     49  O8  SIA B   4       2.750  -0.040  -2.878  1.00  0.00    -0.389 OA
ATOM     50  H   UNL     1       2.247  -0.377  -3.642  1.00  0.00     0.211 HD
ENDBRANCH  26  49
ENDBRANCH   1  26
TORSDOF 20
