REMARK SMILES CC(O)N[C@H]1[C@H]([C@H](O)[C@H](O)CNC(O)OCCC2CN(C[C@@H](O)CN3CCNC3[NH+]([O-])O)NN2)O[C@@H](C(O)O)C[C@@H]1O
REMARK SMILES IDX 15 1 16 2 17 3 18 4 34 5 33 6 20 8 19 10 21 11 22 12 24 13
REMARK SMILES IDX 25 14 29 15 26 16 28 17 27 18 30 20 31 21 32 23 23 25 13 27
REMARK SMILES IDX 14 28 12 30 11 32 9 33 7 34 6 35 5 36 35 37 41 38 36 39
REMARK SMILES IDX 40 40 4 41 2 43 1 44 3 45 42 47 37 49 38 50 39 52 8 54 10 56
REMARK H PARENT 34 7 33 9 28 19 30 22 32 24 23 26 14 29 12 31 4 42 3 46 42 48
REMARK H PARENT 38 51 39 53 8 55 10 57
REMARK Flexibility Score: inf
ROOT
ATOM      1  O01 SIA B   4      -0.117   1.431   1.197  1.00  0.00    -0.340 OA
ENDROOT
BRANCH   1   2
ATOM      2  C01 SIA B   4       0.724   0.394   1.534  1.00  0.00     0.166 C 
BRANCH   2   3
ATOM      3  C03 SIA B   4       2.161   0.972   1.455  1.00  0.00     0.050 C 
BRANCH   3   4
ATOM      4  C04 SIA B   4       2.434   1.451   0.064  1.00  0.00     0.088 C 
ATOM      5  N   SIA B   4       2.425   0.441  -0.952  1.00  0.00    -0.240 NA
ATOM      6  N19 SIA B   4       3.767   0.085  -1.167  1.00  0.00    -0.191 NA
ATOM      7  H   UNL     1       1.921   0.713  -1.820  1.00  0.00     0.143 HD
ATOM      8  N06 SIA B   4       4.588   1.145  -0.817  1.00  0.00    -0.227 NA
ATOM      9  H   UNL     1       3.835  -0.067  -2.217  1.00  0.00     0.161 HD
ATOM     10  C05 SIA B   4       3.730   2.129  -0.142  1.00  0.00     0.124 C 
BRANCH   8  11
ATOM     11  C07 SIA B   4       5.566   0.747   0.168  1.00  0.00     0.137 C 
BRANCH  11  12
ATOM     12  C08 SIA B   4       6.721  -0.017  -0.494  1.00  0.00     0.144 C 
BRANCH  12  13
ATOM     13  C12 SIA B   4       7.787  -0.229   0.568  1.00  0.00     0.125 C 
BRANCH  13  14
ATOM     14  N13 SIA B   4       9.003  -0.738  -0.054  1.00  0.00    -0.234 NA
ATOM     15  C   SIA B   4       9.970  -1.074   0.987  1.00  0.00     0.370 C 
ATOM     16  C14 SIA B   4       9.629   0.347  -0.810  1.00  0.00     0.107 C 
ATOM     17  N16 SIA B   4      11.129  -0.263   0.820  1.00  0.00    -0.250 NA
ATOM     18  C15 SIA B   4      11.090   0.306  -0.487  1.00  0.00     0.104 C 
ATOM     19  H   UNL     1      11.278   0.422   1.597  1.00  0.00     0.130 HD
BRANCH  15  20
ATOM     20  N17 SIA B   4      10.360  -2.454   0.821  1.00  0.00    -0.199 N 
ATOM     21  O   SIA B   4      10.816  -2.599  -0.451  1.00  0.00    -0.598 OA
ATOM     22  H   UNL     1      11.144  -2.645   1.497  1.00  0.00     0.391 HD
BRANCH  20  23
ATOM     23  O18 SIA B   4       9.332  -3.299   1.011  1.00  0.00    -0.216 OA
ATOM     24  H   UNL     1       8.987  -3.584   0.133  1.00  0.00     0.288 HD
ENDBRANCH  20  23
ENDBRANCH  15  20
ENDBRANCH  13  14
ENDBRANCH  12  13
BRANCH  12  25
ATOM     25  O09 SIA B   4       7.279   0.831  -1.474  1.00  0.00    -0.390 OA
ATOM     26  H   UNL     1       6.701   1.595  -1.616  1.00  0.00     0.211 HD
ENDBRANCH  12  25
ENDBRANCH  11  12
ENDBRANCH   8  11
ENDBRANCH   3   4
ENDBRANCH   2   3
ENDBRANCH   1   2
BRANCH   1  27
ATOM     27  C02 SIA B   4      -1.470   1.225   1.212  1.00  0.00     0.325 C 
BRANCH  27  28
ATOM     28  O02 SIA B   4      -2.001   1.984   2.294  1.00  0.00    -0.356 OA
ATOM     29  H   UNL     1      -1.470   1.775   3.128  1.00  0.00     0.215 HD
ENDBRANCH  27  28
BRANCH  27  30
ATOM     30  N04 SIA B   4      -2.100   1.549  -0.011  1.00  0.00    -0.266 NA
ATOM     31  H   UNL     1      -1.721   2.452  -0.361  1.00  0.00     0.127 HD
BRANCH  30  32
ATOM     32  C9  SIA B   4      -2.210   0.618  -1.053  1.00  0.00     0.120 C 
BRANCH  32  33
ATOM     33  C8  SIA B   4      -3.321  -0.414  -0.768  1.00  0.00     0.159 C 
BRANCH  33  34
ATOM     34  C7  SIA B   4      -4.641   0.379  -0.638  1.00  0.00     0.175 C 
BRANCH  34  35
ATOM     35  C6  SIA B   4      -5.712  -0.538  -0.213  1.00  0.00     0.169 C 
ATOM     36  C5  SIA B   4      -7.068   0.141  -0.114  1.00  0.00     0.116 C 
ATOM     37  O6  SIA B   4      -5.883  -1.588  -1.103  1.00  0.00    -0.365 OA
ATOM     38  C4  SIA B   4      -7.898  -0.696   0.823  1.00  0.00     0.137 C 
ATOM     39  C2  SIA B   4      -6.949  -2.370  -0.696  1.00  0.00     0.177 C 
ATOM     40  C3  SIA B   4      -7.413  -2.123   0.698  1.00  0.00     0.071 C 
BRANCH  36  41
ATOM     41  N5  SIA B   4      -6.959   1.520   0.262  1.00  0.00    -0.285 NA
ATOM     42  H   UNL     1      -6.403   2.016  -0.481  1.00  0.00     0.125 HD
BRANCH  41  43
ATOM     43  C10 SIA B   4      -8.239   2.198   0.267  1.00  0.00     0.179 C 
ATOM     44  C11 SIA B   4      -7.989   3.691   0.402  1.00  0.00     0.056 C 
BRANCH  43  45
ATOM     45  O10 SIA B   4      -9.028   1.832   1.348  1.00  0.00    -0.379 OA
ATOM     46  H   UNL     1      -9.959   2.103   1.134  1.00  0.00     0.212 HD
ENDBRANCH  43  45
ENDBRANCH  41  43
ENDBRANCH  36  41
BRANCH  38  47
ATOM     47  O4  SIA B   4      -9.249  -0.682   0.482  1.00  0.00    -0.391 OA
ATOM     48  H   UNL     1      -9.744  -1.046   1.244  1.00  0.00     0.211 HD
ENDBRANCH  38  47
BRANCH  39  49
ATOM     49  C1  SIA B   4      -6.606  -3.861  -0.824  1.00  0.00     0.273 C 
BRANCH  49  50
ATOM     50  O1A SIA B   4      -7.732  -4.556  -0.383  1.00  0.00    -0.366 OA
ATOM     51  H   UNL     1      -8.441  -4.600  -1.081  1.00  0.00     0.213 HD
ENDBRANCH  49  50
BRANCH  49  52
ATOM     52  O1B SIA B   4      -5.563  -4.179   0.055  1.00  0.00    -0.366 OA
ATOM     53  H   UNL     1      -5.564  -5.162   0.148  1.00  0.00     0.213 HD
ENDBRANCH  49  52
ENDBRANCH  39  49
ENDBRANCH  34  35
BRANCH  34  54
ATOM     54  O7  SIA B   4      -4.836   0.969  -1.867  1.00  0.00    -0.388 OA
ATOM     55  H   UNL     1      -4.432   0.407  -2.600  1.00  0.00     0.211 HD
ENDBRANCH  34  54
ENDBRANCH  33  34
BRANCH  33  56
ATOM     56  O8  SIA B   4      -3.003  -1.086   0.383  1.00  0.00    -0.389 OA
ATOM     57  H   UNL     1      -2.971  -2.073   0.268  1.00  0.00     0.211 HD
ENDBRANCH  33  56
ENDBRANCH  32  33
ENDBRANCH  30  32
ENDBRANCH  27  30
ENDBRANCH   1  27
TORSDOF 26
