REMARK SMILES CC(O)N[C@H]1[C@H]([C@H](O)[C@H](O)CNC(O)OCCC2CN(C3CCC([NH+]([O-])O)CC3)NN2)O[C@@H](C(O)O)C[C@@H]1O
REMARK SMILES IDX 13 1 15 2 16 3 17 4 18 5 31 6 30 7 20 9 19 11 21 12 22 13
REMARK SMILES IDX 29 14 23 15 28 16 24 17 25 18 26 19 27 21 14 23 12 25 11 27
REMARK SMILES IDX 9 28 7 29 6 30 5 31 32 32 38 33 33 34 37 35 4 36 2 38 1 39
REMARK SMILES IDX 3 40 39 42 34 44 35 45 36 47 8 49 10 51
REMARK H PARENT 31 8 30 10 25 20 27 22 14 24 12 26 4 37 3 41 39 43 35 46 36 48
REMARK H PARENT 8 50 10 52
REMARK Flexibility Score: inf
ROOT
ATOM      1  C02 SIA B   4       0.038   0.057   1.074  1.00  0.00     0.325 C 
ENDROOT
BRANCH   1   2
ATOM      2  O01 SIA B   4       0.623  -0.776   0.119  1.00  0.00    -0.340 OA
BRANCH   2   3
ATOM      3  C01 SIA B   4       1.988  -0.762   0.069  1.00  0.00     0.166 C 
BRANCH   3   4
ATOM      4  C03 SIA B   4       2.433  -1.906  -0.781  1.00  0.00     0.050 C 
BRANCH   4   5
ATOM      5  C04 SIA B   4       3.890  -1.992  -1.069  1.00  0.00     0.088 C 
ATOM      6  N   SIA B   4       4.352  -0.839  -1.835  1.00  0.00    -0.239 NA
ATOM      7  N16 SIA B   4       4.720   0.124  -0.894  1.00  0.00    -0.191 NA
ATOM      8  H   UNL     1       5.186  -1.101  -2.401  1.00  0.00     0.143 HD
ATOM      9  N06 SIA B   4       5.416  -0.584   0.095  1.00  0.00    -0.226 NA
ATOM     10  H   UNL     1       5.205   0.911  -1.315  1.00  0.00     0.161 HD
ATOM     11  C05 SIA B   4       4.691  -1.864   0.189  1.00  0.00     0.124 C 
BRANCH   9  12
ATOM     12  C07 SIA B   4       6.766  -0.880  -0.298  1.00  0.00     0.074 C 
ATOM     13  C   SIA B   4       7.405   0.195  -1.127  1.00  0.00     0.027 C 
ATOM     14  C08 SIA B   4       7.606  -1.057   0.933  1.00  0.00     0.027 C 
ATOM     15  C15 SIA B   4       7.511   1.450  -0.325  1.00  0.00     0.070 C 
ATOM     16  C09 SIA B   4       8.872  -0.228   0.924  1.00  0.00     0.070 C 
ATOM     17  C12 SIA B   4       8.657   1.226   0.675  1.00  0.00     0.216 C 
BRANCH  17  18
ATOM     18  N13 SIA B   4       9.827   1.824   0.072  1.00  0.00    -0.225 N 
ATOM     19  O   SIA B   4      10.386   2.736   0.931  1.00  0.00    -0.600 OA
ATOM     20  H   UNL     1       9.603   2.357  -0.812  1.00  0.00     0.389 HD
BRANCH  18  21
ATOM     21  O14 SIA B   4      10.791   0.939  -0.230  1.00  0.00    -0.218 OA
ATOM     22  H   UNL     1      11.317   0.660   0.560  1.00  0.00     0.288 HD
ENDBRANCH  18  21
ENDBRANCH  17  18
ENDBRANCH   9  12
ENDBRANCH   4   5
ENDBRANCH   3   4
ENDBRANCH   2   3
ENDBRANCH   1   2
BRANCH   1  23
ATOM     23  O02 SIA B   4      -0.451   1.241   0.584  1.00  0.00    -0.356 OA
ATOM     24  H   UNL     1      -0.171   1.452  -0.329  1.00  0.00     0.215 HD
ENDBRANCH   1  23
BRANCH   1  25
ATOM     25  N04 SIA B   4      -0.838  -0.754   1.840  1.00  0.00    -0.266 NA
ATOM     26  H   UNL     1      -1.181  -0.296   2.723  1.00  0.00     0.127 HD
BRANCH  25  27
ATOM     27  C9  SIA B   4      -1.937  -1.358   1.180  1.00  0.00     0.120 C 
BRANCH  27  28
ATOM     28  C8  SIA B   4      -3.098  -0.494   0.833  1.00  0.00     0.159 C 
BRANCH  28  29
ATOM     29  C7  SIA B   4      -4.152  -1.303   0.111  1.00  0.00     0.175 C 
BRANCH  29  30
ATOM     30  C6  SIA B   4      -5.456  -0.633  -0.123  1.00  0.00     0.169 C 
ATOM     31  C5  SIA B   4      -5.475   0.881  -0.203  1.00  0.00     0.116 C 
ATOM     32  O6  SIA B   4      -6.206  -1.329  -1.013  1.00  0.00    -0.365 OA
ATOM     33  C4  SIA B   4      -6.750   1.330  -0.866  1.00  0.00     0.137 C 
ATOM     34  C2  SIA B   4      -7.491  -0.924  -1.188  1.00  0.00     0.177 C 
ATOM     35  C3  SIA B   4      -7.827   0.331  -0.388  1.00  0.00     0.071 C 
BRANCH  31  36
ATOM     36  N5  SIA B   4      -5.310   1.454   1.063  1.00  0.00    -0.285 NA
ATOM     37  H   UNL     1      -5.667   0.831   1.854  1.00  0.00     0.125 HD
BRANCH  36  38
ATOM     38  C10 SIA B   4      -5.153   2.775   1.379  1.00  0.00     0.179 C 
ATOM     39  C11 SIA B   4      -6.322   3.681   1.196  1.00  0.00     0.056 C 
BRANCH  38  40
ATOM     40  O10 SIA B   4      -4.139   3.303   0.502  1.00  0.00    -0.379 OA
ATOM     41  H   UNL     1      -3.257   3.242   0.899  1.00  0.00     0.212 HD
ENDBRANCH  38  40
ENDBRANCH  36  38
ENDBRANCH  31  36
BRANCH  33  42
ATOM     42  O4  SIA B   4      -6.645   1.117  -2.264  1.00  0.00    -0.391 OA
ATOM     43  H   UNL     1      -5.905   1.711  -2.541  1.00  0.00     0.211 HD
ENDBRANCH  33  42
BRANCH  34  44
ATOM     44  C1  SIA B   4      -8.555  -1.960  -1.020  1.00  0.00     0.273 C 
BRANCH  44  45
ATOM     45  O1A SIA B   4      -9.829  -1.398  -1.228  1.00  0.00    -0.366 OA
ATOM     46  H   UNL     1      -9.772  -0.675  -1.933  1.00  0.00     0.213 HD
ENDBRANCH  44  45
BRANCH  44  47
ATOM     47  O1B SIA B   4      -8.563  -2.514   0.250  1.00  0.00    -0.366 OA
ATOM     48  H   UNL     1      -9.452  -2.854   0.498  1.00  0.00     0.213 HD
ENDBRANCH  44  47
ENDBRANCH  34  44
ENDBRANCH  29  30
BRANCH  29  49
ATOM     49  O7  SIA B   4      -4.398  -2.532   0.785  1.00  0.00    -0.388 OA
ATOM     50  H   UNL     1      -4.351  -2.416   1.768  1.00  0.00     0.211 HD
ENDBRANCH  29  49
ENDBRANCH  28  29
BRANCH  28  51
ATOM     51  O8  SIA B   4      -2.751   0.587   0.047  1.00  0.00    -0.389 OA
ATOM     52  H   UNL     1      -2.517   0.301  -0.892  1.00  0.00     0.211 HD
ENDBRANCH  28  51
ENDBRANCH  27  28
ENDBRANCH  25  27
ENDBRANCH   1  25
TORSDOF 22
