REMARK SMILES CC(O)N[C@H]1[C@H]([C@H](O)[C@H](O)CNC(O)OCCC2CN([C@H]3C[C@@H](Cl)CC[C@H]3[C@H](O)N(C)C)NN2)O[C@@H](C(O)O)C[C@@H]1O
REMARK SMILES IDX 13 1 15 2 16 3 17 4 18 5 34 6 33 7 20 9 19 11 21 12 22 13
REMARK SMILES IDX 27 14 23 15 26 16 25 17 24 18 28 19 30 20 31 21 32 22 29 23
REMARK SMILES IDX 14 25 12 27 11 29 9 30 7 31 6 32 5 33 35 34 41 35 36 36
REMARK SMILES IDX 40 37 4 38 2 40 1 41 3 42 42 44 37 46 38 47 39 49 8 51 10 53
REMARK H PARENT 34 8 33 10 29 24 14 26 12 28 4 39 3 43 42 45 38 48 39 50 8 52
REMARK H PARENT 10 54
REMARK Flexibility Score: inf
ROOT
ATOM      1  C02 SIA B   4      -0.355   0.538   0.093  1.00  0.00     0.325 C 
ENDROOT
BRANCH   1   2
ATOM      2  O01 SIA B   4      -0.188  -0.140   1.261  1.00  0.00    -0.340 OA
BRANCH   2   3
ATOM      3  C01 SIA B   4       0.970   0.252   1.998  1.00  0.00     0.166 C 
BRANCH   3   4
ATOM      4  C03 SIA B   4       2.109  -0.111   1.116  1.00  0.00     0.050 C 
BRANCH   4   5
ATOM      5  C04 SIA B   4       3.495   0.070   1.581  1.00  0.00     0.088 C 
ATOM      6  N   SIA B   4       3.981   1.330   1.953  1.00  0.00    -0.239 NA
ATOM      7  N18 SIA B   4       4.783   1.778   0.902  1.00  0.00    -0.191 NA
ATOM      8  H   UNL     1       4.465   1.377   2.881  1.00  0.00     0.143 HD
ATOM      9  N06 SIA B   4       5.550   0.576   0.598  1.00  0.00    -0.226 NA
ATOM     10  H   UNL     1       4.083   1.800   0.080  1.00  0.00     0.161 HD
ATOM     11  C05 SIA B   4       4.355  -0.248   0.315  1.00  0.00     0.124 C 
BRANCH   9  12
ATOM     12  C07 SIA B   4       6.305   0.860  -0.613  1.00  0.00     0.082 C 
ATOM     13  C08 SIA B   4       6.211   2.254  -1.131  1.00  0.00     0.041 C 
ATOM     14  C14 SIA B   4       7.590   0.167  -0.795  1.00  0.00     0.052 C 
ATOM     15  C09 SIA B   4       7.231   3.181  -0.486  1.00  0.00     0.082 C 
ATOM     16  C13 SIA B   4       8.641   1.241  -1.136  1.00  0.00     0.011 C 
ATOM     17  C12 SIA B   4       8.511   2.438  -0.247  1.00  0.00     0.020 C 
ATOM     18 Cl   SIA B   4       6.629   3.983   0.960  1.00  0.00    -0.123 Cl
BRANCH  14  19
ATOM     19  C15 SIA B   4       8.138  -0.646   0.310  1.00  0.00     0.189 C 
BRANCH  19  20
ATOM     20  N16 SIA B   4       7.278  -1.722   0.737  1.00  0.00    -0.284 NA
ATOM     21  C   SIA B   4       7.016  -2.680  -0.324  1.00  0.00     0.107 C 
ATOM     22  C17 SIA B   4       7.785  -2.468   1.845  1.00  0.00     0.107 C 
ENDBRANCH  19  20
BRANCH  19  23
ATOM     23  O   SIA B   4       9.290  -1.317  -0.208  1.00  0.00    -0.378 OA
ATOM     24  H   UNL     1       9.184  -1.434  -1.188  1.00  0.00     0.212 HD
ENDBRANCH  19  23
ENDBRANCH  14  19
ENDBRANCH   9  12
ENDBRANCH   4   5
ENDBRANCH   3   4
ENDBRANCH   2   3
ENDBRANCH   1   2
BRANCH   1  25
ATOM     25  O02 SIA B   4       0.027  -0.338  -1.000  1.00  0.00    -0.356 OA
ATOM     26  H   UNL     1      -0.021   0.175  -1.841  1.00  0.00     0.215 HD
ENDBRANCH   1  25
BRANCH   1  27
ATOM     27  N04 SIA B   4      -1.777   0.744  -0.173  1.00  0.00    -0.266 NA
ATOM     28  H   UNL     1      -1.909   1.266  -1.059  1.00  0.00     0.127 HD
BRANCH  27  29
ATOM     29  C9  SIA B   4      -2.338  -0.605  -0.332  1.00  0.00     0.120 C 
BRANCH  29  30
ATOM     30  C8  SIA B   4      -3.814  -0.523  -0.615  1.00  0.00     0.159 C 
BRANCH  30  31
ATOM     31  C7  SIA B   4      -4.480   0.094   0.607  1.00  0.00     0.175 C 
BRANCH  31  32
ATOM     32  C6  SIA B   4      -5.941  -0.271   0.673  1.00  0.00     0.169 C 
ATOM     33  C5  SIA B   4      -6.729   0.201  -0.526  1.00  0.00     0.116 C 
ATOM     34  O6  SIA B   4      -5.930  -1.670   0.812  1.00  0.00    -0.365 OA
ATOM     35  C4  SIA B   4      -7.445  -0.815  -1.310  1.00  0.00     0.137 C 
ATOM     36  C2  SIA B   4      -7.164  -2.259   0.737  1.00  0.00     0.177 C 
ATOM     37  C3  SIA B   4      -7.663  -2.165  -0.669  1.00  0.00     0.071 C 
BRANCH  33  38
ATOM     38  N5  SIA B   4      -7.504   1.358  -0.262  1.00  0.00    -0.285 NA
ATOM     39  H   UNL     1      -7.067   1.893   0.507  1.00  0.00     0.125 HD
BRANCH  38  40
ATOM     40  C10 SIA B   4      -7.900   2.226  -1.279  1.00  0.00     0.179 C 
ATOM     41  C11 SIA B   4      -8.822   1.787  -2.355  1.00  0.00     0.056 C 
BRANCH  40  42
ATOM     42  O10 SIA B   4      -6.805   2.861  -1.918  1.00  0.00    -0.379 OA
ATOM     43  H   UNL     1      -6.436   3.500  -1.287  1.00  0.00     0.212 HD
ENDBRANCH  40  42
ENDBRANCH  38  40
ENDBRANCH  33  38
BRANCH  35  44
ATOM     44  O4  SIA B   4      -6.899  -0.980  -2.607  1.00  0.00    -0.391 OA
ATOM     45  H   UNL     1      -6.440  -1.865  -2.567  1.00  0.00     0.211 HD
ENDBRANCH  35  44
BRANCH  36  46
ATOM     46  C1  SIA B   4      -8.128  -1.780   1.784  1.00  0.00     0.273 C 
BRANCH  46  47
ATOM     47  O1A SIA B   4      -7.598  -2.053   3.060  1.00  0.00    -0.366 OA
ATOM     48  H   UNL     1      -8.208  -1.713   3.739  1.00  0.00     0.213 HD
ENDBRANCH  46  47
BRANCH  46  49
ATOM     49  O1B SIA B   4      -9.279  -2.594   1.705  1.00  0.00    -0.366 OA
ATOM     50  H   UNL     1     -10.004  -2.044   1.330  1.00  0.00     0.213 HD
ENDBRANCH  46  49
ENDBRANCH  36  46
ENDBRANCH  31  32
BRANCH  31  51
ATOM     51  O7  SIA B   4      -4.258   1.425   0.563  1.00  0.00    -0.388 OA
ATOM     52  H   UNL     1      -4.664   1.884   1.342  1.00  0.00     0.211 HD
ENDBRANCH  31  51
ENDBRANCH  30  31
BRANCH  30  53
ATOM     53  O8  SIA B   4      -4.210  -1.880  -0.729  1.00  0.00    -0.389 OA
ATOM     54  H   UNL     1      -3.666  -2.442  -0.119  1.00  0.00     0.211 HD
ENDBRANCH  30  53
ENDBRANCH  29  30
ENDBRANCH  27  29
ENDBRANCH   1  27
TORSDOF 23
