REMARK SMILES COC1CC[C@@H](CN2CC(CCOC(O)NC[C@@H](O)[C@@H](O)[C@@H]3O[C@@H](C(O)O)C[C@H](O)[C@H]3NC(C)O)NN2)CC1OC
REMARK SMILES IDX 14 1 13 2 12 3 11 4 10 5 36 6 37 7 8 9 9 11 7 12 6 13 5 14
REMARK SMILES IDX 38 15 4 16 39 17 3 18 40 19 41 20 2 21 1 22 15 23 16 25
REMARK SMILES IDX 17 27 18 28 20 29 22 30 31 31 23 32 29 33 24 34 28 35 32 36
REMARK SMILES IDX 33 38 34 39 35 40 30 42 25 44 26 45 27 47 21 49 19 51
REMARK H PARENT 36 8 37 10 15 24 16 26 32 37 35 41 30 43 26 46 27 48 21 50
REMARK H PARENT 19 52
REMARK Flexibility Score: inf
ROOT
ATOM      1  C02 SIA B   4      -1.112  -1.895  -1.043  1.00  0.00     0.325 C 
ENDROOT
BRANCH   1   2
ATOM      2  O01 SIA B   4      -0.155  -1.416  -1.895  1.00  0.00    -0.340 OA
BRANCH   2   3
ATOM      3  C01 SIA B   4       1.078  -2.001  -1.792  1.00  0.00     0.166 C 
BRANCH   3   4
ATOM      4  C03 SIA B   4       1.663  -1.781  -0.437  1.00  0.00     0.050 C 
BRANCH   4   5
ATOM      5  C04 SIA B   4       1.832  -0.314  -0.144  1.00  0.00     0.088 C 
ATOM      6  N   SIA B   4       2.402  -0.222   1.190  1.00  0.00    -0.240 NA
ATOM      7  N18 SIA B   4       3.395   0.731   1.114  1.00  0.00    -0.191 NA
ATOM      8  H   UNL     1       2.788  -1.115   1.537  1.00  0.00     0.143 HD
ATOM      9  N06 SIA B   4       3.969   0.605  -0.127  1.00  0.00    -0.229 NA
ATOM     10  H   UNL     1       2.943   1.675   1.217  1.00  0.00     0.161 HD
ATOM     11  C05 SIA B   4       2.920   0.240  -1.022  1.00  0.00     0.124 C 
BRANCH   9  12
ATOM     12  C07 SIA B   4       5.168  -0.157  -0.207  1.00  0.00     0.107 C 
BRANCH  12  13
ATOM     13  C08 SIA B   4       6.128   0.402   0.841  1.00  0.00     0.007 C 
ATOM     14  C   SIA B   4       6.390   1.843   0.546  1.00  0.00     0.008 C 
ATOM     15  C09 SIA B   4       7.351  -0.448   0.961  1.00  0.00     0.039 C 
ATOM     16  C17 SIA B   4       7.399   1.993  -0.570  1.00  0.00     0.035 C 
ATOM     17  C12 SIA B   4       8.384  -0.177  -0.087  1.00  0.00     0.147 C 
ATOM     18  C15 SIA B   4       8.663   1.316  -0.108  1.00  0.00     0.146 C 
BRANCH  17  19
ATOM     19  O13 SIA B   4       9.537  -0.899   0.226  1.00  0.00    -0.379 OA
ATOM     20  C14 SIA B   4       9.900  -1.777  -0.794  1.00  0.00     0.195 C 
ENDBRANCH  17  19
BRANCH  18  21
ATOM     21  O   SIA B   4       9.776   1.666  -0.829  1.00  0.00    -0.379 OA
ATOM     22  C16 SIA B   4      10.757   2.276  -0.049  1.00  0.00     0.195 C 
ENDBRANCH  18  21
ENDBRANCH  12  13
ENDBRANCH   9  12
ENDBRANCH   4   5
ENDBRANCH   3   4
ENDBRANCH   2   3
ENDBRANCH   1   2
BRANCH   1  23
ATOM     23  O02 SIA B   4      -2.166  -2.366  -1.843  1.00  0.00    -0.356 OA
ATOM     24  H   UNL     1      -2.433  -1.572  -2.394  1.00  0.00     0.215 HD
ENDBRANCH   1  23
BRANCH   1  25
ATOM     25  N04 SIA B   4      -1.653  -0.816  -0.223  1.00  0.00    -0.266 NA
ATOM     26  H   UNL     1      -1.957  -0.022  -0.831  1.00  0.00     0.127 HD
BRANCH  25  27
ATOM     27  C9  SIA B   4      -2.680  -1.312   0.664  1.00  0.00     0.120 C 
BRANCH  27  28
ATOM     28  C8  SIA B   4      -3.293  -0.314   1.576  1.00  0.00     0.159 C 
BRANCH  28  29
ATOM     29  C7  SIA B   4      -4.024   0.819   0.975  1.00  0.00     0.175 C 
BRANCH  29  30
ATOM     30  C6  SIA B   4      -5.165   0.444   0.071  1.00  0.00     0.169 C 
ATOM     31  C5  SIA B   4      -6.056  -0.652   0.571  1.00  0.00     0.116 C 
ATOM     32  O6  SIA B   4      -5.752   1.572  -0.389  1.00  0.00    -0.365 OA
ATOM     33  C4  SIA B   4      -7.141  -0.046   1.416  1.00  0.00     0.137 C 
ATOM     34  C2  SIA B   4      -6.886   2.036   0.190  1.00  0.00     0.177 C 
ATOM     35  C3  SIA B   4      -7.886   0.938   0.516  1.00  0.00     0.071 C 
BRANCH  31  36
ATOM     36  N5  SIA B   4      -6.538  -1.441  -0.521  1.00  0.00    -0.285 NA
ATOM     37  H   UNL     1      -5.749  -1.628  -1.174  1.00  0.00     0.125 HD
BRANCH  36  38
ATOM     38  C10 SIA B   4      -7.254  -2.622  -0.275  1.00  0.00     0.179 C 
ATOM     39  C11 SIA B   4      -8.565  -2.557   0.412  1.00  0.00     0.056 C 
BRANCH  38  40
ATOM     40  O10 SIA B   4      -7.471  -3.226  -1.550  1.00  0.00    -0.379 OA
ATOM     41  H   UNL     1      -7.979  -2.631  -2.131  1.00  0.00     0.212 HD
ENDBRANCH  38  40
ENDBRANCH  36  38
ENDBRANCH  31  36
BRANCH  33  42
ATOM     42  O4  SIA B   4      -6.458   0.797   2.342  1.00  0.00    -0.391 OA
ATOM     43  H   UNL     1      -7.093   1.296   2.900  1.00  0.00     0.211 HD
ENDBRANCH  33  42
BRANCH  34  44
ATOM     44  C1  SIA B   4      -7.559   3.143  -0.617  1.00  0.00     0.273 C 
BRANCH  44  45
ATOM     45  O1A SIA B   4      -6.705   4.234  -0.764  1.00  0.00    -0.366 OA
ATOM     46  H   UNL     1      -7.156   5.045  -1.045  1.00  0.00     0.213 HD
ENDBRANCH  44  45
BRANCH  44  47
ATOM     47  O1B SIA B   4      -8.654   3.570   0.127  1.00  0.00    -0.366 OA
ATOM     48  H   UNL     1      -9.525   3.289  -0.235  1.00  0.00     0.213 HD
ENDBRANCH  44  47
ENDBRANCH  34  44
ENDBRANCH  29  30
BRANCH  29  49
ATOM     49  O7  SIA B   4      -3.102   1.590   0.228  1.00  0.00    -0.388 OA
ATOM     50  H   UNL     1      -3.628   2.373  -0.101  1.00  0.00     0.211 HD
ENDBRANCH  29  49
ENDBRANCH  28  29
BRANCH  28  51
ATOM     51  O8  SIA B   4      -2.256   0.229   2.377  1.00  0.00    -0.389 OA
ATOM     52  H   UNL     1      -2.142   1.209   2.199  1.00  0.00     0.211 HD
ENDBRANCH  28  51
ENDBRANCH  27  28
ENDBRANCH  25  27
ENDBRANCH   1  25
TORSDOF 23
