REMARK SMILES CC(O)N[C@H]1[C@H]([C@H](O)[C@H](O)CNC(O)OCCC2CN([C@@H](C)CC(O)C3CCCCC3)NN2)O[C@@H](C(O)O)C[C@@H]1O
REMARK SMILES IDX 13 1 15 2 16 3 17 4 18 5 33 6 32 7 20 9 19 11 21 12 22 13
REMARK SMILES IDX 23 14 24 15 26 16 31 17 27 18 30 19 28 20 29 21 25 22 14 24
REMARK SMILES IDX 12 26 11 28 9 29 7 30 6 31 5 32 34 33 40 34 35 35 39 36 4 37
REMARK SMILES IDX 2 39 1 40 3 41 41 43 36 45 37 46 38 48 8 50 10 52
REMARK H PARENT 33 8 32 10 25 23 14 25 12 27 4 38 3 42 41 44 37 47 38 49 8 51
REMARK H PARENT 10 53
REMARK Flexibility Score: inf
ROOT
ATOM      1  C02 SIA B   4      -1.444   0.601  -0.457  1.00  0.00     0.325 C 
ENDROOT
BRANCH   1   2
ATOM      2  O01 SIA B   4      -0.651   0.409  -1.546  1.00  0.00    -0.340 OA
BRANCH   2   3
ATOM      3  C01 SIA B   4       0.675   0.159  -1.349  1.00  0.00     0.166 C 
BRANCH   3   4
ATOM      4  C03 SIA B   4       1.334   1.289  -0.642  1.00  0.00     0.050 C 
BRANCH   4   5
ATOM      5  C04 SIA B   4       2.809   1.113  -0.382  1.00  0.00     0.088 C 
ATOM      6  N   SIA B   4       3.121  -0.048   0.410  1.00  0.00    -0.239 NA
ATOM      7  N18 SIA B   4       4.335  -0.541  -0.055  1.00  0.00    -0.191 NA
ATOM      8  H   UNL     1       3.186   0.156   1.435  1.00  0.00     0.143 HD
ATOM      9  N06 SIA B   4       4.565  -0.053  -1.301  1.00  0.00    -0.226 NA
ATOM     10  H   UNL     1       4.316  -1.598  -0.050  1.00  0.00     0.161 HD
ATOM     11  C05 SIA B   4       3.673   0.980  -1.567  1.00  0.00     0.124 C 
BRANCH   9  12
ATOM     12  C07 SIA B   4       5.845  -0.074  -1.841  1.00  0.00     0.073 C 
ATOM     13  C08 SIA B   4       5.974  -0.142  -3.327  1.00  0.00     0.026 C 
BRANCH  12  14
ATOM     14  C09 SIA B   4       6.715   1.060  -1.344  1.00  0.00     0.052 C 
BRANCH  14  15
ATOM     15  C12 SIA B   4       6.928   1.069   0.135  1.00  0.00     0.119 C 
BRANCH  15  16
ATOM     16  C13 SIA B   4       7.581  -0.164   0.690  1.00  0.00     0.018 C 
ATOM     17  C   SIA B   4       7.706   0.008   2.216  1.00  0.00     0.006 C 
ATOM     18  C14 SIA B   4       8.974  -0.365   0.104  1.00  0.00     0.006 C 
ATOM     19  C17 SIA B   4       8.962  -0.724   2.620  1.00  0.00     0.000 C 
ATOM     20  C15 SIA B   4       9.984   0.523   0.794  1.00  0.00     0.000 C 
ATOM     21  C16 SIA B   4      10.140   0.149   2.251  1.00  0.00     0.000 C 
ENDBRANCH  15  16
BRANCH  15  22
ATOM     22  O   SIA B   4       5.825   1.459   0.878  1.00  0.00    -0.393 OA
ATOM     23  H   UNL     1       6.077   2.048   1.651  1.00  0.00     0.210 HD
ENDBRANCH  15  22
ENDBRANCH  14  15
ENDBRANCH  12  14
ENDBRANCH   9  12
ENDBRANCH   4   5
ENDBRANCH   3   4
ENDBRANCH   2   3
ENDBRANCH   1   2
BRANCH   1  24
ATOM     24  O02 SIA B   4      -1.942   1.896  -0.327  1.00  0.00    -0.356 OA
ATOM     25  H   UNL     1      -1.239   2.576  -0.477  1.00  0.00     0.215 HD
ENDBRANCH   1  24
BRANCH   1  26
ATOM     26  N04 SIA B   4      -2.455  -0.392  -0.337  1.00  0.00    -0.266 NA
ATOM     27  H   UNL     1      -2.061  -1.282  -0.022  1.00  0.00     0.127 HD
BRANCH  26  28
ATOM     28  C9  SIA B   4      -3.317  -0.557  -1.468  1.00  0.00     0.120 C 
BRANCH  28  29
ATOM     29  C8  SIA B   4      -4.197   0.629  -1.648  1.00  0.00     0.159 C 
BRANCH  29  30
ATOM     30  C7  SIA B   4      -5.051   0.896  -0.437  1.00  0.00     0.175 C 
BRANCH  30  31
ATOM     31  C6  SIA B   4      -6.069  -0.221  -0.273  1.00  0.00     0.169 C 
ATOM     32  C5  SIA B   4      -6.988   0.108   0.932  1.00  0.00     0.116 C 
ATOM     33  O6  SIA B   4      -6.806  -0.280  -1.425  1.00  0.00    -0.365 OA
ATOM     34  C4  SIA B   4      -7.954  -1.031   1.047  1.00  0.00     0.137 C 
ATOM     35  C2  SIA B   4      -7.796  -1.251  -1.404  1.00  0.00     0.177 C 
ATOM     36  C3  SIA B   4      -7.803  -2.029  -0.113  1.00  0.00     0.071 C 
BRANCH  32  37
ATOM     37  N5  SIA B   4      -6.221   0.321   2.070  1.00  0.00    -0.285 NA
ATOM     38  H   UNL     1      -5.316  -0.192   2.132  1.00  0.00     0.125 HD
BRANCH  37  39
ATOM     39  C10 SIA B   4      -6.685   0.724   3.307  1.00  0.00     0.179 C 
ATOM     40  C11 SIA B   4      -7.600  -0.192   4.061  1.00  0.00     0.056 C 
BRANCH  39  41
ATOM     41  O10 SIA B   4      -5.541   0.869   4.158  1.00  0.00    -0.379 OA
ATOM     42  H   UNL     1      -5.477   1.801   4.473  1.00  0.00     0.212 HD
ENDBRANCH  39  41
ENDBRANCH  37  39
ENDBRANCH  32  37
BRANCH  34  43
ATOM     43  O4  SIA B   4      -9.279  -0.573   1.060  1.00  0.00    -0.391 OA
ATOM     44  H   UNL     1      -9.852  -1.111   1.673  1.00  0.00     0.211 HD
ENDBRANCH  34  43
BRANCH  35  45
ATOM     45  C1  SIA B   4      -7.480  -2.276  -2.504  1.00  0.00     0.273 C 
BRANCH  45  46
ATOM     46  O1A SIA B   4      -6.224  -2.793  -2.168  1.00  0.00    -0.366 OA
ATOM     47  H   UNL     1      -6.245  -3.756  -2.001  1.00  0.00     0.213 HD
ENDBRANCH  45  46
BRANCH  45  48
ATOM     48  O1B SIA B   4      -7.452  -1.682  -3.761  1.00  0.00    -0.366 OA
ATOM     49  H   UNL     1      -8.356  -1.532  -4.098  1.00  0.00     0.213 HD
ENDBRANCH  45  48
ENDBRANCH  35  45
ENDBRANCH  30  31
BRANCH  30  50
ATOM     50  O7  SIA B   4      -5.767   2.097  -0.653  1.00  0.00    -0.388 OA
ATOM     51  H   UNL     1      -5.526   2.483  -1.536  1.00  0.00     0.211 HD
ENDBRANCH  30  50
ENDBRANCH  29  30
BRANCH  29  52
ATOM     52  O8  SIA B   4      -5.063   0.496  -2.739  1.00  0.00    -0.389 OA
ATOM     53  H   UNL     1      -4.943  -0.374  -3.198  1.00  0.00     0.211 HD
ENDBRANCH  29  52
ENDBRANCH  28  29
ENDBRANCH  26  28
ENDBRANCH   1  26
TORSDOF 24
