REMARK SMILES CC(O)N[C@H]1[C@H]([C@H](O)[C@H](O)CNC(O)OCCC2CN(C(C3CCCCC3)C3CCCCC3)NN2)O[C@@H](C(O)O)C[C@@H]1O
REMARK SMILES IDX 12 1 13 3 15 4 16 5 17 6 18 7 35 8 34 9 20 11 19 13 21 14
REMARK SMILES IDX 22 15 23 16 27 17 24 18 26 19 25 20 28 21 33 22 29 23 32 24
REMARK SMILES IDX 30 25 31 26 14 27 11 29 9 30 7 31 6 32 5 33 36 34 42 35
REMARK SMILES IDX 37 36 41 37 4 38 2 40 1 41 3 42 43 44 38 46 39 47 40 49 8 51
REMARK SMILES IDX 10 53
REMARK H PARENT 12 2 35 10 34 12 14 28 4 39 3 43 43 45 39 48 40 50 8 52 10 54
REMARK Flexibility Score: inf
ROOT
ATOM      1  N04 SIA B   4       2.503   0.625   2.348  1.00  0.00    -0.266 NA
ATOM      2  H   UNL     1       2.221   1.000   3.299  1.00  0.00     0.127 HD
ENDROOT
BRANCH   1   3
ATOM      3  C02 SIA B   4       1.343   0.327   1.581  1.00  0.00     0.325 C 
BRANCH   3   4
ATOM      4  O01 SIA B   4       0.529   1.471   1.462  1.00  0.00    -0.340 OA
BRANCH   4   5
ATOM      5  C01 SIA B   4      -0.655   1.430   2.106  1.00  0.00     0.166 C 
BRANCH   5   6
ATOM      6  C03 SIA B   4      -1.654   0.400   1.799  1.00  0.00     0.050 C 
BRANCH   6   7
ATOM      7  C04 SIA B   4      -2.194   0.332   0.407  1.00  0.00     0.088 C 
ATOM      8  N   SIA B   4      -2.826   1.520  -0.040  1.00  0.00    -0.239 NA
ATOM      9  N21 SIA B   4      -3.830   1.118  -0.896  1.00  0.00    -0.191 NA
ATOM     10  H   UNL     1      -3.156   2.144   0.686  1.00  0.00     0.143 HD
ATOM     11  N06 SIA B   4      -4.289  -0.113  -0.498  1.00  0.00    -0.226 NA
ATOM     12  H   UNL     1      -3.483   1.169  -1.869  1.00  0.00     0.161 HD
ATOM     13  C05 SIA B   4      -3.447  -0.604   0.487  1.00  0.00     0.124 C 
BRANCH  11  14
ATOM     14  C07 SIA B   4      -5.672  -0.352  -0.548  1.00  0.00     0.080 C 
BRANCH  14  15
ATOM     15  C08 SIA B   4      -6.485   0.265   0.503  1.00  0.00     0.008 C 
ATOM     16  C09 SIA B   4      -6.219  -0.098   1.928  1.00  0.00     0.005 C 
ATOM     17  C15 SIA B   4      -6.410   1.808   0.483  1.00  0.00     0.005 C 
ATOM     18  C12 SIA B   4      -7.543   0.171   2.677  1.00  0.00     0.000 C 
ATOM     19  C14 SIA B   4      -7.567   2.292   1.301  1.00  0.00     0.000 C 
ATOM     20  C13 SIA B   4      -8.344   1.236   2.009  1.00  0.00     0.000 C 
ENDBRANCH  14  15
BRANCH  14  21
ATOM     21  C16 SIA B   4      -6.236  -0.179  -1.956  1.00  0.00     0.008 C 
ATOM     22  C   SIA B   4      -7.685  -0.403  -2.103  1.00  0.00     0.005 C 
ATOM     23  C17 SIA B   4      -5.409  -1.069  -2.869  1.00  0.00     0.005 C 
ATOM     24  C20 SIA B   4      -8.130  -1.833  -2.080  1.00  0.00     0.000 C 
ATOM     25  C18 SIA B   4      -6.293  -2.020  -3.651  1.00  0.00     0.000 C 
ATOM     26  C19 SIA B   4      -7.097  -2.788  -2.626  1.00  0.00     0.000 C 
ENDBRANCH  14  21
ENDBRANCH  11  14
ENDBRANCH   6   7
ENDBRANCH   5   6
ENDBRANCH   4   5
ENDBRANCH   3   4
BRANCH   3  27
ATOM     27  O02 SIA B   4       1.617  -0.094   0.323  1.00  0.00    -0.356 OA
ATOM     28  H   UNL     1       0.950   0.090  -0.359  1.00  0.00     0.215 HD
ENDBRANCH   3  27
ENDBRANCH   1   3
BRANCH   1  29
ATOM     29  C9  SIA B   4       3.486  -0.329   2.512  1.00  0.00     0.120 C 
BRANCH  29  30
ATOM     30  C8  SIA B   4       4.442  -0.651   1.403  1.00  0.00     0.159 C 
BRANCH  30  31
ATOM     31  C7  SIA B   4       5.342   0.570   1.201  1.00  0.00     0.175 C 
BRANCH  31  32
ATOM     32  C6  SIA B   4       6.614   0.242   0.406  1.00  0.00     0.169 C 
ATOM     33  C5  SIA B   4       6.267   0.098  -1.034  1.00  0.00     0.116 C 
ATOM     34  O6  SIA B   4       7.420   1.351   0.667  1.00  0.00    -0.365 OA
ATOM     35  C4  SIA B   4       6.464   1.521  -1.636  1.00  0.00     0.137 C 
ATOM     36  C2  SIA B   4       8.399   1.665  -0.193  1.00  0.00     0.177 C 
ATOM     37  C3  SIA B   4       7.957   1.741  -1.643  1.00  0.00     0.071 C 
BRANCH  33  38
ATOM     38  N5  SIA B   4       7.164  -0.720  -1.793  1.00  0.00    -0.285 NA
ATOM     39  H   UNL     1       7.089  -0.346  -2.807  1.00  0.00     0.125 HD
BRANCH  38  40
ATOM     40  C10 SIA B   4       6.910  -2.104  -1.902  1.00  0.00     0.179 C 
ATOM     41  C11 SIA B   4       6.986  -2.860  -0.615  1.00  0.00     0.056 C 
BRANCH  40  42
ATOM     42  O10 SIA B   4       7.693  -2.715  -2.894  1.00  0.00    -0.379 OA
ATOM     43  H   UNL     1       8.474  -3.145  -2.441  1.00  0.00     0.212 HD
ENDBRANCH  40  42
ENDBRANCH  38  40
ENDBRANCH  33  38
BRANCH  35  44
ATOM     44  O4  SIA B   4       5.785   2.471  -0.920  1.00  0.00    -0.391 OA
ATOM     45  H   UNL     1       5.849   3.316  -1.422  1.00  0.00     0.211 HD
ENDBRANCH  35  44
BRANCH  36  46
ATOM     46  C1  SIA B   4       9.712   0.957  -0.041  1.00  0.00     0.273 C 
BRANCH  46  47
ATOM     47  O1A SIA B   4      10.598   1.408  -1.038  1.00  0.00    -0.366 OA
ATOM     48  H   UNL     1      11.542   1.283  -0.742  1.00  0.00     0.213 HD
ENDBRANCH  46  47
BRANCH  46  49
ATOM     49  O1B SIA B   4       9.669  -0.407  -0.012  1.00  0.00    -0.366 OA
ATOM     50  H   UNL     1       9.744  -0.787   0.877  1.00  0.00     0.213 HD
ENDBRANCH  46  49
ENDBRANCH  36  46
ENDBRANCH  31  32
BRANCH  31  51
ATOM     51  O7  SIA B   4       5.769   0.826   2.557  1.00  0.00    -0.388 OA
ATOM     52  H   UNL     1       5.196   1.536   2.942  1.00  0.00     0.211 HD
ENDBRANCH  31  51
ENDBRANCH  30  31
BRANCH  30  53
ATOM     53  O8  SIA B   4       3.840  -1.124   0.292  1.00  0.00    -0.389 OA
ATOM     54  H   UNL     1       3.804  -2.131   0.321  1.00  0.00     0.211 HD
ENDBRANCH  30  53
ENDBRANCH  29  30
ENDBRANCH   1  29
TORSDOF 22
