REMARK VINA RESULT:    -5.713     15.054     18.287
REMARK INTER + INTRA:         -13.536
REMARK INTER:                 -10.496
REMARK INTRA:                  -3.040
REMARK UNBOUND:                -3.313
REMARK  Name = lig_assembled_71.pdb
REMARK  17 active torsions:
REMARK  status: ('A' for Active; 'I' for Inactive)
REMARK    1  A    between atoms: _2  and  _12
REMARK    2  A    between atoms: _7  and  _22
REMARK    3  A    between atoms: _9  and  _10
REMARK    4  A    between atoms: _9  and  _22
REMARK    5  A    between atoms: _12  and  _13
REMARK    6  A    between atoms: _18  and  _38
REMARK    7  A    between atoms: _20  and  _26
REMARK    8  A    between atoms: _21  and  _25
REMARK    9  A    between atoms: _25  and  _26
REMARK   10  A    between atoms: _28  and  _29
REMARK   11  A    between atoms: _30  and  _31
REMARK   12  A    between atoms: _32  and  _34
REMARK   13  A    between atoms: _34  and  _35
REMARK   14  A    between atoms: _34  and  _36
REMARK   15  A    between atoms: _36  and  _37
REMARK   16  A    between atoms: _36  and  _38
REMARK   17  A    between atoms: _39  and  _41
REMARK                            x       y       z     vdW  Elec       q    Type
REMARK                         _______ _______ _______ _____ _____    ______ ____
ROOT
ATOM      1  C   UNL     1      18.312  -1.065  21.950  0.00  0.00    +0.163 C 
ENDROOT
BRANCH   1   2
ATOM      2  O   UNL     1      19.030  -2.310  21.996  0.00  0.00    -0.388 OA
ATOM      3  H   UNL     1      18.626  -2.889  22.647  0.00  0.00    +0.210 HD
ENDBRANCH   1   2
BRANCH   1   4
ATOM      4  C   UNL     1      19.128  -0.020  21.196  0.00  0.00    +0.141 C 
BRANCH   4   7
ATOM      5  C   UNL     1      20.986   0.565  22.716  0.00  0.00    +0.401 C 
ATOM      6  O   UNL     1      21.558  -0.520  22.585  0.00  0.00    -0.226 OA
ATOM      7  N   UNL     1      19.841   0.881  22.108  0.00  0.00    -0.279 N 
ATOM      8  H   UNL     1      19.443   1.792  22.286  0.00  0.00    +0.152 HD
BRANCH   5   9
ATOM      9  O   UNL     1      21.563   1.557  23.569  0.00  0.00    -0.444 OA
BRANCH   9  10
ATOM     10  C   UNL     1      20.680   1.818  24.663  0.00  0.00    +0.292 C 
BRANCH  10  12
ATOM     11  N   UNL     1      18.611   3.039  24.035  0.00  0.00    -0.131 NA
ATOM     12  C   UNL     1      19.925   3.063  24.426  0.00  0.00    +0.120 A 
ATOM     13  C   UNL     1      20.332   4.371  24.540  0.00  0.00    +0.137 A 
ATOM     14  N   UNL     1      19.231   5.097  24.191  0.00  0.00    -0.242 N 
ATOM     15  N   UNL     1      18.193   4.292  23.902  0.00  0.00    -0.065 NA
BRANCH  14  16
ATOM     16  C   UNL     1      19.049   6.535  24.217  0.00  0.00    +0.241 C 
BRANCH  16  17
ATOM     17  C   UNL     1      18.926   7.056  25.625  0.00  0.00    +0.241 C 
ATOM     18  O   UNL     1      18.687   6.282  26.551  0.00  0.00    -0.273 OA
ATOM     19  N   UNL     1      19.025   8.427  25.738  0.00  0.00    -0.253 N 
ATOM     20  H   UNL     1      19.018   9.035  24.934  0.00  0.00    +0.158 HD
ATOM     21  C   UNL     1      18.964   9.111  26.948  0.00  0.00    +0.221 A 
ATOM     22  N   UNL     1      18.785  10.437  26.849  0.00  0.00    -0.223 NA
ATOM     23  C   UNL     1      18.648  11.107  28.013  0.00  0.00    +0.116 A 
ATOM     24  C   UNL     1      18.712  10.512  29.250  0.00  0.00    +0.039 A 
ATOM     25  C   UNL     1      18.944   9.162  29.238  0.00  0.00    +0.116 A 
ATOM     26  N   UNL     1      19.071   8.453  28.106  0.00  0.00    -0.223 NA
ENDBRANCH  16  17
ENDBRANCH  14  16
ENDBRANCH  10  12
ENDBRANCH   9  10
ENDBRANCH   5   9
ENDBRANCH   4   7
ENDBRANCH   1   4
BRANCH   1  27
ATOM     27  C   UNL     1      18.009  -0.554  23.369  0.00  0.00    +0.175 C 
BRANCH  27  28
ATOM     28  C   UNL     1      17.450  -1.660  24.275  0.00  0.00    +0.176 C 
ATOM     29  O   UNL     1      16.494  -2.434  23.499  0.00  0.00    -0.332 OA
ATOM     30  C   UNL     1      15.932  -3.608  24.173  0.00  0.00    +0.277 C 
ATOM     31  C   UNL     1      15.300  -3.202  25.527  0.00  0.00    +0.110 C 
ATOM     32  C   UNL     1      16.267  -2.351  26.375  0.00  0.00    +0.143 C 
ATOM     33  C   UNL     1      16.794  -1.159  25.576  0.00  0.00    +0.133 C 
BRANCH  33  34
ATOM     34  N   UNL     1      17.781  -0.405  26.364  0.00  0.00    -0.308 N 
ATOM     35  H   UNL     1      18.656  -0.860  26.585  0.00  0.00    +0.149 HD
ATOM     36  C   UNL     1      17.597   0.842  26.807  0.00  0.00    +0.210 C 
ATOM     37  C   UNL     1      16.244   1.499  26.476  0.00  0.00    +0.109 C 
ATOM     38  O   UNL     1      18.448   1.454  27.453  0.00  0.00    -0.276 OA
ENDBRANCH  33  34
BRANCH  30  39
ATOM     39  C   UNL     1      17.020  -4.676  24.411  0.00  0.00    +0.414 C 
ATOM     40  O   UNL     1      16.798  -5.632  25.153  0.00  0.00    -0.240 OA
ATOM     41  O   UNL     1      18.118  -4.581  23.862  0.00  0.00    -0.240 OA
ENDBRANCH  30  39
BRANCH  30  42
ATOM     42  O   UNL     1      14.888  -4.155  23.327  0.00  0.00    -0.343 OA
ATOM     43  C   UNL     1      15.274  -4.380  21.947  0.00  0.00    +0.198 C 
ENDBRANCH  30  42
BRANCH  32  44
ATOM     44  O   UNL     1      15.594  -1.874  27.542  0.00  0.00    -0.390 OA
ATOM     45  H   UNL     1      14.851  -1.325  27.281  0.00  0.00    +0.210 HD
ENDBRANCH  32  44
ENDBRANCH  27  28
BRANCH  27  46
ATOM     46  O   UNL     1      17.087   0.553  23.311  0.00  0.00    -0.387 OA
ATOM     47  H   UNL     1      16.761   0.652  22.413  0.00  0.00    +0.210 HD
ENDBRANCH  27  46
ENDBRANCH   1  27
TORSDOF 15
