REMARK VINA RESULT:    -7.479      1.303      1.628
REMARK INTER + INTRA:         -14.146
REMARK INTER:                 -12.756
REMARK INTRA:                  -1.389
REMARK UNBOUND:                -1.202
REMARK  Name = lig_assembled_40.pdb
REMARK  17 active torsions:
REMARK  status: ('A' for Active; 'I' for Inactive)
REMARK    1  A    between atoms: _2  and  _9
REMARK    2  A    between atoms: _4  and  _19
REMARK    3  A    between atoms: _6  and  _7
REMARK    4  A    between atoms: _6  and  _19
REMARK    5  A    between atoms: _12  and  _13
REMARK    6  A    between atoms: _15  and  _35
REMARK    7  A    between atoms: _17  and  _23
REMARK    8  A    between atoms: _18  and  _22
REMARK    9  A    between atoms: _22  and  _23
REMARK   10  A    between atoms: _25  and  _26
REMARK   11  A    between atoms: _27  and  _28
REMARK   12  A    between atoms: _29  and  _31
REMARK   13  A    between atoms: _31  and  _32
REMARK   14  A    between atoms: _31  and  _33
REMARK   15  A    between atoms: _33  and  _34
REMARK   16  A    between atoms: _33  and  _35
REMARK   17  A    between atoms: _36  and  _38
REMARK                            x       y       z     vdW  Elec       q    Type
REMARK                         _______ _______ _______ _____ _____    ______ ____
ROOT
ATOM      1  C   UNL     1       5.567   2.222  32.806  0.00  0.00    +0.163 C 
ENDROOT
BRANCH   1   2
ATOM      2  O   UNL     1       5.505   1.812  31.430  0.00  0.00    -0.388 OA
ATOM      3  H   UNL     1       5.345   2.578  30.874  0.00  0.00    +0.210 HD
ENDBRANCH   1   2
BRANCH   1   4
ATOM      4  C   UNL     1       4.486   3.259  33.090  0.00  0.00    +0.141 C 
BRANCH   4   7
ATOM      5  C   UNL     1       2.356   3.736  31.932  0.00  0.00    +0.401 C 
ATOM      6  O   UNL     1       1.676   3.680  32.959  0.00  0.00    -0.226 OA
ATOM      7  N   UNL     1       3.676   3.546  31.900  0.00  0.00    -0.279 N 
ATOM      8  H   UNL     1       4.144   3.602  31.007  0.00  0.00    +0.152 HD
BRANCH   5   9
ATOM      9  O   UNL     1       1.711   4.016  30.687  0.00  0.00    -0.444 OA
BRANCH   9  10
ATOM     10  C   UNL     1       1.931   2.931  29.781  0.00  0.00    +0.292 C 
BRANCH  10  12
ATOM     11  N   UNL     1       0.336   3.996  28.217  0.00  0.00    -0.131 NA
ATOM     12  C   UNL     1       1.491   3.300  28.422  0.00  0.00    +0.121 A 
ATOM     13  C   UNL     1       2.092   3.060  27.210  0.00  0.00    +0.143 A 
ATOM     14  N   UNL     1       1.276   3.663  26.279  0.00  0.00    -0.220 N 
ATOM     15  N   UNL     1       0.206   4.206  26.913  0.00  0.00    -0.060 NA
BRANCH  14  16
ATOM     16  C   UNL     1       1.470   3.784  24.879  0.00  0.00    +0.067 A 
ATOM     17  C   UNL     1       1.352   5.025  24.243  0.00  0.00    +0.028 A 
ATOM     18  C   UNL     1       1.476   5.118  22.854  0.00  0.00    +0.005 A 
ATOM     19  C   UNL     1       1.718   3.976  22.083  0.00  0.00    -0.050 A 
ATOM     20  C   UNL     1       1.871   2.741  22.724  0.00  0.00    +0.005 A 
ATOM     21  C   UNL     1       1.805   4.064  20.588  0.00  0.00    +0.044 C 
ATOM     22  C   UNL     1       1.749   2.642  24.113  0.00  0.00    +0.028 A 
ENDBRANCH  14  16
ENDBRANCH  10  12
ENDBRANCH   9  10
ENDBRANCH   5   9
ENDBRANCH   4   7
ENDBRANCH   1   4
BRANCH   1  23
ATOM     23  C   UNL     1       6.947   2.813  33.142  0.00  0.00    +0.175 C 
BRANCH  23  24
ATOM     24  C   UNL     1       6.925   3.629  34.443  0.00  0.00    +0.176 C 
ATOM     25  O   UNL     1       7.295   4.998  34.118  0.00  0.00    -0.332 OA
ATOM     26  C   UNL     1       7.226   5.954  35.227  0.00  0.00    +0.277 C 
ATOM     27  C   UNL     1       8.069   5.454  36.426  0.00  0.00    +0.110 C 
ATOM     28  C   UNL     1       7.732   3.992  36.788  0.00  0.00    +0.143 C 
ATOM     29  C   UNL     1       7.833   3.085  35.561  0.00  0.00    +0.133 C 
BRANCH  29  30
ATOM     30  N   UNL     1       7.427   1.713  35.900  0.00  0.00    -0.308 N 
ATOM     31  H   UNL     1       6.483   1.568  36.232  0.00  0.00    +0.149 HD
ATOM     32  C   UNL     1       8.223   0.645  35.799  0.00  0.00    +0.210 C 
ATOM     33  C   UNL     1       9.663   0.902  35.316  0.00  0.00    +0.109 C 
ATOM     34  O   UNL     1       7.850  -0.496  36.076  0.00  0.00    -0.276 OA
ENDBRANCH  29  30
BRANCH  26  35
ATOM     35  C   UNL     1       5.765   6.165  35.676  0.00  0.00    +0.414 C 
ATOM     36  O   UNL     1       5.489   6.239  36.873  0.00  0.00    -0.240 OA
ATOM     37  O   UNL     1       4.863   6.261  34.843  0.00  0.00    -0.240 OA
ENDBRANCH  26  35
BRANCH  28  38
ATOM     38  O   UNL     1       8.634   3.526  37.793  0.00  0.00    -0.390 OA
ATOM     39  H   UNL     1       9.491   3.940  37.672  0.00  0.00    +0.210 HD
ENDBRANCH  28  38
BRANCH  26  40
ATOM     40  O   UNL     1       7.783   7.213  34.769  0.00  0.00    -0.343 OA
ATOM     41  C   UNL     1       8.310   8.066  35.817  0.00  0.00    +0.198 C 
ENDBRANCH  26  40
ENDBRANCH  23  24
BRANCH  23  42
ATOM     42  O   UNL     1       7.417   3.629  32.051  0.00  0.00    -0.387 OA
ATOM     43  H   UNL     1       6.673   3.896  31.507  0.00  0.00    +0.210 HD
ENDBRANCH  23  42
ENDBRANCH   1  23
TORSDOF 14
