REMARK VINA RESULT:    -6.765      2.175      3.461
REMARK INTER + INTRA:         -13.793
REMARK INTER:                 -11.617
REMARK INTRA:                  -2.176
REMARK UNBOUND:                -1.294
REMARK  Name = lig_assembled_24.pdb
REMARK  19 active torsions:
REMARK  status: ('A' for Active; 'I' for Inactive)
REMARK    1  A    between atoms: _2  and  _9
REMARK    2  A    between atoms: _4  and  _21
REMARK    3  A    between atoms: _6  and  _7
REMARK    4  A    between atoms: _6  and  _21
REMARK    5  A    between atoms: _9  and  _10
REMARK    6  A    between atoms: _13  and  _16
REMARK    7  A    between atoms: _14  and  _16
REMARK    8  A    between atoms: _17  and  _37
REMARK    9  A    between atoms: _19  and  _25
REMARK   10  A    between atoms: _20  and  _24
REMARK   11  A    between atoms: _24  and  _25
REMARK   12  A    between atoms: _27  and  _28
REMARK   13  A    between atoms: _29  and  _30
REMARK   14  A    between atoms: _31  and  _33
REMARK   15  A    between atoms: _33  and  _34
REMARK   16  A    between atoms: _33  and  _35
REMARK   17  A    between atoms: _35  and  _36
REMARK   18  A    between atoms: _35  and  _37
REMARK   19  A    between atoms: _38  and  _40
REMARK                            x       y       z     vdW  Elec       q    Type
REMARK                         _______ _______ _______ _____ _____    ______ ____
ROOT
ATOM      1  C   UNL     1       2.685   2.647  32.611  0.00  0.00    +0.163 C 
ENDROOT
BRANCH   1   2
ATOM      2  O   UNL     1       2.263   1.592  33.491  0.00  0.00    -0.388 OA
ATOM      3  H   UNL     1       2.999   0.996  33.653  0.00  0.00    +0.210 HD
ENDBRANCH   1   2
BRANCH   1   4
ATOM      4  C   UNL     1       3.749   3.532  33.284  0.00  0.00    +0.175 C 
BRANCH   4   5
ATOM      5  C   UNL     1       3.426   3.803  34.761  0.00  0.00    +0.176 C 
ATOM      6  O   UNL     1       1.988   3.988  34.877  0.00  0.00    -0.332 OA
ATOM      7  C   UNL     1       1.479   4.155  36.242  0.00  0.00    +0.277 C 
ATOM      8  C   UNL     1       2.217   5.314  36.957  0.00  0.00    +0.110 C 
ATOM      9  C   UNL     1       3.749   5.177  36.833  0.00  0.00    +0.143 C 
ATOM     10  C   UNL     1       4.168   5.006  35.372  0.00  0.00    +0.133 C 
BRANCH  10  11
ATOM     11  N   UNL     1       5.620   4.790  35.274  0.00  0.00    -0.308 N 
ATOM     12  H   UNL     1       5.986   3.902  35.589  0.00  0.00    +0.149 HD
ATOM     13  C   UNL     1       6.484   5.689  34.798  0.00  0.00    +0.210 C 
ATOM     14  C   UNL     1       5.897   7.042  34.352  0.00  0.00    +0.109 C 
ATOM     15  O   UNL     1       7.694   5.475  34.714  0.00  0.00    -0.276 OA
ENDBRANCH  10  11
BRANCH   7  16
ATOM     16  C   UNL     1       1.654   2.854  37.053  0.00  0.00    +0.414 C 
ATOM     17  O   UNL     1       1.730   2.894  38.281  0.00  0.00    -0.240 OA
ATOM     18  O   UNL     1       1.720   1.765  36.481  0.00  0.00    -0.240 OA
ENDBRANCH   7  16
BRANCH   7  19
ATOM     19  O   UNL     1       0.071   4.492  36.158  0.00  0.00    -0.343 OA
ATOM     20  C   UNL     1      -0.631   3.912  35.029  0.00  0.00    +0.198 C 
ENDBRANCH   7  19
BRANCH   9  21
ATOM     21  O   UNL     1       4.381   6.338  37.371  0.00  0.00    -0.390 OA
ATOM     22  H   UNL     1       3.890   7.121  37.110  0.00  0.00    +0.210 HD
ENDBRANCH   9  21
ENDBRANCH   4   5
BRANCH   4  23
ATOM     23  O   UNL     1       3.884   4.776  32.569  0.00  0.00    -0.387 OA
ATOM     24  H   UNL     1       4.605   5.286  32.946  0.00  0.00    +0.210 HD
ENDBRANCH   4  23
ENDBRANCH   1   4
BRANCH   1  25
ATOM     25  C   UNL     1       3.252   2.058  31.324  0.00  0.00    +0.141 C 
BRANCH  25  28
ATOM     26  C   UNL     1       1.792   2.740  29.451  0.00  0.00    +0.401 C 
ATOM     27  O   UNL     1       0.920   1.904  29.702  0.00  0.00    -0.226 OA
ATOM     28  N   UNL     1       2.917   2.878  30.153  0.00  0.00    -0.279 N 
ATOM     29  H   UNL     1       3.576   3.586  29.863  0.00  0.00    +0.152 HD
BRANCH  26  30
ATOM     30  O   UNL     1       1.608   3.622  28.341  0.00  0.00    -0.444 OA
BRANCH  30  31
ATOM     31  C   UNL     1       1.732   2.887  27.120  0.00  0.00    +0.292 C 
BRANCH  31  33
ATOM     32  N   UNL     1       0.519   4.748  26.028  0.00  0.00    -0.131 NA
ATOM     33  C   UNL     1       1.468   3.764  25.964  0.00  0.00    +0.120 A 
ATOM     34  C   UNL     1       2.065   3.793  24.723  0.00  0.00    +0.137 A 
ATOM     35  N   UNL     1       1.488   4.861  24.100  0.00  0.00    -0.247 N 
ATOM     36  N   UNL     1       0.531   5.408  24.879  0.00  0.00    -0.065 NA
BRANCH  35  37
ATOM     37  C   UNL     1       1.781   5.487  22.821  0.00  0.00    +0.180 C 
BRANCH  37  38
ATOM     38  C   UNL     1       1.185   4.788  21.623  0.00  0.00    -0.026 A 
ATOM     39  C   UNL     1      -0.157   4.991  21.276  0.00  0.00    +0.009 A 
ATOM     40  C   UNL     1      -0.701   4.342  20.164  0.00  0.00    +0.046 A 
ATOM     41  C   UNL     1       0.086   3.499  19.377  0.00  0.00    +0.120 A 
ATOM     42  C   UNL     1       1.413   3.275  19.730  0.00  0.00    +0.046 A 
ATOM     43  C   UNL     1       1.962   3.915  20.847  0.00  0.00    +0.009 A 
BRANCH  41  44
ATOM     44  O   UNL     1      -0.561   2.905  18.328  0.00  0.00    -0.495 OA
ATOM     45  C   UNL     1      -1.817   2.312  18.642  0.00  0.00    +0.277 C 
ENDBRANCH  41  44
ENDBRANCH  37  38
ENDBRANCH  35  37
ENDBRANCH  31  33
ENDBRANCH  30  31
ENDBRANCH  26  30
ENDBRANCH  25  28
ENDBRANCH   1  25
TORSDOF 16
