REMARK VINA RESULT:    -6.277     14.487     18.082
REMARK INTER + INTRA:         -13.136
REMARK INTER:                 -11.429
REMARK INTRA:                  -1.707
REMARK UNBOUND:                -1.905
REMARK  Name = lig_assembled_38.pdb
REMARK  17 active torsions:
REMARK  status: ('A' for Active; 'I' for Inactive)
REMARK    1  A    between atoms: _2  and  _9
REMARK    2  A    between atoms: _4  and  _19
REMARK    3  A    between atoms: _6  and  _7
REMARK    4  A    between atoms: _6  and  _19
REMARK    5  A    between atoms: _9  and  _10
REMARK    6  A    between atoms: _15  and  _35
REMARK    7  A    between atoms: _17  and  _23
REMARK    8  A    between atoms: _18  and  _22
REMARK    9  A    between atoms: _22  and  _23
REMARK   10  A    between atoms: _25  and  _26
REMARK   11  A    between atoms: _27  and  _28
REMARK   12  A    between atoms: _29  and  _31
REMARK   13  A    between atoms: _31  and  _32
REMARK   14  A    between atoms: _31  and  _33
REMARK   15  A    between atoms: _33  and  _34
REMARK   16  A    between atoms: _33  and  _35
REMARK   17  A    between atoms: _36  and  _38
REMARK                            x       y       z     vdW  Elec       q    Type
REMARK                         _______ _______ _______ _____ _____    ______ ____
ROOT
ATOM      1  C   UNL     1      17.997   5.369  23.635  0.00  0.00    +0.163 C 
ENDROOT
BRANCH   1   2
ATOM      2  O   UNL     1      16.889   5.413  22.721  0.00  0.00    -0.388 OA
ATOM      3  H   UNL     1      17.160   5.056  21.871  0.00  0.00    +0.210 HD
ENDBRANCH   1   2
BRANCH   1   4
ATOM      4  C   UNL     1      18.950   6.526  23.356  0.00  0.00    +0.141 C 
BRANCH   4   7
ATOM      5  C   UNL     1      20.285   7.414  25.236  0.00  0.00    +0.401 C 
ATOM      6  O   UNL     1      21.284   6.744  24.967  0.00  0.00    -0.226 OA
ATOM      7  N   UNL     1      19.148   7.370  24.540  0.00  0.00    -0.279 N 
ATOM      8  H   UNL     1      18.379   7.951  24.845  0.00  0.00    +0.152 HD
BRANCH   5   9
ATOM      9  O   UNL     1      20.323   8.296  26.361  0.00  0.00    -0.444 OA
BRANCH   9  10
ATOM     10  C   UNL     1      19.323   7.907  27.307  0.00  0.00    +0.292 C 
BRANCH  10  12
ATOM     11  N   UNL     1      18.307  10.053  28.013  0.00  0.00    -0.131 NA
ATOM     12  C   UNL     1      19.108   8.980  28.299  0.00  0.00    +0.120 A 
ATOM     13  C   UNL     1      19.579   9.099  29.587  0.00  0.00    +0.137 A 
ATOM     14  N   UNL     1      18.984  10.237  30.052  0.00  0.00    -0.247 N 
ATOM     15  N   UNL     1      18.231  10.814  29.096  0.00  0.00    -0.065 NA
BRANCH  14  16
ATOM     16  C   UNL     1      18.897  10.693  31.428  0.00  0.00    +0.180 C 
BRANCH  16  17
ATOM     17  C   UNL     1      17.669  10.193  32.150  0.00  0.00    -0.025 A 
ATOM     18  C   UNL     1      16.658  11.081  32.549  0.00  0.00    +0.005 A 
ATOM     19  C   UNL     1      15.482  10.601  33.137  0.00  0.00    +0.001 A 
ATOM     20  C   UNL     1      15.305   9.233  33.333  0.00  0.00    +0.015 A 
ATOM     21  C   UNL     1      16.308   8.349  32.949  0.00  0.00    +0.018 A 
ATOM     22 BR   UNL     1      16.067   6.490  33.203  0.00  0.00    -0.050 Br
ATOM     23  C   UNL     1      17.484   8.818  32.361  0.00  0.00    +0.020 A 
ENDBRANCH  16  17
ENDBRANCH  14  16
ENDBRANCH  10  12
ENDBRANCH   9  10
ENDBRANCH   5   9
ENDBRANCH   4   7
ENDBRANCH   1   4
BRANCH   1  24
ATOM     24  C   UNL     1      18.756   4.036  23.516  0.00  0.00    +0.175 C 
BRANCH  24  25
ATOM     25  C   UNL     1      18.028   2.890  24.233  0.00  0.00    +0.176 C 
ATOM     26  O   UNL     1      18.723   2.632  25.484  0.00  0.00    -0.332 OA
ATOM     27  C   UNL     1      18.103   1.632  26.359  0.00  0.00    +0.277 C 
ATOM     28  C   UNL     1      17.890   0.302  25.595  0.00  0.00    +0.110 C 
ATOM     29  C   UNL     1      17.183   0.530  24.242  0.00  0.00    +0.143 C 
ATOM     30  C   UNL     1      17.909   1.591  23.414  0.00  0.00    +0.133 C 
BRANCH  30  31
ATOM     31  N   UNL     1      17.178   1.861  22.167  0.00  0.00    -0.308 N 
ATOM     32  H   UNL     1      16.275   2.310  22.237  0.00  0.00    +0.149 HD
ATOM     33  C   UNL     1      17.628   1.551  20.948  0.00  0.00    +0.210 C 
ATOM     34  C   UNL     1      18.994   0.843  20.877  0.00  0.00    +0.109 C 
ATOM     35  O   UNL     1      17.000   1.803  19.919  0.00  0.00    -0.276 OA
ENDBRANCH  30  31
BRANCH  27  36
ATOM     36  C   UNL     1      16.749   2.140  26.897  0.00  0.00    +0.414 C 
ATOM     37  O   UNL     1      16.701   3.143  27.608  0.00  0.00    -0.240 OA
ATOM     38  O   UNL     1      15.705   1.548  26.619  0.00  0.00    -0.240 OA
ENDBRANCH  27  36
BRANCH  27  39
ATOM     39  O   UNL     1      19.006   1.384  27.466  0.00  0.00    -0.343 OA
ATOM     40  C   UNL     1      18.967   0.035  27.998  0.00  0.00    +0.198 C 
ENDBRANCH  27  39
BRANCH  29  41
ATOM     41  O   UNL     1      17.143  -0.695  23.507  0.00  0.00    -0.390 OA
ATOM     42  H   UNL     1      16.413  -0.671  22.884  0.00  0.00    +0.210 HD
ENDBRANCH  29  41
ENDBRANCH  24  25
BRANCH  24  43
ATOM     43  O   UNL     1      20.093   4.178  24.036  0.00  0.00    -0.387 OA
ATOM     44  H   UNL     1      20.724   4.136  23.314  0.00  0.00    +0.210 HD
ENDBRANCH  24  43
ENDBRANCH   1  24
TORSDOF 15
