REMARK VINA RESULT:    -6.775      0.000      0.000
REMARK INTER + INTRA:         -15.143
REMARK INTER:                 -13.022
REMARK INTRA:                  -2.121
REMARK UNBOUND:                -2.230
REMARK  Name = lig_assembled_9.pdb
REMARK  20 active torsions:
REMARK  status: ('A' for Active; 'I' for Inactive)
REMARK    1  A    between atoms: _2  and  _9
REMARK    2  A    between atoms: _4  and  _23
REMARK    3  A    between atoms: _6  and  _7
REMARK    4  A    between atoms: _6  and  _23
REMARK    5  A    between atoms: _11  and  _12
REMARK    6  A    between atoms: _12  and  _17
REMARK    7  A    between atoms: _13  and  _14
REMARK    8  A    between atoms: _13  and  _17
REMARK    9  A    between atoms: _19  and  _39
REMARK   10  A    between atoms: _21  and  _27
REMARK   11  A    between atoms: _22  and  _26
REMARK   12  A    between atoms: _26  and  _27
REMARK   13  A    between atoms: _29  and  _30
REMARK   14  A    between atoms: _31  and  _32
REMARK   15  A    between atoms: _33  and  _35
REMARK   16  A    between atoms: _35  and  _36
REMARK   17  A    between atoms: _35  and  _37
REMARK   18  A    between atoms: _37  and  _38
REMARK   19  A    between atoms: _37  and  _39
REMARK   20  A    between atoms: _40  and  _42
REMARK                            x       y       z     vdW  Elec       q    Type
REMARK                         _______ _______ _______ _____ _____    ______ ____
ROOT
ATOM      1  C   UNL     1       4.648   3.255  32.283  0.00  0.00    +0.163 C 
ENDROOT
BRANCH   1   2
ATOM      2  O   UNL     1       4.072   4.368  32.985  0.00  0.00    -0.388 OA
ATOM      3  H   UNL     1       3.138   4.433  32.772  0.00  0.00    +0.210 HD
ENDBRANCH   1   2
BRANCH   1   4
ATOM      4  C   UNL     1       6.035   2.905  32.849  0.00  0.00    +0.175 C 
BRANCH   4   5
ATOM      5  C   UNL     1       6.278   3.550  34.222  0.00  0.00    +0.176 C 
ATOM      6  O   UNL     1       6.823   4.880  34.000  0.00  0.00    -0.332 OA
ATOM      7  C   UNL     1       7.022   5.692  35.205  0.00  0.00    +0.277 C 
ATOM      8  C   UNL     1       7.897   4.932  36.232  0.00  0.00    +0.110 C 
ATOM      9  C   UNL     1       7.374   3.500  36.476  0.00  0.00    +0.143 C 
ATOM     10  C   UNL     1       7.201   2.747  35.157  0.00  0.00    +0.133 C 
BRANCH  10  11
ATOM     11  N   UNL     1       6.621   1.416  35.396  0.00  0.00    -0.308 N 
ATOM     12  H   UNL     1       5.743   1.367  35.893  0.00  0.00    +0.149 HD
ATOM     13  C   UNL     1       7.179   0.269  34.998  0.00  0.00    +0.210 C 
ATOM     14  C   UNL     1       8.530   0.377  34.265  0.00  0.00    +0.109 C 
ATOM     15  O   UNL     1       6.663  -0.831  35.199  0.00  0.00    -0.276 OA
ENDBRANCH  10  11
BRANCH   7  16
ATOM     16  C   UNL     1       5.668   6.055  35.849  0.00  0.00    +0.414 C 
ATOM     17  O   UNL     1       5.583   6.211  37.066  0.00  0.00    -0.240 OA
ATOM     18  O   UNL     1       4.662   6.191  35.152  0.00  0.00    -0.240 OA
ENDBRANCH   7  16
BRANCH   7  19
ATOM     19  O   UNL     1       7.720   6.904  34.818  0.00  0.00    -0.343 OA
ATOM     20  C   UNL     1       8.199   7.713  35.922  0.00  0.00    +0.198 C 
ENDBRANCH   7  19
BRANCH   9  21
ATOM     21  O   UNL     1       8.291   2.788  37.308  0.00  0.00    -0.390 OA
ATOM     22  H   UNL     1       7.806   2.319  37.991  0.00  0.00    +0.210 HD
ENDBRANCH   9  21
ENDBRANCH   4   5
BRANCH   4  23
ATOM     23  O   UNL     1       7.065   3.305  31.923  0.00  0.00    -0.387 OA
ATOM     24  H   UNL     1       6.723   3.265  31.027  0.00  0.00    +0.210 HD
ENDBRANCH   4  23
ENDBRANCH   1   4
BRANCH   1  25
ATOM     25  C   UNL     1       3.733   2.040  32.390  0.00  0.00    +0.141 C 
BRANCH  25  28
ATOM     26  C   UNL     1       1.709   2.654  31.112  0.00  0.00    +0.401 C 
ATOM     27  O   UNL     1       1.316   3.472  31.946  0.00  0.00    -0.226 OA
ATOM     28  N   UNL     1       2.825   1.935  31.241  0.00  0.00    -0.279 N 
ATOM     29  H   UNL     1       3.059   1.281  30.507  0.00  0.00    +0.152 HD
BRANCH  26  30
ATOM     30  O   UNL     1       0.936   2.443  29.928  0.00  0.00    -0.444 OA
BRANCH  30  31
ATOM     31  C   UNL     1       1.796   2.034  28.861  0.00  0.00    +0.292 C 
BRANCH  31  33
ATOM     32  N   UNL     1       0.571   3.798  27.630  0.00  0.00    -0.131 NA
ATOM     33  C   UNL     1       1.448   2.752  27.621  0.00  0.00    +0.121 A 
ATOM     34  C   UNL     1       1.893   2.550  26.336  0.00  0.00    +0.143 A 
ATOM     35  N   UNL     1       1.283   3.533  25.590  0.00  0.00    -0.220 N 
ATOM     36  N   UNL     1       0.470   4.261  26.391  0.00  0.00    -0.060 NA
BRANCH  35  37
ATOM     37  C   UNL     1       1.445   3.829  24.212  0.00  0.00    +0.068 A 
ATOM     38  C   UNL     1       1.547   2.798  23.268  0.00  0.00    +0.042 A 
ATOM     39  C   UNL     1       1.740   3.095  21.911  0.00  0.00    +0.061 A 
ATOM     40  C   UNL     1       1.825   4.430  21.499  0.00  0.00    +0.015 A 
ATOM     41  C   UNL     1       1.711   5.460  22.435  0.00  0.00    +0.003 A 
ATOM     42  C   UNL     1       1.520   5.164  23.786  0.00  0.00    +0.028 A 
BRANCH  39  43
ATOM     43  C   UNL     1       1.793   2.033  20.872  0.00  0.00    +0.339 C 
ATOM     44  O   UNL     1       1.443   0.880  21.064  0.00  0.00    -0.245 OA
BRANCH  43  45
ATOM     45  O   UNL     1       2.373   2.520  19.748  0.00  0.00    -0.461 OA
BRANCH  45  46
ATOM     46  C   UNL     1       1.942   1.919  18.520  0.00  0.00    +0.229 C 
ATOM     47  C   UNL     1       0.989   2.880  17.835  0.00  0.00    +0.048 C 
ENDBRANCH  45  46
ENDBRANCH  43  45
ENDBRANCH  39  43
ENDBRANCH  35  37
ENDBRANCH  31  33
ENDBRANCH  30  31
ENDBRANCH  26  30
ENDBRANCH  25  28
ENDBRANCH   1  25
TORSDOF 17
