REMARK VINA RESULT:    -5.913      2.088      4.312
REMARK INTER + INTRA:         -13.188
REMARK INTER:                 -10.641
REMARK INTRA:                  -2.547
REMARK UNBOUND:                -2.608
REMARK  Name = lig_assembled_4.pdb
REMARK  19 active torsions:
REMARK  status: ('A' for Active; 'I' for Inactive)
REMARK    1  A    between atoms: _2  and  _9
REMARK    2  A    between atoms: _4  and  _21
REMARK    3  A    between atoms: _6  and  _7
REMARK    4  A    between atoms: _6  and  _21
REMARK    5  A    between atoms: _10  and  _11
REMARK    6  A    between atoms: _11  and  _12
REMARK    7  A    between atoms: _11  and  _13
REMARK    8  A    between atoms: _17  and  _37
REMARK    9  A    between atoms: _19  and  _25
REMARK   10  A    between atoms: _20  and  _24
REMARK   11  A    between atoms: _24  and  _25
REMARK   12  A    between atoms: _27  and  _28
REMARK   13  A    between atoms: _29  and  _30
REMARK   14  A    between atoms: _31  and  _33
REMARK   15  A    between atoms: _33  and  _34
REMARK   16  A    between atoms: _33  and  _35
REMARK   17  A    between atoms: _35  and  _36
REMARK   18  A    between atoms: _35  and  _37
REMARK   19  A    between atoms: _38  and  _40
REMARK                            x       y       z     vdW  Elec       q    Type
REMARK                         _______ _______ _______ _____ _____    ______ ____
ROOT
ATOM      1  C   UNL     1       1.153   2.638  34.564  0.00  0.00    +0.163 C 
ENDROOT
BRANCH   1   2
ATOM      2  O   UNL     1       0.890   1.297  34.120  0.00  0.00    -0.388 OA
ATOM      3  H   UNL     1       1.523   1.054  33.441  0.00  0.00    +0.210 HD
ENDBRANCH   1   2
BRANCH   1   4
ATOM      4  C   UNL     1       0.588   3.640  33.562  0.00  0.00    +0.141 C 
BRANCH   4   7
ATOM      5  C   UNL     1       0.278   3.686  31.111  0.00  0.00    +0.401 C 
ATOM      6  O   UNL     1       0.472   4.900  31.015  0.00  0.00    -0.226 OA
ATOM      7  N   UNL     1       0.307   3.015  32.264  0.00  0.00    -0.279 N 
ATOM      8  H   UNL     1       0.125   2.022  32.242  0.00  0.00    +0.152 HD
BRANCH   5   9
ATOM      9  O   UNL     1      -0.002   2.932  29.929  0.00  0.00    -0.444 OA
BRANCH   9  10
ATOM     10  C   UNL     1      -0.471   3.809  28.902  0.00  0.00    +0.292 C 
BRANCH  10  12
ATOM     11  N   UNL     1       1.734   3.732  27.796  0.00  0.00    -0.131 NA
ATOM     12  C   UNL     1       0.378   3.706  27.701  0.00  0.00    +0.121 A 
ATOM     13  C   UNL     1       0.020   3.615  26.374  0.00  0.00    +0.143 A 
ATOM     14  N   UNL     1       1.210   3.721  25.679  0.00  0.00    -0.219 N 
ATOM     15  N   UNL     1       2.229   3.714  26.565  0.00  0.00    -0.060 NA
BRANCH  14  16
ATOM     16  C   UNL     1       1.383   3.847  24.267  0.00  0.00    +0.070 A 
ATOM     17  C   UNL     1       1.363   2.739  23.377  0.00  0.00    -0.019 A 
ATOM     18  C   UNL     1       1.579   3.002  22.005  0.00  0.00    +0.006 A 
ATOM     19  C   UNL     1       1.817   4.291  21.525  0.00  0.00    +0.000 A 
ATOM     20  C   UNL     1       1.826   5.364  22.402  0.00  0.00    +0.002 A 
ATOM     21  C   UNL     1       1.612   5.146  23.762  0.00  0.00    +0.028 A 
BRANCH  17  22
ATOM     22  C   UNL     1       1.136   1.289  23.809  0.00  0.00    +0.015 C 
ATOM     23  C   UNL     1       1.879   0.236  22.972  0.00  0.00    +0.012 C 
ATOM     24  C   UNL     1      -0.362   0.977  23.824  0.00  0.00    +0.012 C 
ENDBRANCH  17  22
ENDBRANCH  14  16
ENDBRANCH  10  12
ENDBRANCH   9  10
ENDBRANCH   5   9
ENDBRANCH   4   7
ENDBRANCH   1   4
BRANCH   1  25
ATOM     25  C   UNL     1       2.664   2.876  34.732  0.00  0.00    +0.175 C 
BRANCH  25  26
ATOM     26  C   UNL     1       3.460   2.427  33.497  0.00  0.00    +0.176 C 
ATOM     27  O   UNL     1       3.590   0.979  33.552  0.00  0.00    -0.332 OA
ATOM     28  C   UNL     1       4.236   0.357  32.392  0.00  0.00    +0.277 C 
ATOM     29  C   UNL     1       5.622   0.998  32.135  0.00  0.00    +0.110 C 
ATOM     30  C   UNL     1       5.539   2.539  32.101  0.00  0.00    +0.143 C 
ATOM     31  C   UNL     1       4.847   3.079  33.353  0.00  0.00    +0.133 C 
BRANCH  31  32
ATOM     32  N   UNL     1       4.697   4.540  33.268  0.00  0.00    -0.308 N 
ATOM     33  H   UNL     1       4.167   4.916  32.495  0.00  0.00    +0.149 HD
ATOM     34  C   UNL     1       5.215   5.402  34.147  0.00  0.00    +0.210 C 
ATOM     35  C   UNL     1       6.040   4.800  35.300  0.00  0.00    +0.109 C 
ATOM     36  O   UNL     1       5.060   6.621  34.059  0.00  0.00    -0.276 OA
ENDBRANCH  31  32
BRANCH  28  37
ATOM     37  C   UNL     1       3.358   0.506  31.132  0.00  0.00    +0.414 C 
ATOM     38  O   UNL     1       3.847   0.353  30.013  0.00  0.00    -0.240 OA
ATOM     39  O   UNL     1       2.161   0.779  31.234  0.00  0.00    -0.240 OA
ENDBRANCH  28  37
BRANCH  30  40
ATOM     40  O   UNL     1       6.854   3.090  32.015  0.00  0.00    -0.390 OA
ATOM     41  H   UNL     1       6.860   3.966  32.406  0.00  0.00    +0.210 HD
ENDBRANCH  30  40
BRANCH  28  42
ATOM     42  O   UNL     1       4.430  -1.050  32.688  0.00  0.00    -0.343 OA
ATOM     43  C   UNL     1       5.269  -1.323  33.838  0.00  0.00    +0.198 C 
ENDBRANCH  28  42
ENDBRANCH  25  26
BRANCH  25  44
ATOM     44  O   UNL     1       3.146   2.196  35.908  0.00  0.00    -0.387 OA
ATOM     45  H   UNL     1       3.379   2.842  36.579  0.00  0.00    +0.210 HD
ENDBRANCH  25  44
ENDBRANCH   1  25
TORSDOF 15
