REMARK VINA RESULT:    -5.028     14.081     16.273
REMARK INTER + INTRA:         -12.965
REMARK INTER:                 -10.208
REMARK INTRA:                  -2.757
REMARK UNBOUND:                -3.380
REMARK  Name = lig_assembled_62.pdb
REMARK  20 active torsions:
REMARK  status: ('A' for Active; 'I' for Inactive)
REMARK    1  A    between atoms: _2  and  _10
REMARK    2  A    between atoms: _5  and  _19
REMARK    3  A    between atoms: _6  and  _10
REMARK    4  A    between atoms: _7  and  _8
REMARK    5  A    between atoms: _7  and  _19
REMARK    6  A    between atoms: _10  and  _11
REMARK    7  A    between atoms: _11  and  _14
REMARK    8  A    between atoms: _12  and  _14
REMARK    9  A    between atoms: _15  and  _35
REMARK   10  A    between atoms: _17  and  _23
REMARK   11  A    between atoms: _18  and  _22
REMARK   12  A    between atoms: _22  and  _23
REMARK   13  A    between atoms: _25  and  _26
REMARK   14  A    between atoms: _27  and  _28
REMARK   15  A    between atoms: _29  and  _31
REMARK   16  A    between atoms: _31  and  _32
REMARK   17  A    between atoms: _31  and  _33
REMARK   18  A    between atoms: _33  and  _34
REMARK   19  A    between atoms: _33  and  _35
REMARK   20  A    between atoms: _36  and  _38
REMARK                            x       y       z     vdW  Elec       q    Type
REMARK                         _______ _______ _______ _____ _____    ______ ____
ROOT
ATOM      1  C   UNL     1       7.453   2.464  34.493  0.00  0.00    +0.163 C 
ENDROOT
BRANCH   1   2
ATOM      2  O   UNL     1       7.871   2.405  35.866  0.00  0.00    -0.388 OA
ATOM      3  H   UNL     1       8.740   2.000  35.920  0.00  0.00    +0.210 HD
ENDBRANCH   1   2
BRANCH   1   4
ATOM      4  C   UNL     1       7.829   3.815  33.860  0.00  0.00    +0.175 C 
BRANCH   4   5
ATOM      5  C   UNL     1       7.213   5.000  34.618  0.00  0.00    +0.176 C 
ATOM      6  O   UNL     1       7.914   5.134  35.885  0.00  0.00    -0.332 OA
ATOM      7  C   UNL     1       7.529   6.288  36.704  0.00  0.00    +0.277 C 
ATOM      8  C   UNL     1       6.000   6.290  36.949  0.00  0.00    +0.110 C 
ATOM      9  C   UNL     1       5.212   6.118  35.634  0.00  0.00    +0.143 C 
ATOM     10  C   UNL     1       5.696   4.890  34.861  0.00  0.00    +0.133 C 
BRANCH  10  11
ATOM     11  N   UNL     1       4.998   4.786  33.570  0.00  0.00    -0.308 N 
ATOM     12  H   UNL     1       5.224   5.463  32.856  0.00  0.00    +0.149 HD
ATOM     13  C   UNL     1       4.085   3.855  33.281  0.00  0.00    +0.210 C 
ATOM     14  C   UNL     1       3.743   2.853  34.401  0.00  0.00    +0.109 C 
ATOM     15  O   UNL     1       3.527   3.782  32.186  0.00  0.00    -0.276 OA
ENDBRANCH  10  11
BRANCH   7  16
ATOM     16  C   UNL     1       7.943   7.607  36.019  0.00  0.00    +0.414 C 
ATOM     17  O   UNL     1       8.218   8.597  36.696  0.00  0.00    -0.240 OA
ATOM     18  O   UNL     1       8.003   7.682  34.791  0.00  0.00    -0.240 OA
ENDBRANCH   7  16
BRANCH   7  19
ATOM     19  O   UNL     1       8.198   6.172  37.986  0.00  0.00    -0.343 OA
ATOM     20  C   UNL     1       9.382   5.335  37.985  0.00  0.00    +0.198 C 
ENDBRANCH   7  19
BRANCH   9  21
ATOM     21  O   UNL     1       3.820   5.974  35.922  0.00  0.00    -0.390 OA
ATOM     22  H   UNL     1       3.400   5.462  35.227  0.00  0.00    +0.210 HD
ENDBRANCH   9  21
ENDBRANCH   4   5
BRANCH   4  23
ATOM     23  O   UNL     1       7.425   3.846  32.477  0.00  0.00    -0.387 OA
ATOM     24  H   UNL     1       6.661   3.278  32.354  0.00  0.00    +0.210 HD
ENDBRANCH   4  23
ENDBRANCH   1   4
BRANCH   1  25
ATOM     25  C   UNL     1       8.100   1.333  33.701  0.00  0.00    +0.141 C 
BRANCH  25  28
ATOM     26  C   UNL     1       6.183   0.405  32.449  0.00  0.00    +0.401 C 
ATOM     27  O   UNL     1       6.001   1.428  31.785  0.00  0.00    -0.226 OA
ATOM     28  N   UNL     1       7.138   0.275  33.371  0.00  0.00    -0.279 N 
ATOM     29  H   UNL     1       7.202  -0.601  33.870  0.00  0.00    +0.152 HD
BRANCH  26  30
ATOM     30  O   UNL     1       5.329  -0.722  32.236  0.00  0.00    -0.444 OA
BRANCH  30  31
ATOM     31  C   UNL     1       4.011  -0.416  32.699  0.00  0.00    +0.292 C 
BRANCH  31  33
ATOM     32  N   UNL     1       3.522  -0.100  30.292  0.00  0.00    -0.131 NA
ATOM     33  C   UNL     1       3.196   0.136  31.601  0.00  0.00    +0.120 A 
ATOM     34  C   UNL     1       2.062   0.916  31.647  0.00  0.00    +0.138 A 
ATOM     35  N   UNL     1       1.754   1.134  30.335  0.00  0.00    -0.237 N 
ATOM     36  N   UNL     1       2.631   0.513  29.525  0.00  0.00    -0.065 NA
BRANCH  35  37
ATOM     37  C   UNL     1       0.646   1.876  29.756  0.00  0.00    +0.219 C 
BRANCH  37  38
ATOM     38  C   UNL     1       1.164   3.073  28.974  0.00  0.00    +0.237 C 
ATOM     39  O   UNL     1       0.531   3.651  28.094  0.00  0.00    -0.274 OA
ATOM     40  N   UNL     1       2.395   3.546  29.344  0.00  0.00    -0.328 N 
ATOM     41  H   UNL     1       2.930   3.175  30.119  0.00  0.00    +0.145 HD
ATOM     42  H   UNL     1       2.760   4.348  28.846  0.00  0.00    +0.145 HD
ENDBRANCH  37  38
BRANCH  37  43
ATOM     43  C   UNL     1      -0.336   2.314  30.839  0.00  0.00    +0.195 C 
BRANCH  43  44
ATOM     44  O   UNL     1      -0.032   3.657  31.242  0.00  0.00    -0.380 OA
ATOM     45  C   UNL     1      -0.713   4.014  32.438  0.00  0.00    +0.194 C 
ENDBRANCH  43  44
ENDBRANCH  37  43
ENDBRANCH  35  37
ENDBRANCH  31  33
ENDBRANCH  30  31
ENDBRANCH  26  30
ENDBRANCH  25  28
ENDBRANCH   1  25
TORSDOF 17
