REMARK VINA RESULT:    -7.175     14.202     16.250
REMARK INTER + INTRA:         -16.940
REMARK INTER:                 -14.492
REMARK INTRA:                  -2.448
REMARK UNBOUND:                -2.424
REMARK  Name = lig_assembled_81.pdb
REMARK  22 active torsions:
REMARK  status: ('A' for Active; 'I' for Inactive)
REMARK    1  A    between atoms: _2  and  _12
REMARK    2  A    between atoms: _7  and  _30
REMARK    3  A    between atoms: _8  and  _24
REMARK    4  A    between atoms: _9  and  _10
REMARK    5  A    between atoms: _9  and  _30
REMARK    6  A    between atoms: _14  and  _15
REMARK    7  A    between atoms: _21  and  _22
REMARK    8  A    between atoms: _22  and  _23
REMARK    9  A    between atoms: _23  and  _25
REMARK   10  A    between atoms: _24  and  _25
REMARK   11  A    between atoms: _26  and  _46
REMARK   12  A    between atoms: _28  and  _34
REMARK   13  A    between atoms: _29  and  _33
REMARK   14  A    between atoms: _33  and  _34
REMARK   15  A    between atoms: _36  and  _37
REMARK   16  A    between atoms: _38  and  _39
REMARK   17  A    between atoms: _40  and  _42
REMARK   18  A    between atoms: _42  and  _43
REMARK   19  A    between atoms: _42  and  _44
REMARK   20  A    between atoms: _44  and  _45
REMARK   21  A    between atoms: _44  and  _46
REMARK   22  A    between atoms: _47  and  _49
REMARK                            x       y       z     vdW  Elec       q    Type
REMARK                         _______ _______ _______ _____ _____    ______ ____
ROOT
ATOM      1  C   UNL     1       4.770   0.208  31.087  0.00  0.00    +0.401 C 
ATOM      2  O   UNL     1       5.868  -0.346  31.002  0.00  0.00    -0.226 OA
ATOM      3  N   UNL     1       4.493   1.185  31.953  0.00  0.00    -0.279 N 
ATOM      4  H   UNL     1       3.566   1.584  31.941  0.00  0.00    +0.152 HD
ENDROOT
BRANCH   1   5
ATOM      5  O   UNL     1       3.715  -0.201  30.213  0.00  0.00    -0.444 OA
BRANCH   5   6
ATOM      6  C   UNL     1       2.513   0.493  30.557  0.00  0.00    +0.289 C 
BRANCH   6   8
ATOM      7  N   UNL     1       2.560   2.799  29.726  0.00  0.00    -0.130 NA
ATOM      8  C   UNL     1       2.191   1.503  29.529  0.00  0.00    +0.100 C 
ATOM      9  C   UNL     1       1.515   1.413  28.327  0.00  0.00    +0.124 C 
ATOM     10  N   UNL     1       1.630   2.678  27.764  0.00  0.00    -0.187 N 
ATOM     11  N   UNL     1       2.092   3.513  28.716  0.00  0.00    -0.010 NA
BRANCH  10  12
ATOM     12  C   UNL     1       1.150   3.125  26.487  0.00  0.00    +0.150 A 
ATOM     13  C   UNL     1       1.695   2.767  25.229  0.00  0.00    +0.022 A 
ATOM     14  C   UNL     1       1.067   3.425  24.139  0.00  0.00    +0.081 A 
ATOM     15  N   UNL     1       0.095   4.358  24.331  0.00  0.00    -0.214 NA
ATOM     16  C   UNL     1      -0.312   4.628  25.559  0.00  0.00    +0.215 A 
ATOM     17  N   UNL     1      -1.229   5.637  25.736  0.00  0.00    -0.327 N 
ATOM     18  H   UNL     1      -1.751   5.810  24.891  0.00  0.00    +0.145 HD
ATOM     19  H   UNL     1      -1.728   5.541  26.608  0.00  0.00    +0.145 HD
ATOM     20  N   UNL     1       0.106   3.986  26.633  0.00  0.00    -0.198 NA
BRANCH  14  21
ATOM     21  C   UNL     1       1.348   3.256  22.662  0.00  0.00    +0.001 A 
ATOM     22  C   UNL     1       1.654   4.303  21.773  0.00  0.00    +0.010 A 
ATOM     23  C   UNL     1       1.919   4.081  20.411  0.00  0.00    +0.001 A 
ATOM     24  C   UNL     1       1.947   2.798  19.898  0.00  0.00    +0.000 A 
ATOM     25  C   UNL     1       1.705   1.724  20.751  0.00  0.00    +0.001 A 
ATOM     26  C   UNL     1       1.400   1.958  22.100  0.00  0.00    +0.010 A 
ENDBRANCH  14  21
BRANCH  13  27
ATOM     27  C   UNL     1       2.760   1.712  24.914  0.00  0.00    +0.069 C 
BRANCH  27  28
ATOM     28  C   UNL     1       2.514   0.241  25.187  0.00  0.00    +0.164 C 
BRANCH  28  29
ATOM     29  O   UNL     1       3.055  -0.682  24.235  0.00  0.00    -0.380 OA
BRANCH  29  30
ATOM     30  C   UNL     1       4.410  -0.943  24.650  0.00  0.00    +0.156 C 
ATOM     31  C   UNL     1       4.458  -1.777  25.909  0.00  0.00    +0.034 C 
ENDBRANCH  29  30
ENDBRANCH  28  29
ENDBRANCH  27  28
ENDBRANCH  13  27
ENDBRANCH  10  12
ENDBRANCH   6   8
ENDBRANCH   5   6
ENDBRANCH   1   5
BRANCH   3  32
ATOM     32  C   UNL     1       5.462   1.712  32.922  0.00  0.00    +0.141 C 
BRANCH  32  33
ATOM     33  C   UNL     1       5.785   3.180  32.662  0.00  0.00    +0.163 C 
BRANCH  33  34
ATOM     34  O   UNL     1       4.738   4.014  33.186  0.00  0.00    -0.388 OA
ATOM     35  H   UNL     1       4.078   4.165  32.506  0.00  0.00    +0.210 HD
ENDBRANCH  33  34
BRANCH  33  36
ATOM     36  C   UNL     1       7.139   3.529  33.302  0.00  0.00    +0.175 C 
BRANCH  36  37
ATOM     37  C   UNL     1       6.977   4.138  34.702  0.00  0.00    +0.176 C 
ATOM     38  O   UNL     1       6.806   5.574  34.548  0.00  0.00    -0.332 OA
ATOM     39  C   UNL     1       6.529   6.316  35.782  0.00  0.00    +0.277 C 
ATOM     40  C   UNL     1       7.622   6.030  36.842  0.00  0.00    +0.110 C 
ATOM     41  C   UNL     1       7.862   4.516  37.018  0.00  0.00    +0.143 C 
ATOM     42  C   UNL     1       8.137   3.844  35.672  0.00  0.00    +0.133 C 
BRANCH  42  43
ATOM     43  N   UNL     1       8.278   2.389  35.842  0.00  0.00    -0.308 N 
ATOM     44  H   UNL     1       7.514   1.888  36.274  0.00  0.00    +0.149 HD
ATOM     45  C   UNL     1       9.349   1.687  35.461  0.00  0.00    +0.210 C 
ATOM     46  C   UNL     1      10.506   2.483  34.828  0.00  0.00    +0.109 C 
ATOM     47  O   UNL     1       9.433   0.467  35.602  0.00  0.00    -0.276 OA
ENDBRANCH  42  43
BRANCH  39  48
ATOM     48  C   UNL     1       5.147   5.935  36.351  0.00  0.00    +0.414 C 
ATOM     49  O   UNL     1       4.211   5.685  35.592  0.00  0.00    -0.240 OA
ATOM     50  O   UNL     1       4.967   5.877  37.569  0.00  0.00    -0.240 OA
ENDBRANCH  39  48
BRANCH  39  51
ATOM     51  O   UNL     1       6.555   7.732  35.470  0.00  0.00    -0.343 OA
ATOM     52  C   UNL     1       7.528   8.121  34.468  0.00  0.00    +0.198 C 
ENDBRANCH  39  51
BRANCH  41  53
ATOM     53  O   UNL     1       8.975   4.302  37.886  0.00  0.00    -0.390 OA
ATOM     54  H   UNL     1       9.478   5.116  37.969  0.00  0.00    +0.210 HD
ENDBRANCH  41  53
ENDBRANCH  36  37
BRANCH  36  55
ATOM     55  O   UNL     1       7.873   4.431  32.450  0.00  0.00    -0.387 OA
ATOM     56  H   UNL     1       8.774   4.515  32.772  0.00  0.00    +0.210 HD
ENDBRANCH  36  55
ENDBRANCH  33  36
ENDBRANCH  32  33
ENDBRANCH   3  32
TORSDOF 19
