REMARK VINA RESULT:    -5.953      1.991      4.129
REMARK INTER + INTRA:         -13.259
REMARK INTER:                 -11.801
REMARK INTRA:                  -1.459
REMARK UNBOUND:                -2.608
REMARK  Name = lig_assembled_4.pdb
REMARK  19 active torsions:
REMARK  status: ('A' for Active; 'I' for Inactive)
REMARK    1  A    between atoms: _2  and  _9
REMARK    2  A    between atoms: _4  and  _21
REMARK    3  A    between atoms: _6  and  _7
REMARK    4  A    between atoms: _6  and  _21
REMARK    5  A    between atoms: _10  and  _11
REMARK    6  A    between atoms: _11  and  _12
REMARK    7  A    between atoms: _11  and  _13
REMARK    8  A    between atoms: _17  and  _37
REMARK    9  A    between atoms: _19  and  _25
REMARK   10  A    between atoms: _20  and  _24
REMARK   11  A    between atoms: _24  and  _25
REMARK   12  A    between atoms: _27  and  _28
REMARK   13  A    between atoms: _29  and  _30
REMARK   14  A    between atoms: _31  and  _33
REMARK   15  A    between atoms: _33  and  _34
REMARK   16  A    between atoms: _33  and  _35
REMARK   17  A    between atoms: _35  and  _36
REMARK   18  A    between atoms: _35  and  _37
REMARK   19  A    between atoms: _38  and  _40
REMARK                            x       y       z     vdW  Elec       q    Type
REMARK                         _______ _______ _______ _____ _____    ______ ____
ROOT
ATOM      1  C   UNL     1       6.408   3.271  33.297  0.00  0.00    +0.163 C 
ENDROOT
BRANCH   1   2
ATOM      2  O   UNL     1       7.045   3.408  32.016  0.00  0.00    -0.388 OA
ATOM      3  H   UNL     1       7.195   4.338  31.830  0.00  0.00    +0.210 HD
ENDBRANCH   1   2
BRANCH   1   4
ATOM      4  C   UNL     1       4.893   3.319  33.134  0.00  0.00    +0.141 C 
BRANCH   4   7
ATOM      5  C   UNL     1       3.282   2.860  31.317  0.00  0.00    +0.401 C 
ATOM      6  O   UNL     1       2.379   2.508  32.079  0.00  0.00    -0.226 OA
ATOM      7  N   UNL     1       4.491   3.249  31.723  0.00  0.00    -0.279 N 
ATOM      8  H   UNL     1       5.169   3.510  31.021  0.00  0.00    +0.152 HD
BRANCH   5   9
ATOM      9  O   UNL     1       3.043   2.855  29.907  0.00  0.00    -0.444 OA
BRANCH   9  10
ATOM     10  C   UNL     1       1.638   2.754  29.661  0.00  0.00    +0.292 C 
BRANCH  10  12
ATOM     11  N   UNL     1       0.096   3.893  28.107  0.00  0.00    -0.131 NA
ATOM     12  C   UNL     1       1.300   3.302  28.335  0.00  0.00    +0.121 A 
ATOM     13  C   UNL     1       2.028   3.296  27.167  0.00  0.00    +0.143 A 
ATOM     14  N   UNL     1       1.162   3.785  26.207  0.00  0.00    -0.219 N 
ATOM     15  N   UNL     1       0.034   4.206  26.819  0.00  0.00    -0.060 NA
BRANCH  14  16
ATOM     16  C   UNL     1       1.368   3.834  24.795  0.00  0.00    +0.070 A 
ATOM     17  C   UNL     1       1.578   2.676  23.997  0.00  0.00    -0.019 A 
ATOM     18  C   UNL     1       1.800   2.870  22.615  0.00  0.00    +0.006 A 
ATOM     19  C   UNL     1       1.831   4.141  22.039  0.00  0.00    +0.000 A 
ATOM     20  C   UNL     1       1.617   5.262  22.826  0.00  0.00    +0.002 A 
ATOM     21  C   UNL     1       1.389   5.111  24.193  0.00  0.00    +0.028 A 
BRANCH  17  22
ATOM     22  C   UNL     1       1.588   1.245  24.538  0.00  0.00    +0.015 C 
ATOM     23  C   UNL     1       2.564   0.289  23.834  0.00  0.00    +0.012 C 
ATOM     24  C   UNL     1       0.173   0.662  24.501  0.00  0.00    +0.012 C 
ENDBRANCH  17  22
ENDBRANCH  14  16
ENDBRANCH  10  12
ENDBRANCH   9  10
ENDBRANCH   5   9
ENDBRANCH   4   7
ENDBRANCH   1   4
BRANCH   1  25
ATOM     25  C   UNL     1       6.858   4.386  34.256  0.00  0.00    +0.175 C 
BRANCH  25  26
ATOM     26  C   UNL     1       8.054   3.959  35.119  0.00  0.00    +0.176 C 
ATOM     27  O   UNL     1       7.918   2.539  35.400  0.00  0.00    -0.332 OA
ATOM     28  C   UNL     1       9.033   1.927  36.130  0.00  0.00    +0.277 C 
ATOM     29  C   UNL     1       9.306   2.698  37.445  0.00  0.00    +0.110 C 
ATOM     30  C   UNL     1       9.427   4.217  37.201  0.00  0.00    +0.143 C 
ATOM     31  C   UNL     1       8.216   4.747  36.432  0.00  0.00    +0.133 C 
BRANCH  31  32
ATOM     32  N   UNL     1       8.383   6.177  36.130  0.00  0.00    -0.308 N 
ATOM     33  H   UNL     1       9.061   6.434  35.427  0.00  0.00    +0.149 HD
ATOM     34  C   UNL     1       7.697   7.157  36.724  0.00  0.00    +0.210 C 
ATOM     35  C   UNL     1       6.690   6.734  37.810  0.00  0.00    +0.109 C 
ATOM     36  O   UNL     1       7.848   8.346  36.440  0.00  0.00    -0.276 OA
ENDBRANCH  31  32
BRANCH  28  37
ATOM     37  C   UNL     1      10.311   1.914  35.266  0.00  0.00    +0.414 C 
ATOM     38  O   UNL     1      11.416   2.044  35.791  0.00  0.00    -0.240 OA
ATOM     39  O   UNL     1      10.237   1.773  34.044  0.00  0.00    -0.240 OA
ENDBRANCH  28  37
BRANCH  30  40
ATOM     40  O   UNL     1       9.526   4.899  38.452  0.00  0.00    -0.390 OA
ATOM     41  H   UNL     1       9.717   4.266  39.148  0.00  0.00    +0.210 HD
ENDBRANCH  30  40
BRANCH  28  42
ATOM     42  O   UNL     1       8.657   0.567  36.466  0.00  0.00    -0.343 OA
ATOM     43  C   UNL     1       8.430   0.326  37.878  0.00  0.00    +0.198 C 
ENDBRANCH  28  42
ENDBRANCH  25  26
BRANCH  25  44
ATOM     44  O   UNL     1       5.759   4.791  35.097  0.00  0.00    -0.387 OA
ATOM     45  H   UNL     1       5.146   4.058  35.198  0.00  0.00    +0.210 HD
ENDBRANCH  25  44
ENDBRANCH   1  25
TORSDOF 15
