REMARK VINA RESULT:    -6.971     15.471     18.252
REMARK INTER + INTRA:         -14.057
REMARK INTER:                 -11.616
REMARK INTRA:                  -2.441
REMARK UNBOUND:                -1.992
REMARK  Name = lig_assembled_25.pdb
REMARK  16 active torsions:
REMARK  status: ('A' for Active; 'I' for Inactive)
REMARK    1  A    between atoms: _2  and  _9
REMARK    2  A    between atoms: _4  and  _25
REMARK    3  A    between atoms: _6  and  _7
REMARK    4  A    between atoms: _6  and  _25
REMARK    5  A    between atoms: _21  and  _41
REMARK    6  A    between atoms: _23  and  _29
REMARK    7  A    between atoms: _24  and  _28
REMARK    8  A    between atoms: _28  and  _29
REMARK    9  A    between atoms: _31  and  _32
REMARK   10  A    between atoms: _33  and  _34
REMARK   11  A    between atoms: _35  and  _37
REMARK   12  A    between atoms: _37  and  _38
REMARK   13  A    between atoms: _37  and  _39
REMARK   14  A    between atoms: _39  and  _40
REMARK   15  A    between atoms: _39  and  _41
REMARK   16  A    between atoms: _42  and  _44
REMARK                            x       y       z     vdW  Elec       q    Type
REMARK                         _______ _______ _______ _____ _____    ______ ____
ROOT
ATOM      1  C   UNL     1      -4.330  22.001  30.063  0.00  0.00    +0.141 C 
ENDROOT
BRANCH   1   4
ATOM      2  C   UNL     1      -3.796  21.364  27.736  0.00  0.00    +0.401 C 
ATOM      3  O   UNL     1      -4.915  20.898  27.507  0.00  0.00    -0.226 OA
ATOM      4  N   UNL     1      -3.434  21.894  28.905  0.00  0.00    -0.279 N 
ATOM      5  H   UNL     1      -2.490  22.241  28.999  0.00  0.00    +0.152 HD
BRANCH   2   6
ATOM      6  O   UNL     1      -2.809  21.340  26.701  0.00  0.00    -0.444 OA
BRANCH   6   7
ATOM      7  C   UNL     1      -3.093  22.368  25.748  0.00  0.00    +0.292 C 
BRANCH   7   9
ATOM      8  N   UNL     1      -3.309  22.606  23.299  0.00  0.00    -0.131 NA
ATOM      9  C   UNL     1      -3.233  21.792  24.396  0.00  0.00    +0.120 A 
ATOM     10  C   UNL     1      -3.329  20.480  23.992  0.00  0.00    +0.138 A 
ATOM     11  N   UNL     1      -3.482  20.558  22.636  0.00  0.00    -0.240 N 
ATOM     12  N   UNL     1      -3.457  21.844  22.225  0.00  0.00    -0.064 NA
BRANCH  11  13
ATOM     13  C   UNL     1      -3.736  19.508  21.663  0.00  0.00    +0.170 C 
ATOM     14  C   UNL     1      -4.807  18.530  22.129  0.00  0.00    -0.011 A 
ATOM     15  C   UNL     1      -4.298  17.212  22.109  0.00  0.00    -0.012 A 
ATOM     16  C   UNL     1      -2.918  17.247  21.668  0.00  0.00    -0.012 A 
ATOM     17  C   UNL     1      -2.019  16.215  21.455  0.00  0.00    +0.009 A 
ATOM     18  C   UNL     1      -0.739  16.534  20.990  0.00  0.00    +0.001 A 
ATOM     19  C   UNL     1      -0.372  17.868  20.749  0.00  0.00    +0.000 A 
ATOM     20  C   UNL     1      -1.277  18.911  20.963  0.00  0.00    +0.006 A 
ATOM     21  C   UNL     1      -5.101  16.145  22.472  0.00  0.00    +0.009 A 
ATOM     22  C   UNL     1      -6.421  16.404  22.855  0.00  0.00    +0.001 A 
ATOM     23  C   UNL     1      -6.923  17.715  22.869  0.00  0.00    +0.000 A 
ATOM     24  C   UNL     1      -6.118  18.794  22.502  0.00  0.00    +0.006 A 
ATOM     25  C   UNL     1      -2.545  18.589  21.424  0.00  0.00    -0.011 A 
ENDBRANCH  11  13
ENDBRANCH   7   9
ENDBRANCH   6   7
ENDBRANCH   2   6
ENDBRANCH   1   4
BRANCH   1  26
ATOM     26  C   UNL     1      -3.958  21.014  31.164  0.00  0.00    +0.163 C 
BRANCH  26  27
ATOM     27  O   UNL     1      -4.093  21.638  32.451  0.00  0.00    -0.388 OA
ATOM     28  H   UNL     1      -3.622  22.475  32.452  0.00  0.00    +0.210 HD
ENDBRANCH  26  27
BRANCH  26  29
ATOM     29  C   UNL     1      -4.853  19.767  31.060  0.00  0.00    +0.175 C 
BRANCH  29  30
ATOM     30  C   UNL     1      -4.671  18.824  32.259  0.00  0.00    +0.176 C 
ATOM     31  O   UNL     1      -3.253  18.777  32.580  0.00  0.00    -0.332 OA
ATOM     32  C   UNL     1      -2.898  18.002  33.773  0.00  0.00    +0.277 C 
ATOM     33  C   UNL     1      -3.459  16.563  33.669  0.00  0.00    +0.110 C 
ATOM     34  C   UNL     1      -4.957  16.560  33.298  0.00  0.00    +0.143 C 
ATOM     35  C   UNL     1      -5.213  17.398  32.045  0.00  0.00    +0.133 C 
BRANCH  35  36
ATOM     36  N   UNL     1      -6.654  17.459  31.752  0.00  0.00    -0.308 N 
ATOM     37  H   UNL     1      -7.260  17.865  32.450  0.00  0.00    +0.149 HD
ATOM     38  C   UNL     1      -7.212  17.013  30.623  0.00  0.00    +0.210 C 
ATOM     39  C   UNL     1      -6.264  16.376  29.590  0.00  0.00    +0.109 C 
ATOM     40  O   UNL     1      -8.420  17.091  30.399  0.00  0.00    -0.276 OA
ENDBRANCH  35  36
BRANCH  32  41
ATOM     41  C   UNL     1      -3.446  18.679  35.047  0.00  0.00    +0.414 C 
ATOM     42  O   UNL     1      -3.510  19.905  35.119  0.00  0.00    -0.240 OA
ATOM     43  O   UNL     1      -3.823  17.998  36.001  0.00  0.00    -0.240 OA
ENDBRANCH  32  41
BRANCH  34  44
ATOM     44  O   UNL     1      -5.393  15.220  33.066  0.00  0.00    -0.390 OA
ATOM     45  H   UNL     1      -5.559  15.095  32.128  0.00  0.00    +0.210 HD
ENDBRANCH  34  44
BRANCH  32  46
ATOM     46  O   UNL     1      -1.451  17.926  33.844  0.00  0.00    -0.343 OA
ATOM     47  C   UNL     1      -0.935  16.917  34.748  0.00  0.00    +0.198 C 
ENDBRANCH  32  46
ENDBRANCH  29  30
BRANCH  29  48
ATOM     48  O   UNL     1      -4.586  19.064  29.830  0.00  0.00    -0.387 OA
ATOM     49  H   UNL     1      -5.331  19.168  29.234  0.00  0.00    +0.210 HD
ENDBRANCH  29  48
ENDBRANCH  26  29
ENDBRANCH   1  26
TORSDOF 14
