REMARK VINA RESULT:    -5.575      8.871     13.511
REMARK INTER + INTRA:         -13.314
REMARK INTER:                 -10.880
REMARK INTRA:                  -2.434
REMARK UNBOUND:                -2.036
REMARK  Name = lig_assembled_45.pdb
REMARK  24 active torsions:
REMARK  status: ('A' for Active; 'I' for Inactive)
REMARK    1  A    between atoms: _2  and  _10
REMARK    2  A    between atoms: _3  and  _12
REMARK    3  A    between atoms: _3  and  _13
REMARK    4  A    between atoms: _3  and  _14
REMARK    5  A    between atoms: _3  and  _16
REMARK    6  A    between atoms: _5  and  _21
REMARK    7  A    between atoms: _6  and  _16
REMARK    8  A    between atoms: _7  and  _8
REMARK    9  A    between atoms: _7  and  _21
REMARK   10  A    between atoms: _10  and  _11
REMARK   11  A    between atoms: _11  and  _12
REMARK   12  A    between atoms: _14  and  _15
REMARK   13  A    between atoms: _17  and  _37
REMARK   14  A    between atoms: _19  and  _25
REMARK   15  A    between atoms: _20  and  _24
REMARK   16  A    between atoms: _24  and  _25
REMARK   17  A    between atoms: _27  and  _28
REMARK   18  A    between atoms: _29  and  _30
REMARK   19  A    between atoms: _31  and  _33
REMARK   20  A    between atoms: _33  and  _34
REMARK   21  A    between atoms: _33  and  _35
REMARK   22  A    between atoms: _35  and  _36
REMARK   23  A    between atoms: _35  and  _37
REMARK   24  A    between atoms: _38  and  _40
REMARK                            x       y       z     vdW  Elec       q    Type
REMARK                         _______ _______ _______ _____ _____    ______ ____
ROOT
ATOM      1  C   UNL     1       9.996   3.890  37.370  0.00  0.00    +0.163 C 
ENDROOT
BRANCH   1   2
ATOM      2  O   UNL     1      10.248   5.260  37.015  0.00  0.00    -0.388 OA
ATOM      3  H   UNL     1      11.087   5.321  36.552  0.00  0.00    +0.210 HD
ENDBRANCH   1   2
BRANCH   1   4
ATOM      4  C   UNL     1       9.001   3.243  36.391  0.00  0.00    +0.175 C 
BRANCH   4   5
ATOM      5  C   UNL     1       8.133   4.288  35.674  0.00  0.00    +0.176 C 
ATOM      6  O   UNL     1       7.437   5.063  36.688  0.00  0.00    -0.332 OA
ATOM      7  C   UNL     1       6.636   6.185  36.189  0.00  0.00    +0.277 C 
ATOM      8  C   UNL     1       5.628   5.697  35.120  0.00  0.00    +0.110 C 
ATOM      9  C   UNL     1       6.317   4.841  34.037  0.00  0.00    +0.143 C 
ATOM     10  C   UNL     1       7.124   3.705  34.666  0.00  0.00    +0.133 C 
BRANCH  10  11
ATOM     11  N   UNL     1       7.846   2.950  33.629  0.00  0.00    -0.308 N 
ATOM     12  H   UNL     1       8.530   3.445  33.075  0.00  0.00    +0.149 HD
ATOM     13  C   UNL     1       7.655   1.653  33.373  0.00  0.00    +0.210 C 
ATOM     14  C   UNL     1       6.587   0.933  34.218  0.00  0.00    +0.109 C 
ATOM     15  O   UNL     1       8.284   1.043  32.508  0.00  0.00    -0.276 OA
ENDBRANCH  10  11
BRANCH   7  16
ATOM     16  C   UNL     1       7.542   7.277  35.584  0.00  0.00    +0.414 C 
ATOM     17  O   UNL     1       8.682   7.446  36.014  0.00  0.00    -0.240 OA
ATOM     18  O   UNL     1       7.133   7.989  34.665  0.00  0.00    -0.240 OA
ENDBRANCH   7  16
BRANCH   9  19
ATOM     19  O   UNL     1       5.333   4.289  33.161  0.00  0.00    -0.390 OA
ATOM     20  H   UNL     1       5.388   3.331  33.180  0.00  0.00    +0.210 HD
ENDBRANCH   9  19
BRANCH   7  21
ATOM     21  O   UNL     1       5.889   6.734  37.306  0.00  0.00    -0.343 OA
ATOM     22  C   UNL     1       4.632   6.068  37.588  0.00  0.00    +0.198 C 
ENDBRANCH   7  21
ENDBRANCH   4   5
BRANCH   4  23
ATOM     23  O   UNL     1       8.165   2.296  37.086  0.00  0.00    -0.387 OA
ATOM     24  H   UNL     1       7.306   2.689  37.253  0.00  0.00    +0.210 HD
ENDBRANCH   4  23
ENDBRANCH   1   4
BRANCH   1  25
ATOM     25  C   UNL     1      11.301   3.101  37.366  0.00  0.00    +0.141 C 
BRANCH  25  28
ATOM     26  C   UNL     1      12.451   2.989  35.182  0.00  0.00    +0.401 C 
ATOM     27  O   UNL     1      11.896   1.943  34.837  0.00  0.00    -0.226 OA
ATOM     28  N   UNL     1      12.237   3.597  36.349  0.00  0.00    -0.279 N 
ATOM     29  H   UNL     1      12.748   4.446  36.545  0.00  0.00    +0.152 HD
BRANCH  26  30
ATOM     30  O   UNL     1      13.389   3.603  34.293  0.00  0.00    -0.444 OA
BRANCH  30  31
ATOM     31  C   UNL     1      14.681   3.627  34.905  0.00  0.00    +0.292 C 
BRANCH  31  33
ATOM     32  N   UNL     1      14.866   5.564  36.442  0.00  0.00    -0.131 NA
ATOM     33  C   UNL     1      15.078   5.015  35.206  0.00  0.00    +0.120 A 
ATOM     34  C   UNL     1      15.677   5.952  34.395  0.00  0.00    +0.137 A 
ATOM     35  N   UNL     1      15.799   7.040  35.204  0.00  0.00    -0.251 N 
ATOM     36  N   UNL     1      15.310   6.814  36.426  0.00  0.00    -0.065 NA
BRANCH  35  37
ATOM     37  C   UNL     1      16.352   8.333  34.858  0.00  0.00    +0.150 C 
BRANCH  37  38
ATOM     38  C   UNL     1      15.952   8.794  33.463  0.00  0.00    +0.074 C 
BRANCH  38  39
ATOM     39  C   UNL     1      17.047   8.778  32.389  0.00  0.00    +0.134 C 
BRANCH  39  40
ATOM     40  N   UNL     1      17.832  10.105  32.121  0.00  0.00    +0.241 N 
ATOM     41  C   UNL     1      19.142  10.076  32.927  0.00  0.00    +0.192 C 
BRANCH  40  42
ATOM     42  C   UNL     1      16.933  11.259  32.678  0.00  0.00    +0.129 C 
ATOM     43  C   UNL     1      17.644  12.175  33.668  0.00  0.00    +0.060 C 
ENDBRANCH  40  42
BRANCH  40  44
ATOM     44  C   UNL     1      18.163  10.373  30.641  0.00  0.00    +0.129 C 
ATOM     45  C   UNL     1      18.603   9.141  29.868  0.00  0.00    +0.060 C 
ENDBRANCH  40  44
ENDBRANCH  39  40
ENDBRANCH  38  39
ENDBRANCH  37  38
ENDBRANCH  35  37
ENDBRANCH  31  33
ENDBRANCH  30  31
ENDBRANCH  26  30
ENDBRANCH  25  28
ENDBRANCH   1  25
TORSDOF 19
