REMARK VINA RESULT:    -5.593      2.565      4.361
REMARK INTER + INTRA:         -13.321
REMARK INTER:                 -11.170
REMARK INTRA:                  -2.151
REMARK UNBOUND:                -3.313
REMARK  Name = lig_assembled_71.pdb
REMARK  17 active torsions:
REMARK  status: ('A' for Active; 'I' for Inactive)
REMARK    1  A    between atoms: _2  and  _12
REMARK    2  A    between atoms: _7  and  _22
REMARK    3  A    between atoms: _9  and  _10
REMARK    4  A    between atoms: _9  and  _22
REMARK    5  A    between atoms: _12  and  _13
REMARK    6  A    between atoms: _18  and  _38
REMARK    7  A    between atoms: _20  and  _26
REMARK    8  A    between atoms: _21  and  _25
REMARK    9  A    between atoms: _25  and  _26
REMARK   10  A    between atoms: _28  and  _29
REMARK   11  A    between atoms: _30  and  _31
REMARK   12  A    between atoms: _32  and  _34
REMARK   13  A    between atoms: _34  and  _35
REMARK   14  A    between atoms: _34  and  _36
REMARK   15  A    between atoms: _36  and  _37
REMARK   16  A    between atoms: _36  and  _38
REMARK   17  A    between atoms: _39  and  _41
REMARK                            x       y       z     vdW  Elec       q    Type
REMARK                         _______ _______ _______ _____ _____    ______ ____
ROOT
ATOM      1  C   UNL     1       7.336   2.401  34.476  0.00  0.00    +0.163 C 
ENDROOT
BRANCH   1   2
ATOM      2  O   UNL     1       7.617   2.360  35.885  0.00  0.00    -0.388 OA
ATOM      3  H   UNL     1       6.845   2.038  36.356  0.00  0.00    +0.210 HD
ENDBRANCH   1   2
BRANCH   1   4
ATOM      4  C   UNL     1       8.065   1.265  33.766  0.00  0.00    +0.141 C 
BRANCH   4   7
ATOM      5  C   UNL     1       7.265  -0.434  32.160  0.00  0.00    +0.401 C 
ATOM      6  O   UNL     1       7.766  -1.382  32.769  0.00  0.00    -0.226 OA
ATOM      7  N   UNL     1       7.361   0.838  32.551  0.00  0.00    -0.279 N 
ATOM      8  H   UNL     1       6.924   1.547  31.979  0.00  0.00    +0.152 HD
BRANCH   5   9
ATOM      9  O   UNL     1       6.536  -0.689  30.957  0.00  0.00    -0.444 OA
BRANCH   9  10
ATOM     10  C   UNL     1       5.327  -1.386  31.269  0.00  0.00    +0.292 C 
BRANCH  10  12
ATOM     11  N   UNL     1       3.477  -1.244  29.619  0.00  0.00    -0.131 NA
ATOM     12  C   UNL     1       4.168  -0.698  30.669  0.00  0.00    +0.120 A 
ATOM     13  C   UNL     1       3.594   0.506  31.003  0.00  0.00    +0.137 A 
ATOM     14  N   UNL     1       2.569   0.647  30.113  0.00  0.00    -0.242 N 
ATOM     15  N   UNL     1       2.493  -0.416  29.291  0.00  0.00    -0.065 NA
BRANCH  14  16
ATOM     16  C   UNL     1       1.561   1.686  30.051  0.00  0.00    +0.241 C 
BRANCH  16  17
ATOM     17  C   UNL     1       1.699   2.524  28.807  0.00  0.00    +0.241 C 
ATOM     18  O   UNL     1       1.784   3.747  28.895  0.00  0.00    -0.273 OA
ATOM     19  N   UNL     1       1.640   1.812  27.627  0.00  0.00    -0.253 N 
ATOM     20  H   UNL     1       1.367   0.842  27.598  0.00  0.00    +0.158 HD
ATOM     21  C   UNL     1       1.769   2.387  26.368  0.00  0.00    +0.221 A 
ATOM     22  N   UNL     1       1.400   1.608  25.340  0.00  0.00    -0.223 NA
ATOM     23  C   UNL     1       1.448   2.175  24.116  0.00  0.00    +0.116 A 
ATOM     24  C   UNL     1       1.873   3.462  23.886  0.00  0.00    +0.039 A 
ATOM     25  C   UNL     1       2.272   4.153  24.999  0.00  0.00    +0.116 A 
ATOM     26  N   UNL     1       2.227   3.636  26.236  0.00  0.00    -0.223 NA
ENDBRANCH  16  17
ENDBRANCH  14  16
ENDBRANCH  10  12
ENDBRANCH   9  10
ENDBRANCH   5   9
ENDBRANCH   4   7
ENDBRANCH   1   4
BRANCH   1  27
ATOM     27  C   UNL     1       7.767   3.747  33.868  0.00  0.00    +0.175 C 
BRANCH  27  28
ATOM     28  C   UNL     1       7.147   4.941  34.610  0.00  0.00    +0.176 C 
ATOM     29  O   UNL     1       7.837   5.083  35.883  0.00  0.00    -0.332 OA
ATOM     30  C   UNL     1       7.448   6.245  36.688  0.00  0.00    +0.277 C 
ATOM     31  C   UNL     1       5.917   6.255  36.919  0.00  0.00    +0.110 C 
ATOM     32  C   UNL     1       5.141   6.074  35.597  0.00  0.00    +0.143 C 
ATOM     33  C   UNL     1       5.628   4.839  34.839  0.00  0.00    +0.133 C 
BRANCH  33  34
ATOM     34  N   UNL     1       4.942   4.726  33.543  0.00  0.00    -0.308 N 
ATOM     35  H   UNL     1       5.167   5.405  32.829  0.00  0.00    +0.149 HD
ATOM     36  C   UNL     1       4.041   3.786  33.247  0.00  0.00    +0.210 C 
ATOM     37  C   UNL     1       3.700   2.782  34.364  0.00  0.00    +0.109 C 
ATOM     38  O   UNL     1       3.493   3.707  32.147  0.00  0.00    -0.276 OA
ENDBRANCH  33  34
BRANCH  30  39
ATOM     39  C   UNL     1       7.874   7.557  35.997  0.00  0.00    +0.414 C 
ATOM     40  O   UNL     1       8.231   8.524  36.669  0.00  0.00    -0.240 OA
ATOM     41  O   UNL     1       7.861   7.648  34.769  0.00  0.00    -0.240 OA
ENDBRANCH  30  39
BRANCH  30  42
ATOM     42  O   UNL     1       8.104   6.137  37.978  0.00  0.00    -0.343 OA
ATOM     43  C   UNL     1       9.281   5.290  37.997  0.00  0.00    +0.198 C 
ENDBRANCH  30  42
BRANCH  32  44
ATOM     44  O   UNL     1       3.746   5.938  35.873  0.00  0.00    -0.390 OA
ATOM     45  H   UNL     1       3.532   6.407  36.682  0.00  0.00    +0.210 HD
ENDBRANCH  32  44
ENDBRANCH  27  28
BRANCH  27  46
ATOM     46  O   UNL     1       7.417   3.796  32.471  0.00  0.00    -0.387 OA
ATOM     47  H   UNL     1       8.158   4.140  31.967  0.00  0.00    +0.210 HD
ENDBRANCH  27  46
ENDBRANCH   1  27
TORSDOF 15
