REMARK VINA RESULT:    -6.502     14.184     18.533
REMARK INTER + INTRA:         -13.698
REMARK INTER:                 -11.604
REMARK INTRA:                  -2.093
REMARK UNBOUND:                -1.873
REMARK  Name = lig_assembled_60.pdb
REMARK  18 active torsions:
REMARK  status: ('A' for Active; 'I' for Inactive)
REMARK    1  A    between atoms: _2  and  _10
REMARK    2  A    between atoms: _3  and  _41
REMARK    3  A    between atoms: _5  and  _21
REMARK    4  A    between atoms: _7  and  _8
REMARK    5  A    between atoms: _7  and  _21
REMARK    6  A    between atoms: _13  and  _41
REMARK    7  A    between atoms: _17  and  _37
REMARK    8  A    between atoms: _19  and  _25
REMARK    9  A    between atoms: _20  and  _24
REMARK   10  A    between atoms: _24  and  _25
REMARK   11  A    between atoms: _27  and  _28
REMARK   12  A    between atoms: _29  and  _30
REMARK   13  A    between atoms: _31  and  _33
REMARK   14  A    between atoms: _33  and  _34
REMARK   15  A    between atoms: _33  and  _35
REMARK   16  A    between atoms: _35  and  _36
REMARK   17  A    between atoms: _35  and  _37
REMARK   18  A    between atoms: _38  and  _40
REMARK                            x       y       z     vdW  Elec       q    Type
REMARK                         _______ _______ _______ _____ _____    ______ ____
ROOT
ATOM      1  C   UNL     1      19.701   7.020  23.465  0.00  0.00    +0.141 C 
ENDROOT
BRANCH   1   4
ATOM      2  C   UNL     1      21.338   7.905  25.091  0.00  0.00    +0.401 C 
ATOM      3  O   UNL     1      22.249   7.160  24.722  0.00  0.00    -0.226 OA
ATOM      4  N   UNL     1      20.113   7.903  24.563  0.00  0.00    -0.279 N 
ATOM      5  H   UNL     1      19.431   8.546  24.940  0.00  0.00    +0.152 HD
BRANCH   2   6
ATOM      6  O   UNL     1      21.586   8.833  26.151  0.00  0.00    -0.444 OA
BRANCH   6   7
ATOM      7  C   UNL     1      20.746   9.979  25.988  0.00  0.00    +0.292 C 
BRANCH   7   9
ATOM      8  N   UNL     1      18.990  11.183  27.252  0.00  0.00    -0.131 NA
ATOM      9  C   UNL     1      19.890  10.160  27.176  0.00  0.00    +0.121 A 
ATOM     10  C   UNL     1      19.814   9.409  28.326  0.00  0.00    +0.143 A 
ATOM     11  N   UNL     1      18.817   9.997  29.070  0.00  0.00    -0.220 N 
ATOM     12  N   UNL     1      18.349  11.083  28.408  0.00  0.00    -0.060 NA
BRANCH  11  13
ATOM     13  C   UNL     1      18.272   9.575  30.311  0.00  0.00    +0.067 A 
ATOM     14  C   UNL     1      18.166   8.210  30.617  0.00  0.00    +0.030 A 
ATOM     15  C   UNL     1      17.564   7.804  31.811  0.00  0.00    +0.030 A 
ATOM     16  C   UNL     1      17.083   8.763  32.706  0.00  0.00    +0.105 A 
ATOM     17  C   UNL     1      17.198  10.126  32.419  0.00  0.00    +0.030 A 
ATOM     18  C   UNL     1      17.799  10.532  31.224  0.00  0.00    +0.030 A 
BRANCH  16  19
ATOM     19  S   UNL     1      16.254   8.235  34.176  0.00  0.00    +0.056 S 
ATOM     20  O   UNL     1      16.551   9.155  35.248  0.00  0.00    -0.153 OA
ATOM     21  O   UNL     1      14.904   7.841  33.841  0.00  0.00    -0.153 OA
BRANCH  19  22
ATOM     22  N   UNL     1      17.074   6.818  34.539  0.00  0.00    -0.204 NA
ATOM     23  H   UNL     1      17.586   6.494  33.719  0.00  0.00    +0.144 HD
ATOM     24  H   UNL     1      16.422   6.129  34.917  0.00  0.00    +0.144 HD
ENDBRANCH  19  22
ENDBRANCH  16  19
ENDBRANCH  11  13
ENDBRANCH   7   9
ENDBRANCH   6   7
ENDBRANCH   2   6
ENDBRANCH   1   4
BRANCH   1  25
ATOM     25  C   UNL     1      18.658   6.003  23.915  0.00  0.00    +0.163 C 
BRANCH  25  26
ATOM     26  O   UNL     1      17.523   6.040  23.033  0.00  0.00    -0.388 OA
ATOM     27  H   UNL     1      16.824   6.563  23.433  0.00  0.00    +0.210 HD
ENDBRANCH  25  26
BRANCH  25  28
ATOM     28  C   UNL     1      19.287   4.599  23.943  0.00  0.00    +0.175 C 
BRANCH  28  29
ATOM     29  C   UNL     1      18.516   3.639  24.860  0.00  0.00    +0.176 C 
ATOM     30  O   UNL     1      19.421   3.201  25.911  0.00  0.00    -0.332 OA
ATOM     31  C   UNL     1      18.825   2.354  26.949  0.00  0.00    +0.277 C 
ATOM     32  C   UNL     1      18.129   1.126  26.312  0.00  0.00    +0.110 C 
ATOM     33  C   UNL     1      17.180   1.539  25.167  0.00  0.00    +0.143 C 
ATOM     34  C   UNL     1      17.902   2.420  24.146  0.00  0.00    +0.133 C 
BRANCH  34  35
ATOM     35  N   UNL     1      16.966   2.878  23.108  0.00  0.00    -0.308 N 
ATOM     36  H   UNL     1      16.224   3.504  23.385  0.00  0.00    +0.149 HD
ATOM     37  C   UNL     1      17.034   2.520  21.823  0.00  0.00    +0.210 C 
ATOM     38  C   UNL     1      18.161   1.544  21.437  0.00  0.00    +0.109 C 
ATOM     39  O   UNL     1      16.245   2.932  20.972  0.00  0.00    -0.276 OA
ENDBRANCH  34  35
BRANCH  31  40
ATOM     40  C   UNL     1      17.801   3.151  27.783  0.00  0.00    +0.414 C 
ATOM     41  O   UNL     1      16.595   3.001  27.594  0.00  0.00    -0.240 OA
ATOM     42  O   UNL     1      18.181   3.944  28.646  0.00  0.00    -0.240 OA
ENDBRANCH  31  40
BRANCH  33  43
ATOM     43  O   UNL     1      16.679   0.373  24.512  0.00  0.00    -0.390 OA
ATOM     44  H   UNL     1      15.724   0.341  24.602  0.00  0.00    +0.210 HD
ENDBRANCH  33  43
BRANCH  31  45
ATOM     45  O   UNL     1      19.893   1.880  27.809  0.00  0.00    -0.343 OA
ATOM     46  C   UNL     1      21.194   1.789  27.176  0.00  0.00    +0.198 C 
ENDBRANCH  31  45
ENDBRANCH  28  29
BRANCH  28  47
ATOM     47  O   UNL     1      20.666   4.681  24.356  0.00  0.00    -0.387 OA
ATOM     48  H   UNL     1      21.221   4.245  23.705  0.00  0.00    +0.210 HD
ENDBRANCH  28  47
ENDBRANCH  25  28
ENDBRANCH   1  25
TORSDOF 16
