REMARK VINA RESULT:    -5.944     13.327     16.690
REMARK INTER + INTRA:         -12.856
REMARK INTER:                 -10.905
REMARK INTRA:                  -1.951
REMARK UNBOUND:                -2.568
REMARK  Name = lig_assembled_27.pdb
REMARK  16 active torsions:
REMARK  status: ('A' for Active; 'I' for Inactive)
REMARK    1  A    between atoms: _2  and  _9
REMARK    2  A    between atoms: _4  and  _18
REMARK    3  A    between atoms: _6  and  _7
REMARK    4  A    between atoms: _6  and  _18
REMARK    5  A    between atoms: _14  and  _34
REMARK    6  A    between atoms: _16  and  _22
REMARK    7  A    between atoms: _17  and  _21
REMARK    8  A    between atoms: _21  and  _22
REMARK    9  A    between atoms: _24  and  _25
REMARK   10  A    between atoms: _26  and  _27
REMARK   11  A    between atoms: _28  and  _30
REMARK   12  A    between atoms: _30  and  _31
REMARK   13  A    between atoms: _30  and  _32
REMARK   14  A    between atoms: _32  and  _33
REMARK   15  A    between atoms: _32  and  _34
REMARK   16  A    between atoms: _35  and  _37
REMARK                            x       y       z     vdW  Elec       q    Type
REMARK                         _______ _______ _______ _____ _____    ______ ____
ROOT
ATOM      1  C   UNL     1      18.475   5.830  23.857  0.00  0.00    +0.163 C 
ENDROOT
BRANCH   1   2
ATOM      2  O   UNL     1      17.411   5.826  22.891  0.00  0.00    -0.388 OA
ATOM      3  H   UNL     1      17.336   6.698  22.494  0.00  0.00    +0.210 HD
ENDBRANCH   1   2
BRANCH   1   4
ATOM      4  C   UNL     1      19.491   6.914  23.510  0.00  0.00    +0.141 C 
BRANCH   4   7
ATOM      5  C   UNL     1      21.088   7.823  25.162  0.00  0.00    +0.401 C 
ATOM      6  O   UNL     1      22.061   7.237  24.684  0.00  0.00    -0.226 OA
ATOM      7  N   UNL     1      19.848   7.725  24.681  0.00  0.00    -0.279 N 
ATOM      8  H   UNL     1      19.113   8.237  25.148  0.00  0.00    +0.152 HD
BRANCH   5   9
ATOM      9  O   UNL     1      21.274   8.662  26.305  0.00  0.00    -0.444 OA
BRANCH   9  10
ATOM     10  C   UNL     1      20.075   9.399  26.558  0.00  0.00    +0.292 C 
BRANCH  10  12
ATOM     11  N   UNL     1      19.384   7.665  28.184  0.00  0.00    -0.131 NA
ATOM     12  C   UNL     1      19.478   8.983  27.841  0.00  0.00    +0.121 A 
ATOM     13  C   UNL     1      18.951   9.749  28.854  0.00  0.00    +0.143 A 
ATOM     14  N   UNL     1      18.549   8.847  29.813  0.00  0.00    -0.220 N 
ATOM     15  N   UNL     1      18.818   7.590  29.381  0.00  0.00    -0.060 NA
BRANCH  14  16
ATOM     16  C   UNL     1      17.946   9.097  31.072  0.00  0.00    +0.068 A 
ATOM     17  C   UNL     1      17.311   8.050  31.759  0.00  0.00    +0.028 A 
ATOM     18  C   UNL     1      16.711   8.284  32.999  0.00  0.00    +0.003 A 
ATOM     19  C   UNL     1      16.738   9.560  33.558  0.00  0.00    +0.020 A 
ATOM     20  C   UNL     1      17.369  10.599  32.878  0.00  0.00    +0.043 A 
ATOM     21 CL   UNL     1      17.405  12.175  33.570  0.00  0.00    -0.083 Cl
ATOM     22  C   UNL     1      17.974  10.378  31.640  0.00  0.00    +0.047 A 
ENDBRANCH  14  16
ENDBRANCH  10  12
ENDBRANCH   9  10
ENDBRANCH   5   9
ENDBRANCH   4   7
ENDBRANCH   1   4
BRANCH   1  23
ATOM     23  C   UNL     1      19.179   4.463  23.906  0.00  0.00    +0.175 C 
BRANCH  23  24
ATOM     24  C   UNL     1      18.408   3.446  24.760  0.00  0.00    +0.176 C 
ATOM     25  O   UNL     1      19.274   3.031  25.852  0.00  0.00    -0.332 OA
ATOM     26  C   UNL     1      18.665   2.134  26.838  0.00  0.00    +0.277 C 
ATOM     27  C   UNL     1      18.068   0.887  26.141  0.00  0.00    +0.110 C 
ATOM     28  C   UNL     1      17.164   1.278  24.953  0.00  0.00    +0.143 C 
ATOM     29  C   UNL     1      17.896   2.214  23.991  0.00  0.00    +0.133 C 
BRANCH  29  30
ATOM     30  N   UNL     1      16.997   2.649  22.910  0.00  0.00    -0.308 N 
ATOM     31  H   UNL     1      16.216   3.240  23.155  0.00  0.00    +0.149 HD
ATOM     32  C   UNL     1      17.146   2.312  21.626  0.00  0.00    +0.210 C 
ATOM     33  C   UNL     1      18.331   1.387  21.288  0.00  0.00    +0.109 C 
ATOM     34  O   UNL     1      16.385   2.702  20.740  0.00  0.00    -0.276 OA
ENDBRANCH  29  30
BRANCH  26  35
ATOM     35  C   UNL     1      17.558   2.862  27.629  0.00  0.00    +0.414 C 
ATOM     36  O   UNL     1      17.840   3.512  28.635  0.00  0.00    -0.240 OA
ATOM     37  O   UNL     1      16.385   2.800  27.262  0.00  0.00    -0.240 OA
ENDBRANCH  26  35
BRANCH  28  38
ATOM     38  O   UNL     1      16.758   0.103  24.249  0.00  0.00    -0.390 OA
ATOM     39  H   UNL     1      16.248   0.353  23.475  0.00  0.00    +0.210 HD
ENDBRANCH  28  38
BRANCH  26  40
ATOM     40  O   UNL     1      19.706   1.694  27.748  0.00  0.00    -0.343 OA
ATOM     41  C   UNL     1      20.983   2.363  27.587  0.00  0.00    +0.198 C 
ENDBRANCH  26  40
ENDBRANCH  23  24
BRANCH  23  42
ATOM     42  O   UNL     1      20.523   4.613  24.405  0.00  0.00    -0.387 OA
ATOM     43  H   UNL     1      21.148   4.349  23.726  0.00  0.00    +0.210 HD
ENDBRANCH  23  42
ENDBRANCH   1  23
TORSDOF 14
