REMARK VINA RESULT:    -6.541     13.709     17.564
REMARK INTER + INTRA:         -15.274
REMARK INTER:                 -12.755
REMARK INTRA:                  -2.519
REMARK UNBOUND:                -2.615
REMARK  Name = lig_assembled_83.pdb
REMARK  20 active torsions:
REMARK  status: ('A' for Active; 'I' for Inactive)
REMARK    1  A    between atoms: _2  and  _12
REMARK    2  A    between atoms: _3  and  _14
REMARK    3  A    between atoms: _7  and  _24
REMARK    4  A    between atoms: _9  and  _10
REMARK    5  A    between atoms: _9  and  _24
REMARK    6  A    between atoms: _12  and  _13
REMARK    7  A    between atoms: _13  and  _14
REMARK    8  A    between atoms: _13  and  _18
REMARK    9  A    between atoms: _20  and  _40
REMARK   10  A    between atoms: _22  and  _28
REMARK   11  A    between atoms: _23  and  _27
REMARK   12  A    between atoms: _27  and  _28
REMARK   13  A    between atoms: _30  and  _31
REMARK   14  A    between atoms: _32  and  _33
REMARK   15  A    between atoms: _34  and  _36
REMARK   16  A    between atoms: _36  and  _37
REMARK   17  A    between atoms: _36  and  _38
REMARK   18  A    between atoms: _38  and  _39
REMARK   19  A    between atoms: _38  and  _40
REMARK   20  A    between atoms: _41  and  _43
REMARK                            x       y       z     vdW  Elec       q    Type
REMARK                         _______ _______ _______ _____ _____    ______ ____
ROOT
ATOM      1  C   UNL     1       7.604   1.350  33.297  0.00  0.00    +0.141 C 
ENDROOT
BRANCH   1   4
ATOM      2  C   UNL     1       6.330  -0.151  31.804  0.00  0.00    +0.401 C 
ATOM      3  O   UNL     1       7.301  -0.863  31.536  0.00  0.00    -0.226 OA
ATOM      4  N   UNL     1       6.383   0.908  32.613  0.00  0.00    -0.279 N 
ATOM      5  H   UNL     1       5.534   1.436  32.763  0.00  0.00    +0.152 HD
BRANCH   2   6
ATOM      6  O   UNL     1       5.062  -0.458  31.220  0.00  0.00    -0.444 OA
BRANCH   6   7
ATOM      7  C   UNL     1       4.018  -0.109  32.133  0.00  0.00    +0.292 C 
BRANCH   7   9
ATOM      8  N   UNL     1       1.762   0.926  32.073  0.00  0.00    -0.131 NA
ATOM      9  C   UNL     1       2.868   0.462  31.408  0.00  0.00    +0.120 A 
ATOM     10  C   UNL     1       2.680   0.633  30.056  0.00  0.00    +0.137 A 
ATOM     11  N   UNL     1       1.455   1.217  29.966  0.00  0.00    -0.249 N 
ATOM     12  N   UNL     1       0.896   1.382  31.177  0.00  0.00    -0.065 NA
BRANCH  11  13
ATOM     13  C   UNL     1       0.743   1.605  28.767  0.00  0.00    +0.178 C 
BRANCH  13  14
ATOM     14  C   UNL     1       0.902   3.099  28.467  0.00  0.00    +0.156 C 
BRANCH  14  15
ATOM     15  O   UNL     1       1.846   3.679  29.373  0.00  0.00    -0.388 OA
ATOM     16  H   UNL     1       2.714   3.773  28.932  0.00  0.00    +0.210 HD
ENDBRANCH  14  15
BRANCH  14  17
ATOM     17  C   UNL     1       1.359   3.309  27.014  0.00  0.00    +0.162 C 
BRANCH  17  18
ATOM     18  N   UNL     1       0.455   4.167  26.264  0.00  0.00    -0.269 N 
ATOM     19  C   UNL     1      -0.801   4.517  26.708  0.00  0.00    +0.113 A 
ATOM     20  C   UNL     1      -1.315   5.350  25.742  0.00  0.00    +0.137 A 
ATOM     21  N   UNL     1      -0.431   5.499  24.709  0.00  0.00    -0.172 NA
ATOM     22  C   UNL     1       0.626   4.785  25.048  0.00  0.00    +0.450 A 
ATOM     23  N   UNL     1       1.803   4.694  24.214  0.00  0.00    +0.120 N 
ATOM     24  O   UNL     1       2.747   3.997  24.622  0.00  0.00    +0.045 OA
ATOM     25  O   UNL     1       1.789   5.306  23.139  0.00  0.00    -0.573 OA
ENDBRANCH  17  18
ENDBRANCH  14  17
ENDBRANCH  13  14
ENDBRANCH  11  13
ENDBRANCH   7   9
ENDBRANCH   6   7
ENDBRANCH   2   6
ENDBRANCH   1   4
BRANCH   1  26
ATOM     26  C   UNL     1       7.317   2.443  34.322  0.00  0.00    +0.163 C 
BRANCH  26  27
ATOM     27  O   UNL     1       7.992   2.148  35.556  0.00  0.00    -0.388 OA
ATOM     28  H   UNL     1       7.731   2.785  36.225  0.00  0.00    +0.210 HD
ENDBRANCH  26  27
BRANCH  26  29
ATOM     29  C   UNL     1       7.765   3.804  33.762  0.00  0.00    +0.175 C 
BRANCH  29  30
ATOM     30  C   UNL     1       7.146   4.978  34.533  0.00  0.00    +0.176 C 
ATOM     31  O   UNL     1       7.851   5.104  35.798  0.00  0.00    -0.332 OA
ATOM     32  C   UNL     1       7.463   6.248  36.629  0.00  0.00    +0.277 C 
ATOM     33  C   UNL     1       5.935   6.241  36.880  0.00  0.00    +0.110 C 
ATOM     34  C   UNL     1       5.143   6.077  35.566  0.00  0.00    +0.143 C 
ATOM     35  C   UNL     1       5.630   4.859  34.780  0.00  0.00    +0.133 C 
BRANCH  35  36
ATOM     36  N   UNL     1       4.928   4.763  33.491  0.00  0.00    -0.308 N 
ATOM     37  H   UNL     1       5.150   5.448  32.781  0.00  0.00    +0.149 HD
ATOM     38  C   UNL     1       4.017   3.832  33.197  0.00  0.00    +0.210 C 
ATOM     39  C   UNL     1       3.682   2.820  34.308  0.00  0.00    +0.109 C 
ATOM     40  O   UNL     1       3.456   3.767  32.103  0.00  0.00    -0.276 OA
ENDBRANCH  35  36
BRANCH  32  41
ATOM     41  C   UNL     1       7.868   7.576  35.956  0.00  0.00    +0.414 C 
ATOM     42  O   UNL     1       7.858   7.678  34.730  0.00  0.00    -0.240 OA
ATOM     43  O   UNL     1       8.205   8.544  36.639  0.00  0.00    -0.240 OA
ENDBRANCH  32  41
BRANCH  32  44
ATOM     44  O   UNL     1       8.137   6.123  37.908  0.00  0.00    -0.343 OA
ATOM     45  C   UNL     1       7.313   6.412  39.066  0.00  0.00    +0.198 C 
ENDBRANCH  32  44
BRANCH  34  46
ATOM     46  O   UNL     1       3.753   5.923  35.857  0.00  0.00    -0.390 OA
ATOM     47  H   UNL     1       3.277   5.719  35.049  0.00  0.00    +0.210 HD
ENDBRANCH  34  46
ENDBRANCH  29  30
BRANCH  29  48
ATOM     48  O   UNL     1       7.434   3.898  32.362  0.00  0.00    -0.387 OA
ATOM     49  H   UNL     1       8.124   3.482  31.841  0.00  0.00    +0.210 HD
ENDBRANCH  29  48
ENDBRANCH  26  29
ENDBRANCH   1  26
TORSDOF 18
