REMARK VINA RESULT:    -5.864     13.489     14.932
REMARK INTER + INTRA:         -16.473
REMARK INTER:                 -14.263
REMARK INTRA:                  -2.210
REMARK UNBOUND:                -2.725
REMARK  Name = lig_assembled_30.pdb
REMARK  27 active torsions:
REMARK  status: ('A' for Active; 'I' for Inactive)
REMARK    1  A    between atoms: _2  and  _9
REMARK    2  A    between atoms: _4  and  _25
REMARK    3  A    between atoms: _5  and  _18
REMARK    4  A    between atoms: _5  and  _19
REMARK    5  A    between atoms: _6  and  _7
REMARK    6  A    between atoms: _6  and  _25
REMARK    7  A    between atoms: _9  and  _10
REMARK    8  A    between atoms: _10  and  _11
REMARK    9  A    between atoms: _11  and  _12
REMARK   10  A    between atoms: _12  and  _13
REMARK   11  A    between atoms: _13  and  _14
REMARK   12  A    between atoms: _14  and  _15
REMARK   13  A    between atoms: _15  and  _16
REMARK   14  A    between atoms: _16  and  _17
REMARK   15  A    between atoms: _17  and  _18
REMARK   16  A    between atoms: _21  and  _41
REMARK   17  A    between atoms: _23  and  _29
REMARK   18  A    between atoms: _24  and  _28
REMARK   19  A    between atoms: _28  and  _29
REMARK   20  A    between atoms: _31  and  _32
REMARK   21  A    between atoms: _33  and  _34
REMARK   22  A    between atoms: _35  and  _37
REMARK   23  A    between atoms: _37  and  _38
REMARK   24  A    between atoms: _37  and  _39
REMARK   25  A    between atoms: _39  and  _40
REMARK   26  A    between atoms: _39  and  _41
REMARK   27  A    between atoms: _42  and  _44
REMARK                            x       y       z     vdW  Elec       q    Type
REMARK                         _______ _______ _______ _____ _____    ______ ____
ROOT
ATOM      1  C   UNL     1       3.939   3.405  33.189  0.00  0.00    +0.401 C 
ATOM      2  O   UNL     1       3.762   3.108  34.372  0.00  0.00    -0.226 OA
ATOM      3  N   UNL     1       4.941   2.937  32.444  0.00  0.00    -0.279 N 
ATOM      4  H   UNL     1       4.997   3.231  31.479  0.00  0.00    +0.152 HD
ENDROOT
BRANCH   1   5
ATOM      5  O   UNL     1       3.023   4.301  32.554  0.00  0.00    -0.444 OA
BRANCH   5   6
ATOM      6  C   UNL     1       1.806   3.611  32.259  0.00  0.00    +0.292 C 
BRANCH   6   8
ATOM      7  N   UNL     1       2.525   2.272  30.305  0.00  0.00    -0.131 NA
ATOM      8  C   UNL     1       1.744   3.270  30.826  0.00  0.00    +0.120 A 
ATOM      9  C   UNL     1       0.982   3.819  29.819  0.00  0.00    +0.137 A 
ATOM     10  N   UNL     1       1.347   3.112  28.714  0.00  0.00    -0.251 N 
ATOM     11  N   UNL     1       2.273   2.185  29.005  0.00  0.00    -0.065 NA
BRANCH  10  12
ATOM     12  C   UNL     1       0.890   3.291  27.353  0.00  0.00    +0.145 C 
BRANCH  12  13
ATOM     13  C   UNL     1       1.824   2.606  26.362  0.00  0.00    +0.023 C 
BRANCH  13  14
ATOM     14  C   UNL     1       2.523   3.608  25.446  0.00  0.00    +0.002 C 
BRANCH  14  15
ATOM     15  C   UNL     1       1.762   3.736  24.127  0.00  0.00    +0.000 C 
BRANCH  15  16
ATOM     16  C   UNL     1       1.429   5.190  23.802  0.00  0.00    +0.000 C 
BRANCH  16  17
ATOM     17  C   UNL     1       1.393   5.413  22.290  0.00  0.00    +0.000 C 
BRANCH  17  18
ATOM     18  C   UNL     1       1.910   4.186  21.545  0.00  0.00    +0.000 C 
BRANCH  18  19
ATOM     19  C   UNL     1       1.089   3.902  20.287  0.00  0.00    +0.001 C 
BRANCH  19  20
ATOM     20  C   UNL     1       2.010   3.675  19.089  0.00  0.00    +0.011 C 
BRANCH  20  21
ATOM     21  C   UNL     1       2.354   2.199  18.907  0.00  0.00    +0.120 C 
BRANCH  21  22
ATOM     22  C   UNL     1       1.801   1.658  17.609  0.00  0.00    +0.305 C 
ATOM     23  O   UNL     1       1.253   0.575  17.469  0.00  0.00    -0.251 OA
BRANCH  22  24
ATOM     24  O   UNL     1       1.976   2.514  16.577  0.00  0.00    -0.481 OA
ATOM     25  H   UNL     1       1.141   2.841  16.193  0.00  0.00    +0.295 HD
ENDBRANCH  22  24
ENDBRANCH  21  22
ENDBRANCH  20  21
ENDBRANCH  19  20
ENDBRANCH  18  19
ENDBRANCH  17  18
ENDBRANCH  16  17
ENDBRANCH  15  16
ENDBRANCH  14  15
ENDBRANCH  13  14
ENDBRANCH  12  13
ENDBRANCH  10  12
ENDBRANCH   6   8
ENDBRANCH   5   6
ENDBRANCH   1   5
BRANCH   3  26
ATOM     26  C   UNL     1       5.969   2.017  32.947  0.00  0.00    +0.141 C 
BRANCH  26  27
ATOM     27  C   UNL     1       7.364   2.631  32.879  0.00  0.00    +0.163 C 
BRANCH  27  28
ATOM     28  O   UNL     1       7.317   3.879  32.169  0.00  0.00    -0.388 OA
ATOM     29  H   UNL     1       8.098   4.397  32.379  0.00  0.00    +0.210 HD
ENDBRANCH  27  28
BRANCH  27  30
ATOM     30  C   UNL     1       7.908   2.829  34.304  0.00  0.00    +0.175 C 
BRANCH  30  31
ATOM     31  C   UNL     1       7.126   3.900  35.078  0.00  0.00    +0.176 C 
ATOM     32  O   UNL     1       7.929   5.112  35.101  0.00  0.00    -0.332 OA
ATOM     33  C   UNL     1       7.292   6.283  35.711  0.00  0.00    +0.277 C 
ATOM     34  C   UNL     1       6.807   5.950  37.143  0.00  0.00    +0.110 C 
ATOM     35  C   UNL     1       5.975   4.651  37.175  0.00  0.00    +0.143 C 
ATOM     36  C   UNL     1       6.731   3.499  36.512  0.00  0.00    +0.133 C 
BRANCH  36  37
ATOM     37  N   UNL     1       5.893   2.290  36.471  0.00  0.00    -0.308 N 
ATOM     38  H   UNL     1       5.017   2.339  35.970  0.00  0.00    +0.149 HD
ATOM     39  C   UNL     1       6.216   1.131  37.052  0.00  0.00    +0.210 C 
ATOM     40  C   UNL     1       7.545   1.096  37.829  0.00  0.00    +0.109 C 
ATOM     41  O   UNL     1       5.502   0.130  36.989  0.00  0.00    -0.276 OA
ENDBRANCH  36  37
BRANCH  33  42
ATOM     42  C   UNL     1       6.097   6.762  34.860  0.00  0.00    +0.414 C 
ATOM     43  O   UNL     1       5.017   6.176  34.923  0.00  0.00    -0.240 OA
ATOM     44  O   UNL     1       6.213   7.733  34.112  0.00  0.00    -0.240 OA
ENDBRANCH  33  42
BRANCH  35  45
ATOM     45  O   UNL     1       5.679   4.302  38.528  0.00  0.00    -0.390 OA
ATOM     46  H   UNL     1       5.099   3.537  38.542  0.00  0.00    +0.210 HD
ENDBRANCH  35  45
BRANCH  33  47
ATOM     47  O   UNL     1       8.284   7.339  35.798  0.00  0.00    -0.343 OA
ATOM     48  C   UNL     1       8.404   7.960  37.102  0.00  0.00    +0.198 C 
ENDBRANCH  33  47
ENDBRANCH  30  31
BRANCH  30  49
ATOM     49  O   UNL     1       9.307   3.173  34.258  0.00  0.00    -0.387 OA
ATOM     50  H   UNL     1       9.824   2.468  34.656  0.00  0.00    +0.210 HD
ENDBRANCH  30  49
ENDBRANCH  27  30
ENDBRANCH  26  27
ENDBRANCH   3  26
TORSDOF 25
