REMARK VINA RESULT:    -5.637     13.703     17.708
REMARK INTER + INTRA:         -13.227
REMARK INTER:                 -11.614
REMARK INTRA:                  -1.613
REMARK UNBOUND:                -3.800
REMARK  Name = lig_assembled_65.pdb
REMARK  16 active torsions:
REMARK  status: ('A' for Active; 'I' for Inactive)
REMARK    1  A    between atoms: _8  and  _20
REMARK    2  A    between atoms: _9  and  _15
REMARK    3  A    between atoms: _10  and  _11
REMARK    4  A    between atoms: _10  and  _20
REMARK    5  A    between atoms: _16  and  _36
REMARK    6  A    between atoms: _18  and  _24
REMARK    7  A    between atoms: _19  and  _23
REMARK    8  A    between atoms: _23  and  _24
REMARK    9  A    between atoms: _26  and  _27
REMARK   10  A    between atoms: _28  and  _29
REMARK   11  A    between atoms: _30  and  _32
REMARK   12  A    between atoms: _32  and  _33
REMARK   13  A    between atoms: _32  and  _34
REMARK   14  A    between atoms: _34  and  _35
REMARK   15  A    between atoms: _34  and  _36
REMARK   16  A    between atoms: _37  and  _39
REMARK                            x       y       z     vdW  Elec       q    Type
REMARK                         _______ _______ _______ _____ _____    ______ ____
ROOT
ATOM      1  C   UNL     1       4.990   3.252  32.446  0.00  0.00    +0.163 C 
ENDROOT
BRANCH   1   2
ATOM      2  O   UNL     1       4.232   4.338  33.005  0.00  0.00    -0.388 OA
ATOM      3  H   UNL     1       4.600   5.173  32.705  0.00  0.00    +0.210 HD
ENDBRANCH   1   2
BRANCH   1   4
ATOM      4  C   UNL     1       4.249   1.936  32.657  0.00  0.00    +0.141 C 
BRANCH   4   7
ATOM      5  C   UNL     1       1.980   2.230  31.724  0.00  0.00    +0.401 C 
ATOM      6  O   UNL     1       1.581   2.920  32.664  0.00  0.00    -0.226 OA
ATOM      7  N   UNL     1       3.211   1.723  31.641  0.00  0.00    -0.279 N 
ATOM      8  H   UNL     1       3.442   1.161  30.834  0.00  0.00    +0.152 HD
BRANCH   5   9
ATOM      9  O   UNL     1       1.086   1.939  30.646  0.00  0.00    -0.444 OA
BRANCH   9  10
ATOM     10  C   UNL     1       1.793   1.252  29.610  0.00  0.00    +0.292 C 
BRANCH  10  12
ATOM     11  N   UNL     1       1.748   3.420  28.414  0.00  0.00    -0.131 NA
ATOM     12  C   UNL     1       1.799   2.053  28.372  0.00  0.00    +0.121 A 
ATOM     13  C   UNL     1       1.849   1.646  27.060  0.00  0.00    +0.149 A 
ATOM     14  N   UNL     1       1.818   2.812  26.325  0.00  0.00    -0.155 N 
ATOM     15  C   UNL     1       1.832   2.935  24.904  0.00  0.00    +0.416 C 
ATOM     16  N   UNL     1       1.799   4.159  24.366  0.00  0.00    +0.041 NA
ATOM     17  C   UNL     1       1.797   4.191  23.036  0.00  0.00    +0.339 C 
ATOM     18  C   UNL     1       1.747   5.533  22.375  0.00  0.00    +0.149 C 
ATOM     19  N   UNL     1       1.824   3.112  22.254  0.00  0.00    +0.007 NA
ATOM     20  C   UNL     1       1.841   1.949  22.885  0.00  0.00    +0.386 C 
ATOM     21  N   UNL     1       1.858   0.807  22.113  0.00  0.00    -0.296 N 
ATOM     22  H   UNL     1       2.212   1.007  21.187  0.00  0.00    +0.148 HD
ATOM     23  H   UNL     1       2.268   0.032  22.613  0.00  0.00    +0.148 HD
ATOM     24  N   UNL     1       1.868   1.796  24.197  0.00  0.00    -0.290 NA
ATOM     25  N   UNL     1       1.764   3.876  27.167  0.00  0.00    -0.055 NA
ENDBRANCH  10  12
ENDBRANCH   9  10
ENDBRANCH   5   9
ENDBRANCH   4   7
ENDBRANCH   1   4
BRANCH   1  26
ATOM     26  C   UNL     1       6.385   3.166  33.089  0.00  0.00    +0.175 C 
BRANCH  26  27
ATOM     27  C   UNL     1       6.453   3.920  34.425  0.00  0.00    +0.176 C 
ATOM     28  O   UNL     1       6.309   5.340  34.144  0.00  0.00    -0.332 OA
ATOM     29  C   UNL     1       6.244   6.215  35.319  0.00  0.00    +0.277 C 
ATOM     30  C   UNL     1       7.471   5.984  36.234  0.00  0.00    +0.110 C 
ATOM     31  C   UNL     1       7.683   4.485  36.535  0.00  0.00    +0.143 C 
ATOM     32  C   UNL     1       7.733   3.668  35.243  0.00  0.00    +0.133 C 
BRANCH  32  33
ATOM     33  N   UNL     1       7.847   2.233  35.546  0.00  0.00    -0.308 N 
ATOM     34  H   UNL     1       7.055   1.776  35.975  0.00  0.00    +0.149 HD
ATOM     35  C   UNL     1       8.931   1.494  35.291  0.00  0.00    +0.210 C 
ATOM     36  C   UNL     1      10.131   2.225  34.661  0.00  0.00    +0.109 C 
ATOM     37  O   UNL     1       8.993   0.290  35.541  0.00  0.00    -0.276 OA
ENDBRANCH  32  33
BRANCH  29  38
ATOM     38  C   UNL     1       4.949   5.962  36.119  0.00  0.00    +0.414 C 
ATOM     39  O   UNL     1       3.958   5.492  35.561  0.00  0.00    -0.240 OA
ATOM     40  O   UNL     1       4.896   6.227  37.320  0.00  0.00    -0.240 OA
ENDBRANCH  29  38
BRANCH  29  41
ATOM     41  O   UNL     1       6.272   7.590  34.856  0.00  0.00    -0.343 OA
ATOM     42  C   UNL     1       7.574   8.069  34.438  0.00  0.00    +0.198 C 
ENDBRANCH  29  41
BRANCH  31  43
ATOM     43  O   UNL     1       8.905   4.306  37.252  0.00  0.00    -0.390 OA
ATOM     44  H   UNL     1       9.110   5.105  37.742  0.00  0.00    +0.210 HD
ENDBRANCH  31  43
ENDBRANCH  26  27
BRANCH  26  45
ATOM     45  O   UNL     1       7.383   3.673  32.181  0.00  0.00    -0.387 OA
ATOM     46  H   UNL     1       8.243   3.653  32.607  0.00  0.00    +0.210 HD
ENDBRANCH  26  45
ENDBRANCH   1  26
TORSDOF 13
