REMARK VINA RESULT:    -5.731     10.209     13.930
REMARK INTER + INTRA:         -12.668
REMARK INTER:                 -10.101
REMARK INTRA:                  -2.568
REMARK UNBOUND:                -2.078
REMARK  Name = lig_assembled_14.pdb
REMARK  18 active torsions:
REMARK  status: ('A' for Active; 'I' for Inactive)
REMARK    1  A    between atoms: _2  and  _10
REMARK    2  A    between atoms: _3  and  _11
REMARK    3  A    between atoms: _5  and  _19
REMARK    4  A    between atoms: _7  and  _8
REMARK    5  A    between atoms: _7  and  _19
REMARK    6  A    between atoms: _10  and  _11
REMARK    7  A    between atoms: _15  and  _35
REMARK    8  A    between atoms: _17  and  _23
REMARK    9  A    between atoms: _18  and  _22
REMARK   10  A    between atoms: _22  and  _23
REMARK   11  A    between atoms: _25  and  _26
REMARK   12  A    between atoms: _27  and  _28
REMARK   13  A    between atoms: _29  and  _31
REMARK   14  A    between atoms: _31  and  _32
REMARK   15  A    between atoms: _31  and  _33
REMARK   16  A    between atoms: _33  and  _34
REMARK   17  A    between atoms: _33  and  _35
REMARK   18  A    between atoms: _36  and  _38
REMARK                            x       y       z     vdW  Elec       q    Type
REMARK                         _______ _______ _______ _____ _____    ______ ____
ROOT
ATOM      1  C   UNL     1       9.141   5.214  38.711  0.00  0.00    +0.163 C 
ENDROOT
BRANCH   1   2
ATOM      2  O   UNL     1       9.001   6.541  38.177  0.00  0.00    -0.388 OA
ATOM      3  H   UNL     1       8.248   6.974  38.587  0.00  0.00    +0.210 HD
ENDBRANCH   1   2
BRANCH   1   4
ATOM      4  C   UNL     1       9.244   4.175  37.582  0.00  0.00    +0.175 C 
BRANCH   4   5
ATOM      5  C   UNL     1       8.568   4.656  36.289  0.00  0.00    +0.176 C 
ATOM      6  O   UNL     1       7.209   5.054  36.617  0.00  0.00    -0.332 OA
ATOM      7  C   UNL     1       6.438   5.644  35.518  0.00  0.00    +0.277 C 
ATOM      8  C   UNL     1       6.426   4.695  34.295  0.00  0.00    +0.110 C 
ATOM      9  C   UNL     1       7.847   4.219  33.928  0.00  0.00    +0.143 C 
ATOM     10  C   UNL     1       8.558   3.626  35.145  0.00  0.00    +0.133 C 
BRANCH  10  11
ATOM     11  N   UNL     1       9.941   3.257  34.804  0.00  0.00    -0.308 N 
ATOM     12  H   UNL     1      10.572   3.996  34.527  0.00  0.00    +0.149 HD
ATOM     13  C   UNL     1      10.417   2.009  34.837  0.00  0.00    +0.210 C 
ATOM     14  C   UNL     1       9.424   0.902  35.238  0.00  0.00    +0.109 C 
ATOM     15  O   UNL     1      11.585   1.731  34.560  0.00  0.00    -0.276 OA
ENDBRANCH  10  11
BRANCH   7  16
ATOM     16  C   UNL     1       7.031   7.008  35.106  0.00  0.00    +0.414 C 
ATOM     17  O   UNL     1       7.116   7.313  33.917  0.00  0.00    -0.240 OA
ATOM     18  O   UNL     1       7.423   7.802  35.962  0.00  0.00    -0.240 OA
ENDBRANCH   7  16
BRANCH   9  19
ATOM     19  O   UNL     1       7.775   3.233  32.898  0.00  0.00    -0.390 OA
ATOM     20  H   UNL     1       7.679   3.666  32.046  0.00  0.00    +0.210 HD
ENDBRANCH   9  19
BRANCH   7  21
ATOM     21  O   UNL     1       5.072   5.823  35.973  0.00  0.00    -0.343 OA
ATOM     22  C   UNL     1       4.191   4.699  35.720  0.00  0.00    +0.198 C 
ENDBRANCH   7  21
ENDBRANCH   4   5
BRANCH   4  23
ATOM     23  O   UNL     1       8.670   2.922  38.006  0.00  0.00    -0.387 OA
ATOM     24  H   UNL     1       9.211   2.540  38.701  0.00  0.00    +0.210 HD
ENDBRANCH   4  23
ENDBRANCH   1   4
BRANCH   1  25
ATOM     25  C   UNL     1      10.383   5.134  39.592  0.00  0.00    +0.141 C 
BRANCH  25  28
ATOM     26  C   UNL     1      12.752   4.906  38.928  0.00  0.00    +0.401 C 
ATOM     27  O   UNL     1      13.111   5.934  39.506  0.00  0.00    -0.226 OA
ATOM     28  N   UNL     1      11.495   4.460  38.911  0.00  0.00    -0.279 N 
ATOM     29  H   UNL     1      11.297   3.611  38.401  0.00  0.00    +0.152 HD
BRANCH  26  30
ATOM     30  O   UNL     1      13.724   4.130  38.223  0.00  0.00    -0.444 OA
BRANCH  30  31
ATOM     31  C   UNL     1      13.277   3.908  36.882  0.00  0.00    +0.292 C 
BRANCH  31  33
ATOM     32  N   UNL     1      14.248   4.365  34.652  0.00  0.00    -0.131 NA
ATOM     33  C   UNL     1      14.021   4.767  35.942  0.00  0.00    +0.120 A 
ATOM     34  C   UNL     1      14.592   6.005  36.135  0.00  0.00    +0.137 A 
ATOM     35  N   UNL     1      15.160   6.292  34.932  0.00  0.00    -0.250 N 
ATOM     36  N   UNL     1      14.945   5.310  34.040  0.00  0.00    -0.065 NA
BRANCH  35  37
ATOM     37  C   UNL     1      15.963   7.442  34.572  0.00  0.00    +0.160 C 
BRANCH  37  38
ATOM     38  C   UNL     1      16.328   7.439  33.083  0.00  0.00    +0.107 C 
BRANCH  38  39
ATOM     39  N   UNL     1      16.237   8.774  32.466  0.00  0.00    -0.301 NA
ATOM     40  C   UNL     1      15.863   9.824  33.419  0.00  0.00    +0.084 C 
ATOM     41  C   UNL     1      16.240  11.090  32.677  0.00  0.00    +0.017 C 
ATOM     42  C   UNL     1      17.526  10.721  31.961  0.00  0.00    +0.017 C 
ATOM     43  C   UNL     1      17.522   9.196  31.889  0.00  0.00    +0.084 C 
ENDBRANCH  38  39
ENDBRANCH  37  38
ENDBRANCH  35  37
ENDBRANCH  31  33
ENDBRANCH  30  31
ENDBRANCH  26  30
ENDBRANCH  25  28
ENDBRANCH   1  25
TORSDOF 16
