REMARK VINA RESULT:    -5.527     15.525     17.789
REMARK INTER + INTRA:         -13.965
REMARK INTER:                 -11.087
REMARK INTRA:                  -2.878
REMARK UNBOUND:                -3.914
REMARK  Name = lig_assembled_73.pdb
REMARK  18 active torsions:
REMARK  status: ('A' for Active; 'I' for Inactive)
REMARK    1  A    between atoms: _2  and  _10
REMARK    2  A    between atoms: _3  and  _14
REMARK    3  A    between atoms: _5  and  _22
REMARK    4  A    between atoms: _7  and  _8
REMARK    5  A    between atoms: _7  and  _22
REMARK    6  A    between atoms: _13  and  _16
REMARK    7  A    between atoms: _18  and  _38
REMARK    8  A    between atoms: _20  and  _26
REMARK    9  A    between atoms: _21  and  _25
REMARK   10  A    between atoms: _25  and  _26
REMARK   11  A    between atoms: _28  and  _29
REMARK   12  A    between atoms: _30  and  _31
REMARK   13  A    between atoms: _32  and  _34
REMARK   14  A    between atoms: _34  and  _35
REMARK   15  A    between atoms: _34  and  _36
REMARK   16  A    between atoms: _36  and  _37
REMARK   17  A    between atoms: _36  and  _38
REMARK   18  A    between atoms: _39  and  _41
REMARK                            x       y       z     vdW  Elec       q    Type
REMARK                         _______ _______ _______ _____ _____    ______ ____
ROOT
ATOM      1  C   UNL     1      17.601   4.333  22.424  0.00  0.00    +0.163 C 
ENDROOT
BRANCH   1   2
ATOM      2  O   UNL     1      16.801   5.448  22.849  0.00  0.00    -0.388 OA
ATOM      3  H   UNL     1      16.693   6.062  22.118  0.00  0.00    +0.210 HD
ENDBRANCH   1   2
BRANCH   1   4
ATOM      4  C   UNL     1      18.157   3.563  23.634  0.00  0.00    +0.175 C 
BRANCH   4   5
ATOM      5  C   UNL     1      18.363   4.473  24.854  0.00  0.00    +0.176 C 
ATOM      6  O   UNL     1      19.454   5.386  24.551  0.00  0.00    -0.332 OA
ATOM      7  C   UNL     1      19.726   6.407  25.567  0.00  0.00    +0.277 C 
ATOM      8  C   UNL     1      19.963   5.747  26.948  0.00  0.00    +0.110 C 
ATOM      9  C   UNL     1      18.845   4.743  27.299  0.00  0.00    +0.143 C 
ATOM     10  C   UNL     1      18.644   3.729  26.172  0.00  0.00    +0.133 C 
BRANCH  10  11
ATOM     11  N   UNL     1      17.519   2.833  26.481  0.00  0.00    -0.308 N 
ATOM     12  H   UNL     1      16.592   3.234  26.514  0.00  0.00    +0.149 HD
ATOM     13  C   UNL     1      17.642   1.524  26.719  0.00  0.00    +0.210 C 
ATOM     14  C   UNL     1      19.070   0.949  26.686  0.00  0.00    +0.109 C 
ATOM     15  O   UNL     1      16.679   0.795  26.960  0.00  0.00    -0.276 OA
ENDBRANCH  10  11
BRANCH   7  16
ATOM     16  C   UNL     1      18.553   7.405  25.668  0.00  0.00    +0.414 C 
ATOM     17  O   UNL     1      17.614   7.340  24.876  0.00  0.00    -0.240 OA
ATOM     18  O   UNL     1      18.546   8.274  26.540  0.00  0.00    -0.240 OA
ENDBRANCH   7  16
BRANCH   9  19
ATOM     19  O   UNL     1      19.180   4.050  28.502  0.00  0.00    -0.390 OA
ATOM     20  H   UNL     1      18.784   4.500  29.252  0.00  0.00    +0.210 HD
ENDBRANCH   9  19
BRANCH   7  21
ATOM     21  O   UNL     1      20.935   7.111  25.183  0.00  0.00    -0.343 OA
ATOM     22  C   UNL     1      21.028   7.445  23.775  0.00  0.00    +0.198 C 
ENDBRANCH   7  21
ENDBRANCH   4   5
BRANCH   4  23
ATOM     23  O   UNL     1      19.396   2.915  23.283  0.00  0.00    -0.387 OA
ATOM     24  H   UNL     1      19.393   2.704  22.346  0.00  0.00    +0.210 HD
ENDBRANCH   4  23
ENDBRANCH   1   4
BRANCH   1  25
ATOM     25  C   UNL     1      16.767   3.392  21.560  0.00  0.00    +0.141 C 
BRANCH  25  28
ATOM     26  C   UNL     1      17.473   1.396  20.286  0.00  0.00    +0.401 C 
ATOM     27  O   UNL     1      17.027   1.808  19.213  0.00  0.00    -0.226 OA
ATOM     28  N   UNL     1      17.390   2.069  21.435  0.00  0.00    -0.279 N 
ATOM     29  H   UNL     1      17.778   1.644  22.265  0.00  0.00    +0.152 HD
BRANCH  26  30
ATOM     30  O   UNL     1      18.119   0.121  20.326  0.00  0.00    -0.444 OA
BRANCH  30  31
ATOM     31  C   UNL     1      18.910   0.023  21.514  0.00  0.00    +0.292 C 
BRANCH  31  33
ATOM     32  N   UNL     1      18.204  -2.306  21.964  0.00  0.00    -0.131 NA
ATOM     33  C   UNL     1      18.374  -1.025  22.403  0.00  0.00    +0.121 A 
ATOM     34  C   UNL     1      17.977  -0.944  23.717  0.00  0.00    +0.143 A 
ATOM     35  N   UNL     1      17.575  -2.218  24.045  0.00  0.00    -0.220 N 
ATOM     36  N   UNL     1      17.718  -3.024  22.966  0.00  0.00    -0.060 NA
BRANCH  35  37
ATOM     37  C   UNL     1      17.071  -2.702  25.281  0.00  0.00    +0.074 A 
ATOM     38  C   UNL     1      15.734  -3.131  25.369  0.00  0.00    +0.032 A 
ATOM     39  C   UNL     1      15.212  -3.603  26.581  0.00  0.00    +0.054 A 
ATOM     40  C   UNL     1      16.019  -3.650  27.716  0.00  0.00    +0.195 A 
ATOM     41  C   UNL     1      17.343  -3.225  27.622  0.00  0.00    +0.316 A 
ATOM     42  C   UNL     1      17.886  -2.756  26.417  0.00  0.00    +0.116 A 
BRANCH  41  43
ATOM     43  N   UNL     1      18.205  -3.252  28.787  0.00  0.00    +0.083 N 
ATOM     44  O   UNL     1      18.006  -2.402  29.666  0.00  0.00    +0.042 OA
ATOM     45  O   UNL     1      19.137  -4.068  28.770  0.00  0.00    -0.576 OA
ENDBRANCH  41  43
BRANCH  40  46
ATOM     46  O   UNL     1      15.517  -4.130  28.888  0.00  0.00    -0.501 OA
ATOM     47  H   UNL     1      15.338  -5.083  28.810  0.00  0.00    +0.292 HD
ENDBRANCH  40  46
ENDBRANCH  35  37
ENDBRANCH  31  33
ENDBRANCH  30  31
ENDBRANCH  26  30
ENDBRANCH  25  28
ENDBRANCH   1  25
TORSDOF 16
