REMARK VINA RESULT:    -6.391      5.255      9.656
REMARK INTER + INTRA:         -13.196
REMARK INTER:                 -10.076
REMARK INTRA:                  -3.119
REMARK UNBOUND:                -2.135
REMARK  Name = lig_assembled_51.pdb
REMARK  16 active torsions:
REMARK  status: ('A' for Active; 'I' for Inactive)
REMARK    1  A    between atoms: _2  and  _9
REMARK    2  A    between atoms: _4  and  _22
REMARK    3  A    between atoms: _6  and  _7
REMARK    4  A    between atoms: _6  and  _22
REMARK    5  A    between atoms: _18  and  _38
REMARK    6  A    between atoms: _20  and  _26
REMARK    7  A    between atoms: _21  and  _25
REMARK    8  A    between atoms: _25  and  _26
REMARK    9  A    between atoms: _28  and  _29
REMARK   10  A    between atoms: _30  and  _31
REMARK   11  A    between atoms: _32  and  _34
REMARK   12  A    between atoms: _34  and  _35
REMARK   13  A    between atoms: _34  and  _36
REMARK   14  A    between atoms: _36  and  _37
REMARK   15  A    between atoms: _36  and  _38
REMARK   16  A    between atoms: _39  and  _41
REMARK                            x       y       z     vdW  Elec       q    Type
REMARK                         _______ _______ _______ _____ _____    ______ ____
ROOT
ATOM      1  C   UNL     1       1.501   3.101  29.064  0.00  0.00    +0.163 C 
ENDROOT
BRANCH   1   2
ATOM      2  O   UNL     1       2.429   3.991  28.422  0.00  0.00    -0.388 OA
ATOM      3  H   UNL     1       3.185   3.491  28.105  0.00  0.00    +0.210 HD
ENDBRANCH   1   2
BRANCH   1   4
ATOM      4  C   UNL     1       1.847   2.966  30.544  0.00  0.00    +0.141 C 
BRANCH   4   7
ATOM      5  C   UNL     1       3.987   2.264  31.560  0.00  0.00    +0.401 C 
ATOM      6  O   UNL     1       4.144   3.316  32.185  0.00  0.00    -0.226 OA
ATOM      7  N   UNL     1       2.945   2.018  30.764  0.00  0.00    -0.279 N 
ATOM      8  H   UNL     1       2.910   1.128  30.286  0.00  0.00    +0.152 HD
BRANCH   5   9
ATOM      9  O   UNL     1       4.971   1.233  31.678  0.00  0.00    -0.444 OA
BRANCH   9  10
ATOM     10  C   UNL     1       4.378  -0.031  31.368  0.00  0.00    +0.292 C 
BRANCH  10  12
ATOM     11  N   UNL     1       6.494  -1.057  30.595  0.00  0.00    -0.131 NA
ATOM     12  C   UNL     1       5.184  -0.744  30.360  0.00  0.00    +0.120 A 
ATOM     13  C   UNL     1       4.833  -1.195  29.109  0.00  0.00    +0.137 A 
ATOM     14  N   UNL     1       5.974  -1.772  28.624  0.00  0.00    -0.245 N 
ATOM     15  N   UNL     1       6.968  -1.685  29.528  0.00  0.00    -0.065 NA
BRANCH  14  16
ATOM     16  C   UNL     1       6.174  -2.405  27.319  0.00  0.00    +0.066 C 
ATOM     17  C   UNL     1       5.332  -1.674  26.237  0.00  0.00    +0.034 C 
ATOM     18  C   UNL     1       5.563  -2.295  24.849  0.00  0.00    -0.008 C 
ATOM     19  C   UNL     1       7.056  -2.193  24.491  0.00  0.00    +0.007 C 
ATOM     20  C   UNL     1       7.900  -2.951  25.528  0.00  0.00    -0.008 C 
ATOM     21  C   UNL     1       7.472  -4.426  25.554  0.00  0.00    +0.007 C 
ATOM     22  C   UNL     1       5.983  -4.533  25.920  0.00  0.00    -0.008 C 
ATOM     23  C   UNL     1       5.148  -3.773  24.878  0.00  0.00    +0.007 C 
ATOM     24  C   UNL     1       7.674  -2.332  26.917  0.00  0.00    +0.034 C 
ATOM     25  C   UNL     1       5.756  -3.907  27.307  0.00  0.00    +0.034 C 
ENDBRANCH  14  16
ENDBRANCH  10  12
ENDBRANCH   9  10
ENDBRANCH   5   9
ENDBRANCH   4   7
ENDBRANCH   1   4
BRANCH   1  26
ATOM     26  C   UNL     1       1.522   1.713  28.403  0.00  0.00    +0.175 C 
BRANCH  26  27
ATOM     27  C   UNL     1       1.439   1.800  26.872  0.00  0.00    +0.176 C 
ATOM     28  O   UNL     1       0.585   2.928  26.534  0.00  0.00    -0.332 OA
ATOM     29  C   UNL     1       0.473   3.233  25.105  0.00  0.00    +0.277 C 
ATOM     30  C   UNL     1       0.018   1.979  24.318  0.00  0.00    +0.110 C 
ATOM     31  C   UNL     1       0.877   0.745  24.668  0.00  0.00    +0.143 C 
ATOM     32  C   UNL     1       0.928   0.523  26.180  0.00  0.00    +0.133 C 
BRANCH  32  33
ATOM     33  N   UNL     1       1.818  -0.602  26.506  0.00  0.00    -0.308 N 
ATOM     34  H   UNL     1       2.812  -0.469  26.380  0.00  0.00    +0.149 HD
ATOM     35  C   UNL     1       1.400  -1.788  26.956  0.00  0.00    +0.210 C 
ATOM     36  C   UNL     1      -0.122  -1.968  27.112  0.00  0.00    +0.109 C 
ATOM     37  O   UNL     1       2.170  -2.707  27.235  0.00  0.00    -0.276 OA
ENDBRANCH  32  33
BRANCH  29  38
ATOM     38  C   UNL     1       1.821   3.733  24.545  0.00  0.00    +0.414 C 
ATOM     39  O   UNL     1       2.033   3.714  23.333  0.00  0.00    -0.240 OA
ATOM     40  O   UNL     1       2.695   4.153  25.304  0.00  0.00    -0.240 OA
ENDBRANCH  29  38
BRANCH  31  41
ATOM     41  O   UNL     1       0.331  -0.415  24.040  0.00  0.00    -0.390 OA
ATOM     42  H   UNL     1       0.800  -0.586  23.220  0.00  0.00    +0.210 HD
ENDBRANCH  31  41
BRANCH  29  43
ATOM     43  O   UNL     1      -0.535   4.264  24.944  0.00  0.00    -0.343 OA
ATOM     44  C   UNL     1      -1.025   4.841  26.181  0.00  0.00    +0.198 C 
ENDBRANCH  29  43
ENDBRANCH  26  27
BRANCH  26  45
ATOM     45  O   UNL     1       0.444   0.903  28.913  0.00  0.00    -0.387 OA
ATOM     46  H   UNL     1      -0.226   0.797  28.234  0.00  0.00    +0.210 HD
ENDBRANCH  26  45
ENDBRANCH   1  26
TORSDOF 14
