REMARK VINA RESULT:    -5.679      5.979      7.582
REMARK INTER + INTRA:         -13.526
REMARK INTER:                 -11.105
REMARK INTRA:                  -2.421
REMARK UNBOUND:                -2.036
REMARK  Name = lig_assembled_45.pdb
REMARK  24 active torsions:
REMARK  status: ('A' for Active; 'I' for Inactive)
REMARK    1  A    between atoms: _2  and  _10
REMARK    2  A    between atoms: _3  and  _12
REMARK    3  A    between atoms: _3  and  _13
REMARK    4  A    between atoms: _3  and  _14
REMARK    5  A    between atoms: _3  and  _16
REMARK    6  A    between atoms: _5  and  _21
REMARK    7  A    between atoms: _6  and  _16
REMARK    8  A    between atoms: _7  and  _8
REMARK    9  A    between atoms: _7  and  _21
REMARK   10  A    between atoms: _10  and  _11
REMARK   11  A    between atoms: _11  and  _12
REMARK   12  A    between atoms: _14  and  _15
REMARK   13  A    between atoms: _17  and  _37
REMARK   14  A    between atoms: _19  and  _25
REMARK   15  A    between atoms: _20  and  _24
REMARK   16  A    between atoms: _24  and  _25
REMARK   17  A    between atoms: _27  and  _28
REMARK   18  A    between atoms: _29  and  _30
REMARK   19  A    between atoms: _31  and  _33
REMARK   20  A    between atoms: _33  and  _34
REMARK   21  A    between atoms: _33  and  _35
REMARK   22  A    between atoms: _35  and  _36
REMARK   23  A    between atoms: _35  and  _37
REMARK   24  A    between atoms: _38  and  _40
REMARK                            x       y       z     vdW  Elec       q    Type
REMARK                         _______ _______ _______ _____ _____    ______ ____
ROOT
ATOM      1  C   UNL     1       7.848   2.419  34.122  0.00  0.00    +0.163 C 
ENDROOT
BRANCH   1   2
ATOM      2  O   UNL     1       8.760   2.594  35.219  0.00  0.00    -0.388 OA
ATOM      3  H   UNL     1       8.638   1.885  35.854  0.00  0.00    +0.210 HD
ENDBRANCH   1   2
BRANCH   1   4
ATOM      4  C   UNL     1       7.779   3.688  33.256  0.00  0.00    +0.175 C 
BRANCH   4   5
ATOM      5  C   UNL     1       6.973   4.806  33.933  0.00  0.00    +0.176 C 
ATOM      6  O   UNL     1       7.768   5.326  35.034  0.00  0.00    -0.332 OA
ATOM      7  C   UNL     1       7.199   6.480  35.737  0.00  0.00    +0.277 C 
ATOM      8  C   UNL     1       5.766   6.162  36.230  0.00  0.00    +0.110 C 
ATOM      9  C   UNL     1       4.893   5.576  35.101  0.00  0.00    +0.143 C 
ATOM     10  C   UNL     1       5.581   4.383  34.437  0.00  0.00    +0.133 C 
BRANCH  10  11
ATOM     11  N   UNL     1       4.778   3.889  33.307  0.00  0.00    -0.308 N 
ATOM     12  H   UNL     1       4.712   4.473  32.485  0.00  0.00    +0.149 HD
ATOM     13  C   UNL     1       4.133   2.719  33.296  0.00  0.00    +0.210 C 
ATOM     14  C   UNL     1       4.233   1.865  34.574  0.00  0.00    +0.109 C 
ATOM     15  O   UNL     1       3.480   2.324  32.330  0.00  0.00    -0.276 OA
ENDBRANCH  10  11
BRANCH   7  16
ATOM     16  C   UNL     1       7.164   7.718  34.816  0.00  0.00    +0.414 C 
ATOM     17  O   UNL     1       8.212   8.253  34.456  0.00  0.00    -0.240 OA
ATOM     18  O   UNL     1       6.089   8.181  34.434  0.00  0.00    -0.240 OA
ENDBRANCH   7  16
BRANCH   9  19
ATOM     19  O   UNL     1       3.635   5.158  35.633  0.00  0.00    -0.390 OA
ATOM     20  H   UNL     1       3.781   4.597  36.398  0.00  0.00    +0.210 HD
ENDBRANCH   9  19
BRANCH   7  21
ATOM     21  O   UNL     1       8.030   6.756  36.894  0.00  0.00    -0.343 OA
ATOM     22  C   UNL     1       7.307   7.146  38.088  0.00  0.00    +0.198 C 
ENDBRANCH   7  21
ENDBRANCH   4   5
BRANCH   4  23
ATOM     23  O   UNL     1       7.213   3.379  31.966  0.00  0.00    -0.387 OA
ATOM     24  H   UNL     1       6.662   4.109  31.675  0.00  0.00    +0.210 HD
ENDBRANCH   4  23
ENDBRANCH   1   4
BRANCH   1  25
ATOM     25  C   UNL     1       8.287   1.238  33.262  0.00  0.00    +0.141 C 
BRANCH  25  28
ATOM     26  C   UNL     1       7.150  -0.877  32.680  0.00  0.00    +0.401 C 
ATOM     27  O   UNL     1       8.119  -1.585  32.961  0.00  0.00    -0.226 OA
ATOM     28  N   UNL     1       7.143   0.453  32.785  0.00  0.00    -0.279 N 
ATOM     29  H   UNL     1       6.302   0.948  32.521  0.00  0.00    +0.152 HD
BRANCH  26  30
ATOM     30  O   UNL     1       5.951  -1.496  32.207  0.00  0.00    -0.444 OA
BRANCH  30  31
ATOM     31  C   UNL     1       5.152  -0.529  31.520  0.00  0.00    +0.292 C 
BRANCH  31  33
ATOM     32  N   UNL     1       3.885  -0.687  29.394  0.00  0.00    -0.131 NA
ATOM     33  C   UNL     1       5.050  -0.874  30.090  0.00  0.00    +0.120 A 
ATOM     34  C   UNL     1       5.998  -1.403  29.245  0.00  0.00    +0.137 A 
ATOM     35  N   UNL     1       5.341  -1.507  28.057  0.00  0.00    -0.251 N 
ATOM     36  N   UNL     1       4.077  -1.086  28.143  0.00  0.00    -0.065 NA
BRANCH  35  37
ATOM     37  C   UNL     1       5.862  -2.025  26.809  0.00  0.00    +0.150 C 
BRANCH  37  38
ATOM     38  C   UNL     1       7.336  -2.397  26.891  0.00  0.00    +0.074 C 
BRANCH  38  39
ATOM     39  C   UNL     1       7.664  -3.874  27.152  0.00  0.00    +0.134 C 
BRANCH  39  40
ATOM     40  N   UNL     1       7.672  -4.850  25.929  0.00  0.00    +0.241 N 
ATOM     41  C   UNL     1       6.327  -5.594  25.881  0.00  0.00    +0.192 C 
BRANCH  40  42
ATOM     42  C   UNL     1       8.804  -5.892  26.216  0.00  0.00    +0.129 C 
ATOM     43  C   UNL     1       9.597  -5.613  27.488  0.00  0.00    +0.060 C 
ENDBRANCH  40  42
BRANCH  40  44
ATOM     44  C   UNL     1       7.919  -4.177  24.566  0.00  0.00    +0.129 C 
ATOM     45  C   UNL     1       6.718  -4.195  23.635  0.00  0.00    +0.060 C 
ENDBRANCH  40  44
ENDBRANCH  39  40
ENDBRANCH  38  39
ENDBRANCH  37  38
ENDBRANCH  35  37
ENDBRANCH  31  33
ENDBRANCH  30  31
ENDBRANCH  26  30
ENDBRANCH  25  28
ENDBRANCH   1  25
TORSDOF 19
