REMARK VINA RESULT:    -5.621      5.853      7.662
REMARK INTER + INTRA:         -13.154
REMARK INTER:                 -10.435
REMARK INTRA:                  -2.719
REMARK UNBOUND:                -2.111
REMARK  Name = lig_assembled_17.pdb
REMARK  22 active torsions:
REMARK  status: ('A' for Active; 'I' for Inactive)
REMARK    1  A    between atoms: _2  and  _10
REMARK    2  A    between atoms: _3  and  _11
REMARK    3  A    between atoms: _3  and  _12
REMARK    4  A    between atoms: _3  and  _14
REMARK    5  A    between atoms: _5  and  _19
REMARK    6  A    between atoms: _6  and  _14
REMARK    7  A    between atoms: _7  and  _8
REMARK    8  A    between atoms: _7  and  _19
REMARK    9  A    between atoms: _10  and  _11
REMARK   10  A    between atoms: _12  and  _13
REMARK   11  A    between atoms: _15  and  _35
REMARK   12  A    between atoms: _17  and  _23
REMARK   13  A    between atoms: _18  and  _22
REMARK   14  A    between atoms: _22  and  _23
REMARK   15  A    between atoms: _25  and  _26
REMARK   16  A    between atoms: _27  and  _28
REMARK   17  A    between atoms: _29  and  _31
REMARK   18  A    between atoms: _31  and  _32
REMARK   19  A    between atoms: _31  and  _33
REMARK   20  A    between atoms: _33  and  _34
REMARK   21  A    between atoms: _33  and  _35
REMARK   22  A    between atoms: _36  and  _38
REMARK                            x       y       z     vdW  Elec       q    Type
REMARK                         _______ _______ _______ _____ _____    ______ ____
ROOT
ATOM      1  C   UNL     1       7.789   2.440  34.115  0.00  0.00    +0.163 C 
ENDROOT
BRANCH   1   2
ATOM      2  O   UNL     1       8.738   2.620  35.179  0.00  0.00    -0.388 OA
ATOM      3  H   UNL     1       9.486   3.130  34.858  0.00  0.00    +0.210 HD
ENDBRANCH   1   2
BRANCH   1   4
ATOM      4  C   UNL     1       7.710   3.695  33.230  0.00  0.00    +0.175 C 
BRANCH   4   5
ATOM      5  C   UNL     1       6.931   4.832  33.908  0.00  0.00    +0.176 C 
ATOM      6  O   UNL     1       7.769   5.384  34.960  0.00  0.00    -0.332 OA
ATOM      7  C   UNL     1       7.228   6.557  35.652  0.00  0.00    +0.277 C 
ATOM      8  C   UNL     1       5.818   6.251  36.213  0.00  0.00    +0.110 C 
ATOM      9  C   UNL     1       4.899   5.633  35.138  0.00  0.00    +0.143 C 
ATOM     10  C   UNL     1       5.561   4.422  34.481  0.00  0.00    +0.133 C 
BRANCH  10  11
ATOM     11  N   UNL     1       4.714   3.895  33.400  0.00  0.00    -0.308 N 
ATOM     12  H   UNL     1       4.633   4.443  32.554  0.00  0.00    +0.149 HD
ATOM     13  C   UNL     1       4.044   2.741  33.463  0.00  0.00    +0.210 C 
ATOM     14  C   UNL     1       4.166   1.944  34.775  0.00  0.00    +0.109 C 
ATOM     15  O   UNL     1       3.353   2.318  32.535  0.00  0.00    -0.276 OA
ENDBRANCH  10  11
BRANCH   7  16
ATOM     16  C   UNL     1       7.153   7.768  34.699  0.00  0.00    +0.414 C 
ATOM     17  O   UNL     1       6.061   8.207  34.340  0.00  0.00    -0.240 OA
ATOM     18  O   UNL     1       8.183   8.306  34.290  0.00  0.00    -0.240 OA
ENDBRANCH   7  16
BRANCH   9  19
ATOM     19  O   UNL     1       3.665   5.229  35.734  0.00  0.00    -0.390 OA
ATOM     20  H   UNL     1       3.798   4.415  36.225  0.00  0.00    +0.210 HD
ENDBRANCH   9  19
BRANCH   7  21
ATOM     21  O   UNL     1       8.106   6.866  36.765  0.00  0.00    -0.343 OA
ATOM     22  C   UNL     1       8.886   5.747  37.259  0.00  0.00    +0.198 C 
ENDBRANCH   7  21
ENDBRANCH   4   5
BRANCH   4  23
ATOM     23  O   UNL     1       7.110   3.371  31.960  0.00  0.00    -0.387 OA
ATOM     24  H   UNL     1       6.621   4.130  31.633  0.00  0.00    +0.210 HD
ENDBRANCH   4  23
ENDBRANCH   1   4
BRANCH   1  25
ATOM     25  C   UNL     1       8.184   1.239  33.262  0.00  0.00    +0.141 C 
BRANCH  25  28
ATOM     26  C   UNL     1       6.252  -0.115  32.528  0.00  0.00    +0.401 C 
ATOM     27  O   UNL     1       6.037   0.565  31.522  0.00  0.00    -0.226 OA
ATOM     28  N   UNL     1       7.231   0.131  33.400  0.00  0.00    -0.279 N 
ATOM     29  H   UNL     1       7.321  -0.478  34.201  0.00  0.00    +0.152 HD
BRANCH  26  30
ATOM     30  O   UNL     1       5.411  -1.239  32.799  0.00  0.00    -0.444 OA
BRANCH  30  31
ATOM     31  C   UNL     1       6.219  -2.380  33.101  0.00  0.00    +0.292 C 
BRANCH  31  33
ATOM     32  N   UNL     1       5.498  -3.926  31.312  0.00  0.00    -0.131 NA
ATOM     33  C   UNL     1       6.482  -3.157  31.876  0.00  0.00    +0.120 A 
ATOM     34  C   UNL     1       7.626  -3.257  31.116  0.00  0.00    +0.137 A 
ATOM     35  N   UNL     1       7.265  -4.084  30.096  0.00  0.00    -0.250 N 
ATOM     36  N   UNL     1       5.991  -4.493  30.221  0.00  0.00    -0.065 NA
BRANCH  35  37
ATOM     37  C   UNL     1       8.049  -4.497  28.949  0.00  0.00    +0.160 C 
BRANCH  37  38
ATOM     38  C   UNL     1       7.189  -4.494  27.678  0.00  0.00    +0.107 C 
BRANCH  38  39
ATOM     39  N   UNL     1       7.131  -3.212  26.934  0.00  0.00    -0.301 NA
BRANCH  39  40
ATOM     40  C   UNL     1       7.599  -3.323  25.540  0.00  0.00    +0.081 C 
ATOM     41  C   UNL     1       7.374  -2.106  24.647  0.00  0.00    +0.020 C 
ENDBRANCH  39  40
BRANCH  39  42
ATOM     42  C   UNL     1       5.766  -2.656  27.050  0.00  0.00    +0.081 C 
ATOM     43  C   UNL     1       5.603  -1.573  28.111  0.00  0.00    +0.020 C 
ENDBRANCH  39  42
ENDBRANCH  38  39
ENDBRANCH  37  38
ENDBRANCH  35  37
ENDBRANCH  31  33
ENDBRANCH  30  31
ENDBRANCH  26  30
ENDBRANCH  25  28
ENDBRANCH   1  25
TORSDOF 18
