REMARK VINA RESULT:    -6.495     14.081     16.305
REMARK INTER + INTRA:         -13.497
REMARK INTER:                 -10.890
REMARK INTRA:                  -2.607
REMARK UNBOUND:                -1.875
REMARK  Name = lig_assembled_82.pdb
REMARK  19 active torsions:
REMARK  status: ('A' for Active; 'I' for Inactive)
REMARK    1  A    between atoms: _2  and  _9
REMARK    2  A    between atoms: _4  and  _22
REMARK    3  A    between atoms: _5  and  _16
REMARK    4  A    between atoms: _6  and  _7
REMARK    5  A    between atoms: _6  and  _22
REMARK    6  A    between atoms: _9  and  _10
REMARK    7  A    between atoms: _16  and  _17
REMARK    8  A    between atoms: _18  and  _38
REMARK    9  A    between atoms: _20  and  _26
REMARK   10  A    between atoms: _21  and  _25
REMARK   11  A    between atoms: _25  and  _26
REMARK   12  A    between atoms: _28  and  _29
REMARK   13  A    between atoms: _30  and  _31
REMARK   14  A    between atoms: _32  and  _34
REMARK   15  A    between atoms: _34  and  _35
REMARK   16  A    between atoms: _34  and  _36
REMARK   17  A    between atoms: _36  and  _37
REMARK   18  A    between atoms: _36  and  _38
REMARK   19  A    between atoms: _39  and  _41
REMARK                            x       y       z     vdW  Elec       q    Type
REMARK                         _______ _______ _______ _____ _____    ______ ____
ROOT
ATOM      1  C   UNL     1      18.615  10.408  30.594  0.00  0.00    +0.163 C 
ENDROOT
BRANCH   1   2
ATOM      2  O   UNL     1      17.236  10.737  30.359  0.00  0.00    -0.388 OA
ATOM      3  H   UNL     1      17.094  11.669  30.538  0.00  0.00    +0.210 HD
ENDBRANCH   1   2
BRANCH   1   4
ATOM      4  C   UNL     1      19.489  11.011  29.498  0.00  0.00    +0.141 C 
BRANCH   4   7
ATOM      5  C   UNL     1      18.872   9.933  27.362  0.00  0.00    +0.401 C 
ATOM      6  O   UNL     1      17.824  10.570  27.235  0.00  0.00    -0.226 OA
ATOM      7  N   UNL     1      19.708  10.071  28.392  0.00  0.00    -0.279 N 
ATOM      8  H   UNL     1      20.538   9.496  28.413  0.00  0.00    +0.152 HD
BRANCH   5   9
ATOM      9  O   UNL     1      19.231   8.980  26.359  0.00  0.00    -0.444 OA
BRANCH   9  10
ATOM     10  C   UNL     1      19.028   7.657  26.863  0.00  0.00    +0.292 C 
BRANCH  10  12
ATOM     11  N   UNL     1      19.423   6.917  24.535  0.00  0.00    -0.131 NA
ATOM     12  C   UNL     1      19.454   6.652  25.884  0.00  0.00    +0.120 A 
ATOM     13  C   UNL     1      19.918   5.362  26.065  0.00  0.00    +0.137 A 
ATOM     14  N   UNL     1      20.022   4.863  24.797  0.00  0.00    -0.247 N 
ATOM     15  N   UNL     1      19.810   5.829  23.884  0.00  0.00    -0.065 NA
BRANCH  14  16
ATOM     16  C   UNL     1      20.226   3.474  24.377  0.00  0.00    +0.176 C 
BRANCH  16  17
ATOM     17  C   UNL     1      18.927   2.740  24.148  0.00  0.00    -0.049 C 
ATOM     18  C   UNL     1      18.422   2.641  22.743  0.00  0.00    +0.023 C 
ATOM     19  C   UNL     1      17.678   1.303  22.296  0.00  0.00    -0.025 C 
ATOM     20  C   UNL     1      17.887  -0.157  22.719  0.00  0.00    +0.012 C 
ATOM     21  C   UNL     1      16.489   1.938  23.158  0.00  0.00    -0.000 C 
ATOM     22  C   UNL     1      16.678   1.836  24.704  0.00  0.00    +0.031 C 
ATOM     23  C   UNL     1      17.783   1.318  20.751  0.00  0.00    +0.012 C 
ATOM     24  C   UNL     1      16.995   3.317  22.655  0.00  0.00    +0.012 C 
ATOM     25  C   UNL     1      18.069   2.310  25.092  0.00  0.00    -0.025 C 
ENDBRANCH  16  17
ENDBRANCH  14  16
ENDBRANCH  10  12
ENDBRANCH   9  10
ENDBRANCH   5   9
ENDBRANCH   4   7
ENDBRANCH   1   4
BRANCH   1  26
ATOM     26  C   UNL     1      18.819   8.884  30.632  0.00  0.00    +0.175 C 
BRANCH  26  27
ATOM     27  C   UNL     1      17.904   8.204  31.661  0.00  0.00    +0.176 C 
ATOM     28  O   UNL     1      17.880   9.034  32.855  0.00  0.00    -0.332 OA
ATOM     29  C   UNL     1      16.968   8.594  33.915  0.00  0.00    +0.277 C 
ATOM     30  C   UNL     1      17.262   7.125  34.305  0.00  0.00    +0.110 C 
ATOM     31  C   UNL     1      17.329   6.208  33.065  0.00  0.00    +0.143 C 
ATOM     32  C   UNL     1      18.304   6.762  32.026  0.00  0.00    +0.133 C 
BRANCH  32  33
ATOM     33  N   UNL     1      18.294   5.928  30.814  0.00  0.00    -0.308 N 
ATOM     34  H   UNL     1      17.462   5.939  30.240  0.00  0.00    +0.149 HD
ATOM     35  C   UNL     1      19.312   5.157  30.423  0.00  0.00    +0.210 C 
ATOM     36  C   UNL     1      20.555   5.141  31.332  0.00  0.00    +0.109 C 
ATOM     37  O   UNL     1      19.281   4.479  29.394  0.00  0.00    -0.276 OA
ENDBRANCH  32  33
BRANCH  29  38
ATOM     38  C   UNL     1      15.499   8.723  33.462  0.00  0.00    +0.414 C 
ATOM     39  O   UNL     1      15.127   9.718  32.840  0.00  0.00    -0.240 OA
ATOM     40  O   UNL     1      14.687   7.834  33.718  0.00  0.00    -0.240 OA
ENDBRANCH  29  38
BRANCH  29  41
ATOM     41  O   UNL     1      17.196   9.430  35.078  0.00  0.00    -0.343 OA
ATOM     42  C   UNL     1      17.793  10.721  34.797  0.00  0.00    +0.198 C 
ENDBRANCH  29  41
BRANCH  31  43
ATOM     43  O   UNL     1      17.749   4.900  33.455  0.00  0.00    -0.390 OA
ATOM     44  H   UNL     1      18.262   4.504  32.746  0.00  0.00    +0.210 HD
ENDBRANCH  31  43
ENDBRANCH  26  27
BRANCH  26  45
ATOM     45  O   UNL     1      20.199   8.574  30.912  0.00  0.00    -0.387 OA
ATOM     46  H   UNL     1      20.300   8.382  31.847  0.00  0.00    +0.210 HD
ENDBRANCH  26  45
ENDBRANCH   1  26
TORSDOF 15
