REMARK VINA RESULT:    -5.080      7.477     12.479
REMARK INTER + INTRA:         -13.229
REMARK INTER:                 -11.293
REMARK INTRA:                  -1.936
REMARK UNBOUND:                -3.545
REMARK  Name = lig_assembled_55.pdb
REMARK  20 active torsions:
REMARK  status: ('A' for Active; 'I' for Inactive)
REMARK    1  A    between atoms: _2  and  _10
REMARK    2  A    between atoms: _3  and  _11
REMARK    3  A    between atoms: _3  and  _38
REMARK    4  A    between atoms: _5  and  _18
REMARK    5  A    between atoms: _6  and  _38
REMARK    6  A    between atoms: _7  and  _8
REMARK    7  A    between atoms: _7  and  _18
REMARK    8  A    between atoms: _10  and  _11
REMARK    9  A    between atoms: _14  and  _34
REMARK   10  A    between atoms: _16  and  _22
REMARK   11  A    between atoms: _17  and  _21
REMARK   12  A    between atoms: _21  and  _22
REMARK   13  A    between atoms: _24  and  _25
REMARK   14  A    between atoms: _26  and  _27
REMARK   15  A    between atoms: _28  and  _30
REMARK   16  A    between atoms: _30  and  _31
REMARK   17  A    between atoms: _30  and  _32
REMARK   18  A    between atoms: _32  and  _33
REMARK   19  A    between atoms: _32  and  _34
REMARK   20  A    between atoms: _35  and  _37
REMARK                            x       y       z     vdW  Elec       q    Type
REMARK                         _______ _______ _______ _____ _____    ______ ____
ROOT
ATOM      1  C   UNL     1       3.280   2.668  32.545  0.00  0.00    +0.163 C 
ENDROOT
BRANCH   1   2
ATOM      2  O   UNL     1       4.054   1.975  31.552  0.00  0.00    -0.388 OA
ATOM      3  H   UNL     1       3.568   1.954  30.724  0.00  0.00    +0.210 HD
ENDBRANCH   1   2
BRANCH   1   4
ATOM      4  C   UNL     1       4.114   3.769  33.222  0.00  0.00    +0.175 C 
BRANCH   4   5
ATOM      5  C   UNL     1       5.523   3.282  33.593  0.00  0.00    +0.176 C 
ATOM      6  O   UNL     1       5.408   1.920  34.089  0.00  0.00    -0.332 OA
ATOM      7  C   UNL     1       6.674   1.248  34.396  0.00  0.00    +0.277 C 
ATOM      8  C   UNL     1       7.512   2.097  35.384  0.00  0.00    +0.110 C 
ATOM      9  C   UNL     1       7.635   3.561  34.914  0.00  0.00    +0.143 C 
ATOM     10  C   UNL     1       6.259   4.161  34.621  0.00  0.00    +0.133 C 
BRANCH  10  11
ATOM     11  N   UNL     1       6.395   5.527  34.091  0.00  0.00    -0.308 N 
ATOM     12  H   UNL     1       6.736   5.635  33.147  0.00  0.00    +0.149 HD
ATOM     13  C   UNL     1       6.096   6.633  34.778  0.00  0.00    +0.210 C 
ATOM     14  C   UNL     1       5.603   6.436  36.223  0.00  0.00    +0.109 C 
ATOM     15  O   UNL     1       6.206   7.765  34.303  0.00  0.00    -0.276 OA
ENDBRANCH  10  11
BRANCH   7  16
ATOM     16  C   UNL     1       7.489   1.002  33.109  0.00  0.00    +0.414 C 
ATOM     17  O   UNL     1       6.918   0.699  32.062  0.00  0.00    -0.240 OA
ATOM     18  O   UNL     1       8.716   1.108  33.117  0.00  0.00    -0.240 OA
ENDBRANCH   7  16
BRANCH   7  19
ATOM     19  O   UNL     1       6.367  -0.021  35.029  0.00  0.00    -0.343 OA
ATOM     20  C   UNL     1       5.351   0.040  36.061  0.00  0.00    +0.198 C 
ENDBRANCH   7  19
BRANCH   9  21
ATOM     21  O   UNL     1       8.281   4.338  35.923  0.00  0.00    -0.390 OA
ATOM     22  H   UNL     1       8.269   5.265  35.672  0.00  0.00    +0.210 HD
ENDBRANCH   9  21
ENDBRANCH   4   5
BRANCH   4  23
ATOM     23  O   UNL     1       3.433   4.258  34.394  0.00  0.00    -0.387 OA
ATOM     24  H   UNL     1       3.509   5.215  34.433  0.00  0.00    +0.210 HD
ENDBRANCH   4  23
ENDBRANCH   1   4
BRANCH   1  25
ATOM     25  C   UNL     1       2.043   3.288  31.904  0.00  0.00    +0.141 C 
BRANCH  25  28
ATOM     26  C   UNL     1       1.522   3.259  29.488  0.00  0.00    +0.401 C 
ATOM     27  O   UNL     1       0.547   2.514  29.612  0.00  0.00    -0.226 OA
ATOM     28  N   UNL     1       2.282   3.666  30.505  0.00  0.00    -0.279 N 
ATOM     29  H   UNL     1       3.067   4.270  30.302  0.00  0.00    +0.152 HD
BRANCH  26  30
ATOM     30  O   UNL     1       1.881   3.723  28.184  0.00  0.00    -0.444 OA
BRANCH  30  31
ATOM     31  C   UNL     1       0.985   3.170  27.217  0.00  0.00    +0.292 C 
BRANCH  31  33
ATOM     32  N   UNL     1      -0.018   4.935  25.805  0.00  0.00    -0.131 NA
ATOM     33  C   UNL     1       0.965   4.000  25.999  0.00  0.00    +0.120 A 
ATOM     34  C   UNL     1       1.822   4.017  24.919  0.00  0.00    +0.137 A 
ATOM     35  N   UNL     1       1.296   4.967  24.097  0.00  0.00    -0.250 N 
ATOM     36  N   UNL     1       0.192   5.518  24.634  0.00  0.00    -0.065 NA
BRANCH  35  37
ATOM     37  C   UNL     1       1.796   5.419  22.816  0.00  0.00    +0.162 C 
BRANCH  37  38
ATOM     38  C   UNL     1       1.171   4.697  21.618  0.00  0.00    +0.129 C 
BRANCH  38  39
ATOM     39  N   UNL     1      -0.241   5.098  21.346  0.00  0.00    -0.193 NA
ATOM     40  H   UNL     1      -0.299   6.106  21.157  0.00  0.00    +0.148 HD
BRANCH  39  41
ATOM     41  S   UNL     1      -1.074   4.169  20.214  0.00  0.00    +0.027 S 
ATOM     42  O   UNL     1      -0.896   2.786  20.598  0.00  0.00    -0.158 OA
ATOM     43  O   UNL     1      -2.392   4.743  20.062  0.00  0.00    -0.158 OA
ATOM     44  C   UNL     1      -0.124   4.466  18.741  0.00  0.00    +0.214 C 
ENDBRANCH  39  41
ENDBRANCH  38  39
ENDBRANCH  37  38
ENDBRANCH  35  37
ENDBRANCH  31  33
ENDBRANCH  30  31
ENDBRANCH  26  30
ENDBRANCH  25  28
ENDBRANCH   1  25
TORSDOF 17
