REMARK VINA RESULT:    -6.406     13.021     18.540
REMARK INTER + INTRA:         -13.500
REMARK INTER:                 -11.019
REMARK INTRA:                  -2.481
REMARK UNBOUND:                -2.413
REMARK  Name = lig_assembled_8.pdb
REMARK  16 active torsions:
REMARK  status: ('A' for Active; 'I' for Inactive)
REMARK    1  A    between atoms: _2  and  _9
REMARK    2  A    between atoms: _4  and  _18
REMARK    3  A    between atoms: _6  and  _7
REMARK    4  A    between atoms: _6  and  _18
REMARK    5  A    between atoms: _14  and  _34
REMARK    6  A    between atoms: _16  and  _22
REMARK    7  A    between atoms: _17  and  _21
REMARK    8  A    between atoms: _21  and  _22
REMARK    9  A    between atoms: _24  and  _25
REMARK   10  A    between atoms: _26  and  _27
REMARK   11  A    between atoms: _28  and  _30
REMARK   12  A    between atoms: _30  and  _31
REMARK   13  A    between atoms: _30  and  _32
REMARK   14  A    between atoms: _32  and  _33
REMARK   15  A    between atoms: _32  and  _34
REMARK   16  A    between atoms: _35  and  _37
REMARK                            x       y       z     vdW  Elec       q    Type
REMARK                         _______ _______ _______ _____ _____    ______ ____
ROOT
ATOM      1  C   UNL     1      -4.666   7.329  13.625  0.00  0.00    +0.163 C 
ENDROOT
BRANCH   1   2
ATOM      2  O   UNL     1      -4.767   6.922  14.999  0.00  0.00    -0.388 OA
ATOM      3  H   UNL     1      -4.970   5.985  15.042  0.00  0.00    +0.210 HD
ENDBRANCH   1   2
BRANCH   1   4
ATOM      4  C   UNL     1      -3.294   6.959  13.070  0.00  0.00    +0.141 C 
BRANCH   4   7
ATOM      5  C   UNL     1      -1.385   7.465  14.555  0.00  0.00    +0.401 C 
ATOM      6  O   UNL     1      -1.192   8.587  14.080  0.00  0.00    -0.226 OA
ATOM      7  N   UNL     1      -2.341   6.634  14.139  0.00  0.00    -0.279 N 
ATOM      8  H   UNL     1      -2.415   5.730  14.584  0.00  0.00    +0.152 HD
BRANCH   5   9
ATOM      9  O   UNL     1      -0.541   7.005  15.613  0.00  0.00    -0.444 OA
BRANCH   9  10
ATOM     10  C   UNL     1      -1.312   6.229  16.535  0.00  0.00    +0.292 C 
BRANCH  10  12
ATOM     11  N   UNL     1       0.644   4.730  16.674  0.00  0.00    -0.131 NA
ATOM     12  C   UNL     1      -0.440   5.294  17.270  0.00  0.00    +0.121 A 
ATOM     13  C   UNL     1      -0.518   4.845  18.568  0.00  0.00    +0.143 A 
ATOM     14  N   UNL     1       0.573   4.009  18.736  0.00  0.00    -0.219 N 
ATOM     15  N   UNL     1       1.244   3.954  17.564  0.00  0.00    -0.060 NA
BRANCH  14  16
ATOM     16  C   UNL     1       0.978   3.316  19.919  0.00  0.00    +0.081 A 
ATOM     17  C   UNL     1       1.476   4.079  20.999  0.00  0.00    +0.029 A 
ATOM     18  C   UNL     1       1.913   3.476  22.182  0.00  0.00    +0.002 A 
ATOM     19  C   UNL     1       1.862   2.097  22.316  0.00  0.00    +0.001 A 
ATOM     20  C   UNL     1       1.368   1.324  21.270  0.00  0.00    +0.017 A 
ATOM     21  C   UNL     1       0.922   1.916  20.072  0.00  0.00    +0.043 A 
ATOM     22 BR   UNL     1       0.286   0.655  18.792  0.00  0.00    -0.048 Br
ENDBRANCH  14  16
ENDBRANCH  10  12
ENDBRANCH   9  10
ENDBRANCH   5   9
ENDBRANCH   4   7
ENDBRANCH   1   4
BRANCH   1  23
ATOM     23  C   UNL     1      -4.885   8.846  13.482  0.00  0.00    +0.175 C 
BRANCH  23  24
ATOM     24  C   UNL     1      -4.665   9.588  14.808  0.00  0.00    +0.176 C 
ATOM     25  O   UNL     1      -5.908   9.541  15.560  0.00  0.00    -0.332 OA
ATOM     26  C   UNL     1      -5.856  10.113  16.909  0.00  0.00    +0.277 C 
ATOM     27  C   UNL     1      -5.330  11.568  16.859  0.00  0.00    +0.110 C 
ATOM     28  C   UNL     1      -4.025  11.674  16.043  0.00  0.00    +0.143 C 
ATOM     29  C   UNL     1      -4.191  11.046  14.659  0.00  0.00    +0.133 C 
BRANCH  29  30
ATOM     30  N   UNL     1      -2.917  11.076  13.924  0.00  0.00    -0.308 N 
ATOM     31  H   UNL     1      -2.123  10.604  14.335  0.00  0.00    +0.149 HD
ATOM     32  C   UNL     1      -2.740  11.685  12.748  0.00  0.00    +0.210 C 
ATOM     33  C   UNL     1      -3.961  12.417  12.160  0.00  0.00    +0.109 C 
ATOM     34  O   UNL     1      -1.664  11.681  12.148  0.00  0.00    -0.276 OA
ENDBRANCH  29  30
BRANCH  26  35
ATOM     35  C   UNL     1      -4.949   9.267  17.827  0.00  0.00    +0.414 C 
ATOM     36  O   UNL     1      -4.583   8.146  17.475  0.00  0.00    -0.240 OA
ATOM     37  O   UNL     1      -4.582   9.706  18.918  0.00  0.00    -0.240 OA
ENDBRANCH  26  35
BRANCH  28  38
ATOM     38  O   UNL     1      -3.659  13.047  15.896  0.00  0.00    -0.390 OA
ATOM     39  H   UNL     1      -3.735  13.492  16.744  0.00  0.00    +0.210 HD
ENDBRANCH  28  38
BRANCH  26  40
ATOM     40  O   UNL     1      -7.206  10.132  17.441  0.00  0.00    -0.343 OA
ATOM     41  C   UNL     1      -8.076   9.086  16.940  0.00  0.00    +0.198 C 
ENDBRANCH  26  40
ENDBRANCH  23  24
BRANCH  23  42
ATOM     42  O   UNL     1      -6.210   9.110  12.979  0.00  0.00    -0.387 OA
ATOM     43  H   UNL     1      -6.623   8.285  12.714  0.00  0.00    +0.210 HD
ENDBRANCH  23  42
ENDBRANCH   1  23
TORSDOF 14
