REMARK VINA RESULT:    -6.837      1.410      3.653
REMARK INTER + INTRA:         -14.841
REMARK INTER:                 -12.703
REMARK INTRA:                  -2.138
REMARK UNBOUND:                -2.608
REMARK  Name = lig_assembled_4.pdb
REMARK  19 active torsions:
REMARK  status: ('A' for Active; 'I' for Inactive)
REMARK    1  A    between atoms: _2  and  _9
REMARK    2  A    between atoms: _4  and  _21
REMARK    3  A    between atoms: _6  and  _7
REMARK    4  A    between atoms: _6  and  _21
REMARK    5  A    between atoms: _10  and  _11
REMARK    6  A    between atoms: _11  and  _12
REMARK    7  A    between atoms: _11  and  _13
REMARK    8  A    between atoms: _17  and  _37
REMARK    9  A    between atoms: _19  and  _25
REMARK   10  A    between atoms: _20  and  _24
REMARK   11  A    between atoms: _24  and  _25
REMARK   12  A    between atoms: _27  and  _28
REMARK   13  A    between atoms: _29  and  _30
REMARK   14  A    between atoms: _31  and  _33
REMARK   15  A    between atoms: _33  and  _34
REMARK   16  A    between atoms: _33  and  _35
REMARK   17  A    between atoms: _35  and  _36
REMARK   18  A    between atoms: _35  and  _37
REMARK   19  A    between atoms: _38  and  _40
REMARK                            x       y       z     vdW  Elec       q    Type
REMARK                         _______ _______ _______ _____ _____    ______ ____
ROOT
ATOM      1  C   UNL     1       2.888   2.842  33.210  0.00  0.00    +0.163 C 
ENDROOT
BRANCH   1   2
ATOM      2  O   UNL     1       3.368   2.245  31.994  0.00  0.00    -0.388 OA
ATOM      3  H   UNL     1       2.747   2.422  31.283  0.00  0.00    +0.210 HD
ENDBRANCH   1   2
BRANCH   1   4
ATOM      4  C   UNL     1       1.517   3.469  32.978  0.00  0.00    +0.141 C 
BRANCH   4   7
ATOM      5  C   UNL     1       0.124   4.154  31.056  0.00  0.00    +0.401 C 
ATOM      6  O   UNL     1      -0.925   4.177  31.704  0.00  0.00    -0.226 OA
ATOM      7  N   UNL     1       1.311   3.828  31.570  0.00  0.00    -0.279 N 
ATOM      8  H   UNL     1       2.113   3.829  30.956  0.00  0.00    +0.152 HD
BRANCH   5   9
ATOM      9  O   UNL     1       0.089   4.490  29.667  0.00  0.00    -0.444 OA
BRANCH   9  10
ATOM     10  C   UNL     1      -0.004   3.293  28.888  0.00  0.00    +0.292 C 
BRANCH  10  12
ATOM     11  N   UNL     1       2.120   3.749  27.716  0.00  0.00    -0.131 NA
ATOM     12  C   UNL     1       0.804   3.406  27.661  0.00  0.00    +0.121 A 
ATOM     13  C   UNL     1       0.434   3.250  26.344  0.00  0.00    +0.143 A 
ATOM     14  N   UNL     1       1.542   3.641  25.615  0.00  0.00    -0.219 N 
ATOM     15  N   UNL     1       2.563   3.862  26.471  0.00  0.00    -0.060 NA
BRANCH  14  16
ATOM     16  C   UNL     1       1.633   3.820  24.202  0.00  0.00    +0.070 A 
ATOM     17  C   UNL     1       1.756   2.741  23.285  0.00  0.00    -0.019 A 
ATOM     18  C   UNL     1       1.869   3.062  21.913  0.00  0.00    +0.006 A 
ATOM     19  C   UNL     1       1.875   4.382  21.458  0.00  0.00    +0.000 A 
ATOM     20  C   UNL     1       1.746   5.425  22.361  0.00  0.00    +0.002 A 
ATOM     21  C   UNL     1       1.628   5.149  23.722  0.00  0.00    +0.028 A 
BRANCH  17  22
ATOM     22  C   UNL     1       1.785   1.265  23.687  0.00  0.00    +0.015 C 
ATOM     23  C   UNL     1       3.098   0.791  24.329  0.00  0.00    +0.012 C 
ATOM     24  C   UNL     1       1.451   0.388  22.479  0.00  0.00    +0.012 C 
ENDBRANCH  17  22
ENDBRANCH  14  16
ENDBRANCH  10  12
ENDBRANCH   9  10
ENDBRANCH   5   9
ENDBRANCH   4   7
ENDBRANCH   1   4
BRANCH   1  25
ATOM     25  C   UNL     1       3.865   3.917  33.718  0.00  0.00    +0.175 C 
BRANCH  25  26
ATOM     26  C   UNL     1       5.308   3.397  33.791  0.00  0.00    +0.176 C 
ATOM     27  O   UNL     1       5.268   2.035  34.299  0.00  0.00    -0.332 OA
ATOM     28  C   UNL     1       6.555   1.335  34.339  0.00  0.00    +0.277 C 
ATOM     29  C   UNL     1       7.596   2.160  35.136  0.00  0.00    +0.110 C 
ATOM     30  C   UNL     1       7.652   3.624  34.652  0.00  0.00    +0.143 C 
ATOM     31  C   UNL     1       6.259   4.254  34.648  0.00  0.00    +0.133 C 
BRANCH  31  32
ATOM     32  N   UNL     1       6.313   5.620  34.104  0.00  0.00    -0.308 N 
ATOM     33  H   UNL     1       6.511   5.728  33.119  0.00  0.00    +0.149 HD
ATOM     34  C   UNL     1       6.119   6.727  34.826  0.00  0.00    +0.210 C 
ATOM     35  C   UNL     1       5.846   6.530  36.329  0.00  0.00    +0.109 C 
ATOM     36  O   UNL     1       6.156   7.858  34.340  0.00  0.00    -0.276 OA
ENDBRANCH  31  32
BRANCH  28  37
ATOM     37  C   UNL     1       7.083   1.079  32.912  0.00  0.00    +0.414 C 
ATOM     38  O   UNL     1       8.293   0.999  32.703  0.00  0.00    -0.240 OA
ATOM     39  O   UNL     1       6.300   0.954  31.970  0.00  0.00    -0.240 OA
ENDBRANCH  28  37
BRANCH  30  40
ATOM     40  O   UNL     1       8.508   4.381  35.509  0.00  0.00    -0.390 OA
ATOM     41  H   UNL     1       8.097   5.226  35.708  0.00  0.00    +0.210 HD
ENDBRANCH  30  40
BRANCH  28  42
ATOM     42  O   UNL     1       6.357   0.069  35.020  0.00  0.00    -0.343 OA
ATOM     43  C   UNL     1       4.975  -0.356  35.132  0.00  0.00    +0.198 C 
ENDBRANCH  28  42
ENDBRANCH  25  26
BRANCH  25  44
ATOM     44  O   UNL     1       3.444   4.400  35.009  0.00  0.00    -0.387 OA
ATOM     45  H   UNL     1       3.729   3.785  35.689  0.00  0.00    +0.210 HD
ENDBRANCH  25  44
ENDBRANCH   1  25
TORSDOF 15
