REMARK VINA RESULT:    -7.025     12.966     17.114
REMARK INTER + INTRA:         -15.783
REMARK INTER:                 -12.856
REMARK INTRA:                  -2.926
REMARK UNBOUND:                -2.597
REMARK  Name = lig_assembled_77.pdb
REMARK  19 active torsions:
REMARK  status: ('A' for Active; 'I' for Inactive)
REMARK    1  A    between atoms: _2  and  _10
REMARK    2  A    between atoms: _3  and  _17
REMARK    3  A    between atoms: _5  and  _27
REMARK    4  A    between atoms: _7  and  _8
REMARK    5  A    between atoms: _7  and  _27
REMARK    6  A    between atoms: _13  and  _47
REMARK    7  A    between atoms: _14  and  _47
REMARK    8  A    between atoms: _23  and  _43
REMARK    9  A    between atoms: _25  and  _31
REMARK   10  A    between atoms: _26  and  _30
REMARK   11  A    between atoms: _30  and  _31
REMARK   12  A    between atoms: _33  and  _34
REMARK   13  A    between atoms: _35  and  _36
REMARK   14  A    between atoms: _37  and  _39
REMARK   15  A    between atoms: _39  and  _40
REMARK   16  A    between atoms: _39  and  _41
REMARK   17  A    between atoms: _41  and  _42
REMARK   18  A    between atoms: _41  and  _43
REMARK   19  A    between atoms: _44  and  _46
REMARK                            x       y       z     vdW  Elec       q    Type
REMARK                         _______ _______ _______ _____ _____    ______ ____
ROOT
ATOM      1  C   UNL     1      17.676   5.436  23.021  0.00  0.00    +0.401 C 
ATOM      2  O   UNL     1      16.727   5.511  22.236  0.00  0.00    -0.226 OA
ATOM      3  N   UNL     1      18.172   4.289  23.485  0.00  0.00    -0.279 N 
ATOM      4  H   UNL     1      18.958   4.330  24.118  0.00  0.00    +0.152 HD
ENDROOT
BRANCH   3   5
ATOM      5  C   UNL     1      17.640   2.968  23.127  0.00  0.00    +0.141 C 
BRANCH   5   6
ATOM      6  C   UNL     1      18.750   1.984  22.773  0.00  0.00    +0.163 C 
BRANCH   6   7
ATOM      7  O   UNL     1      20.025   2.521  23.162  0.00  0.00    -0.388 OA
ATOM      8  H   UNL     1      20.670   1.811  23.211  0.00  0.00    +0.210 HD
ENDBRANCH   6   7
BRANCH   6   9
ATOM      9  C   UNL     1      18.484   0.638  23.467  0.00  0.00    +0.175 C 
BRANCH   9  10
ATOM     10  C   UNL     1      18.150   0.811  24.956  0.00  0.00    +0.176 C 
ATOM     11  O   UNL     1      19.351   1.274  25.633  0.00  0.00    -0.332 OA
ATOM     12  C   UNL     1      19.194   1.598  27.054  0.00  0.00    +0.277 C 
ATOM     13  C   UNL     1      18.592   0.394  27.820  0.00  0.00    +0.110 C 
ATOM     14  C   UNL     1      17.330  -0.153  27.120  0.00  0.00    +0.143 C 
ATOM     15  C   UNL     1      17.607  -0.453  25.646  0.00  0.00    +0.133 C 
BRANCH  15  16
ATOM     16  N   UNL     1      16.375  -0.891  24.970  0.00  0.00    -0.308 N 
ATOM     17  H   UNL     1      15.592  -0.253  24.957  0.00  0.00    +0.149 HD
ATOM     18  C   UNL     1      16.225  -2.077  24.373  0.00  0.00    +0.210 C 
ATOM     19  C   UNL     1      17.429  -3.037  24.433  0.00  0.00    +0.109 C 
ATOM     20  O   UNL     1      15.187  -2.411  23.801  0.00  0.00    -0.276 OA
ENDBRANCH  15  16
BRANCH  12  21
ATOM     21  C   UNL     1      18.284   2.831  27.236  0.00  0.00    +0.414 C 
ATOM     22  O   UNL     1      18.332   3.761  26.432  0.00  0.00    -0.240 OA
ATOM     23  O   UNL     1      17.503   2.896  28.186  0.00  0.00    -0.240 OA
ENDBRANCH  12  21
BRANCH  14  24
ATOM     24  O   UNL     1      16.899  -1.349  27.771  0.00  0.00    -0.390 OA
ATOM     25  H   UNL     1      16.945  -2.084  27.155  0.00  0.00    +0.210 HD
ENDBRANCH  14  24
BRANCH  12  26
ATOM     26  O   UNL     1      20.509   1.876  27.600  0.00  0.00    -0.343 OA
ATOM     27  C   UNL     1      20.702   1.459  28.975  0.00  0.00    +0.198 C 
ENDBRANCH  12  26
ENDBRANCH   9  10
BRANCH   9  28
ATOM     28  O   UNL     1      19.622  -0.234  23.312  0.00  0.00    -0.387 OA
ATOM     29  H   UNL     1      19.609  -0.904  24.000  0.00  0.00    +0.210 HD
ENDBRANCH   9  28
ENDBRANCH   6   9
ENDBRANCH   5   6
ENDBRANCH   3   5
BRANCH   1  30
ATOM     30  O   UNL     1      18.300   6.641  23.472  0.00  0.00    -0.444 OA
BRANCH  30  31
ATOM     31  C   UNL     1      19.561   6.331  24.070  0.00  0.00    +0.292 C 
BRANCH  31  33
ATOM     32  N   UNL     1      20.912   7.765  25.565  0.00  0.00    -0.131 NA
ATOM     33  C   UNL     1      19.746   7.102  25.315  0.00  0.00    +0.121 A 
ATOM     34  C   UNL     1      18.882   7.299  26.367  0.00  0.00    +0.143 A 
ATOM     35  N   UNL     1      19.568   8.108  27.244  0.00  0.00    -0.220 N 
ATOM     36  N   UNL     1      20.801   8.366  26.742  0.00  0.00    -0.060 NA
BRANCH  35  37
ATOM     37  C   UNL     1      19.120   8.685  28.462  0.00  0.00    +0.067 A 
ATOM     38  C   UNL     1      18.932   7.895  29.607  0.00  0.00    +0.030 A 
ATOM     39  C   UNL     1      18.375   8.456  30.761  0.00  0.00    +0.029 A 
ATOM     40  C   UNL     1      18.013   9.804  30.770  0.00  0.00    +0.094 A 
ATOM     41  C   UNL     1      18.281  10.621  29.668  0.00  0.00    +0.029 A 
ATOM     42  C   UNL     1      18.823  10.058  28.510  0.00  0.00    +0.030 A 
BRANCH  40  43
ATOM     43  S   UNL     1      17.240  10.500  32.217  0.00  0.00    +0.025 S 
ATOM     44  O   UNL     1      18.246  11.337  32.850  0.00  0.00    -0.164 OA
ATOM     45  O   UNL     1      15.967  11.058  31.803  0.00  0.00    -0.164 OA
BRANCH  43  46
ATOM     46  C   UNL     1      16.864   9.184  33.358  0.00  0.00    +0.094 A 
ATOM     47  C   UNL     1      15.685   8.448  33.242  0.00  0.00    +0.029 A 
ATOM     48  C   UNL     1      15.391   7.462  34.192  0.00  0.00    +0.024 A 
ATOM     49  C   UNL     1      16.284   7.172  35.231  0.00  0.00    +0.025 A 
ATOM     50  C   UNL     1      17.447   7.941  35.349  0.00  0.00    +0.024 A 
ATOM     51  C   UNL     1      17.750   8.929  34.408  0.00  0.00    +0.029 A 
BRANCH  49  52
ATOM     52  N   UNL     1      15.905   6.312  36.266  0.00  0.00    -0.358 N 
ATOM     53  H   UNL     1      15.152   6.658  36.851  0.00  0.00    +0.142 HD
ATOM     54  H   UNL     1      15.765   5.349  35.980  0.00  0.00    +0.142 HD
ENDBRANCH  49  52
ENDBRANCH  43  46
ENDBRANCH  40  43
ENDBRANCH  35  37
ENDBRANCH  31  33
ENDBRANCH  30  31
ENDBRANCH   1  30
TORSDOF 17
