REMARK VINA RESULT:    -6.166      0.000      0.000
REMARK INTER + INTRA:         -17.181
REMARK INTER:                 -13.331
REMARK INTRA:                  -3.850
REMARK UNBOUND:                -2.725
REMARK  Name = lig_assembled_30.pdb
REMARK  27 active torsions:
REMARK  status: ('A' for Active; 'I' for Inactive)
REMARK    1  A    between atoms: _2  and  _9
REMARK    2  A    between atoms: _4  and  _25
REMARK    3  A    between atoms: _5  and  _18
REMARK    4  A    between atoms: _5  and  _19
REMARK    5  A    between atoms: _6  and  _7
REMARK    6  A    between atoms: _6  and  _25
REMARK    7  A    between atoms: _9  and  _10
REMARK    8  A    between atoms: _10  and  _11
REMARK    9  A    between atoms: _11  and  _12
REMARK   10  A    between atoms: _12  and  _13
REMARK   11  A    between atoms: _13  and  _14
REMARK   12  A    between atoms: _14  and  _15
REMARK   13  A    between atoms: _15  and  _16
REMARK   14  A    between atoms: _16  and  _17
REMARK   15  A    between atoms: _17  and  _18
REMARK   16  A    between atoms: _21  and  _41
REMARK   17  A    between atoms: _23  and  _29
REMARK   18  A    between atoms: _24  and  _28
REMARK   19  A    between atoms: _28  and  _29
REMARK   20  A    between atoms: _31  and  _32
REMARK   21  A    between atoms: _33  and  _34
REMARK   22  A    between atoms: _35  and  _37
REMARK   23  A    between atoms: _37  and  _38
REMARK   24  A    between atoms: _37  and  _39
REMARK   25  A    between atoms: _39  and  _40
REMARK   26  A    between atoms: _39  and  _41
REMARK   27  A    between atoms: _42  and  _44
REMARK                            x       y       z     vdW  Elec       q    Type
REMARK                         _______ _______ _______ _____ _____    ______ ____
ROOT
ATOM      1  C   UNL     1      18.872   7.502  26.599  0.00  0.00    +0.401 C 
ATOM      2  O   UNL     1      18.069   7.805  25.714  0.00  0.00    -0.226 OA
ATOM      3  N   UNL     1      19.265   8.332  27.566  0.00  0.00    -0.279 N 
ATOM      4  H   UNL     1      19.921   7.988  28.253  0.00  0.00    +0.152 HD
ENDROOT
BRANCH   1   5
ATOM      5  O   UNL     1      19.426   6.183  26.612  0.00  0.00    -0.444 OA
BRANCH   5   6
ATOM      6  C   UNL     1      18.797   5.411  27.639  0.00  0.00    +0.292 C 
BRANCH   6   8
ATOM      7  N   UNL     1      18.596   3.765  25.801  0.00  0.00    -0.131 NA
ATOM      8  C   UNL     1      18.325   4.125  27.095  0.00  0.00    +0.120 A 
ATOM      9  C   UNL     1      17.592   3.126  27.697  0.00  0.00    +0.137 A 
ATOM     10  N   UNL     1      17.452   2.191  26.717  0.00  0.00    -0.251 N 
ATOM     11  N   UNL     1      18.052   2.575  25.579  0.00  0.00    -0.065 NA
BRANCH  10  12
ATOM     12  C   UNL     1      16.729   0.940  26.780  0.00  0.00    +0.145 C 
BRANCH  12  13
ATOM     13  C   UNL     1      17.263  -0.058  25.759  0.00  0.00    +0.023 C 
BRANCH  13  14
ATOM     14  C   UNL     1      16.149  -0.643  24.893  0.00  0.00    +0.002 C 
BRANCH  14  15
ATOM     15  C   UNL     1      16.535  -2.040  24.410  0.00  0.00    +0.000 C 
BRANCH  15  16
ATOM     16  C   UNL     1      17.907  -2.051  23.741  0.00  0.00    +0.000 C 
BRANCH  16  17
ATOM     17  C   UNL     1      17.812  -1.541  22.302  0.00  0.00    +0.000 C 
BRANCH  17  18
ATOM     18  C   UNL     1      19.026  -0.687  21.946  0.00  0.00    +0.000 C 
BRANCH  18  19
ATOM     19  C   UNL     1      18.897   0.733  22.495  0.00  0.00    +0.001 C 
BRANCH  19  20
ATOM     20  C   UNL     1      17.492   1.278  22.242  0.00  0.00    +0.011 C 
BRANCH  20  21
ATOM     21  C   UNL     1      17.524   2.623  21.522  0.00  0.00    +0.120 C 
BRANCH  21  22
ATOM     22  C   UNL     1      16.814   3.694  22.317  0.00  0.00    +0.305 C 
ATOM     23  O   UNL     1      16.871   4.895  22.100  0.00  0.00    -0.251 OA
BRANCH  22  24
ATOM     24  O   UNL     1      16.081   3.181  23.332  0.00  0.00    -0.481 OA
ATOM     25  H   UNL     1      15.272   2.721  23.037  0.00  0.00    +0.295 HD
ENDBRANCH  22  24
ENDBRANCH  21  22
ENDBRANCH  20  21
ENDBRANCH  19  20
ENDBRANCH  18  19
ENDBRANCH  17  18
ENDBRANCH  16  17
ENDBRANCH  15  16
ENDBRANCH  14  15
ENDBRANCH  13  14
ENDBRANCH  12  13
ENDBRANCH  10  12
ENDBRANCH   6   8
ENDBRANCH   5   6
ENDBRANCH   1   5
BRANCH   3  26
ATOM     26  C   UNL     1      18.798   9.719  27.687  0.00  0.00    +0.141 C 
BRANCH  26  27
ATOM     27  C   UNL     1      18.631  10.137  29.145  0.00  0.00    +0.163 C 
BRANCH  27  28
ATOM     28  O   UNL     1      17.366  10.794  29.326  0.00  0.00    -0.388 OA
ATOM     29  H   UNL     1      17.287  11.091  30.235  0.00  0.00    +0.210 HD
ENDBRANCH  27  28
BRANCH  27  30
ATOM     30  C   UNL     1      18.743   8.898  30.050  0.00  0.00    +0.175 C 
BRANCH  30  31
ATOM     31  C   UNL     1      17.931   9.054  31.345  0.00  0.00    +0.176 C 
ATOM     32  O   UNL     1      18.193  10.380  31.880  0.00  0.00    -0.332 OA
ATOM     33  C   UNL     1      17.416  10.749  33.067  0.00  0.00    +0.277 C 
ATOM     34  C   UNL     1      17.596   9.690  34.182  0.00  0.00    +0.110 C 
ATOM     35  C   UNL     1      17.359   8.260  33.653  0.00  0.00    +0.143 C 
ATOM     36  C   UNL     1      18.214   7.984  32.415  0.00  0.00    +0.133 C 
BRANCH  36  37
ATOM     37  N   UNL     1      17.915   6.651  31.869  0.00  0.00    -0.308 N 
ATOM     38  H   UNL     1      16.997   6.496  31.478  0.00  0.00    +0.149 HD
ATOM     39  C   UNL     1      18.778   5.631  31.857  0.00  0.00    +0.210 C 
ATOM     40  C   UNL     1      20.160   5.891  32.485  0.00  0.00    +0.109 C 
ATOM     41  O   UNL     1      18.505   4.530  31.380  0.00  0.00    -0.276 OA
ENDBRANCH  36  37
BRANCH  33  42
ATOM     42  C   UNL     1      15.919  10.884  32.721  0.00  0.00    +0.414 C 
ATOM     43  O   UNL     1      15.568  11.493  31.711  0.00  0.00    -0.240 OA
ATOM     44  O   UNL     1      15.062  10.385  33.451  0.00  0.00    -0.240 OA
ENDBRANCH  33  42
BRANCH  35  45
ATOM     45  O   UNL     1      17.681   7.310  34.669  0.00  0.00    -0.390 OA
ATOM     46  H   UNL     1      17.853   7.769  35.494  0.00  0.00    +0.210 HD
ENDBRANCH  35  45
BRANCH  33  47
ATOM     47  O   UNL     1      17.920  12.018  33.557  0.00  0.00    -0.343 OA
ATOM     48  C   UNL     1      19.323  12.266  33.285  0.00  0.00    +0.198 C 
ENDBRANCH  33  47
ENDBRANCH  30  31
BRANCH  30  49
ATOM     49  O   UNL     1      20.125   8.632  30.360  0.00  0.00    -0.387 OA
ATOM     50  H   UNL     1      20.577   8.325  29.571  0.00  0.00    +0.210 HD
ENDBRANCH  30  49
ENDBRANCH  27  30
ENDBRANCH  26  27
ENDBRANCH   3  26
TORSDOF 25
