REMARK VINA RESULT:    -6.975      3.067      4.865
REMARK INTER + INTRA:         -15.689
REMARK INTER:                 -13.360
REMARK INTRA:                  -2.329
REMARK UNBOUND:                -2.597
REMARK  Name = lig_assembled_77.pdb
REMARK  19 active torsions:
REMARK  status: ('A' for Active; 'I' for Inactive)
REMARK    1  A    between atoms: _2  and  _10
REMARK    2  A    between atoms: _3  and  _17
REMARK    3  A    between atoms: _5  and  _27
REMARK    4  A    between atoms: _7  and  _8
REMARK    5  A    between atoms: _7  and  _27
REMARK    6  A    between atoms: _13  and  _47
REMARK    7  A    between atoms: _14  and  _47
REMARK    8  A    between atoms: _23  and  _43
REMARK    9  A    between atoms: _25  and  _31
REMARK   10  A    between atoms: _26  and  _30
REMARK   11  A    between atoms: _30  and  _31
REMARK   12  A    between atoms: _33  and  _34
REMARK   13  A    between atoms: _35  and  _36
REMARK   14  A    between atoms: _37  and  _39
REMARK   15  A    between atoms: _39  and  _40
REMARK   16  A    between atoms: _39  and  _41
REMARK   17  A    between atoms: _41  and  _42
REMARK   18  A    between atoms: _41  and  _43
REMARK   19  A    between atoms: _44  and  _46
REMARK                            x       y       z     vdW  Elec       q    Type
REMARK                         _______ _______ _______ _____ _____    ______ ____
ROOT
ATOM      1  C   UNL     1       4.797   0.364  31.290  0.00  0.00    +0.401 C 
ATOM      2  O   UNL     1       5.921  -0.143  31.320  0.00  0.00    -0.226 OA
ATOM      3  N   UNL     1       4.401   1.349  32.097  0.00  0.00    -0.279 N 
ATOM      4  H   UNL     1       3.462   1.706  31.989  0.00  0.00    +0.152 HD
ENDROOT
BRANCH   3   5
ATOM      5  C   UNL     1       5.253   1.944  33.133  0.00  0.00    +0.141 C 
BRANCH   5   6
ATOM      6  C   UNL     1       5.748   3.331  32.735  0.00  0.00    +0.163 C 
BRANCH   6   7
ATOM      7  O   UNL     1       4.805   4.329  33.158  0.00  0.00    -0.388 OA
ATOM      8  H   UNL     1       3.955   3.916  33.327  0.00  0.00    +0.210 HD
ENDBRANCH   6   7
BRANCH   6   9
ATOM      9  C   UNL     1       7.132   3.581  33.360  0.00  0.00    +0.175 C 
BRANCH   9  10
ATOM     10  C   UNL     1       7.029   4.150  34.783  0.00  0.00    +0.176 C 
ATOM     11  O   UNL     1       7.014   5.601  34.685  0.00  0.00    -0.332 OA
ATOM     12  C   UNL     1       6.812   6.319  35.947  0.00  0.00    +0.277 C 
ATOM     13  C   UNL     1       7.862   5.877  36.995  0.00  0.00    +0.110 C 
ATOM     14  C   UNL     1       7.937   4.340  37.112  0.00  0.00    +0.143 C 
ATOM     15  C   UNL     1       8.145   3.695  35.741  0.00  0.00    +0.133 C 
BRANCH  15  16
ATOM     16  N   UNL     1       8.127   2.228  35.855  0.00  0.00    -0.308 N 
ATOM     17  H   UNL     1       7.307   1.795  36.256  0.00  0.00    +0.149 HD
ATOM     18  C   UNL     1       9.124   1.430  35.461  0.00  0.00    +0.210 C 
ATOM     19  C   UNL     1      10.371   2.122  34.877  0.00  0.00    +0.109 C 
ATOM     20  O   UNL     1       9.076   0.203  35.555  0.00  0.00    -0.276 OA
ENDBRANCH  15  16
BRANCH  12  21
ATOM     21  C   UNL     1       5.394   6.068  36.499  0.00  0.00    +0.414 C 
ATOM     22  O   UNL     1       5.183   6.117  37.710  0.00  0.00    -0.240 OA
ATOM     23  O   UNL     1       4.462   5.816  35.735  0.00  0.00    -0.240 OA
ENDBRANCH  12  21
BRANCH  14  24
ATOM     24  O   UNL     1       9.016   3.974  37.973  0.00  0.00    -0.390 OA
ATOM     25  H   UNL     1       9.394   3.142  37.678  0.00  0.00    +0.210 HD
ENDBRANCH  14  24
BRANCH  12  26
ATOM     26  O   UNL     1       6.992   7.736  35.689  0.00  0.00    -0.343 OA
ATOM     27  C   UNL     1       7.374   8.068  34.331  0.00  0.00    +0.198 C 
ENDBRANCH  12  26
ENDBRANCH   9  10
BRANCH   9  28
ATOM     28  O   UNL     1       7.900   4.469  32.525  0.00  0.00    -0.387 OA
ATOM     29  H   UNL     1       7.754   5.377  32.802  0.00  0.00    +0.210 HD
ENDBRANCH   9  28
ENDBRANCH   6   9
ENDBRANCH   5   6
ENDBRANCH   3   5
BRANCH   1  30
ATOM     30  O   UNL     1       3.845  -0.115  30.336  0.00  0.00    -0.444 OA
BRANCH  30  31
ATOM     31  C   UNL     1       2.561   0.448  30.618  0.00  0.00    +0.292 C 
BRANCH  31  33
ATOM     32  N   UNL     1       2.198   2.807  29.972  0.00  0.00    -0.131 NA
ATOM     33  C   UNL     1       2.225   1.488  29.626  0.00  0.00    +0.121 A 
ATOM     34  C   UNL     1       1.907   1.365  28.293  0.00  0.00    +0.143 A 
ATOM     35  N   UNL     1       1.701   2.655  27.857  0.00  0.00    -0.220 N 
ATOM     36  N   UNL     1       1.870   3.509  28.896  0.00  0.00    -0.060 NA
BRANCH  35  37
ATOM     37  C   UNL     1       1.423   3.118  26.544  0.00  0.00    +0.067 A 
ATOM     38  C   UNL     1       2.220   2.725  25.457  0.00  0.00    +0.030 A 
ATOM     39  C   UNL     1       2.007   3.285  24.194  0.00  0.00    +0.029 A 
ATOM     40  C   UNL     1       0.995   4.231  24.017  0.00  0.00    +0.094 A 
ATOM     41  C   UNL     1       0.136   4.559  25.070  0.00  0.00    +0.029 A 
ATOM     42  C   UNL     1       0.358   4.012  26.336  0.00  0.00    +0.030 A 
BRANCH  40  43
ATOM     43  S   UNL     1       0.770   4.994  22.423  0.00  0.00    +0.025 S 
ATOM     44  O   UNL     1      -0.583   5.525  22.416  0.00  0.00    -0.164 OA
ATOM     45  O   UNL     1       1.908   5.865  22.196  0.00  0.00    -0.164 OA
BRANCH  43  46
ATOM     46  C   UNL     1       0.843   3.735  21.166  0.00  0.00    +0.094 A 
ATOM     47  C   UNL     1       2.031   3.466  20.485  0.00  0.00    +0.029 A 
ATOM     48  C   UNL     1       2.037   2.513  19.460  0.00  0.00    +0.024 A 
ATOM     49  C   UNL     1       0.881   1.791  19.137  0.00  0.00    +0.025 A 
ATOM     50  C   UNL     1      -0.307   2.096  19.809  0.00  0.00    +0.024 A 
ATOM     51  C   UNL     1      -0.328   3.046  20.833  0.00  0.00    +0.029 A 
BRANCH  49  52
ATOM     52  N   UNL     1       0.856   0.971  18.006  0.00  0.00    -0.358 N 
ATOM     53  H   UNL     1      -0.047   0.910  17.545  0.00  0.00    +0.142 HD
ATOM     54  H   UNL     1       1.616   1.134  17.353  0.00  0.00    +0.142 HD
ENDBRANCH  49  52
ENDBRANCH  43  46
ENDBRANCH  40  43
ENDBRANCH  35  37
ENDBRANCH  31  33
ENDBRANCH  30  31
ENDBRANCH   1  30
TORSDOF 17
