REMARK VINA RESULT:    -6.799     14.175     17.909
REMARK INTER + INTRA:         -12.969
REMARK INTER:                 -11.110
REMARK INTRA:                  -1.859
REMARK UNBOUND:                -1.202
REMARK  Name = lig_assembled_40.pdb
REMARK  17 active torsions:
REMARK  status: ('A' for Active; 'I' for Inactive)
REMARK    1  A    between atoms: _2  and  _9
REMARK    2  A    between atoms: _4  and  _19
REMARK    3  A    between atoms: _6  and  _7
REMARK    4  A    between atoms: _6  and  _19
REMARK    5  A    between atoms: _12  and  _13
REMARK    6  A    between atoms: _15  and  _35
REMARK    7  A    between atoms: _17  and  _23
REMARK    8  A    between atoms: _18  and  _22
REMARK    9  A    between atoms: _22  and  _23
REMARK   10  A    between atoms: _25  and  _26
REMARK   11  A    between atoms: _27  and  _28
REMARK   12  A    between atoms: _29  and  _31
REMARK   13  A    between atoms: _31  and  _32
REMARK   14  A    between atoms: _31  and  _33
REMARK   15  A    between atoms: _33  and  _34
REMARK   16  A    between atoms: _33  and  _35
REMARK   17  A    between atoms: _36  and  _38
REMARK                            x       y       z     vdW  Elec       q    Type
REMARK                         _______ _______ _______ _____ _____    ______ ____
ROOT
ATOM      1  C   UNL     1      18.545   5.810  23.903  0.00  0.00    +0.163 C 
ENDROOT
BRANCH   1   2
ATOM      2  O   UNL     1      17.502   5.874  22.917  0.00  0.00    -0.388 OA
ATOM      3  H   UNL     1      17.056   5.026  22.866  0.00  0.00    +0.210 HD
ENDBRANCH   1   2
BRANCH   1   4
ATOM      4  C   UNL     1      19.585   6.893  23.635  0.00  0.00    +0.141 C 
BRANCH   4   7
ATOM      5  C   UNL     1      20.855   7.708  25.592  0.00  0.00    +0.401 C 
ATOM      6  O   UNL     1      21.788   6.916  25.434  0.00  0.00    -0.226 OA
ATOM      7  N   UNL     1      19.782   7.762  24.802  0.00  0.00    -0.279 N 
ATOM      8  H   UNL     1      19.065   8.440  25.019  0.00  0.00    +0.152 HD
BRANCH   5   9
ATOM      9  O   UNL     1      20.904   8.629  26.684  0.00  0.00    -0.444 OA
BRANCH   9  10
ATOM     10  C   UNL     1      19.930   9.657  26.486  0.00  0.00    +0.292 C 
BRANCH  10  12
ATOM     11  N   UNL     1      18.142  10.789  27.768  0.00  0.00    -0.131 NA
ATOM     12  C   UNL     1      19.152   9.873  27.720  0.00  0.00    +0.121 A 
ATOM     13  C   UNL     1      19.256   9.254  28.943  0.00  0.00    +0.143 A 
ATOM     14  N   UNL     1      18.256   9.807  29.711  0.00  0.00    -0.220 N 
ATOM     15  N   UNL     1      17.608  10.751  28.983  0.00  0.00    -0.060 NA
BRANCH  14  16
ATOM     16  C   UNL     1      17.870   9.473  31.034  0.00  0.00    +0.067 A 
ATOM     17  C   UNL     1      17.556   8.153  31.378  0.00  0.00    +0.028 A 
ATOM     18  C   UNL     1      17.109   7.850  32.668  0.00  0.00    +0.005 A 
ATOM     19  C   UNL     1      16.971   8.858  33.628  0.00  0.00    -0.050 A 
ATOM     20  C   UNL     1      17.320  10.171  33.293  0.00  0.00    +0.005 A 
ATOM     21  C   UNL     1      16.448   8.544  34.999  0.00  0.00    +0.044 C 
ATOM     22  C   UNL     1      17.768  10.481  32.005  0.00  0.00    +0.028 A 
ENDBRANCH  14  16
ENDBRANCH  10  12
ENDBRANCH   9  10
ENDBRANCH   5   9
ENDBRANCH   4   7
ENDBRANCH   1   4
BRANCH   1  23
ATOM     23  C   UNL     1      19.227   4.430  23.893  0.00  0.00    +0.175 C 
BRANCH  23  24
ATOM     24  C   UNL     1      18.457   3.399  24.731  0.00  0.00    +0.176 C 
ATOM     25  O   UNL     1      19.327   2.958  25.809  0.00  0.00    -0.332 OA
ATOM     26  C   UNL     1      18.720   2.044  26.780  0.00  0.00    +0.277 C 
ATOM     27  C   UNL     1      18.115   0.814  26.061  0.00  0.00    +0.110 C 
ATOM     28  C   UNL     1      17.206   1.232  24.885  0.00  0.00    +0.143 C 
ATOM     29  C   UNL     1      17.936   2.185  23.939  0.00  0.00    +0.133 C 
BRANCH  29  30
ATOM     30  N   UNL     1      17.033   2.644  22.872  0.00  0.00    -0.308 N 
ATOM     31  H   UNL     1      16.266   3.249  23.131  0.00  0.00    +0.149 HD
ATOM     32  C   UNL     1      17.161   2.315  21.584  0.00  0.00    +0.210 C 
ATOM     33  C   UNL     1      18.325   1.371  21.225  0.00  0.00    +0.109 C 
ATOM     34  O   UNL     1      16.398   2.726  20.709  0.00  0.00    -0.276 OA
ENDBRANCH  29  30
BRANCH  26  35
ATOM     35  C   UNL     1      17.620   2.759  27.592  0.00  0.00    +0.414 C 
ATOM     36  O   UNL     1      16.438   2.642  27.272  0.00  0.00    -0.240 OA
ATOM     37  O   UNL     1      17.914   3.453  28.566  0.00  0.00    -0.240 OA
ENDBRANCH  26  35
BRANCH  28  38
ATOM     38  O   UNL     1      16.793   0.073  24.160  0.00  0.00    -0.390 OA
ATOM     39  H   UNL     1      15.839  -0.016  24.215  0.00  0.00    +0.210 HD
ENDBRANCH  28  38
BRANCH  26  40
ATOM     40  O   UNL     1      19.764   1.582  27.675  0.00  0.00    -0.343 OA
ATOM     41  C   UNL     1      21.065   2.186  27.462  0.00  0.00    +0.198 C 
ENDBRANCH  26  40
ENDBRANCH  23  24
BRANCH  23  42
ATOM     42  O   UNL     1      20.583   4.543  24.369  0.00  0.00    -0.387 OA
ATOM     43  H   UNL     1      20.996   5.318  23.979  0.00  0.00    +0.210 HD
ENDBRANCH  23  42
ENDBRANCH   1  23
TORSDOF 14
