REMARK VINA RESULT:    -4.599      5.171      9.150
REMARK INTER + INTRA:         -12.943
REMARK INTER:                 -10.677
REMARK INTRA:                  -2.266
REMARK UNBOUND:                -4.177
REMARK  Name = lig_assembled_50.pdb
REMARK  20 active torsions:
REMARK  status: ('A' for Active; 'I' for Inactive)
REMARK    1  A    between atoms: _2  and  _9
REMARK    2  A    between atoms: _4  and  _17
REMARK    3  A    between atoms: _5  and  _10
REMARK    4  A    between atoms: _5  and  _11
REMARK    5  A    between atoms: _6  and  _7
REMARK    6  A    between atoms: _6  and  _17
REMARK    7  A    between atoms: _9  and  _10
REMARK    8  A    between atoms: _10  and  _12
REMARK    9  A    between atoms: _13  and  _33
REMARK   10  A    between atoms: _15  and  _21
REMARK   11  A    between atoms: _16  and  _20
REMARK   12  A    between atoms: _20  and  _21
REMARK   13  A    between atoms: _23  and  _24
REMARK   14  A    between atoms: _25  and  _26
REMARK   15  A    between atoms: _27  and  _29
REMARK   16  A    between atoms: _29  and  _30
REMARK   17  A    between atoms: _29  and  _31
REMARK   18  A    between atoms: _31  and  _32
REMARK   19  A    between atoms: _31  and  _33
REMARK   20  A    between atoms: _34  and  _36
REMARK                            x       y       z     vdW  Elec       q    Type
REMARK                         _______ _______ _______ _____ _____    ______ ____
ROOT
ATOM      1  C   UNL     1      20.699   4.587  24.162  0.00  0.00    +0.163 C 
ENDROOT
BRANCH   1   2
ATOM      2  O   UNL     1      21.510   3.516  23.650  0.00  0.00    -0.388 OA
ATOM      3  H   UNL     1      21.854   3.759  22.787  0.00  0.00    +0.210 HD
ENDBRANCH   1   2
BRANCH   1   4
ATOM      4  C   UNL     1      19.399   4.045  24.779  0.00  0.00    +0.175 C 
BRANCH   4   5
ATOM      5  C   UNL     1      19.096   2.610  24.322  0.00  0.00    +0.176 C 
ATOM      6  O   UNL     1      18.453   2.682  23.020  0.00  0.00    -0.332 OA
ATOM      7  C   UNL     1      18.183   1.394  22.374  0.00  0.00    +0.277 C 
ATOM      8  C   UNL     1      17.360   0.480  23.313  0.00  0.00    +0.110 C 
ATOM      9  C   UNL     1      17.987   0.397  24.721  0.00  0.00    +0.143 C 
ATOM     10  C   UNL     1      18.228   1.793  25.297  0.00  0.00    +0.133 C 
BRANCH  10  11
ATOM     11  N   UNL     1      18.905   1.703  26.600  0.00  0.00    -0.308 N 
ATOM     12  H   UNL     1      19.767   1.178  26.649  0.00  0.00    +0.149 HD
ATOM     13  C   UNL     1      18.455   2.269  27.723  0.00  0.00    +0.210 C 
ATOM     14  C   UNL     1      17.125   3.039  27.622  0.00  0.00    +0.109 C 
ATOM     15  O   UNL     1      19.051   2.189  28.798  0.00  0.00    -0.276 OA
ENDBRANCH  10  11
BRANCH   7  16
ATOM     16  C   UNL     1      19.500   0.688  21.991  0.00  0.00    +0.414 C 
ATOM     17  O   UNL     1      20.479   1.347  21.642  0.00  0.00    -0.240 OA
ATOM     18  O   UNL     1      19.585  -0.540  22.030  0.00  0.00    -0.240 OA
ENDBRANCH   7  16
BRANCH   9  19
ATOM     19  O   UNL     1      17.120  -0.329  25.593  0.00  0.00    -0.390 OA
ATOM     20  H   UNL     1      16.813  -1.124  25.151  0.00  0.00    +0.210 HD
ENDBRANCH   9  19
BRANCH   7  21
ATOM     21  O   UNL     1      17.399   1.647  21.179  0.00  0.00    -0.343 OA
ATOM     22  C   UNL     1      16.584   2.845  21.223  0.00  0.00    +0.198 C 
ENDBRANCH   7  21
ENDBRANCH   4   5
BRANCH   4  23
ATOM     23  O   UNL     1      18.295   4.913  24.454  0.00  0.00    -0.387 OA
ATOM     24  H   UNL     1      18.279   5.070  23.507  0.00  0.00    +0.210 HD
ENDBRANCH   4  23
ENDBRANCH   1   4
BRANCH   1  25
ATOM     25  C   UNL     1      21.475   5.371  25.215  0.00  0.00    +0.141 C 
BRANCH  25  28
ATOM     26  C   UNL     1      20.463   7.265  26.438  0.00  0.00    +0.401 C 
ATOM     27  O   UNL     1      21.088   8.125  25.814  0.00  0.00    -0.226 OA
ATOM     28  N   UNL     1      20.586   5.954  26.228  0.00  0.00    -0.279 N 
ATOM     29  H   UNL     1      20.038   5.326  26.798  0.00  0.00    +0.152 HD
BRANCH  26  30
ATOM     30  O   UNL     1      19.547   7.675  27.457  0.00  0.00    -0.444 OA
BRANCH  30  31
ATOM     31  C   UNL     1      20.079   8.808  28.149  0.00  0.00    +0.292 C 
BRANCH  31  33
ATOM     32  N   UNL     1      18.200  10.207  28.961  0.00  0.00    -0.131 NA
ATOM     33  C   UNL     1      19.149   9.247  29.209  0.00  0.00    +0.120 A 
ATOM     34  C   UNL     1      19.036   8.830  30.519  0.00  0.00    +0.137 A 
ATOM     35  N   UNL     1      18.013   9.576  31.011  0.00  0.00    -0.249 N 
ATOM     36  N   UNL     1      17.500  10.390  30.070  0.00  0.00    -0.065 NA
BRANCH  35  37
ATOM     37  C   UNL     1      17.470   9.583  32.351  0.00  0.00    +0.178 C 
BRANCH  37  38
ATOM     38  C   UNL     1      17.178  10.984  32.900  0.00  0.00    +0.161 C 
BRANCH  38  39
ATOM     39  O   UNL     1      17.982  11.995  32.285  0.00  0.00    -0.388 OA
ATOM     40  H   UNL     1      18.857  12.008  32.724  0.00  0.00    +0.210 HD
ENDBRANCH  38  39
BRANCH  38  41
ATOM     41  C   UNL     1      15.698  11.379  32.819  0.00  0.00    +0.189 C 
BRANCH  41  42
ATOM     42  O   UNL     1      15.354  11.843  31.514  0.00  0.00    -0.392 OA
ATOM     43  H   UNL     1      14.833  12.663  31.610  0.00  0.00    +0.210 HD
ENDBRANCH  41  42
ENDBRANCH  38  41
ENDBRANCH  37  38
ENDBRANCH  35  37
ENDBRANCH  31  33
ENDBRANCH  30  31
ENDBRANCH  26  30
ENDBRANCH  25  28
ENDBRANCH   1  25
TORSDOF 18
