REMARK VINA RESULT:    -6.136      2.334      4.589
REMARK INTER + INTRA:         -13.894
REMARK INTER:                 -11.516
REMARK INTRA:                  -2.378
REMARK UNBOUND:                -2.378
REMARK  Name = lig_assembled_68.pdb
REMARK  19 active torsions:
REMARK  status: ('A' for Active; 'I' for Inactive)
REMARK    1  A    between atoms: _2  and  _9
REMARK    2  A    between atoms: _4  and  _21
REMARK    3  A    between atoms: _6  and  _7
REMARK    4  A    between atoms: _6  and  _21
REMARK    5  A    between atoms: _9  and  _10
REMARK    6  A    between atoms: _10  and  _11
REMARK    7  A    between atoms: _10  and  _16
REMARK    8  A    between atoms: _17  and  _37
REMARK    9  A    between atoms: _19  and  _25
REMARK   10  A    between atoms: _20  and  _24
REMARK   11  A    between atoms: _24  and  _25
REMARK   12  A    between atoms: _27  and  _28
REMARK   13  A    between atoms: _29  and  _30
REMARK   14  A    between atoms: _31  and  _33
REMARK   15  A    between atoms: _33  and  _34
REMARK   16  A    between atoms: _33  and  _35
REMARK   17  A    between atoms: _35  and  _36
REMARK   18  A    between atoms: _35  and  _37
REMARK   19  A    between atoms: _38  and  _40
REMARK                            x       y       z     vdW  Elec       q    Type
REMARK                         _______ _______ _______ _____ _____    ______ ____
ROOT
ATOM      1  C   UNL     1       2.945   2.867  36.072  0.00  0.00    +0.163 C 
ENDROOT
BRANCH   1   2
ATOM      2  O   UNL     1       3.007   1.507  35.612  0.00  0.00    -0.388 OA
ATOM      3  H   UNL     1       3.917   1.279  35.407  0.00  0.00    +0.210 HD
ENDBRANCH   1   2
BRANCH   1   4
ATOM      4  C   UNL     1       4.311   3.560  35.926  0.00  0.00    +0.175 C 
BRANCH   4   5
ATOM      5  C   UNL     1       5.035   3.143  34.637  0.00  0.00    +0.176 C 
ATOM      6  O   UNL     1       5.554   1.799  34.831  0.00  0.00    -0.332 OA
ATOM      7  C   UNL     1       6.191   1.190  33.659  0.00  0.00    +0.277 C 
ATOM      8  C   UNL     1       7.310   2.110  33.112  0.00  0.00    +0.110 C 
ATOM      9  C   UNL     1       6.814   3.558  32.920  0.00  0.00    +0.143 C 
ATOM     10  C   UNL     1       6.167   4.091  34.199  0.00  0.00    +0.133 C 
BRANCH  10  11
ATOM     11  N   UNL     1       5.621   5.439  33.977  0.00  0.00    -0.308 N 
ATOM     12  H   UNL     1       4.826   5.531  33.360  0.00  0.00    +0.149 HD
ATOM     13  C   UNL     1       6.107   6.550  34.538  0.00  0.00    +0.210 C 
ATOM     14  C   UNL     1       7.335   6.380  35.453  0.00  0.00    +0.109 C 
ATOM     15  O   UNL     1       5.620   7.664  34.346  0.00  0.00    -0.276 OA
ENDBRANCH  10  11
BRANCH   7  16
ATOM     16  C   UNL     1       5.153   0.926  32.548  0.00  0.00    +0.414 C 
ATOM     17  O   UNL     1       5.522   0.664  31.404  0.00  0.00    -0.240 OA
ATOM     18  O   UNL     1       3.948   0.974  32.796  0.00  0.00    -0.240 OA
ENDBRANCH   7  16
BRANCH   7  19
ATOM     19  O   UNL     1       6.791  -0.064  34.074  0.00  0.00    -0.343 OA
ATOM     20  C   UNL     1       7.875   0.064  35.029  0.00  0.00    +0.198 C 
ENDBRANCH   7  19
BRANCH   9  21
ATOM     21  O   UNL     1       7.911   4.400  32.562  0.00  0.00    -0.390 OA
ATOM     22  H   UNL     1       7.651   5.320  32.648  0.00  0.00    +0.210 HD
ENDBRANCH   9  21
ENDBRANCH   4   5
BRANCH   4  23
ATOM     23  O   UNL     1       5.136   3.277  37.073  0.00  0.00    -0.387 OA
ATOM     24  H   UNL     1       5.648   2.481  36.911  0.00  0.00    +0.210 HD
ENDBRANCH   4  23
ENDBRANCH   1   4
BRANCH   1  25
ATOM     25  C   UNL     1       1.895   3.638  35.279  0.00  0.00    +0.141 C 
BRANCH  25  28
ATOM     26  C   UNL     1       0.682   3.346  33.146  0.00  0.00    +0.401 C 
ATOM     27  O   UNL     1      -0.297   4.004  33.504  0.00  0.00    -0.226 OA
ATOM     28  N   UNL     1       1.749   3.119  33.914  0.00  0.00    -0.279 N 
ATOM     29  H   UNL     1       2.499   2.558  33.535  0.00  0.00    +0.152 HD
BRANCH  26  30
ATOM     30  O   UNL     1       0.695   2.777  31.834  0.00  0.00    -0.444 OA
BRANCH  30  31
ATOM     31  C   UNL     1       1.842   3.248  31.121  0.00  0.00    +0.292 C 
BRANCH  31  33
ATOM     32  N   UNL     1       0.362   3.841  29.221  0.00  0.00    -0.131 NA
ATOM     33  C   UNL     1       1.553   3.335  29.679  0.00  0.00    +0.120 A 
ATOM     34  C   UNL     1       2.323   2.960  28.604  0.00  0.00    +0.137 A 
ATOM     35  N   UNL     1       1.553   3.271  27.522  0.00  0.00    -0.249 N 
ATOM     36  N   UNL     1       0.371   3.790  27.896  0.00  0.00    -0.065 NA
BRANCH  35  37
ATOM     37  C   UNL     1       1.837   3.009  26.126  0.00  0.00    +0.181 C 
BRANCH  37  38
ATOM     38  C   UNL     1       0.914   3.799  25.189  0.00  0.00    +0.166 C 
BRANCH  38  39
ATOM     39  C   UNL     1       1.235   3.638  23.711  0.00  0.00    -0.017 A 
ATOM     40  C   UNL     1       1.426   4.792  22.928  0.00  0.00    +0.006 A 
ATOM     41  C   UNL     1       1.749   4.691  21.573  0.00  0.00    +0.000 A 
ATOM     42  C   UNL     1       1.892   3.440  20.981  0.00  0.00    +0.000 A 
ATOM     43  C   UNL     1       1.725   2.289  21.743  0.00  0.00    +0.000 A 
ATOM     44  C   UNL     1       1.404   2.386  23.100  0.00  0.00    +0.006 A 
ENDBRANCH  38  39
BRANCH  38  45
ATOM     45  O   UNL     1       1.004   5.191  25.512  0.00  0.00    -0.385 OA
ATOM     46  H   UNL     1       0.107   5.565  25.497  0.00  0.00    +0.210 HD
ENDBRANCH  38  45
ENDBRANCH  37  38
ENDBRANCH  35  37
ENDBRANCH  31  33
ENDBRANCH  30  31
ENDBRANCH  26  30
ENDBRANCH  25  28
ENDBRANCH   1  25
TORSDOF 17
