REMARK VINA RESULT:    -5.388      3.879     11.963
REMARK INTER + INTRA:         -12.697
REMARK INTER:                 -10.536
REMARK INTRA:                  -2.160
REMARK UNBOUND:                -2.111
REMARK  Name = lig_assembled_17.pdb
REMARK  22 active torsions:
REMARK  status: ('A' for Active; 'I' for Inactive)
REMARK    1  A    between atoms: _2  and  _10
REMARK    2  A    between atoms: _3  and  _11
REMARK    3  A    between atoms: _3  and  _12
REMARK    4  A    between atoms: _3  and  _14
REMARK    5  A    between atoms: _5  and  _19
REMARK    6  A    between atoms: _6  and  _14
REMARK    7  A    between atoms: _7  and  _8
REMARK    8  A    between atoms: _7  and  _19
REMARK    9  A    between atoms: _10  and  _11
REMARK   10  A    between atoms: _12  and  _13
REMARK   11  A    between atoms: _15  and  _35
REMARK   12  A    between atoms: _17  and  _23
REMARK   13  A    between atoms: _18  and  _22
REMARK   14  A    between atoms: _22  and  _23
REMARK   15  A    between atoms: _25  and  _26
REMARK   16  A    between atoms: _27  and  _28
REMARK   17  A    between atoms: _29  and  _31
REMARK   18  A    between atoms: _31  and  _32
REMARK   19  A    between atoms: _31  and  _33
REMARK   20  A    between atoms: _33  and  _34
REMARK   21  A    between atoms: _33  and  _35
REMARK   22  A    between atoms: _36  and  _38
REMARK                            x       y       z     vdW  Elec       q    Type
REMARK                         _______ _______ _______ _____ _____    ______ ____
ROOT
ATOM      1  C   UNL     1      -1.880   3.689  26.231  0.00  0.00    +0.163 C 
ENDROOT
BRANCH   1   2
ATOM      2  O   UNL     1      -2.956   2.921  25.669  0.00  0.00    -0.388 OA
ATOM      3  H   UNL     1      -2.684   2.559  24.822  0.00  0.00    +0.210 HD
ENDBRANCH   1   2
BRANCH   1   4
ATOM      4  C   UNL     1      -1.528   4.885  25.330  0.00  0.00    +0.175 C 
BRANCH   4   5
ATOM      5  C   UNL     1      -0.659   4.471  24.133  0.00  0.00    +0.176 C 
ATOM      6  O   UNL     1      -1.534   3.898  23.123  0.00  0.00    -0.332 OA
ATOM      7  C   UNL     1      -0.890   3.539  21.856  0.00  0.00    +0.277 C 
ATOM      8  C   UNL     1       0.310   2.592  22.108  0.00  0.00    +0.110 C 
ATOM      9  C   UNL     1       1.252   3.144  23.198  0.00  0.00    +0.143 C 
ATOM     10  C   UNL     1       0.477   3.487  24.471  0.00  0.00    +0.133 C 
BRANCH  10  11
ATOM     11  N   UNL     1       1.370   4.093  25.471  0.00  0.00    -0.308 N 
ATOM     12  H   UNL     1       1.693   5.036  25.305  0.00  0.00    +0.149 HD
ATOM     13  C   UNL     1       1.783   3.478  26.582  0.00  0.00    +0.210 C 
ATOM     14  C   UNL     1       1.294   2.032  26.792  0.00  0.00    +0.109 C 
ATOM     15  O   UNL     1       2.519   4.016  27.410  0.00  0.00    -0.276 OA
ENDBRANCH  10  11
BRANCH   7  16
ATOM     16  C   UNL     1      -0.403   4.801  21.113  0.00  0.00    +0.414 C 
ATOM     17  O   UNL     1       0.096   4.707  19.992  0.00  0.00    -0.240 OA
ATOM     18  O   UNL     1      -0.510   5.912  21.634  0.00  0.00    -0.240 OA
ENDBRANCH   7  16
BRANCH   9  19
ATOM     19  O   UNL     1       2.255   2.175  23.504  0.00  0.00    -0.390 OA
ATOM     20  H   UNL     1       2.268   2.015  24.451  0.00  0.00    +0.210 HD
ENDBRANCH   9  19
BRANCH   7  21
ATOM     21  O   UNL     1      -1.863   2.837  21.040  0.00  0.00    -0.343 OA
ATOM     22  C   UNL     1      -2.895   2.140  21.782  0.00  0.00    +0.198 C 
ENDBRANCH   7  21
ENDBRANCH   4   5
BRANCH   4  23
ATOM     23  O   UNL     1      -0.861   5.906  26.098  0.00  0.00    -0.387 OA
ATOM     24  H   UNL     1      -1.446   6.660  26.205  0.00  0.00    +0.210 HD
ENDBRANCH   4  23
ENDBRANCH   1   4
BRANCH   1  25
ATOM     25  C   UNL     1      -2.267   4.192  27.618  0.00  0.00    +0.141 C 
BRANCH  25  28
ATOM     26  C   UNL     1      -0.686   3.635  29.433  0.00  0.00    +0.401 C 
ATOM     27  O   UNL     1      -1.264   2.592  29.745  0.00  0.00    -0.226 OA
ATOM     28  N   UNL     1      -1.088   4.448  28.456  0.00  0.00    -0.279 N 
ATOM     29  H   UNL     1      -0.553   5.286  28.281  0.00  0.00    +0.152 HD
BRANCH  26  30
ATOM     30  O   UNL     1       0.488   4.020  30.154  0.00  0.00    -0.444 OA
BRANCH  30  31
ATOM     31  C   UNL     1       1.295   2.866  30.404  0.00  0.00    +0.292 C 
BRANCH  31  33
ATOM     32  N   UNL     1       2.311   4.274  32.164  0.00  0.00    -0.131 NA
ATOM     33  C   UNL     1       2.408   3.209  31.307  0.00  0.00    +0.120 A 
ATOM     34  C   UNL     1       3.632   2.601  31.479  0.00  0.00    +0.137 A 
ATOM     35  N   UNL     1       4.221   3.332  32.466  0.00  0.00    -0.250 N 
ATOM     36  N   UNL     1       3.431   4.343  32.868  0.00  0.00    -0.065 NA
BRANCH  35  37
ATOM     37  C   UNL     1       5.501   3.114  33.109  0.00  0.00    +0.160 C 
BRANCH  37  38
ATOM     38  C   UNL     1       5.586   3.902  34.424  0.00  0.00    +0.107 C 
BRANCH  38  39
ATOM     39  N   UNL     1       6.951   4.274  34.872  0.00  0.00    -0.301 NA
BRANCH  39  40
ATOM     40  C   UNL     1       8.016   3.758  33.993  0.00  0.00    +0.081 C 
ATOM     41  C   UNL     1       9.135   2.973  34.669  0.00  0.00    +0.020 C 
ENDBRANCH  39  40
BRANCH  39  42
ATOM     42  C   UNL     1       7.006   5.739  35.062  0.00  0.00    +0.081 C 
ATOM     43  C   UNL     1       5.819   6.505  34.488  0.00  0.00    +0.020 C 
ENDBRANCH  39  42
ENDBRANCH  38  39
ENDBRANCH  37  38
ENDBRANCH  35  37
ENDBRANCH  31  33
ENDBRANCH  30  31
ENDBRANCH  26  30
ENDBRANCH  25  28
ENDBRANCH   1  25
TORSDOF 18
