REMARK VINA RESULT:    -5.654      5.260     11.290
REMARK INTER + INTRA:         -14.291
REMARK INTER:                 -11.790
REMARK INTRA:                  -2.501
REMARK UNBOUND:                -2.852
REMARK  Name = lig_assembled_11.pdb
REMARK  22 active torsions:
REMARK  status: ('A' for Active; 'I' for Inactive)
REMARK    1  A    between atoms: _2  and  _9
REMARK    2  A    between atoms: _4  and  _21
REMARK    3  A    between atoms: _5  and  _9
REMARK    4  A    between atoms: _5  and  _13
REMARK    5  A    between atoms: _6  and  _7
REMARK    6  A    between atoms: _6  and  _21
REMARK    7  A    between atoms: _9  and  _10
REMARK    8  A    between atoms: _10  and  _11
REMARK    9  A    between atoms: _11  and  _12
REMARK   10  A    between atoms: _12  and  _15
REMARK   11  A    between atoms: _17  and  _37
REMARK   12  A    between atoms: _19  and  _25
REMARK   13  A    between atoms: _20  and  _24
REMARK   14  A    between atoms: _24  and  _25
REMARK   15  A    between atoms: _27  and  _28
REMARK   16  A    between atoms: _29  and  _30
REMARK   17  A    between atoms: _31  and  _33
REMARK   18  A    between atoms: _33  and  _34
REMARK   19  A    between atoms: _33  and  _35
REMARK   20  A    between atoms: _35  and  _36
REMARK   21  A    between atoms: _35  and  _37
REMARK   22  A    between atoms: _38  and  _40
REMARK                            x       y       z     vdW  Elec       q    Type
REMARK                         _______ _______ _______ _____ _____    ______ ____
ROOT
ATOM      1  C   UNL     1      19.315   4.926  25.153  0.00  0.00    +0.163 C 
ENDROOT
BRANCH   1   2
ATOM      2  O   UNL     1      18.505   5.386  24.059  0.00  0.00    -0.388 OA
ATOM      3  H   UNL     1      17.587   5.151  24.218  0.00  0.00    +0.210 HD
ENDBRANCH   1   2
BRANCH   1   4
ATOM      4  C   UNL     1      20.264   3.804  24.700  0.00  0.00    +0.175 C 
BRANCH   4   5
ATOM      5  C   UNL     1      19.502   2.551  24.244  0.00  0.00    +0.176 C 
ATOM      6  O   UNL     1      18.837   2.864  22.990  0.00  0.00    -0.332 OA
ATOM      7  C   UNL     1      18.140   1.747  22.345  0.00  0.00    +0.277 C 
ATOM      8  C   UNL     1      17.131   1.100  23.325  0.00  0.00    +0.110 C 
ATOM      9  C   UNL     1      17.785   0.778  24.686  0.00  0.00    +0.143 C 
ATOM     10  C   UNL     1      18.483   2.009  25.264  0.00  0.00    +0.133 C 
BRANCH  10  11
ATOM     11  N   UNL     1      19.176   1.668  26.517  0.00  0.00    -0.308 N 
ATOM     12  H   UNL     1      19.997   1.082  26.457  0.00  0.00    +0.149 HD
ATOM     13  C   UNL     1      18.791   2.082  27.727  0.00  0.00    +0.210 C 
ATOM     14  C   UNL     1      17.521   2.952  27.786  0.00  0.00    +0.109 C 
ATOM     15  O   UNL     1      19.399   1.792  28.758  0.00  0.00    -0.276 OA
ENDBRANCH  10  11
BRANCH   7  16
ATOM     16  C   UNL     1      19.146   0.681  21.863  0.00  0.00    +0.414 C 
ATOM     17  O   UNL     1      18.825  -0.507  21.834  0.00  0.00    -0.240 OA
ATOM     18  O   UNL     1      20.277   1.007  21.502  0.00  0.00    -0.240 OA
ENDBRANCH   7  16
BRANCH   7  19
ATOM     19  O   UNL     1      17.404   2.272  21.211  0.00  0.00    -0.343 OA
ATOM     20  C   UNL     1      16.695   3.511  21.461  0.00  0.00    +0.198 C 
ENDBRANCH   7  19
BRANCH   9  21
ATOM     21  O   UNL     1      16.789   0.327  25.604  0.00  0.00    -0.390 OA
ATOM     22  H   UNL     1      17.185   0.198  26.469  0.00  0.00    +0.210 HD
ENDBRANCH   9  21
ENDBRANCH   4   5
BRANCH   4  23
ATOM     23  O   UNL     1      21.180   3.469  25.762  0.00  0.00    -0.387 OA
ATOM     24  H   UNL     1      21.538   2.591  25.612  0.00  0.00    +0.210 HD
ENDBRANCH   4  23
ENDBRANCH   1   4
BRANCH   1  25
ATOM     25  C   UNL     1      20.129   6.083  25.722  0.00  0.00    +0.141 C 
BRANCH  25  28
ATOM     26  C   UNL     1      19.129   7.338  27.601  0.00  0.00    +0.401 C 
ATOM     27  O   UNL     1      18.646   8.216  26.882  0.00  0.00    -0.226 OA
ATOM     28  N   UNL     1      19.842   6.308  27.144  0.00  0.00    -0.279 N 
ATOM     29  H   UNL     1      20.204   5.644  27.814  0.00  0.00    +0.152 HD
BRANCH  26  30
ATOM     30  O   UNL     1      18.928   7.411  29.015  0.00  0.00    -0.444 OA
BRANCH  30  31
ATOM     31  C   UNL     1      19.298   8.711  29.483  0.00  0.00    +0.292 C 
BRANCH  31  33
ATOM     32  N   UNL     1      17.583  10.269  30.356  0.00  0.00    -0.131 NA
ATOM     33  C   UNL     1      18.368   9.163  30.535  0.00  0.00    +0.120 A 
ATOM     34  C   UNL     1      18.111   8.628  31.776  0.00  0.00    +0.138 A 
ATOM     35  N   UNL     1      17.192   9.476  32.326  0.00  0.00    -0.238 N 
ATOM     36  N   UNL     1      16.858  10.444  31.452  0.00  0.00    -0.065 NA
BRANCH  35  37
ATOM     37  C   UNL     1      16.467   9.394  33.589  0.00  0.00    +0.217 C 
BRANCH  37  38
ATOM     38  C   UNL     1      15.212   8.536  33.522  0.00  0.00    +0.330 C 
ATOM     39  O   UNL     1      15.054   7.457  34.072  0.00  0.00    -0.249 OA
BRANCH  38  40
ATOM     40  O   UNL     1      14.220   9.067  32.764  0.00  0.00    -0.479 OA
ATOM     41  H   UNL     1      14.274  10.022  32.564  0.00  0.00    +0.295 HD
ENDBRANCH  38  40
ENDBRANCH  37  38
BRANCH  37  42
ATOM     42  C   UNL     1      16.201  10.786  34.189  0.00  0.00    +0.049 C 
BRANCH  42  43
ATOM     43  C   UNL     1      17.341  11.347  35.049  0.00  0.00    +0.123 C 
BRANCH  43  44
ATOM     44  C   UNL     1      17.910  12.608  34.440  0.00  0.00    +0.305 C 
ATOM     45  O   UNL     1      18.423  13.516  35.072  0.00  0.00    -0.251 OA
BRANCH  44  46
ATOM     46  O   UNL     1      17.770  12.645  33.096  0.00  0.00    -0.481 OA
ATOM     47  H   UNL     1      17.013  13.175  32.782  0.00  0.00    +0.295 HD
ENDBRANCH  44  46
ENDBRANCH  43  44
ENDBRANCH  42  43
ENDBRANCH  37  42
ENDBRANCH  35  37
ENDBRANCH  31  33
ENDBRANCH  30  31
ENDBRANCH  26  30
ENDBRANCH  25  28
ENDBRANCH   1  25
TORSDOF 20
