REMARK VINA RESULT:    -6.238      5.461     11.883
REMARK INTER + INTRA:         -14.499
REMARK INTER:                 -12.256
REMARK INTRA:                  -2.243
REMARK UNBOUND:                -2.243
REMARK  Name = lig_assembled_31.pdb
REMARK  20 active torsions:
REMARK  status: ('A' for Active; 'I' for Inactive)
REMARK    1  A    between atoms: _2  and  _11
REMARK    2  A    between atoms: _3  and  _12
REMARK    3  A    between atoms: _4  and  _14
REMARK    4  A    between atoms: _6  and  _24
REMARK    5  A    between atoms: _8  and  _9
REMARK    6  A    between atoms: _8  and  _24
REMARK    7  A    between atoms: _11  and  _12
REMARK    8  A    between atoms: _14  and  _15
REMARK    9  A    between atoms: _20  and  _40
REMARK   10  A    between atoms: _22  and  _28
REMARK   11  A    between atoms: _23  and  _27
REMARK   12  A    between atoms: _27  and  _28
REMARK   13  A    between atoms: _30  and  _31
REMARK   14  A    between atoms: _32  and  _33
REMARK   15  A    between atoms: _34  and  _36
REMARK   16  A    between atoms: _36  and  _37
REMARK   17  A    between atoms: _36  and  _38
REMARK   18  A    between atoms: _38  and  _39
REMARK   19  A    between atoms: _38  and  _40
REMARK   20  A    between atoms: _41  and  _43
REMARK                            x       y       z     vdW  Elec       q    Type
REMARK                         _______ _______ _______ _____ _____    ______ ____
ROOT
ATOM      1  C   UNL     1      15.283  -4.601  23.518  0.00  0.00    +0.401 C 
ATOM      2  O   UNL     1      14.622  -4.226  22.547  0.00  0.00    -0.226 OA
ATOM      3  N   UNL     1      16.484  -4.115  23.836  0.00  0.00    -0.279 N 
ATOM      4  H   UNL     1      16.944  -4.479  24.658  0.00  0.00    +0.152 HD
ENDROOT
BRANCH   1   5
ATOM      5  O   UNL     1      14.748  -5.615  24.373  0.00  0.00    -0.444 OA
BRANCH   5   6
ATOM      6  C   UNL     1      15.353  -5.519  25.665  0.00  0.00    +0.292 C 
BRANCH   6   8
ATOM      7  N   UNL     1      13.996  -4.217  27.274  0.00  0.00    -0.131 NA
ATOM      8  C   UNL     1      14.317  -5.423  26.713  0.00  0.00    +0.120 A 
ATOM      9  C   UNL     1      13.542  -6.406  27.286  0.00  0.00    +0.137 A 
ATOM     10  N   UNL     1      12.778  -5.733  28.193  0.00  0.00    -0.250 N 
ATOM     11  N   UNL     1      13.048  -4.418  28.181  0.00  0.00    -0.065 NA
BRANCH  10  12
ATOM     12  C   UNL     1      11.785  -6.270  29.100  0.00  0.00    +0.164 C 
BRANCH  12  13
ATOM     13  C   UNL     1      10.375  -6.044  28.576  0.00  0.00    +0.129 C 
BRANCH  13  14
ATOM     14  N   UNL     1      10.005  -4.645  28.407  0.00  0.00    -0.298 N 
ATOM     15  H   UNL     1      10.617  -3.908  28.727  0.00  0.00    +0.150 HD
ATOM     16  C   UNL     1       8.683  -4.341  28.217  0.00  0.00    +0.300 C 
ATOM     17  O   UNL     1       7.816  -5.201  28.085  0.00  0.00    -0.253 OA
ATOM     18  N   UNL     1       8.416  -3.008  28.160  0.00  0.00    -0.292 N 
ATOM     19  H   UNL     1       9.122  -2.301  28.310  0.00  0.00    +0.151 HD
BRANCH  18  20
ATOM     20  C   UNL     1       7.050  -2.585  27.956  0.00  0.00    +0.180 C 
BRANCH  20  21
ATOM     21  C   UNL     1       6.727  -2.302  26.535  0.00  0.00    +0.122 A 
ATOM     22  O   UNL     1       5.441  -1.983  26.197  0.00  0.00    -0.466 OA
ATOM     23  C   UNL     1       5.430  -1.775  24.851  0.00  0.00    +0.195 A 
ATOM     24  C   UNL     1       6.685  -1.958  24.319  0.00  0.00    +0.041 A 
ATOM     25  C   UNL     1       7.524  -2.299  25.405  0.00  0.00    +0.046 A 
ENDBRANCH  20  21
ENDBRANCH  18  20
ENDBRANCH  13  14
ENDBRANCH  12  13
ENDBRANCH  10  12
ENDBRANCH   6   8
ENDBRANCH   5   6
ENDBRANCH   1   5
BRANCH   3  26
ATOM     26  C   UNL     1      17.174  -3.079  23.057  0.00  0.00    +0.141 C 
BRANCH  26  27
ATOM     27  C   UNL     1      18.653  -2.988  23.418  0.00  0.00    +0.163 C 
BRANCH  27  28
ATOM     28  O   UNL     1      19.444  -2.866  22.225  0.00  0.00    -0.388 OA
ATOM     29  H   UNL     1      20.351  -3.120  22.413  0.00  0.00    +0.210 HD
ENDBRANCH  27  28
BRANCH  27  30
ATOM     30  C   UNL     1      18.881  -1.788  24.354  0.00  0.00    +0.175 C 
BRANCH  30  31
ATOM     31  C   UNL     1      18.648  -0.447  23.642  0.00  0.00    +0.176 C 
ATOM     32  O   UNL     1      19.880  -0.084  22.958  0.00  0.00    -0.332 OA
ATOM     33  C   UNL     1      19.813   1.124  22.131  0.00  0.00    +0.277 C 
ATOM     34  C   UNL     1      19.305   2.325  22.967  0.00  0.00    +0.110 C 
ATOM     35  C   UNL     1      18.014   1.976  23.738  0.00  0.00    +0.143 C 
ATOM     36  C   UNL     1      18.194   0.701  24.562  0.00  0.00    +0.133 C 
BRANCH  36  37
ATOM     37  N   UNL     1      16.932   0.331  25.222  0.00  0.00    -0.308 N 
ATOM     38  H   UNL     1      16.111   0.223  24.643  0.00  0.00    +0.149 HD
ATOM     39  C   UNL     1      16.801   0.130  26.536  0.00  0.00    +0.210 C 
ATOM     40  C   UNL     1      18.065   0.329  27.394  0.00  0.00    +0.109 C 
ATOM     41  O   UNL     1      15.734  -0.193  27.060  0.00  0.00    -0.276 OA
ENDBRANCH  36  37
BRANCH  33  42
ATOM     42  C   UNL     1      18.881   0.908  20.921  0.00  0.00    +0.414 C 
ATOM     43  O   UNL     1      18.483  -0.221  20.639  0.00  0.00    -0.240 OA
ATOM     44  O   UNL     1      18.528   1.862  20.227  0.00  0.00    -0.240 OA
ENDBRANCH  33  42
BRANCH  35  45
ATOM     45  O   UNL     1      17.667   3.054  24.608  0.00  0.00    -0.390 OA
ATOM     46  H   UNL     1      18.320   3.753  24.530  0.00  0.00    +0.210 HD
ENDBRANCH  35  45
BRANCH  33  47
ATOM     47  O   UNL     1      21.154   1.425  21.668  0.00  0.00    -0.343 OA
ATOM     48  C   UNL     1      22.111   1.725  22.715  0.00  0.00    +0.198 C 
ENDBRANCH  33  47
ENDBRANCH  30  31
BRANCH  30  49
ATOM     49  O   UNL     1      20.213  -1.833  24.904  0.00  0.00    -0.387 OA
ATOM     50  H   UNL     1      20.774  -1.211  24.436  0.00  0.00    +0.210 HD
ENDBRANCH  30  49
ENDBRANCH  27  30
ENDBRANCH  26  27
ENDBRANCH   3  26
TORSDOF 18
