REMARK VINA RESULT:    -6.019     13.415     15.672
REMARK INTER + INTRA:         -13.016
REMARK INTER:                 -10.489
REMARK INTRA:                  -2.527
REMARK UNBOUND:                -2.246
REMARK  Name = lig_assembled_5.pdb
REMARK  18 active torsions:
REMARK  status: ('A' for Active; 'I' for Inactive)
REMARK    1  A    between atoms: _2  and  _9
REMARK    2  A    between atoms: _4  and  _20
REMARK    3  A    between atoms: _6  and  _7
REMARK    4  A    between atoms: _6  and  _20
REMARK    5  A    between atoms: _12  and  _15
REMARK    6  A    between atoms: _13  and  _15
REMARK    7  A    between atoms: _16  and  _36
REMARK    8  A    between atoms: _18  and  _24
REMARK    9  A    between atoms: _19  and  _23
REMARK   10  A    between atoms: _23  and  _24
REMARK   11  A    between atoms: _26  and  _27
REMARK   12  A    between atoms: _28  and  _29
REMARK   13  A    between atoms: _30  and  _32
REMARK   14  A    between atoms: _32  and  _33
REMARK   15  A    between atoms: _32  and  _34
REMARK   16  A    between atoms: _34  and  _35
REMARK   17  A    between atoms: _34  and  _36
REMARK   18  A    between atoms: _37  and  _39
REMARK                            x       y       z     vdW  Elec       q    Type
REMARK                         _______ _______ _______ _____ _____    ______ ____
ROOT
ATOM      1  C   UNL     1      18.443  10.371  30.518  0.00  0.00    +0.163 C 
ENDROOT
BRANCH   1   2
ATOM      2  O   UNL     1      17.121  10.856  30.226  0.00  0.00    -0.388 OA
ATOM      3  H   UNL     1      16.979  10.847  29.277  0.00  0.00    +0.210 HD
ENDBRANCH   1   2
BRANCH   1   4
ATOM      4  C   UNL     1      19.469  11.112  29.667  0.00  0.00    +0.141 C 
BRANCH   4   7
ATOM      5  C   UNL     1      19.971  11.245  27.251  0.00  0.00    +0.401 C 
ATOM      6  O   UNL     1      20.291  12.435  27.288  0.00  0.00    -0.226 OA
ATOM      7  N   UNL     1      19.568  10.549  28.315  0.00  0.00    -0.279 N 
ATOM      8  H   UNL     1      19.317   9.579  28.183  0.00  0.00    +0.152 HD
BRANCH   5   9
ATOM      9  O   UNL     1      20.022  10.550  26.003  0.00  0.00    -0.444 OA
BRANCH   9  10
ATOM     10  C   UNL     1      20.866   9.402  26.129  0.00  0.00    +0.292 C 
BRANCH  10  12
ATOM     11  N   UNL     1      19.383   7.576  26.896  0.00  0.00    -0.131 NA
ATOM     12  C   UNL     1      20.092   8.169  25.892  0.00  0.00    +0.121 A 
ATOM     13  C   UNL     1      19.932   7.440  24.738  0.00  0.00    +0.143 A 
ATOM     14  N   UNL     1      19.083   6.411  25.080  0.00  0.00    -0.220 N 
ATOM     15  N   UNL     1      18.779   6.505  26.398  0.00  0.00    -0.060 NA
BRANCH  14  16
ATOM     16  C   UNL     1      18.537   5.396  24.251  0.00  0.00    +0.067 A 
ATOM     17  C   UNL     1      18.789   4.045  24.513  0.00  0.00    +0.031 A 
ATOM     18  C   UNL     1      18.294   3.064  23.651  0.00  0.00    +0.048 A 
ATOM     19  C   UNL     1      17.529   3.410  22.536  0.00  0.00    +0.120 A 
ATOM     20  C   UNL     1      17.262   4.754  22.281  0.00  0.00    +0.048 A 
ATOM     21  C   UNL     1      17.764   5.746  23.134  0.00  0.00    +0.031 A 
BRANCH  19  22
ATOM     22  O   UNL     1      17.160   2.359  21.743  0.00  0.00    -0.495 OA
ATOM     23  C   UNL     1      17.656   1.081  22.119  0.00  0.00    +0.277 C 
ENDBRANCH  19  22
ENDBRANCH  14  16
ENDBRANCH  10  12
ENDBRANCH   9  10
ENDBRANCH   5   9
ENDBRANCH   4   7
ENDBRANCH   1   4
BRANCH   1  24
ATOM     24  C   UNL     1      18.546   8.860  30.249  0.00  0.00    +0.175 C 
BRANCH  24  25
ATOM     25  C   UNL     1      17.846   8.031  31.336  0.00  0.00    +0.176 C 
ATOM     26  O   UNL     1      17.836   8.815  32.560  0.00  0.00    -0.332 OA
ATOM     27  C   UNL     1      17.110   8.222  33.687  0.00  0.00    +0.277 C 
ATOM     28  C   UNL     1      17.640   6.797  33.983  0.00  0.00    +0.110 C 
ATOM     29  C   UNL     1      17.699   5.935  32.704  0.00  0.00    +0.143 C 
ATOM     30  C   UNL     1      18.474   6.649  31.596  0.00  0.00    +0.133 C 
BRANCH  30  31
ATOM     31  N   UNL     1      18.450   5.856  30.357  0.00  0.00    -0.308 N 
ATOM     32  H   UNL     1      17.591   5.841  29.824  0.00  0.00    +0.149 HD
ATOM     33  C   UNL     1      19.487   5.156  29.890  0.00  0.00    +0.210 C 
ATOM     34  C   UNL     1      20.772   5.179  30.739  0.00  0.00    +0.109 C 
ATOM     35  O   UNL     1      19.442   4.513  28.841  0.00  0.00    -0.276 OA
ENDBRANCH  30  31
BRANCH  27  36
ATOM     36  C   UNL     1      15.597   8.158  33.390  0.00  0.00    +0.414 C 
ATOM     37  O   UNL     1      15.082   8.966  32.619  0.00  0.00    -0.240 OA
ATOM     38  O   UNL     1      14.892   7.298  33.921  0.00  0.00    -0.240 OA
ENDBRANCH  27  36
BRANCH  27  39
ATOM     39  O   UNL     1      17.343   9.049  34.856  0.00  0.00    -0.343 OA
ATOM     40  C   UNL     1      17.757  10.409  34.572  0.00  0.00    +0.198 C 
ENDBRANCH  27  39
BRANCH  29  41
ATOM     41  O   UNL     1      18.332   4.688  32.993  0.00  0.00    -0.390 OA
ATOM     42  H   UNL     1      19.125   4.843  33.511  0.00  0.00    +0.210 HD
ENDBRANCH  29  41
ENDBRANCH  24  25
BRANCH  24  43
ATOM     43  O   UNL     1      19.929   8.469  30.139  0.00  0.00    -0.387 OA
ATOM     44  H   UNL     1      20.123   8.228  29.230  0.00  0.00    +0.210 HD
ENDBRANCH  24  43
ENDBRANCH   1  24
TORSDOF 15
