REMARK VINA RESULT:    -5.481     18.258     23.026
REMARK INTER + INTRA:         -13.577
REMARK INTER:                 -11.703
REMARK INTRA:                  -1.874
REMARK UNBOUND:                -3.450
REMARK  Name = lig_assembled_66.pdb
REMARK  18 active torsions:
REMARK  status: ('A' for Active; 'I' for Inactive)
REMARK    1  A    between atoms: _2  and  _10
REMARK    2  A    between atoms: _5  and  _21
REMARK    3  A    between atoms: _7  and  _8
REMARK    4  A    between atoms: _7  and  _21
REMARK    5  A    between atoms: _10  and  _11
REMARK    6  A    between atoms: _15  and  _16
REMARK    7  A    between atoms: _17  and  _37
REMARK    8  A    between atoms: _19  and  _25
REMARK    9  A    between atoms: _20  and  _24
REMARK   10  A    between atoms: _24  and  _25
REMARK   11  A    between atoms: _27  and  _28
REMARK   12  A    between atoms: _29  and  _30
REMARK   13  A    between atoms: _31  and  _33
REMARK   14  A    between atoms: _33  and  _34
REMARK   15  A    between atoms: _33  and  _35
REMARK   16  A    between atoms: _35  and  _36
REMARK   17  A    between atoms: _35  and  _37
REMARK   18  A    between atoms: _38  and  _40
REMARK                            x       y       z     vdW  Elec       q    Type
REMARK                         _______ _______ _______ _____ _____    ______ ____
ROOT
ATOM      1  C   UNL     1      -1.630  18.537  12.515  0.00  0.00    +0.163 C 
ENDROOT
BRANCH   1   2
ATOM      2  O   UNL     1      -0.200  18.632  12.612  0.00  0.00    -0.388 OA
ATOM      3  H   UNL     1       0.166  17.768  12.818  0.00  0.00    +0.210 HD
ENDBRANCH   1   2
BRANCH   1   4
ATOM      4  C   UNL     1      -2.101  17.087  12.718  0.00  0.00    +0.175 C 
BRANCH   4   5
ATOM      5  C   UNL     1      -1.060  16.068  12.231  0.00  0.00    +0.176 C 
ATOM      6  O   UNL     1      -0.547  16.531  10.951  0.00  0.00    -0.332 OA
ATOM      7  C   UNL     1       0.542  15.733  10.379  0.00  0.00    +0.277 C 
ATOM      8  C   UNL     1       0.122  14.246  10.268  0.00  0.00    +0.110 C 
ATOM      9  C   UNL     1      -0.460  13.718  11.596  0.00  0.00    +0.143 C 
ATOM     10  C   UNL     1      -1.582  14.625  12.102  0.00  0.00    +0.133 C 
BRANCH  10  11
ATOM     11  N   UNL     1      -2.070  14.160  13.411  0.00  0.00    -0.308 N 
ATOM     12  H   UNL     1      -1.439  14.221  14.197  0.00  0.00    +0.149 HD
ATOM     13  C   UNL     1      -3.291  13.664  13.626  0.00  0.00    +0.210 C 
ATOM     14  C   UNL     1      -4.219  13.560  12.401  0.00  0.00    +0.109 C 
ATOM     15  O   UNL     1      -3.677  13.296  14.736  0.00  0.00    -0.276 OA
ENDBRANCH  10  11
BRANCH   7  16
ATOM     16  C   UNL     1       1.815  15.846  11.242  0.00  0.00    +0.414 C 
ATOM     17  O   UNL     1       2.874  15.353  10.854  0.00  0.00    -0.240 OA
ATOM     18  O   UNL     1       1.785  16.429  12.327  0.00  0.00    -0.240 OA
ENDBRANCH   7  16
BRANCH   7  19
ATOM     19  O   UNL     1       0.811  16.233   9.044  0.00  0.00    -0.343 OA
ATOM     20  C   UNL     1       0.911  17.675   8.939  0.00  0.00    +0.198 C 
ENDBRANCH   7  19
BRANCH   9  21
ATOM     21  O   UNL     1      -0.971  12.398  11.407  0.00  0.00    -0.390 OA
ATOM     22  H   UNL     1      -1.722  12.427  10.809  0.00  0.00    +0.210 HD
ENDBRANCH   9  21
ENDBRANCH   4   5
BRANCH   4  23
ATOM     23  O   UNL     1      -3.358  16.873  12.046  0.00  0.00    -0.387 OA
ATOM     24  H   UNL     1      -3.479  15.935  11.883  0.00  0.00    +0.210 HD
ENDBRANCH   4  23
ENDBRANCH   1   4
BRANCH   1  25
ATOM     25  C   UNL     1      -2.285  19.436  13.559  0.00  0.00    +0.141 C 
BRANCH  25  28
ATOM     26  C   UNL     1      -1.178  21.248  14.823  0.00  0.00    +0.401 C 
ATOM     27  O   UNL     1      -1.854  22.144  14.314  0.00  0.00    -0.226 OA
ATOM     28  N   UNL     1      -1.308  19.955  14.525  0.00  0.00    -0.279 N 
ATOM     29  H   UNL     1      -0.701  19.294  14.989  0.00  0.00    +0.152 HD
BRANCH  26  30
ATOM     30  O   UNL     1      -0.185  21.592  15.793  0.00  0.00    -0.444 OA
BRANCH  30  31
ATOM     31  C   UNL     1      -0.750  22.483  16.759  0.00  0.00    +0.292 C 
BRANCH  31  33
ATOM     32  N   UNL     1       0.491  22.340  18.900  0.00  0.00    -0.131 NA
ATOM     33  C   UNL     1      -0.566  21.946  18.122  0.00  0.00    +0.120 A 
ATOM     34  C   UNL     1      -1.351  21.072  18.840  0.00  0.00    +0.137 A 
ATOM     35  N   UNL     1      -0.751  21.018  20.065  0.00  0.00    -0.247 N 
ATOM     36  N   UNL     1       0.367  21.767  20.090  0.00  0.00    -0.065 NA
BRANCH  35  37
ATOM     37  C   UNL     1      -1.312  20.498  21.298  0.00  0.00    +0.180 C 
BRANCH  37  38
ATOM     38  C   UNL     1      -1.511  19.004  21.281  0.00  0.00    -0.025 A 
ATOM     39  C   UNL     1      -0.450  18.152  20.939  0.00  0.00    +0.005 A 
ATOM     40  C   UNL     1      -0.602  16.765  21.001  0.00  0.00    +0.002 A 
ATOM     41  C   UNL     1      -1.822  16.211  21.387  0.00  0.00    +0.019 A 
ATOM     42  C   UNL     1      -2.900  17.046  21.697  0.00  0.00    +0.052 A 
ATOM     43  C   UNL     1      -2.743  18.437  21.645  0.00  0.00    +0.024 A 
BRANCH  42  44
ATOM     44  C   UNL     1      -4.161  16.479  22.078  0.00  0.00    +0.099 C 
ATOM     45  N   UNL     1      -5.186  16.027  22.383  0.00  0.00    -0.191 NA
ENDBRANCH  42  44
ENDBRANCH  37  38
ENDBRANCH  35  37
ENDBRANCH  31  33
ENDBRANCH  30  31
ENDBRANCH  26  30
ENDBRANCH  25  28
ENDBRANCH   1  25
TORSDOF 16
