REMARK VINA RESULT:    -6.009      3.167      4.135
REMARK INTER + INTRA:         -15.074
REMARK INTER:                 -12.527
REMARK INTRA:                  -2.546
REMARK UNBOUND:                -3.269
REMARK  Name = lig_assembled_84.pdb
REMARK  21 active torsions:
REMARK  status: ('A' for Active; 'I' for Inactive)
REMARK    1  A    between atoms: _2  and  _11
REMARK    2  A    between atoms: _3  and  _14
REMARK    3  A    between atoms: _4  and  _17
REMARK    4  A    between atoms: _6  and  _28
REMARK    5  A    between atoms: _8  and  _9
REMARK    6  A    between atoms: _8  and  _28
REMARK    7  A    between atoms: _11  and  _12
REMARK    8  A    between atoms: _12  and  _13
REMARK    9  A    between atoms: _12  and  _14
REMARK   10  A    between atoms: _24  and  _44
REMARK   11  A    between atoms: _26  and  _32
REMARK   12  A    between atoms: _27  and  _31
REMARK   13  A    between atoms: _31  and  _32
REMARK   14  A    between atoms: _34  and  _35
REMARK   15  A    between atoms: _36  and  _37
REMARK   16  A    between atoms: _38  and  _40
REMARK   17  A    between atoms: _40  and  _41
REMARK   18  A    between atoms: _40  and  _42
REMARK   19  A    between atoms: _42  and  _43
REMARK   20  A    between atoms: _42  and  _44
REMARK   21  A    between atoms: _45  and  _47
REMARK                            x       y       z     vdW  Elec       q    Type
REMARK                         _______ _______ _______ _____ _____    ______ ____
ROOT
ATOM      1  C   UNL     1       7.664  -0.381  34.270  0.00  0.00    +0.401 C 
ATOM      2  O   UNL     1       7.959  -1.293  35.045  0.00  0.00    -0.226 OA
ATOM      3  N   UNL     1       8.260   0.812  34.260  0.00  0.00    -0.279 N 
ATOM      4  H   UNL     1       7.954   1.493  33.579  0.00  0.00    +0.152 HD
ENDROOT
BRANCH   1   5
ATOM      5  O   UNL     1       6.625  -0.594  33.310  0.00  0.00    -0.444 OA
BRANCH   5   6
ATOM      6  C   UNL     1       6.702  -1.933  32.812  0.00  0.00    +0.292 C 
BRANCH   6   8
ATOM      7  N   UNL     1       6.158  -0.979  30.589  0.00  0.00    -0.131 NA
ATOM      8  C   UNL     1       6.788  -1.939  31.340  0.00  0.00    +0.120 A 
ATOM      9  C   UNL     1       7.413  -2.830  30.497  0.00  0.00    +0.137 A 
ATOM     10  N   UNL     1       7.072  -2.397  29.250  0.00  0.00    -0.251 N 
ATOM     11  N   UNL     1       6.338  -1.272  29.308  0.00  0.00    -0.065 NA
BRANCH  10  12
ATOM     12  C   UNL     1       7.291  -3.073  27.986  0.00  0.00    +0.149 C 
BRANCH  12  13
ATOM     13  C   UNL     1       6.654  -2.372  26.774  0.00  0.00    +0.021 C 
ATOM     14  C   UNL     1       7.693  -2.109  25.674  0.00  0.00    +0.010 C 
BRANCH  13  15
ATOM     15  C   UNL     1       5.500  -3.216  26.179  0.00  0.00    +0.089 C 
BRANCH  15  16
ATOM     16  N   UNL     1       4.264  -2.481  25.880  0.00  0.00    -0.299 NA
ATOM     17  C   UNL     1       4.244  -2.080  24.448  0.00  0.00    +0.103 C 
ATOM     18  C   UNL     1       2.923  -1.380  24.069  0.00  0.00    +0.120 C 
ATOM     19  N   UNL     1       2.730  -0.197  24.917  0.00  0.00    -0.327 N 
ATOM     20  C   UNL     1       2.789  -0.471  26.360  0.00  0.00    +0.120 C 
ATOM     21  C   UNL     1       4.088  -1.257  26.703  0.00  0.00    +0.103 C 
BRANCH  19  22
ATOM     22  C   UNL     1       2.462   1.050  24.401  0.00  0.00    +0.030 A 
ATOM     23  C   UNL     1       2.140   1.226  23.043  0.00  0.00    +0.024 A 
ATOM     24  C   UNL     1       1.889   2.489  22.496  0.00  0.00    +0.022 A 
ATOM     25  C   UNL     1       1.950   3.611  23.306  0.00  0.00    +0.041 A 
ATOM     26 CL   UNL     1       1.649   5.168  22.639  0.00  0.00    -0.084 Cl
ATOM     27  C   UNL     1       2.263   3.480  24.654  0.00  0.00    +0.022 A 
ATOM     28  C   UNL     1       2.517   2.210  25.189  0.00  0.00    +0.024 A 
ENDBRANCH  19  22
ENDBRANCH  15  16
ENDBRANCH  13  15
ENDBRANCH  12  13
ENDBRANCH  10  12
ENDBRANCH   6   8
ENDBRANCH   5   6
ENDBRANCH   1   5
BRANCH   3  29
ATOM     29  C   UNL     1       9.335   1.193  35.184  0.00  0.00    +0.141 C 
BRANCH  29  30
ATOM     30  C   UNL     1       8.912   2.325  36.114  0.00  0.00    +0.163 C 
BRANCH  30  31
ATOM     31  O   UNL     1       9.732   3.483  35.883  0.00  0.00    -0.388 OA
ATOM     32  H   UNL     1       9.198   4.184  35.502  0.00  0.00    +0.210 HD
ENDBRANCH  30  31
BRANCH  30  33
ATOM     33  C   UNL     1       7.426   2.650  35.885  0.00  0.00    +0.175 C 
BRANCH  33  34
ATOM     34  C   UNL     1       7.192   4.149  35.646  0.00  0.00    +0.176 C 
ATOM     35  O   UNL     1       6.915   4.769  36.932  0.00  0.00    -0.332 OA
ATOM     36  C   UNL     1       6.768   6.227  36.914  0.00  0.00    +0.277 C 
ATOM     37  C   UNL     1       5.690   6.650  35.887  0.00  0.00    +0.110 C 
ATOM     38  C   UNL     1       5.924   5.991  34.511  0.00  0.00    +0.143 C 
ATOM     39  C   UNL     1       6.066   4.474  34.647  0.00  0.00    +0.133 C 
BRANCH  39  40
ATOM     40  N   UNL     1       6.375   3.867  33.343  0.00  0.00    -0.308 N 
ATOM     41  H   UNL     1       7.167   4.228  32.830  0.00  0.00    +0.149 HD
ATOM     42  C   UNL     1       5.678   2.869  32.793  0.00  0.00    +0.210 C 
ATOM     43  C   UNL     1       4.461   2.358  33.587  0.00  0.00    +0.109 C 
ATOM     44  O   UNL     1       5.969   2.370  31.706  0.00  0.00    -0.276 OA
ENDBRANCH  39  40
BRANCH  36  45
ATOM     45  C   UNL     1       8.108   6.908  36.566  0.00  0.00    +0.414 C 
ATOM     46  O   UNL     1       8.127   8.071  36.167  0.00  0.00    -0.240 OA
ATOM     47  O   UNL     1       9.169   6.293  36.683  0.00  0.00    -0.240 OA
ENDBRANCH  36  45
BRANCH  36  48
ATOM     48  O   UNL     1       6.334   6.651  38.233  0.00  0.00    -0.343 OA
ATOM     49  C   UNL     1       4.992   6.240  38.597  0.00  0.00    +0.198 C 
ENDBRANCH  36  48
BRANCH  38  50
ATOM     50  O   UNL     1       4.830   6.285  33.643  0.00  0.00    -0.390 OA
ATOM     51  H   UNL     1       5.113   6.909  32.970  0.00  0.00    +0.210 HD
ENDBRANCH  38  50
ENDBRANCH  33  34
BRANCH  33  52
ATOM     52  O   UNL     1       6.640   2.197  37.006  0.00  0.00    -0.387 OA
ATOM     53  H   UNL     1       6.266   2.954  37.462  0.00  0.00    +0.210 HD
ENDBRANCH  33  52
ENDBRANCH  30  33
ENDBRANCH  29  30
ENDBRANCH   3  29
TORSDOF 18
