REMARK VINA RESULT:    -6.604      1.308      1.664
REMARK INTER + INTRA:         -14.327
REMARK INTER:                 -12.442
REMARK INTRA:                  -1.885
REMARK UNBOUND:                -2.511
REMARK  Name = lig_assembled_6.pdb
REMARK  17 active torsions:
REMARK  status: ('A' for Active; 'I' for Inactive)
REMARK    1  A    between atoms: _2  and  _10
REMARK    2  A    between atoms: _3  and  _13
REMARK    3  A    between atoms: _5  and  _21
REMARK    4  A    between atoms: _7  and  _8
REMARK    5  A    between atoms: _7  and  _21
REMARK    6  A    between atoms: _17  and  _37
REMARK    7  A    between atoms: _19  and  _25
REMARK    8  A    between atoms: _20  and  _24
REMARK    9  A    between atoms: _24  and  _25
REMARK   10  A    between atoms: _27  and  _28
REMARK   11  A    between atoms: _29  and  _30
REMARK   12  A    between atoms: _31  and  _33
REMARK   13  A    between atoms: _33  and  _34
REMARK   14  A    between atoms: _33  and  _35
REMARK   15  A    between atoms: _35  and  _36
REMARK   16  A    between atoms: _35  and  _37
REMARK   17  A    between atoms: _38  and  _40
REMARK                            x       y       z     vdW  Elec       q    Type
REMARK                         _______ _______ _______ _____ _____    ______ ____
ROOT
ATOM      1  C   UNL     1       3.298   3.647  32.329  0.00  0.00    +0.163 C 
ENDROOT
BRANCH   1   2
ATOM      2  O   UNL     1       2.428   3.948  33.432  0.00  0.00    -0.388 OA
ATOM      3  H   UNL     1       1.514   3.848  33.155  0.00  0.00    +0.210 HD
ENDBRANCH   1   2
BRANCH   1   4
ATOM      4  C   UNL     1       2.569   2.776  31.312  0.00  0.00    +0.141 C 
BRANCH   4   7
ATOM      5  C   UNL     1       1.788   3.319  29.031  0.00  0.00    +0.401 C 
ATOM      6  O   UNL     1       0.625   2.966  29.244  0.00  0.00    -0.226 OA
ATOM      7  N   UNL     1       2.763   3.259  29.939  0.00  0.00    -0.279 N 
ATOM      8  H   UNL     1       3.687   3.563  29.667  0.00  0.00    +0.152 HD
BRANCH   5   9
ATOM      9  O   UNL     1       2.135   3.823  27.739  0.00  0.00    -0.444 OA
BRANCH   9  10
ATOM     10  C   UNL     1       1.784   2.861  26.741  0.00  0.00    +0.292 C 
BRANCH  10  12
ATOM     11  N   UNL     1       0.975   4.839  25.491  0.00  0.00    -0.131 NA
ATOM     12  C   UNL     1       1.388   3.539  25.492  0.00  0.00    +0.121 A 
ATOM     13  C   UNL     1       1.367   3.060  24.202  0.00  0.00    +0.143 A 
ATOM     14  N   UNL     1       0.960   4.126  23.433  0.00  0.00    -0.220 N 
ATOM     15  N   UNL     1       0.709   5.187  24.239  0.00  0.00    -0.060 NA
BRANCH  14  16
ATOM     16  C   UNL     1       0.835   4.207  22.021  0.00  0.00    +0.067 A 
ATOM     17  C   UNL     1      -0.302   4.786  21.435  0.00  0.00    +0.034 A 
ATOM     18  C   UNL     1      -0.442   4.804  20.043  0.00  0.00    +0.086 A 
ATOM     19  C   UNL     1       0.556   4.246  19.235  0.00  0.00    +0.273 A 
ATOM     20  C   UNL     1       1.706   3.691  19.809  0.00  0.00    +0.086 A 
ATOM     21  C   UNL     1       1.843   3.674  21.201  0.00  0.00    +0.034 A 
BRANCH  19  22
ATOM     22  N   UNL     1       0.382   4.230  17.777  0.00  0.00    +0.080 N 
ATOM     23  O   UNL     1       0.911   3.304  17.145  0.00  0.00    +0.041 OA
ATOM     24  O   UNL     1      -0.276   5.146  17.264  0.00  0.00    -0.576 OA
ENDBRANCH  19  22
ENDBRANCH  14  16
ENDBRANCH  10  12
ENDBRANCH   9  10
ENDBRANCH   5   9
ENDBRANCH   4   7
ENDBRANCH   1   4
BRANCH   1  25
ATOM     25  C   UNL     1       4.566   2.921  32.812  0.00  0.00    +0.175 C 
BRANCH  25  26
ATOM     26  C   UNL     1       5.165   3.576  34.065  0.00  0.00    +0.176 C 
ATOM     27  O   UNL     1       5.198   5.013  33.847  0.00  0.00    -0.332 OA
ATOM     28  C   UNL     1       5.644   5.818  34.989  0.00  0.00    +0.277 C 
ATOM     29  C   UNL     1       7.029   5.332  35.484  0.00  0.00    +0.110 C 
ATOM     30  C   UNL     1       7.052   3.804  35.700  0.00  0.00    +0.143 C 
ATOM     31  C   UNL     1       6.566   3.066  34.452  0.00  0.00    +0.133 C 
BRANCH  31  32
ATOM     32  N   UNL     1       6.510   1.617  34.700  0.00  0.00    -0.308 N 
ATOM     33  H   UNL     1       5.806   1.274  35.338  0.00  0.00    +0.149 HD
ATOM     34  C   UNL     1       7.329   0.725  34.136  0.00  0.00    +0.210 C 
ATOM     35  C   UNL     1       8.407   1.282  33.188  0.00  0.00    +0.109 C 
ATOM     36  O   UNL     1       7.249  -0.485  34.351  0.00  0.00    -0.276 OA
ENDBRANCH  31  32
BRANCH  28  37
ATOM     37  C   UNL     1       4.626   5.739  36.145  0.00  0.00    +0.414 C 
ATOM     38  O   UNL     1       3.453   5.446  35.919  0.00  0.00    -0.240 OA
ATOM     39  O   UNL     1       4.978   5.969  37.303  0.00  0.00    -0.240 OA
ENDBRANCH  28  37
BRANCH  30  40
ATOM     40  O   UNL     1       8.381   3.381  36.009  0.00  0.00    -0.390 OA
ATOM     41  H   UNL     1       8.642   2.680  35.408  0.00  0.00    +0.210 HD
ENDBRANCH  30  40
BRANCH  28  42
ATOM     42  O   UNL     1       5.775   7.193  34.545  0.00  0.00    -0.343 OA
ATOM     43  C   UNL     1       7.137   7.681  34.454  0.00  0.00    +0.198 C 
ENDBRANCH  28  42
ENDBRANCH  25  26
BRANCH  25  44
ATOM     44  O   UNL     1       5.547   2.881  31.756  0.00  0.00    -0.387 OA
ATOM     45  H   UNL     1       5.950   3.748  31.659  0.00  0.00    +0.210 HD
ENDBRANCH  25  44
ENDBRANCH   1  25
TORSDOF 15
