REMARK VINA RESULT:    -5.808     14.154     17.974
REMARK INTER + INTRA:         -13.640
REMARK INTER:                 -11.666
REMARK INTRA:                  -1.974
REMARK UNBOUND:                -2.569
REMARK  Name = lig_assembled_18.pdb
REMARK  19 active torsions:
REMARK  status: ('A' for Active; 'I' for Inactive)
REMARK    1  A    between atoms: _2  and  _10
REMARK    2  A    between atoms: _3  and  _12
REMARK    3  A    between atoms: _5  and  _21
REMARK    4  A    between atoms: _7  and  _8
REMARK    5  A    between atoms: _7  and  _21
REMARK    6  A    between atoms: _10  and  _11
REMARK    7  A    between atoms: _12  and  _13
REMARK    8  A    between atoms: _17  and  _37
REMARK    9  A    between atoms: _19  and  _25
REMARK   10  A    between atoms: _20  and  _24
REMARK   11  A    between atoms: _24  and  _25
REMARK   12  A    between atoms: _27  and  _28
REMARK   13  A    between atoms: _29  and  _30
REMARK   14  A    between atoms: _31  and  _33
REMARK   15  A    between atoms: _33  and  _34
REMARK   16  A    between atoms: _33  and  _35
REMARK   17  A    between atoms: _35  and  _36
REMARK   18  A    between atoms: _35  and  _37
REMARK   19  A    between atoms: _38  and  _40
REMARK                            x       y       z     vdW  Elec       q    Type
REMARK                         _______ _______ _______ _____ _____    ______ ____
ROOT
ATOM      1  C   UNL     1      17.426   2.404  23.659  0.00  0.00    +0.163 C 
ENDROOT
BRANCH   1   2
ATOM      2  O   UNL     1      16.107   2.428  24.227  0.00  0.00    -0.388 OA
ATOM      3  H   UNL     1      15.889   3.325  24.492  0.00  0.00    +0.210 HD
ENDBRANCH   1   2
BRANCH   1   4
ATOM      4  C   UNL     1      17.531   1.334  22.558  0.00  0.00    +0.175 C 
BRANCH   4   5
ATOM      5  C   UNL     1      18.164   0.033  23.074  0.00  0.00    +0.176 C 
ATOM      6  O   UNL     1      17.199  -0.618  23.946  0.00  0.00    -0.332 OA
ATOM      7  C   UNL     1      17.591  -1.936  24.452  0.00  0.00    +0.277 C 
ATOM      8  C   UNL     1      18.966  -1.857  25.160  0.00  0.00    +0.110 C 
ATOM      9  C   UNL     1      20.017  -1.144  24.283  0.00  0.00    +0.143 C 
ATOM     10  C   UNL     1      19.504   0.216  23.809  0.00  0.00    +0.133 C 
BRANCH  10  11
ATOM     11  N   UNL     1      20.479   0.847  22.905  0.00  0.00    -0.308 N 
ATOM     12  H   UNL     1      20.577   0.463  21.976  0.00  0.00    +0.149 HD
ATOM     13  C   UNL     1      21.241   1.894  23.232  0.00  0.00    +0.210 C 
ATOM     14  C   UNL     1      21.085   2.440  24.664  0.00  0.00    +0.109 C 
ATOM     15  O   UNL     1      22.038   2.412  22.449  0.00  0.00    -0.276 OA
ENDBRANCH  10  11
BRANCH   7  16
ATOM     16  C   UNL     1      17.660  -2.965  23.304  0.00  0.00    +0.414 C 
ATOM     17  O   UNL     1      16.665  -3.198  22.620  0.00  0.00    -0.240 OA
ATOM     18  O   UNL     1      18.711  -3.560  23.063  0.00  0.00    -0.240 OA
ENDBRANCH   7  16
BRANCH   7  19
ATOM     19  O   UNL     1      16.600  -2.356  25.425  0.00  0.00    -0.343 OA
ATOM     20  C   UNL     1      16.410  -1.447  26.538  0.00  0.00    +0.198 C 
ENDBRANCH   7  19
BRANCH   9  21
ATOM     21  O   UNL     1      21.221  -0.959  25.030  0.00  0.00    -0.390 OA
ATOM     22  H   UNL     1      21.338  -0.026  25.223  0.00  0.00    +0.210 HD
ENDBRANCH   9  21
ENDBRANCH   4   5
BRANCH   4  23
ATOM     23  O   UNL     1      18.286   1.844  21.440  0.00  0.00    -0.387 OA
ATOM     24  H   UNL     1      18.048   1.360  20.646  0.00  0.00    +0.210 HD
ENDBRANCH   4  23
ENDBRANCH   1   4
BRANCH   1  25
ATOM     25  C   UNL     1      17.769   3.771  23.075  0.00  0.00    +0.141 C 
BRANCH  25  28
ATOM     26  C   UNL     1      18.556   5.939  23.960  0.00  0.00    +0.401 C 
ATOM     27  O   UNL     1      18.020   6.604  23.070  0.00  0.00    -0.226 OA
ATOM     28  N   UNL     1      18.495   4.609  24.037  0.00  0.00    -0.279 N 
ATOM     29  H   UNL     1      18.975   4.153  24.800  0.00  0.00    +0.152 HD
BRANCH  26  30
ATOM     30  O   UNL     1      19.296   6.615  24.981  0.00  0.00    -0.444 OA
BRANCH  30  31
ATOM     31  C   UNL     1      19.063   5.978  26.240  0.00  0.00    +0.292 C 
BRANCH  31  33
ATOM     32  N   UNL     1      19.223   6.538  28.650  0.00  0.00    -0.131 NA
ATOM     33  C   UNL     1      19.225   6.945  27.342  0.00  0.00    +0.120 A 
ATOM     34  C   UNL     1      19.392   8.310  27.298  0.00  0.00    +0.137 A 
ATOM     35  N   UNL     1      19.515   8.672  28.607  0.00  0.00    -0.242 N 
ATOM     36  N   UNL     1      19.391   7.605  29.419  0.00  0.00    -0.065 NA
BRANCH  35  37
ATOM     37  C   UNL     1      19.629   9.997  29.170  0.00  0.00    +0.240 C 
BRANCH  37  38
ATOM     38  C   UNL     1      18.385  10.408  29.923  0.00  0.00    +0.235 C 
ATOM     39  O   UNL     1      17.344  10.719  29.346  0.00  0.00    -0.274 OA
ATOM     40  N   UNL     1      18.486  10.353  31.298  0.00  0.00    -0.309 N 
ATOM     41  H   UNL     1      19.390  10.257  31.738  0.00  0.00    +0.149 HD
BRANCH  40  42
ATOM     42  C   UNL     1      17.370  10.703  32.153  0.00  0.00    +0.146 C 
BRANCH  42  43
ATOM     43  C   UNL     1      16.749   9.459  32.703  0.00  0.00    +0.007 A 
ATOM     44  S   UNL     1      17.488   7.932  32.460  0.00  0.00    -0.100 S 
ATOM     45  C   UNL     1      16.221   7.118  33.270  0.00  0.00    +0.045 A 
ATOM     46  C   UNL     1      15.258   7.988  33.733  0.00  0.00    +0.008 A 
ATOM     47  C   UNL     1      15.569   9.341  33.412  0.00  0.00    +0.013 A 
ENDBRANCH  42  43
ENDBRANCH  40  42
ENDBRANCH  37  38
ENDBRANCH  35  37
ENDBRANCH  31  33
ENDBRANCH  30  31
ENDBRANCH  26  30
ENDBRANCH  25  28
ENDBRANCH   1  25
TORSDOF 17
