REMARK VINA RESULT:    -6.053     13.800     15.217
REMARK INTER + INTRA:         -13.342
REMARK INTER:                 -11.090
REMARK INTRA:                  -2.251
REMARK UNBOUND:                -2.511
REMARK  Name = lig_assembled_6.pdb
REMARK  17 active torsions:
REMARK  status: ('A' for Active; 'I' for Inactive)
REMARK    1  A    between atoms: _2  and  _10
REMARK    2  A    between atoms: _3  and  _13
REMARK    3  A    between atoms: _5  and  _21
REMARK    4  A    between atoms: _7  and  _8
REMARK    5  A    between atoms: _7  and  _21
REMARK    6  A    between atoms: _17  and  _37
REMARK    7  A    between atoms: _19  and  _25
REMARK    8  A    between atoms: _20  and  _24
REMARK    9  A    between atoms: _24  and  _25
REMARK   10  A    between atoms: _27  and  _28
REMARK   11  A    between atoms: _29  and  _30
REMARK   12  A    between atoms: _31  and  _33
REMARK   13  A    between atoms: _33  and  _34
REMARK   14  A    between atoms: _33  and  _35
REMARK   15  A    between atoms: _35  and  _36
REMARK   16  A    between atoms: _35  and  _37
REMARK   17  A    between atoms: _38  and  _40
REMARK                            x       y       z     vdW  Elec       q    Type
REMARK                         _______ _______ _______ _____ _____    ______ ____
ROOT
ATOM      1  C   UNL     1      18.664  10.213  29.256  0.00  0.00    +0.163 C 
ENDROOT
BRANCH   1   2
ATOM      2  O   UNL     1      17.368  10.754  29.563  0.00  0.00    -0.388 OA
ATOM      3  H   UNL     1      17.318  10.952  30.501  0.00  0.00    +0.210 HD
ENDBRANCH   1   2
BRANCH   1   4
ATOM      4  C   UNL     1      18.755   9.890  27.768  0.00  0.00    +0.141 C 
BRANCH   4   7
ATOM      5  C   UNL     1      19.078   7.725  26.622  0.00  0.00    +0.401 C 
ATOM      6  O   UNL     1      18.081   7.848  25.907  0.00  0.00    -0.226 OA
ATOM      7  N   UNL     1      19.464   8.628  27.524  0.00  0.00    -0.279 N 
ATOM      8  H   UNL     1      20.291   8.433  28.071  0.00  0.00    +0.152 HD
BRANCH   5   9
ATOM      9  O   UNL     1      19.881   6.549  26.497  0.00  0.00    -0.444 OA
BRANCH   9  10
ATOM     10  C   UNL     1      19.211   5.445  27.112  0.00  0.00    +0.292 C 
BRANCH  10  12
ATOM     11  N   UNL     1      19.006   4.688  24.764  0.00  0.00    -0.131 NA
ATOM     12  C   UNL     1      18.814   4.454  26.094  0.00  0.00    +0.121 A 
ATOM     13  C   UNL     1      18.240   3.214  26.253  0.00  0.00    +0.143 A 
ATOM     14  N   UNL     1      18.128   2.708  24.979  0.00  0.00    -0.220 N 
ATOM     15  N   UNL     1      18.580   3.627  24.092  0.00  0.00    -0.060 NA
BRANCH  14  16
ATOM     16  C   UNL     1      17.667   1.429  24.567  0.00  0.00    +0.067 A 
ATOM     17  C   UNL     1      16.724   0.728  25.335  0.00  0.00    +0.034 A 
ATOM     18  C   UNL     1      16.324  -0.557  24.953  0.00  0.00    +0.086 A 
ATOM     19  C   UNL     1      16.865  -1.142  23.801  0.00  0.00    +0.273 A 
ATOM     20  C   UNL     1      17.786  -0.440  23.015  0.00  0.00    +0.086 A 
ATOM     21  C   UNL     1      18.184   0.845  23.399  0.00  0.00    +0.034 A 
BRANCH  19  22
ATOM     22  N   UNL     1      16.473  -2.508  23.430  0.00  0.00    +0.080 N 
ATOM     23  O   UNL     1      17.292  -3.188  22.794  0.00  0.00    +0.041 OA
ATOM     24  O   UNL     1      15.347  -2.897  23.767  0.00  0.00    -0.576 OA
ENDBRANCH  19  22
ENDBRANCH  14  16
ENDBRANCH  10  12
ENDBRANCH   9  10
ENDBRANCH   5   9
ENDBRANCH   4   7
ENDBRANCH   1   4
BRANCH   1  25
ATOM     25  C   UNL     1      18.937   8.940  30.076  0.00  0.00    +0.175 C 
BRANCH  25  26
ATOM     26  C   UNL     1      18.045   8.853  31.323  0.00  0.00    +0.176 C 
ATOM     27  O   UNL     1      18.272  10.049  32.119  0.00  0.00    -0.332 OA
ATOM     28  C   UNL     1      17.422  10.192  33.305  0.00  0.00    +0.277 C 
ATOM     29  C   UNL     1      17.532   8.936  34.204  0.00  0.00    +0.110 C 
ATOM     30  C   UNL     1      17.329   7.637  33.395  0.00  0.00    +0.143 C 
ATOM     31  C   UNL     1      18.261   7.594  32.183  0.00  0.00    +0.133 C 
BRANCH  31  32
ATOM     32  N   UNL     1      17.997   6.395  31.374  0.00  0.00    -0.308 N 
ATOM     33  H   UNL     1      17.092   6.313  30.933  0.00  0.00    +0.149 HD
ATOM     34  C   UNL     1      18.876   5.407  31.183  0.00  0.00    +0.210 C 
ATOM     35  C   UNL     1      20.237   5.549  31.890  0.00  0.00    +0.109 C 
ATOM     36  O   UNL     1      18.633   4.420  30.487  0.00  0.00    -0.276 OA
ENDBRANCH  31  32
BRANCH  28  37
ATOM     37  C   UNL     1      15.950  10.409  32.900  0.00  0.00    +0.414 C 
ATOM     38  O   UNL     1      15.061   9.722  33.402  0.00  0.00    -0.240 OA
ATOM     39  O   UNL     1      15.650  11.269  32.071  0.00  0.00    -0.240 OA
ENDBRANCH  28  37
BRANCH  30  40
ATOM     40  O   UNL     1      17.588   6.506  34.228  0.00  0.00    -0.390 OA
ATOM     41  H   UNL     1      16.835   6.352  34.803  0.00  0.00    +0.210 HD
ENDBRANCH  30  40
BRANCH  28  42
ATOM     42  O   UNL     1      17.895  11.338  34.060  0.00  0.00    -0.343 OA
ATOM     43  C   UNL     1      17.243  11.538  35.340  0.00  0.00    +0.198 C 
ENDBRANCH  28  42
ENDBRANCH  25  26
BRANCH  25  44
ATOM     44  O   UNL     1      20.327   8.881  30.454  0.00  0.00    -0.387 OA
ATOM     45  H   UNL     1      20.493   9.507  31.162  0.00  0.00    +0.210 HD
ENDBRANCH  25  44
ENDBRANCH   1  25
TORSDOF 15
