REMARK VINA RESULT:    -6.458      2.785      5.880
REMARK INTER + INTRA:         -14.930
REMARK INTER:                 -10.948
REMARK INTRA:                  -3.982
REMARK UNBOUND:                -2.243
REMARK  Name = lig_assembled_31.pdb
REMARK  20 active torsions:
REMARK  status: ('A' for Active; 'I' for Inactive)
REMARK    1  A    between atoms: _2  and  _11
REMARK    2  A    between atoms: _3  and  _12
REMARK    3  A    between atoms: _4  and  _14
REMARK    4  A    between atoms: _6  and  _24
REMARK    5  A    between atoms: _8  and  _9
REMARK    6  A    between atoms: _8  and  _24
REMARK    7  A    between atoms: _11  and  _12
REMARK    8  A    between atoms: _14  and  _15
REMARK    9  A    between atoms: _20  and  _40
REMARK   10  A    between atoms: _22  and  _28
REMARK   11  A    between atoms: _23  and  _27
REMARK   12  A    between atoms: _27  and  _28
REMARK   13  A    between atoms: _30  and  _31
REMARK   14  A    between atoms: _32  and  _33
REMARK   15  A    between atoms: _34  and  _36
REMARK   16  A    between atoms: _36  and  _37
REMARK   17  A    between atoms: _36  and  _38
REMARK   18  A    between atoms: _38  and  _39
REMARK   19  A    between atoms: _38  and  _40
REMARK   20  A    between atoms: _41  and  _43
REMARK                            x       y       z     vdW  Elec       q    Type
REMARK                         _______ _______ _______ _____ _____    ______ ____
ROOT
ATOM      1  C   UNL     1      17.102  -2.513  23.446  0.00  0.00    +0.401 C 
ATOM      2  O   UNL     1      15.872  -2.491  23.364  0.00  0.00    -0.226 OA
ATOM      3  N   UNL     1      17.770  -2.684  24.587  0.00  0.00    -0.279 N 
ATOM      4  H   UNL     1      18.779  -2.698  24.552  0.00  0.00    +0.152 HD
ENDROOT
BRANCH   1   5
ATOM      5  O   UNL     1      17.881  -2.353  22.257  0.00  0.00    -0.444 OA
BRANCH   5   6
ATOM      6  C   UNL     1      18.785  -1.258  22.422  0.00  0.00    +0.292 C 
BRANCH   6   8
ATOM      7  N   UNL     1      18.324   0.293  20.549  0.00  0.00    -0.131 NA
ATOM      8  C   UNL     1      18.198  -0.018  21.876  0.00  0.00    +0.120 A 
ATOM      9  C   UNL     1      17.482   0.976  22.505  0.00  0.00    +0.137 A 
ATOM     10  N   UNL     1      17.212   1.866  21.508  0.00  0.00    -0.250 N 
ATOM     11  N   UNL     1      17.713   1.451  20.333  0.00  0.00    -0.065 NA
BRANCH  10  12
ATOM     12  C   UNL     1      16.493   3.120  21.598  0.00  0.00    +0.164 C 
BRANCH  12  13
ATOM     13  C   UNL     1      17.428   4.272  21.931  0.00  0.00    +0.129 C 
BRANCH  13  14
ATOM     14  N   UNL     1      17.730   4.421  23.348  0.00  0.00    -0.298 N 
ATOM     15  H   UNL     1      17.335   3.789  24.029  0.00  0.00    +0.150 HD
ATOM     16  C   UNL     1      18.181   5.636  23.792  0.00  0.00    +0.300 C 
ATOM     17  O   UNL     1      18.435   6.569  23.034  0.00  0.00    -0.253 OA
ATOM     18  N   UNL     1      18.350   5.715  25.140  0.00  0.00    -0.292 N 
ATOM     19  H   UNL     1      18.102   4.962  25.767  0.00  0.00    +0.151 HD
BRANCH  18  20
ATOM     20  C   UNL     1      18.829   6.954  25.706  0.00  0.00    +0.180 C 
BRANCH  20  21
ATOM     21  C   UNL     1      19.459   6.788  27.040  0.00  0.00    +0.122 A 
ATOM     22  O   UNL     1      20.498   5.910  27.179  0.00  0.00    -0.466 OA
ATOM     23  C   UNL     1      20.879   5.958  28.486  0.00  0.00    +0.195 A 
ATOM     24  C   UNL     1      20.101   6.849  29.188  0.00  0.00    +0.041 A 
ATOM     25  C   UNL     1      19.183   7.386  28.256  0.00  0.00    +0.046 A 
ENDBRANCH  20  21
ENDBRANCH  18  20
ENDBRANCH  13  14
ENDBRANCH  12  13
ENDBRANCH  10  12
ENDBRANCH   6   8
ENDBRANCH   5   6
ENDBRANCH   1   5
BRANCH   3  26
ATOM     26  C   UNL     1      17.120  -2.853  25.893  0.00  0.00    +0.141 C 
BRANCH  26  27
ATOM     27  C   UNL     1      16.960  -1.525  26.625  0.00  0.00    +0.163 C 
BRANCH  27  28
ATOM     28  O   UNL     1      15.654  -1.445  27.219  0.00  0.00    -0.388 OA
ATOM     29  H   UNL     1      15.550  -0.595  27.652  0.00  0.00    +0.210 HD
ENDBRANCH  27  28
BRANCH  27  30
ATOM     30  C   UNL     1      18.059  -1.390  27.693  0.00  0.00    +0.175 C 
BRANCH  30  31
ATOM     31  C   UNL     1      18.487   0.070  27.900  0.00  0.00    +0.176 C 
ATOM     32  O   UNL     1      18.537   0.711  26.596  0.00  0.00    -0.332 OA
ATOM     33  C   UNL     1      18.828   2.148  26.606  0.00  0.00    +0.277 C 
ATOM     34  C   UNL     1      20.141   2.428  27.378  0.00  0.00    +0.110 C 
ATOM     35  C   UNL     1      20.148   1.740  28.759  0.00  0.00    +0.143 C 
ATOM     36  C   UNL     1      19.831   0.250  28.631  0.00  0.00    +0.133 C 
BRANCH  36  37
ATOM     37  N   UNL     1      19.754  -0.376  29.961  0.00  0.00    -0.308 N 
ATOM     38  H   UNL     1      18.977  -0.127  30.556  0.00  0.00    +0.149 HD
ATOM     39  C   UNL     1      20.645  -1.253  30.432  0.00  0.00    +0.210 C 
ATOM     40  C   UNL     1      21.832  -1.592  29.511  0.00  0.00    +0.109 C 
ATOM     41  O   UNL     1      20.548  -1.773  31.544  0.00  0.00    -0.276 OA
ENDBRANCH  36  37
BRANCH  33  42
ATOM     42  C   UNL     1      17.671   2.936  27.254  0.00  0.00    +0.414 C 
ATOM     43  O   UNL     1      17.901   3.962  27.893  0.00  0.00    -0.240 OA
ATOM     44  O   UNL     1      16.508   2.546  27.139  0.00  0.00    -0.240 OA
ENDBRANCH  33  42
BRANCH  35  45
ATOM     45  O   UNL     1      21.429   1.898  29.370  0.00  0.00    -0.390 OA
ATOM     46  H   UNL     1      22.113   1.622  28.755  0.00  0.00    +0.210 HD
ENDBRANCH  35  45
BRANCH  33  47
ATOM     47  O   UNL     1      19.004   2.580  25.232  0.00  0.00    -0.343 OA
ATOM     48  C   UNL     1      20.378   2.607  24.770  0.00  0.00    +0.198 C 
ENDBRANCH  33  47
ENDBRANCH  30  31
BRANCH  30  49
ATOM     49  O   UNL     1      19.199  -2.196  27.336  0.00  0.00    -0.387 OA
ATOM     50  H   UNL     1      18.970  -3.126  27.409  0.00  0.00    +0.210 HD
ENDBRANCH  30  49
ENDBRANCH  27  30
ENDBRANCH  26  27
ENDBRANCH   3  26
TORSDOF 18
