REMARK VINA RESULT:    -6.476      1.353      3.652
REMARK INTER + INTRA:         -14.533
REMARK INTER:                 -12.891
REMARK INTRA:                  -1.643
REMARK UNBOUND:                -2.378
REMARK  Name = lig_assembled_68.pdb
REMARK  19 active torsions:
REMARK  status: ('A' for Active; 'I' for Inactive)
REMARK    1  A    between atoms: _2  and  _9
REMARK    2  A    between atoms: _4  and  _21
REMARK    3  A    between atoms: _6  and  _7
REMARK    4  A    between atoms: _6  and  _21
REMARK    5  A    between atoms: _9  and  _10
REMARK    6  A    between atoms: _10  and  _11
REMARK    7  A    between atoms: _10  and  _16
REMARK    8  A    between atoms: _17  and  _37
REMARK    9  A    between atoms: _19  and  _25
REMARK   10  A    between atoms: _20  and  _24
REMARK   11  A    between atoms: _24  and  _25
REMARK   12  A    between atoms: _27  and  _28
REMARK   13  A    between atoms: _29  and  _30
REMARK   14  A    between atoms: _31  and  _33
REMARK   15  A    between atoms: _33  and  _34
REMARK   16  A    between atoms: _33  and  _35
REMARK   17  A    between atoms: _35  and  _36
REMARK   18  A    between atoms: _35  and  _37
REMARK   19  A    between atoms: _38  and  _40
REMARK                            x       y       z     vdW  Elec       q    Type
REMARK                         _______ _______ _______ _____ _____    ______ ____
ROOT
ATOM      1  C   UNL     1       3.089   3.697  32.569  0.00  0.00    +0.163 C 
ENDROOT
BRANCH   1   2
ATOM      2  O   UNL     1       1.694   4.030  32.657  0.00  0.00    -0.388 OA
ATOM      3  H   UNL     1       1.324   3.654  33.459  0.00  0.00    +0.210 HD
ENDBRANCH   1   2
BRANCH   1   4
ATOM      4  C   UNL     1       3.639   3.265  33.939  0.00  0.00    +0.175 C 
BRANCH   4   5
ATOM      5  C   UNL     1       5.143   2.961  33.888  0.00  0.00    +0.176 C 
ATOM      6  O   UNL     1       5.347   1.623  34.420  0.00  0.00    -0.332 OA
ATOM      7  C   UNL     1       6.721   1.116  34.352  0.00  0.00    +0.277 C 
ATOM      8  C   UNL     1       7.696   2.105  35.036  0.00  0.00    +0.110 C 
ATOM      9  C   UNL     1       7.496   3.548  34.526  0.00  0.00    +0.143 C 
ATOM     10  C   UNL     1       6.031   3.971  34.640  0.00  0.00    +0.133 C 
BRANCH  10  11
ATOM     11  N   UNL     1       5.837   5.314  34.071  0.00  0.00    -0.308 N 
ATOM     12  H   UNL     1       5.939   5.422  33.071  0.00  0.00    +0.149 HD
ATOM     13  C   UNL     1       5.535   6.399  34.789  0.00  0.00    +0.210 C 
ATOM     14  C   UNL     1       5.411   6.206  36.312  0.00  0.00    +0.109 C 
ATOM     15  O   UNL     1       5.363   7.509  34.283  0.00  0.00    -0.276 OA
ENDBRANCH  10  11
BRANCH   7  16
ATOM     16  C   UNL     1       7.152   0.898  32.887  0.00  0.00    +0.414 C 
ATOM     17  O   UNL     1       8.338   0.984  32.570  0.00  0.00    -0.240 OA
ATOM     18  O   UNL     1       6.315   0.635  32.023  0.00  0.00    -0.240 OA
ENDBRANCH   7  16
BRANCH   7  19
ATOM     19  O   UNL     1       6.770  -0.144  35.069  0.00  0.00    -0.343 OA
ATOM     20  C   UNL     1       5.938  -0.207  36.254  0.00  0.00    +0.198 C 
ENDBRANCH   7  19
BRANCH   9  21
ATOM     21  O   UNL     1       8.305   4.445  35.288  0.00  0.00    -0.390 OA
ATOM     22  H   UNL     1       9.216   4.143  35.277  0.00  0.00    +0.210 HD
ENDBRANCH   9  21
ENDBRANCH   4   5
BRANCH   4  23
ATOM     23  O   UNL     1       2.916   2.117  34.425  0.00  0.00    -0.387 OA
ATOM     24  H   UNL     1       3.504   1.565  34.947  0.00  0.00    +0.210 HD
ENDBRANCH   4  23
ENDBRANCH   1   4
BRANCH   1  25
ATOM     25  C   UNL     1       3.294   2.571  31.560  0.00  0.00    +0.141 C 
BRANCH  25  28
ATOM     26  C   UNL     1       2.015   3.078  29.507  0.00  0.00    +0.401 C 
ATOM     27  O   UNL     1       0.937   2.702  29.973  0.00  0.00    -0.226 OA
ATOM     28  N   UNL     1       3.168   3.046  30.177  0.00  0.00    -0.279 N 
ATOM     29  H   UNL     1       4.002   3.367  29.705  0.00  0.00    +0.152 HD
BRANCH  26  30
ATOM     30  O   UNL     1       2.057   3.578  28.168  0.00  0.00    -0.444 OA
BRANCH  30  31
ATOM     31  C   UNL     1       0.833   3.258  27.501  0.00  0.00    +0.292 C 
BRANCH  31  33
ATOM     32  N   UNL     1      -0.229   5.010  26.103  0.00  0.00    -0.131 NA
ATOM     33  C   UNL     1       0.714   4.023  26.247  0.00  0.00    +0.120 A 
ATOM     34  C   UNL     1       1.433   3.916  25.080  0.00  0.00    +0.137 A 
ATOM     35  N   UNL     1       0.889   4.870  24.270  0.00  0.00    -0.249 N 
ATOM     36  N   UNL     1      -0.116   5.517  24.883  0.00  0.00    -0.065 NA
BRANCH  35  37
ATOM     37  C   UNL     1       1.208   5.142  22.884  0.00  0.00    +0.181 C 
BRANCH  37  38
ATOM     38  C   UNL     1       0.049   4.787  21.943  0.00  0.00    +0.166 C 
BRANCH  38  39
ATOM     39  C   UNL     1       0.480   4.402  20.536  0.00  0.00    -0.017 A 
ATOM     40  C   UNL     1      -0.423   4.591  19.473  0.00  0.00    +0.006 A 
ATOM     41  C   UNL     1      -0.060   4.276  18.162  0.00  0.00    +0.000 A 
ATOM     42  C   UNL     1       1.209   3.773  17.891  0.00  0.00    +0.000 A 
ATOM     43  C   UNL     1       2.120   3.596  18.925  0.00  0.00    +0.000 A 
ATOM     44  C   UNL     1       1.761   3.912  20.239  0.00  0.00    +0.006 A 
ENDBRANCH  38  39
BRANCH  38  45
ATOM     45  O   UNL     1      -0.831   5.913  21.842  0.00  0.00    -0.385 OA
ATOM     46  H   UNL     1      -0.411   6.577  21.271  0.00  0.00    +0.210 HD
ENDBRANCH  38  45
ENDBRANCH  37  38
ENDBRANCH  35  37
ENDBRANCH  31  33
ENDBRANCH  30  31
ENDBRANCH  26  30
ENDBRANCH  25  28
ENDBRANCH   1  25
TORSDOF 17
