REMARK VINA RESULT:    -5.535      7.489     11.965
REMARK INTER + INTRA:         -13.693
REMARK INTER:                 -11.276
REMARK INTRA:                  -2.417
REMARK UNBOUND:                -2.172
REMARK  Name = lig_assembled_54.pdb
REMARK  24 active torsions:
REMARK  status: ('A' for Active; 'I' for Inactive)
REMARK    1  A    between atoms: _2  and  _9
REMARK    2  A    between atoms: _4  and  _21
REMARK    3  A    between atoms: _5  and  _14
REMARK    4  A    between atoms: _6  and  _7
REMARK    5  A    between atoms: _6  and  _21
REMARK    6  A    between atoms: _9  and  _10
REMARK    7  A    between atoms: _10  and  _11
REMARK    8  A    between atoms: _11  and  _15
REMARK    9  A    between atoms: _11  and  _16
REMARK   10  A    between atoms: _12  and  _13
REMARK   11  A    between atoms: _12  and  _16
REMARK   12  A    between atoms: _14  and  _15
REMARK   13  A    between atoms: _17  and  _37
REMARK   14  A    between atoms: _19  and  _25
REMARK   15  A    between atoms: _20  and  _24
REMARK   16  A    between atoms: _24  and  _25
REMARK   17  A    between atoms: _27  and  _28
REMARK   18  A    between atoms: _29  and  _30
REMARK   19  A    between atoms: _31  and  _33
REMARK   20  A    between atoms: _33  and  _34
REMARK   21  A    between atoms: _33  and  _35
REMARK   22  A    between atoms: _35  and  _36
REMARK   23  A    between atoms: _35  and  _37
REMARK   24  A    between atoms: _38  and  _40
REMARK                            x       y       z     vdW  Elec       q    Type
REMARK                         _______ _______ _______ _____ _____    ______ ____
ROOT
ATOM      1  C   UNL     1      -0.977   1.545  21.544  0.00  0.00    +0.163 C 
ENDROOT
BRANCH   1   2
ATOM      2  O   UNL     1      -2.062   1.744  22.466  0.00  0.00    -0.388 OA
ATOM      3  H   UNL     1      -1.725   1.731  23.365  0.00  0.00    +0.210 HD
ENDBRANCH   1   2
BRANCH   1   4
ATOM      4  C   UNL     1       0.315   1.167  22.289  0.00  0.00    +0.175 C 
BRANCH   4   5
ATOM      5  C   UNL     1       0.852   2.326  23.141  0.00  0.00    +0.176 C 
ATOM      6  O   UNL     1       0.007   2.444  24.319  0.00  0.00    -0.332 OA
ATOM      7  C   UNL     1       0.433   3.438  25.309  0.00  0.00    +0.277 C 
ATOM      8  C   UNL     1       0.600   4.826  24.643  0.00  0.00    +0.110 C 
ATOM      9  C   UNL     1       1.465   4.747  23.368  0.00  0.00    +0.143 C 
ATOM     10  C   UNL     1       0.934   3.679  22.410  0.00  0.00    +0.133 C 
BRANCH  10  11
ATOM     11  N   UNL     1       1.816   3.553  21.240  0.00  0.00    -0.308 N 
ATOM     12  H   UNL     1       2.743   3.180  21.386  0.00  0.00    +0.149 HD
ATOM     13  C   UNL     1       1.470   3.898  19.996  0.00  0.00    +0.210 C 
ATOM     14  C   UNL     1       0.059   4.487  19.811  0.00  0.00    +0.109 C 
ATOM     15  O   UNL     1       2.225   3.767  19.032  0.00  0.00    -0.276 OA
ENDBRANCH  10  11
BRANCH   7  16
ATOM     16  C   UNL     1       1.764   3.019  25.967  0.00  0.00    +0.414 C 
ATOM     17  O   UNL     1       2.523   3.870  26.429  0.00  0.00    -0.240 OA
ATOM     18  O   UNL     1       2.079   1.830  26.036  0.00  0.00    -0.240 OA
ENDBRANCH   7  16
BRANCH   9  19
ATOM     19  O   UNL     1       1.466   6.013  22.707  0.00  0.00    -0.390 OA
ATOM     20  H   UNL     1       2.336   6.412  22.782  0.00  0.00    +0.210 HD
ENDBRANCH   9  19
BRANCH   7  21
ATOM     21  O   UNL     1      -0.602   3.537  26.320  0.00  0.00    -0.343 OA
ATOM     22  C   UNL     1      -1.229   4.839  26.429  0.00  0.00    +0.198 C 
ENDBRANCH   7  21
ENDBRANCH   4   5
BRANCH   4  23
ATOM     23  O   UNL     1       1.320   0.733  21.351  0.00  0.00    -0.387 OA
ATOM     24  H   UNL     1       2.178   0.723  21.782  0.00  0.00    +0.210 HD
ENDBRANCH   4  23
ENDBRANCH   1   4
BRANCH   1  25
ATOM     25  C   UNL     1      -1.332   0.446  20.549  0.00  0.00    +0.141 C 
BRANCH  25  28
ATOM     26  C   UNL     1      -0.598  -0.327  18.320  0.00  0.00    +0.401 C 
ATOM     27  O   UNL     1      -1.211  -1.395  18.384  0.00  0.00    -0.226 OA
ATOM     28  N   UNL     1      -0.594   0.590  19.288  0.00  0.00    -0.279 N 
ATOM     29  H   UNL     1      -0.053   1.431  19.146  0.00  0.00    +0.152 HD
BRANCH  26  30
ATOM     30  O   UNL     1       0.165  -0.034  17.146  0.00  0.00    -0.444 OA
BRANCH  30  31
ATOM     31  C   UNL     1       0.934   1.152  17.360  0.00  0.00    +0.292 C 
BRANCH  31  33
ATOM     32  N   UNL     1       3.395   1.351  17.168  0.00  0.00    -0.131 NA
ATOM     33  C   UNL     1       2.186   1.090  16.580  0.00  0.00    +0.120 A 
ATOM     34  C   UNL     1       2.387   0.773  15.254  0.00  0.00    +0.137 A 
ATOM     35  N   UNL     1       3.741   0.820  15.108  0.00  0.00    -0.251 N 
ATOM     36  N   UNL     1       4.344   1.174  16.257  0.00  0.00    -0.065 NA
BRANCH  35  37
ATOM     37  C   UNL     1       4.531   0.488  13.939  0.00  0.00    +0.150 C 
BRANCH  37  38
ATOM     38  C   UNL     1       5.837  -0.192  14.317  0.00  0.00    +0.084 C 
BRANCH  38  39
ATOM     39  C   UNL     1       6.364  -1.144  13.237  0.00  0.00    +0.252 C 
BRANCH  39  40
ATOM     40  O   UNL     1       6.511  -2.463  13.770  0.00  0.00    -0.352 OA
BRANCH  40  41
ATOM     41  C   UNL     1       5.934  -3.486  12.962  0.00  0.00    +0.159 C 
ATOM     42  C   UNL     1       4.998  -2.846  11.956  0.00  0.00    +0.034 C 
ENDBRANCH  40  41
ENDBRANCH  39  40
BRANCH  39  43
ATOM     43  O   UNL     1       7.638  -0.649  12.806  0.00  0.00    -0.352 OA
BRANCH  43  44
ATOM     44  C   UNL     1       8.234   0.231  13.762  0.00  0.00    +0.159 C 
ATOM     45  C   UNL     1       9.684   0.460  13.387  0.00  0.00    +0.034 C 
ENDBRANCH  43  44
ENDBRANCH  39  43
ENDBRANCH  38  39
ENDBRANCH  37  38
ENDBRANCH  35  37
ENDBRANCH  31  33
ENDBRANCH  30  31
ENDBRANCH  26  30
ENDBRANCH  25  28
ENDBRANCH   1  25
TORSDOF 20
