REMARK VINA RESULT:    -5.772     13.359     15.309
REMARK INTER + INTRA:         -14.410
REMARK INTER:                 -12.405
REMARK INTRA:                  -2.005
REMARK UNBOUND:                -2.564
REMARK  Name = lig_assembled_74.pdb
REMARK  24 active torsions:
REMARK  status: ('A' for Active; 'I' for Inactive)
REMARK    1  A    between atoms: _2  and  _9
REMARK    2  A    between atoms: _4  and  _22
REMARK    3  A    between atoms: _5  and  _14
REMARK    4  A    between atoms: _6  and  _7
REMARK    5  A    between atoms: _6  and  _22
REMARK    6  A    between atoms: _9  and  _10
REMARK    7  A    between atoms: _10  and  _11
REMARK    8  A    between atoms: _10  and  _13
REMARK    9  A    between atoms: _11  and  _12
REMARK   10  A    between atoms: _12  and  _16
REMARK   11  A    between atoms: _13  and  _14
REMARK   12  A    between atoms: _14  and  _15
REMARK   13  A    between atoms: _18  and  _38
REMARK   14  A    between atoms: _20  and  _26
REMARK   15  A    between atoms: _21  and  _25
REMARK   16  A    between atoms: _25  and  _26
REMARK   17  A    between atoms: _28  and  _29
REMARK   18  A    between atoms: _30  and  _31
REMARK   19  A    between atoms: _32  and  _34
REMARK   20  A    between atoms: _34  and  _35
REMARK   21  A    between atoms: _34  and  _36
REMARK   22  A    between atoms: _36  and  _37
REMARK   23  A    between atoms: _36  and  _38
REMARK   24  A    between atoms: _39  and  _41
REMARK                            x       y       z     vdW  Elec       q    Type
REMARK                         _______ _______ _______ _____ _____    ______ ____
ROOT
ATOM      1  C   UNL     1       6.335   2.145  33.400  0.00  0.00    +0.163 C 
ENDROOT
BRANCH   1   2
ATOM      2  O   UNL     1       6.243   1.712  32.033  0.00  0.00    -0.388 OA
ATOM      3  H   UNL     1       7.034   1.220  31.798  0.00  0.00    +0.210 HD
ENDBRANCH   1   2
BRANCH   1   4
ATOM      4  C   UNL     1       7.396   3.249  33.557  0.00  0.00    +0.175 C 
BRANCH   4   5
ATOM      5  C   UNL     1       7.170   4.091  34.821  0.00  0.00    +0.176 C 
ATOM      6  O   UNL     1       6.874   5.453  34.404  0.00  0.00    -0.332 OA
ATOM      7  C   UNL     1       6.525   6.384  35.481  0.00  0.00    +0.277 C 
ATOM      8  C   UNL     1       7.630   6.397  36.565  0.00  0.00    +0.110 C 
ATOM      9  C   UNL     1       8.001   4.968  37.018  0.00  0.00    +0.143 C 
ATOM     10  C   UNL     1       8.344   4.085  35.818  0.00  0.00    +0.133 C 
BRANCH  10  11
ATOM     11  N   UNL     1       8.611   2.705  36.253  0.00  0.00    -0.308 N 
ATOM     12  H   UNL     1       7.891   2.228  36.778  0.00  0.00    +0.149 HD
ATOM     13  C   UNL     1       9.743   2.042  36.002  0.00  0.00    +0.210 C 
ATOM     14  C   UNL     1      10.831   2.805  35.223  0.00  0.00    +0.109 C 
ATOM     15  O   UNL     1       9.933   0.881  36.366  0.00  0.00    -0.276 OA
ENDBRANCH  10  11
BRANCH   7  16
ATOM     16  C   UNL     1       5.177   5.995  36.124  0.00  0.00    +0.414 C 
ATOM     17  O   UNL     1       4.280   5.508  35.437  0.00  0.00    -0.240 OA
ATOM     18  O   UNL     1       4.987   6.168  37.329  0.00  0.00    -0.240 OA
ENDBRANCH   7  16
BRANCH   9  19
ATOM     19  O   UNL     1       9.123   5.019  37.901  0.00  0.00    -0.390 OA
ATOM     20  H   UNL     1       9.484   5.908  37.909  0.00  0.00    +0.210 HD
ENDBRANCH   9  19
BRANCH   7  21
ATOM     21  O   UNL     1       6.428   7.714  34.911  0.00  0.00    -0.343 OA
ATOM     22  C   UNL     1       7.658   8.225  34.336  0.00  0.00    +0.198 C 
ENDBRANCH   7  21
ENDBRANCH   4   5
BRANCH   4  23
ATOM     23  O   UNL     1       7.407   4.096  32.391  0.00  0.00    -0.387 OA
ATOM     24  H   UNL     1       7.660   3.580  31.622  0.00  0.00    +0.210 HD
ENDBRANCH   4  23
ENDBRANCH   1   4
BRANCH   1  25
ATOM     25  C   UNL     1       4.983   2.666  33.875  0.00  0.00    +0.141 C 
BRANCH  25  28
ATOM     26  C   UNL     1       3.048   3.059  32.389  0.00  0.00    +0.401 C 
ATOM     27  O   UNL     1       2.393   2.114  32.837  0.00  0.00    -0.226 OA
ATOM     28  N   UNL     1       4.270   3.385  32.812  0.00  0.00    -0.279 N 
ATOM     29  H   UNL     1       4.731   4.172  32.376  0.00  0.00    +0.152 HD
BRANCH  26  30
ATOM     30  O   UNL     1       2.484   3.864  31.351  0.00  0.00    -0.444 OA
BRANCH  30  31
ATOM     31  C   UNL     1       1.172   3.390  31.038  0.00  0.00    +0.292 C 
BRANCH  31  33
ATOM     32  N   UNL     1      -0.101   4.052  29.011  0.00  0.00    -0.131 NA
ATOM     33  C   UNL     1       0.952   3.385  29.578  0.00  0.00    +0.120 A 
ATOM     34  C   UNL     1       1.731   2.843  28.578  0.00  0.00    +0.137 A 
ATOM     35  N   UNL     1       1.200   3.371  27.436  0.00  0.00    -0.251 N 
ATOM     36  N   UNL     1       0.046   4.015  27.694  0.00  0.00    -0.065 NA
BRANCH  35  37
ATOM     37  C   UNL     1       1.881   3.576  26.173  0.00  0.00    +0.149 C 
BRANCH  37  38
ATOM     38  C   UNL     1       1.510   2.586  25.048  0.00  0.00    +0.021 C 
BRANCH  38  39
ATOM     39  C   UNL     1       2.687   1.691  24.605  0.00  0.00    +0.125 C 
BRANCH  39  40
ATOM     40  C   UNL     1       2.282   0.358  24.010  0.00  0.00    +0.305 C 
ATOM     41  O   UNL     1       1.141   0.043  23.714  0.00  0.00    -0.251 OA
BRANCH  40  42
ATOM     42  O   UNL     1       3.331  -0.449  23.768  0.00  0.00    -0.481 OA
ATOM     43  H   UNL     1       4.064  -0.389  24.407  0.00  0.00    +0.295 HD
ENDBRANCH  40  42
ENDBRANCH  39  40
ENDBRANCH  38  39
BRANCH  38  44
ATOM     44  C   UNL     1       0.866   3.372  23.868  0.00  0.00    +0.009 C 
BRANCH  44  45
ATOM     45  C   UNL     1       1.850   3.992  22.854  0.00  0.00    -0.017 C 
ATOM     46  C   UNL     1       1.672   3.417  21.448  0.00  0.00    +0.007 C 
ATOM     47  C   UNL     1       1.675   5.514  22.796  0.00  0.00    +0.007 C 
ENDBRANCH  44  45
ENDBRANCH  38  44
ENDBRANCH  37  38
ENDBRANCH  35  37
ENDBRANCH  31  33
ENDBRANCH  30  31
ENDBRANCH  26  30
ENDBRANCH  25  28
ENDBRANCH   1  25
TORSDOF 20
