REMARK VINA RESULT:    -5.862      5.093      8.379
REMARK INTER + INTRA:         -13.025
REMARK INTER:                 -10.143
REMARK INTRA:                  -2.882
REMARK UNBOUND:                -2.536
REMARK  Name = lig_assembled_44.pdb
REMARK  17 active torsions:
REMARK  status: ('A' for Active; 'I' for Inactive)
REMARK    1  A    between atoms: _2  and  _9
REMARK    2  A    between atoms: _4  and  _19
REMARK    3  A    between atoms: _6  and  _7
REMARK    4  A    between atoms: _6  and  _19
REMARK    5  A    between atoms: _9  and  _10
REMARK    6  A    between atoms: _15  and  _35
REMARK    7  A    between atoms: _17  and  _23
REMARK    8  A    between atoms: _18  and  _22
REMARK    9  A    between atoms: _22  and  _23
REMARK   10  A    between atoms: _25  and  _26
REMARK   11  A    between atoms: _27  and  _28
REMARK   12  A    between atoms: _29  and  _31
REMARK   13  A    between atoms: _31  and  _32
REMARK   14  A    between atoms: _31  and  _33
REMARK   15  A    between atoms: _33  and  _34
REMARK   16  A    between atoms: _33  and  _35
REMARK   17  A    between atoms: _36  and  _38
REMARK                            x       y       z     vdW  Elec       q    Type
REMARK                         _______ _______ _______ _____ _____    ______ ____
ROOT
ATOM      1  C   UNL     1       3.001  -0.208  28.801  0.00  0.00    +0.163 C 
ENDROOT
BRANCH   1   2
ATOM      2  O   UNL     1       3.474  -1.421  29.409  0.00  0.00    -0.388 OA
ATOM      3  H   UNL     1       4.116  -1.209  30.091  0.00  0.00    +0.210 HD
ENDBRANCH   1   2
BRANCH   1   4
ATOM      4  C   UNL     1       1.884   0.397  29.645  0.00  0.00    +0.141 C 
BRANCH   4   7
ATOM      5  C   UNL     1       1.470   2.822  29.413  0.00  0.00    +0.401 C 
ATOM      6  O   UNL     1       2.158   3.129  30.389  0.00  0.00    -0.226 OA
ATOM      7  N   UNL     1       1.282   1.569  28.997  0.00  0.00    -0.279 N 
ATOM      8  H   UNL     1       0.693   1.417  28.191  0.00  0.00    +0.152 HD
BRANCH   5   9
ATOM      9  O   UNL     1       0.822   3.857  28.668  0.00  0.00    -0.444 OA
BRANCH   9  10
ATOM     10  C   UNL     1       0.085   3.277  27.588  0.00  0.00    +0.292 C 
BRANCH  10  12
ATOM     11  N   UNL     1      -0.544   5.067  25.992  0.00  0.00    -0.131 NA
ATOM     12  C   UNL     1       0.299   4.047  26.347  0.00  0.00    +0.120 A 
ATOM     13  C   UNL     1       1.289   3.930  25.400  0.00  0.00    +0.137 A 
ATOM     14  N   UNL     1       1.039   4.956  24.537  0.00  0.00    -0.247 N 
ATOM     15  N   UNL     1      -0.086   5.612  24.873  0.00  0.00    -0.065 NA
BRANCH  14  16
ATOM     16  C   UNL     1       1.817   5.370  23.385  0.00  0.00    +0.180 C 
BRANCH  16  17
ATOM     17  C   UNL     1       1.301   4.739  22.114  0.00  0.00    -0.026 A 
ATOM     18  C   UNL     1       1.925   3.604  21.572  0.00  0.00    +0.006 A 
ATOM     19  C   UNL     1       1.455   3.033  20.388  0.00  0.00    +0.015 A 
ATOM     20  C   UNL     1       0.358   3.594  19.737  0.00  0.00    +0.018 A 
ATOM     21 BR   UNL     1      -0.287   2.809  18.143  0.00  0.00    -0.050 Br
ATOM     22  C   UNL     1      -0.266   4.728  20.252  0.00  0.00    +0.015 A 
ATOM     23  C   UNL     1       0.208   5.303  21.436  0.00  0.00    +0.006 A 
ENDBRANCH  16  17
ENDBRANCH  14  16
ENDBRANCH  10  12
ENDBRANCH   9  10
ENDBRANCH   5   9
ENDBRANCH   4   7
ENDBRANCH   1   4
BRANCH   1  24
ATOM     24  C   UNL     1       2.484  -0.472  27.377  0.00  0.00    +0.175 C 
BRANCH  24  25
ATOM     25  C   UNL     1       3.299  -1.556  26.657  0.00  0.00    +0.176 C 
ATOM     26  O   UNL     1       4.698  -1.371  27.009  0.00  0.00    -0.332 OA
ATOM     27  C   UNL     1       5.621  -2.387  26.494  0.00  0.00    +0.277 C 
ATOM     28  C   UNL     1       5.481  -2.516  24.958  0.00  0.00    +0.110 C 
ATOM     29  C   UNL     1       4.007  -2.683  24.532  0.00  0.00    +0.143 C 
ATOM     30  C   UNL     1       3.136  -1.575  25.126  0.00  0.00    +0.133 C 
BRANCH  30  31
ATOM     31  N   UNL     1       1.721  -1.793  24.785  0.00  0.00    -0.308 N 
ATOM     32  H   UNL     1       1.248  -2.577  25.213  0.00  0.00    +0.149 HD
ATOM     33  C   UNL     1       1.021  -1.024  23.947  0.00  0.00    +0.210 C 
ATOM     34  C   UNL     1       1.778   0.146  23.290  0.00  0.00    +0.109 C 
ATOM     35  O   UNL     1      -0.167  -1.222  23.691  0.00  0.00    -0.276 OA
ENDBRANCH  30  31
BRANCH  27  36
ATOM     36  C   UNL     1       5.351  -3.756  27.153  0.00  0.00    +0.414 C 
ATOM     37  O   UNL     1       5.515  -4.795  26.515  0.00  0.00    -0.240 OA
ATOM     38  O   UNL     1       4.969  -3.821  28.323  0.00  0.00    -0.240 OA
ENDBRANCH  27  36
BRANCH  27  39
ATOM     39  O   UNL     1       6.974  -1.958  26.796  0.00  0.00    -0.343 OA
ATOM     40  C   UNL     1       7.967  -2.322  25.804  0.00  0.00    +0.198 C 
ENDBRANCH  27  39
BRANCH  29  41
ATOM     41  O   UNL     1       3.909  -2.646  23.108  0.00  0.00    -0.390 OA
ATOM     42  H   UNL     1       3.854  -1.733  22.814  0.00  0.00    +0.210 HD
ENDBRANCH  29  41
ENDBRANCH  24  25
BRANCH  24  43
ATOM     43  O   UNL     1       2.495   0.749  26.610  0.00  0.00    -0.387 OA
ATOM     44  H   UNL     1       3.282   1.256  26.826  0.00  0.00    +0.210 HD
ENDBRANCH  24  43
ENDBRANCH   1  24
TORSDOF 15
