REMARK VINA RESULT:    -5.743     14.799     16.162
REMARK INTER + INTRA:         -16.189
REMARK INTER:                 -13.314
REMARK INTRA:                  -2.875
REMARK UNBOUND:                -2.725
REMARK  Name = lig_assembled_30.pdb
REMARK  27 active torsions:
REMARK  status: ('A' for Active; 'I' for Inactive)
REMARK    1  A    between atoms: _2  and  _9
REMARK    2  A    between atoms: _4  and  _25
REMARK    3  A    between atoms: _5  and  _18
REMARK    4  A    between atoms: _5  and  _19
REMARK    5  A    between atoms: _6  and  _7
REMARK    6  A    between atoms: _6  and  _25
REMARK    7  A    between atoms: _9  and  _10
REMARK    8  A    between atoms: _10  and  _11
REMARK    9  A    between atoms: _11  and  _12
REMARK   10  A    between atoms: _12  and  _13
REMARK   11  A    between atoms: _13  and  _14
REMARK   12  A    between atoms: _14  and  _15
REMARK   13  A    between atoms: _15  and  _16
REMARK   14  A    between atoms: _16  and  _17
REMARK   15  A    between atoms: _17  and  _18
REMARK   16  A    between atoms: _21  and  _41
REMARK   17  A    between atoms: _23  and  _29
REMARK   18  A    between atoms: _24  and  _28
REMARK   19  A    between atoms: _28  and  _29
REMARK   20  A    between atoms: _31  and  _32
REMARK   21  A    between atoms: _33  and  _34
REMARK   22  A    between atoms: _35  and  _37
REMARK   23  A    between atoms: _37  and  _38
REMARK   24  A    between atoms: _37  and  _39
REMARK   25  A    between atoms: _39  and  _40
REMARK   26  A    between atoms: _39  and  _41
REMARK   27  A    between atoms: _42  and  _44
REMARK                            x       y       z     vdW  Elec       q    Type
REMARK                         _______ _______ _______ _____ _____    ______ ____
ROOT
ATOM      1  C   UNL     1       1.901   3.235  29.256  0.00  0.00    +0.401 C 
ATOM      2  O   UNL     1       0.760   2.826  29.483  0.00  0.00    -0.226 OA
ATOM      3  N   UNL     1       2.885   3.234  30.155  0.00  0.00    -0.279 N 
ATOM      4  H   UNL     1       3.791   3.582  29.872  0.00  0.00    +0.152 HD
ENDROOT
BRANCH   1   5
ATOM      5  O   UNL     1       2.211   3.741  27.955  0.00  0.00    -0.444 OA
BRANCH   5   6
ATOM      6  C   UNL     1       1.394   3.087  26.981  0.00  0.00    +0.292 C 
BRANCH   6   8
ATOM      7  N   UNL     1       0.200   4.853  25.723  0.00  0.00    -0.131 NA
ATOM      8  C   UNL     1       1.225   3.946  25.795  0.00  0.00    +0.120 A 
ATOM      9  C   UNL     1       1.969   4.013  24.638  0.00  0.00    +0.137 A 
ATOM     10  N   UNL     1       1.344   4.977  23.906  0.00  0.00    -0.251 N 
ATOM     11  N   UNL     1       0.283   5.480  24.556  0.00  0.00    -0.065 NA
BRANCH  10  12
ATOM     12  C   UNL     1       1.676   5.436  22.574  0.00  0.00    +0.145 C 
BRANCH  12  13
ATOM     13  C   UNL     1       0.926   4.638  21.513  0.00  0.00    +0.023 C 
BRANCH  13  14
ATOM     14  C   UNL     1       1.878   3.921  20.558  0.00  0.00    +0.002 C 
BRANCH  14  15
ATOM     15  C   UNL     1       1.523   2.438  20.474  0.00  0.00    +0.000 C 
BRANCH  15  16
ATOM     16  C   UNL     1       1.874   1.696  21.761  0.00  0.00    +0.000 C 
BRANCH  16  17
ATOM     17  C   UNL     1       0.609   1.217  22.473  0.00  0.00    +0.000 C 
BRANCH  17  18
ATOM     18  C   UNL     1      -0.506   0.930  21.471  0.00  0.00    +0.000 C 
BRANCH  18  19
ATOM     19  C   UNL     1      -1.888   1.070  22.110  0.00  0.00    +0.001 C 
BRANCH  19  20
ATOM     20  C   UNL     1      -2.847   1.782  21.157  0.00  0.00    +0.011 C 
BRANCH  20  21
ATOM     21  C   UNL     1      -2.338   3.168  20.767  0.00  0.00    +0.120 C 
BRANCH  21  22
ATOM     22  C   UNL     1      -3.460   4.181  20.739  0.00  0.00    +0.305 C 
ATOM     23  O   UNL     1      -3.469   5.244  21.340  0.00  0.00    -0.251 OA
BRANCH  22  24
ATOM     24  O   UNL     1      -4.491   3.786  19.959  0.00  0.00    -0.481 OA
ATOM     25  H   UNL     1      -4.248   3.658  19.023  0.00  0.00    +0.295 HD
ENDBRANCH  22  24
ENDBRANCH  21  22
ENDBRANCH  20  21
ENDBRANCH  19  20
ENDBRANCH  18  19
ENDBRANCH  17  18
ENDBRANCH  16  17
ENDBRANCH  15  16
ENDBRANCH  14  15
ENDBRANCH  13  14
ENDBRANCH  12  13
ENDBRANCH  10  12
ENDBRANCH   6   8
ENDBRANCH   5   6
ENDBRANCH   1   5
BRANCH   3  26
ATOM     26  C   UNL     1       2.728   2.758  31.535  0.00  0.00    +0.141 C 
BRANCH  26  27
ATOM     27  C   UNL     1       3.414   3.680  32.537  0.00  0.00    +0.163 C 
BRANCH  27  28
ATOM     28  O   UNL     1       2.551   3.914  33.662  0.00  0.00    -0.388 OA
ATOM     29  H   UNL     1       1.925   3.190  33.741  0.00  0.00    +0.210 HD
ENDBRANCH  27  28
BRANCH  27  30
ATOM     30  C   UNL     1       4.745   3.052  32.986  0.00  0.00    +0.175 C 
BRANCH  30  31
ATOM     31  C   UNL     1       5.320   3.745  34.231  0.00  0.00    +0.176 C 
ATOM     32  O   UNL     1       5.330   5.177  33.981  0.00  0.00    -0.332 OA
ATOM     33  C   UNL     1       5.752   6.014  35.108  0.00  0.00    +0.277 C 
ATOM     34  C   UNL     1       7.139   5.564  35.627  0.00  0.00    +0.110 C 
ATOM     35  C   UNL     1       7.187   4.042  35.877  0.00  0.00    +0.143 C 
ATOM     36  C   UNL     1       6.726   3.268  34.641  0.00  0.00    +0.133 C 
BRANCH  36  37
ATOM     37  N   UNL     1       6.693   1.824  34.920  0.00  0.00    -0.308 N 
ATOM     38  H   UNL     1       6.022   1.490  35.597  0.00  0.00    +0.149 HD
ATOM     39  C   UNL     1       7.493   0.927  34.338  0.00  0.00    +0.210 C 
ATOM     40  C   UNL     1       8.523   1.472  33.331  0.00  0.00    +0.109 C 
ATOM     41  O   UNL     1       7.433  -0.279  34.581  0.00  0.00    -0.276 OA
ENDBRANCH  36  37
BRANCH  33  42
ATOM     42  C   UNL     1       4.724   5.944  36.257  0.00  0.00    +0.414 C 
ATOM     43  O   UNL     1       3.563   5.605  36.030  0.00  0.00    -0.240 OA
ATOM     44  O   UNL     1       5.055   6.225  37.409  0.00  0.00    -0.240 OA
ENDBRANCH  33  42
BRANCH  35  45
ATOM     45  O   UNL     1       8.521   3.650  36.207  0.00  0.00    -0.390 OA
ATOM     46  H   UNL     1       8.526   3.225  37.067  0.00  0.00    +0.210 HD
ENDBRANCH  35  45
BRANCH  33  47
ATOM     47  O   UNL     1       5.862   7.382  34.635  0.00  0.00    -0.343 OA
ATOM     48  C   UNL     1       7.218   7.851  34.430  0.00  0.00    +0.198 C 
ENDBRANCH  33  47
ENDBRANCH  30  31
BRANCH  30  49
ATOM     49  O   UNL     1       5.702   3.092  31.909  0.00  0.00    -0.387 OA
ATOM     50  H   UNL     1       6.281   2.328  31.966  0.00  0.00    +0.210 HD
ENDBRANCH  30  49
ENDBRANCH  27  30
ENDBRANCH  26  27
ENDBRANCH   3  26
TORSDOF 25
