REMARK VINA RESULT:    -5.989      3.737      9.865
REMARK INTER + INTRA:         -14.969
REMARK INTER:                 -12.983
REMARK INTRA:                  -1.986
REMARK UNBOUND:                -2.852
REMARK  Name = lig_assembled_11.pdb
REMARK  22 active torsions:
REMARK  status: ('A' for Active; 'I' for Inactive)
REMARK    1  A    between atoms: _2  and  _9
REMARK    2  A    between atoms: _4  and  _21
REMARK    3  A    between atoms: _5  and  _9
REMARK    4  A    between atoms: _5  and  _13
REMARK    5  A    between atoms: _6  and  _7
REMARK    6  A    between atoms: _6  and  _21
REMARK    7  A    between atoms: _9  and  _10
REMARK    8  A    between atoms: _10  and  _11
REMARK    9  A    between atoms: _11  and  _12
REMARK   10  A    between atoms: _12  and  _15
REMARK   11  A    between atoms: _17  and  _37
REMARK   12  A    between atoms: _19  and  _25
REMARK   13  A    between atoms: _20  and  _24
REMARK   14  A    between atoms: _24  and  _25
REMARK   15  A    between atoms: _27  and  _28
REMARK   16  A    between atoms: _29  and  _30
REMARK   17  A    between atoms: _31  and  _33
REMARK   18  A    between atoms: _33  and  _34
REMARK   19  A    between atoms: _33  and  _35
REMARK   20  A    between atoms: _35  and  _36
REMARK   21  A    between atoms: _35  and  _37
REMARK   22  A    between atoms: _38  and  _40
REMARK                            x       y       z     vdW  Elec       q    Type
REMARK                         _______ _______ _______ _____ _____    ______ ____
ROOT
ATOM      1  C   UNL     1      16.978   1.756  26.072  0.00  0.00    +0.163 C 
ENDROOT
BRANCH   1   2
ATOM      2  O   UNL     1      16.034   2.565  26.792  0.00  0.00    -0.388 OA
ATOM      3  H   UNL     1      15.148   2.218  26.660  0.00  0.00    +0.210 HD
ENDBRANCH   1   2
BRANCH   1   4
ATOM      4  C   UNL     1      16.487   1.479  24.641  0.00  0.00    +0.175 C 
BRANCH   4   5
ATOM      5  C   UNL     1      17.583   0.853  23.765  0.00  0.00    +0.176 C 
ATOM      6  O   UNL     1      17.563   1.525  22.476  0.00  0.00    -0.332 OA
ATOM      7  C   UNL     1      18.618   1.129  21.538  0.00  0.00    +0.277 C 
ATOM      8  C   UNL     1      18.607  -0.405  21.328  0.00  0.00    +0.110 C 
ATOM      9  C   UNL     1      18.595  -1.164  22.672  0.00  0.00    +0.143 C 
ATOM     10  C   UNL     1      17.460  -0.670  23.571  0.00  0.00    +0.133 C 
BRANCH  10  11
ATOM     11  N   UNL     1      17.512  -1.339  24.881  0.00  0.00    -0.308 N 
ATOM     12  H   UNL     1      18.273  -1.101  25.501  0.00  0.00    +0.149 HD
ATOM     13  C   UNL     1      16.620  -2.238  25.302  0.00  0.00    +0.210 C 
ATOM     14  C   UNL     1      15.487  -2.598  24.323  0.00  0.00    +0.109 C 
ATOM     15  O   UNL     1      16.681  -2.771  26.411  0.00  0.00    -0.276 OA
ENDBRANCH  10  11
BRANCH   7  16
ATOM     16  C   UNL     1      20.004   1.568  22.056  0.00  0.00    +0.414 C 
ATOM     17  O   UNL     1      21.026   1.058  21.600  0.00  0.00    -0.240 OA
ATOM     18  O   UNL     1      20.099   2.432  22.929  0.00  0.00    -0.240 OA
ENDBRANCH   7  16
BRANCH   7  19
ATOM     19  O   UNL     1      18.348   1.767  20.263  0.00  0.00    -0.343 OA
ATOM     20  C   UNL     1      16.956   1.760  19.858  0.00  0.00    +0.198 C 
ENDBRANCH   7  19
BRANCH   9  21
ATOM     21  O   UNL     1      18.432  -2.563  22.434  0.00  0.00    -0.390 OA
ATOM     22  H   UNL     1      17.767  -2.914  23.031  0.00  0.00    +0.210 HD
ENDBRANCH   9  21
ENDBRANCH   4   5
BRANCH   4  23
ATOM     23  O   UNL     1      16.004   2.695  24.037  0.00  0.00    -0.387 OA
ATOM     24  H   UNL     1      16.737   3.169  23.638  0.00  0.00    +0.210 HD
ENDBRANCH   4  23
ENDBRANCH   1   4
BRANCH   1  25
ATOM     25  C   UNL     1      18.332   2.457  26.019  0.00  0.00    +0.141 C 
BRANCH  25  28
ATOM     26  C   UNL     1      19.214   4.765  26.019  0.00  0.00    +0.401 C 
ATOM     27  O   UNL     1      20.383   4.419  26.200  0.00  0.00    -0.226 OA
ATOM     28  N   UNL     1      18.190   3.915  25.928  0.00  0.00    -0.279 N 
ATOM     29  H   UNL     1      17.265   4.296  25.788  0.00  0.00    +0.152 HD
BRANCH  26  30
ATOM     30  O   UNL     1      18.913   6.158  25.900  0.00  0.00    -0.444 OA
BRANCH  30  31
ATOM     31  C   UNL     1      19.965   6.926  26.488  0.00  0.00    +0.292 C 
BRANCH  31  33
ATOM     32  N   UNL     1      19.295   9.104  27.457  0.00  0.00    -0.131 NA
ATOM     33  C   UNL     1      19.445   7.751  27.594  0.00  0.00    +0.120 A 
ATOM     34  C   UNL     1      19.037   7.381  28.855  0.00  0.00    +0.138 A 
ATOM     35  N   UNL     1      18.689   8.557  29.456  0.00  0.00    -0.238 N 
ATOM     36  N   UNL     1      18.819   9.586  28.597  0.00  0.00    -0.065 NA
BRANCH  35  37
ATOM     37  C   UNL     1      18.098   8.811  30.766  0.00  0.00    +0.217 C 
BRANCH  37  38
ATOM     38  C   UNL     1      18.064  10.283  31.149  0.00  0.00    +0.330 C 
ATOM     39  O   UNL     1      18.834  10.840  31.916  0.00  0.00    -0.249 OA
BRANCH  38  40
ATOM     40  O   UNL     1      17.062  10.983  30.560  0.00  0.00    -0.479 OA
ATOM     41  H   UNL     1      17.303  11.818  30.115  0.00  0.00    +0.295 HD
ENDBRANCH  38  40
ENDBRANCH  37  38
BRANCH  37  42
ATOM     42  C   UNL     1      18.725   7.928  31.859  0.00  0.00    +0.049 C 
BRANCH  42  43
ATOM     43  C   UNL     1      17.734   7.031  32.613  0.00  0.00    +0.123 C 
BRANCH  43  44
ATOM     44  C   UNL     1      16.430   7.754  32.861  0.00  0.00    +0.305 C 
ATOM     45  O   UNL     1      16.254   8.595  33.726  0.00  0.00    -0.251 OA
BRANCH  44  46
ATOM     46  O   UNL     1      15.446   7.353  32.026  0.00  0.00    -0.481 OA
ATOM     47  H   UNL     1      14.973   8.079  31.578  0.00  0.00    +0.295 HD
ENDBRANCH  44  46
ENDBRANCH  43  44
ENDBRANCH  42  43
ENDBRANCH  37  42
ENDBRANCH  35  37
ENDBRANCH  31  33
ENDBRANCH  30  31
ENDBRANCH  26  30
ENDBRANCH  25  28
ENDBRANCH   1  25
TORSDOF 20
