REMARK VINA RESULT:    -6.016     21.499     24.218
REMARK INTER + INTRA:         -12.326
REMARK INTER:                 -10.571
REMARK INTRA:                  -1.755
REMARK UNBOUND:                -1.914
REMARK  Name = lig_assembled_56.pdb
REMARK  16 active torsions:
REMARK  status: ('A' for Active; 'I' for Inactive)
REMARK    1  A    between atoms: _2  and  _10
REMARK    2  A    between atoms: _5  and  _18
REMARK    3  A    between atoms: _7  and  _8
REMARK    4  A    between atoms: _7  and  _18
REMARK    5  A    between atoms: _14  and  _34
REMARK    6  A    between atoms: _16  and  _22
REMARK    7  A    between atoms: _17  and  _21
REMARK    8  A    between atoms: _21  and  _22
REMARK    9  A    between atoms: _24  and  _25
REMARK   10  A    between atoms: _26  and  _27
REMARK   11  A    between atoms: _28  and  _30
REMARK   12  A    between atoms: _30  and  _31
REMARK   13  A    between atoms: _30  and  _32
REMARK   14  A    between atoms: _32  and  _33
REMARK   15  A    between atoms: _32  and  _34
REMARK   16  A    between atoms: _35  and  _37
REMARK                            x       y       z     vdW  Elec       q    Type
REMARK                         _______ _______ _______ _____ _____    ______ ____
ROOT
ATOM      1  C   UNL     1      16.757  -1.038  26.302  0.00  0.00    +0.163 C 
ENDROOT
BRANCH   1   2
ATOM      2  O   UNL     1      15.686  -0.896  27.249  0.00  0.00    -0.388 OA
ATOM      3  H   UNL     1      16.031  -0.545  28.073  0.00  0.00    +0.210 HD
ENDBRANCH   1   2
BRANCH   1   4
ATOM      4  C   UNL     1      17.955  -0.202  26.740  0.00  0.00    +0.141 C 
BRANCH   4   7
ATOM      5  C   UNL     1      18.195   2.008  27.818  0.00  0.00    +0.401 C 
ATOM      6  O   UNL     1      19.103   1.647  28.571  0.00  0.00    -0.226 OA
ATOM      7  N   UNL     1      17.597   1.208  26.935  0.00  0.00    -0.279 N 
ATOM      8  H   UNL     1      16.855   1.594  26.367  0.00  0.00    +0.152 HD
BRANCH   5   9
ATOM      9  O   UNL     1      17.738   3.361  27.881  0.00  0.00    -0.444 OA
BRANCH   9  10
ATOM     10  C   UNL     1      18.328   4.115  26.819  0.00  0.00    +0.292 C 
BRANCH  10  12
ATOM     11  N   UNL     1      18.934   5.735  28.588  0.00  0.00    -0.131 NA
ATOM     12  C   UNL     1      18.653   5.479  27.278  0.00  0.00    +0.121 A 
ATOM     13  C   UNL     1      18.737   6.652  26.563  0.00  0.00    +0.143 A 
ATOM     14  N   UNL     1      19.094   7.607  27.487  0.00  0.00    -0.220 N 
ATOM     15  N   UNL     1      19.198   7.029  28.709  0.00  0.00    -0.060 NA
BRANCH  14  16
ATOM     16  C   UNL     1      19.346   8.986  27.288  0.00  0.00    +0.070 A 
ATOM     17  C   UNL     1      18.600   9.959  27.958  0.00  0.00    +0.047 A 
ATOM     18  C   UNL     1      18.889  11.290  27.703  0.00  0.00    +0.113 A 
ATOM     19  N   UNL     1      19.848  11.702  26.848  0.00  0.00    -0.263 NA
ATOM     20  C   UNL     1      20.556  10.742  26.215  0.00  0.00    +0.113 A 
ATOM     21  C   UNL     1      20.348   9.386  26.399  0.00  0.00    +0.047 A 
ENDBRANCH  14  16
ENDBRANCH  10  12
ENDBRANCH   9  10
ENDBRANCH   5   9
ENDBRANCH   4   7
ENDBRANCH   1   4
BRANCH   1  22
ATOM     22  C   UNL     1      16.311  -0.600  24.896  0.00  0.00    +0.175 C 
BRANCH  22  23
ATOM     23  C   UNL     1      17.504  -0.340  23.966  0.00  0.00    +0.176 C 
ATOM     24  O   UNL     1      17.209   0.849  23.182  0.00  0.00    -0.332 OA
ATOM     25  C   UNL     1      18.288   1.315  22.306  0.00  0.00    +0.277 C 
ATOM     26  C   UNL     1      18.756   0.173  21.370  0.00  0.00    +0.110 C 
ATOM     27  C   UNL     1      19.051  -1.122  22.155  0.00  0.00    +0.143 C 
ATOM     28  C   UNL     1      17.864  -1.513  23.035  0.00  0.00    +0.133 C 
BRANCH  28  29
ATOM     29  N   UNL     1      18.190  -2.699  23.843  0.00  0.00    -0.308 N 
ATOM     30  H   UNL     1      19.021  -2.665  24.417  0.00  0.00    +0.149 HD
ATOM     31  C   UNL     1      17.459  -3.817  23.868  0.00  0.00    +0.210 C 
ATOM     32  C   UNL     1      16.213  -3.846  22.963  0.00  0.00    +0.109 C 
ATOM     33  O   UNL     1      17.749  -4.789  24.566  0.00  0.00    -0.276 OA
ENDBRANCH  28  29
BRANCH  25  34
ATOM     34  C   UNL     1      19.485   1.824  23.135  0.00  0.00    +0.414 C 
ATOM     35  O   UNL     1      20.579   2.001  22.601  0.00  0.00    -0.240 OA
ATOM     36  O   UNL     1      19.357   2.058  24.338  0.00  0.00    -0.240 OA
ENDBRANCH  25  34
BRANCH  27  37
ATOM     37  O   UNL     1      19.331  -2.185  21.243  0.00  0.00    -0.390 OA
ATOM     38  H   UNL     1      18.530  -2.691  21.085  0.00  0.00    +0.210 HD
ENDBRANCH  27  37
BRANCH  25  39
ATOM     39  O   UNL     1      17.767   2.393  21.487  0.00  0.00    -0.343 OA
ATOM     40  C   UNL     1      16.789   3.240  22.140  0.00  0.00    +0.198 C 
ENDBRANCH  25  39
ENDBRANCH  22  23
BRANCH  22  41
ATOM     41  O   UNL     1      15.482   0.577  24.983  0.00  0.00    -0.387 OA
ATOM     42  H   UNL     1      14.631   0.399  24.577  0.00  0.00    +0.210 HD
ENDBRANCH  22  41
ENDBRANCH   1  22
TORSDOF 14
