REMARK VINA RESULT:    -6.867      4.418     11.507
REMARK INTER + INTRA:         -16.316
REMARK INTER:                 -13.082
REMARK INTRA:                  -3.234
REMARK UNBOUND:                -2.424
REMARK  Name = lig_assembled_81.pdb
REMARK  22 active torsions:
REMARK  status: ('A' for Active; 'I' for Inactive)
REMARK    1  A    between atoms: _2  and  _12
REMARK    2  A    between atoms: _7  and  _30
REMARK    3  A    between atoms: _8  and  _24
REMARK    4  A    between atoms: _9  and  _10
REMARK    5  A    between atoms: _9  and  _30
REMARK    6  A    between atoms: _14  and  _15
REMARK    7  A    between atoms: _21  and  _22
REMARK    8  A    between atoms: _22  and  _23
REMARK    9  A    between atoms: _23  and  _25
REMARK   10  A    between atoms: _24  and  _25
REMARK   11  A    between atoms: _26  and  _46
REMARK   12  A    between atoms: _28  and  _34
REMARK   13  A    between atoms: _29  and  _33
REMARK   14  A    between atoms: _33  and  _34
REMARK   15  A    between atoms: _36  and  _37
REMARK   16  A    between atoms: _38  and  _39
REMARK   17  A    between atoms: _40  and  _42
REMARK   18  A    between atoms: _42  and  _43
REMARK   19  A    between atoms: _42  and  _44
REMARK   20  A    between atoms: _44  and  _45
REMARK   21  A    between atoms: _44  and  _46
REMARK   22  A    between atoms: _47  and  _49
REMARK                            x       y       z     vdW  Elec       q    Type
REMARK                         _______ _______ _______ _____ _____    ______ ____
ROOT
ATOM      1  C   UNL     1      17.720   1.877  27.317  0.00  0.00    +0.401 C 
ATOM      2  O   UNL     1      16.783   2.676  27.251  0.00  0.00    -0.226 OA
ATOM      3  N   UNL     1      17.597   0.566  27.110  0.00  0.00    -0.279 N 
ATOM      4  H   UNL     1      18.427  -0.008  27.177  0.00  0.00    +0.152 HD
ENDROOT
BRANCH   1   5
ATOM      5  O   UNL     1      19.027   2.365  27.630  0.00  0.00    -0.444 OA
BRANCH   5   6
ATOM      6  C   UNL     1      19.441   3.297  26.628  0.00  0.00    +0.289 C 
BRANCH   6   8
ATOM      7  N   UNL     1      20.933   4.981  27.604  0.00  0.00    -0.130 NA
ATOM      8  C   UNL     1      19.673   4.627  27.229  0.00  0.00    +0.100 C 
ATOM      9  C   UNL     1      18.811   5.660  27.545  0.00  0.00    +0.124 C 
ATOM     10  N   UNL     1      19.637   6.685  27.986  0.00  0.00    -0.187 N 
ATOM     11  N   UNL     1      20.866   6.168  28.182  0.00  0.00    -0.010 NA
BRANCH  10  12
ATOM     12  C   UNL     1      19.263   8.010  28.393  0.00  0.00    +0.150 A 
ATOM     13  C   UNL     1      19.022   8.427  29.725  0.00  0.00    +0.022 A 
ATOM     14  C   UNL     1      18.589   9.776  29.820  0.00  0.00    +0.081 A 
ATOM     15  N   UNL     1      18.366  10.535  28.713  0.00  0.00    -0.214 NA
ATOM     16  C   UNL     1      18.601  10.023  27.517  0.00  0.00    +0.215 A 
ATOM     17  N   UNL     1      18.284  10.775  26.411  0.00  0.00    -0.327 N 
ATOM     18  H   UNL     1      18.245  11.757  26.635  0.00  0.00    +0.145 HD
ATOM     19  H   UNL     1      18.799  10.479  25.596  0.00  0.00    +0.145 HD
ATOM     20  N   UNL     1      19.128   8.831  27.315  0.00  0.00    -0.198 NA
BRANCH  14  21
ATOM     21  C   UNL     1      18.285  10.570  31.071  0.00  0.00    +0.001 A 
ATOM     22  C   UNL     1      17.061  10.550  31.764  0.00  0.00    +0.010 A 
ATOM     23  C   UNL     1      16.842  11.303  32.930  0.00  0.00    +0.001 A 
ATOM     24  C   UNL     1      17.860  12.057  33.482  0.00  0.00    +0.000 A 
ATOM     25  C   UNL     1      19.108  12.066  32.864  0.00  0.00    +0.001 A 
ATOM     26  C   UNL     1      19.303  11.345  31.676  0.00  0.00    +0.010 A 
ENDBRANCH  14  21
BRANCH  13  27
ATOM     27  C   UNL     1      19.271   7.659  31.027  0.00  0.00    +0.069 C 
BRANCH  27  28
ATOM     28  C   UNL     1      18.129   7.022  31.795  0.00  0.00    +0.164 C 
BRANCH  28  29
ATOM     29  O   UNL     1      18.227   5.612  32.024  0.00  0.00    -0.380 OA
BRANCH  29  30
ATOM     30  C   UNL     1      19.455   5.186  31.402  0.00  0.00    +0.156 C 
ATOM     31  C   UNL     1      19.335   3.795  30.823  0.00  0.00    +0.034 C 
ENDBRANCH  29  30
ENDBRANCH  28  29
ENDBRANCH  27  28
ENDBRANCH  13  27
ENDBRANCH  10  12
ENDBRANCH   6   8
ENDBRANCH   5   6
ENDBRANCH   1   5
BRANCH   3  32
ATOM     32  C   UNL     1      16.325  -0.093  26.789  0.00  0.00    +0.141 C 
BRANCH  32  33
ATOM     33  C   UNL     1      16.461  -1.051  25.611  0.00  0.00    +0.163 C 
BRANCH  33  34
ATOM     34  O   UNL     1      15.343  -1.953  25.579  0.00  0.00    -0.388 OA
ATOM     35  H   UNL     1      15.660  -2.854  25.480  0.00  0.00    +0.210 HD
ENDBRANCH  33  34
BRANCH  33  36
ATOM     36  C   UNL     1      16.557  -0.247  24.303  0.00  0.00    +0.175 C 
BRANCH  36  37
ATOM     37  C   UNL     1      17.816  -0.601  23.498  0.00  0.00    +0.176 C 
ATOM     38  O   UNL     1      18.803  -1.135  24.423  0.00  0.00    -0.332 OA
ATOM     39  C   UNL     1      20.041  -1.628  23.814  0.00  0.00    +0.277 C 
ATOM     40  C   UNL     1      20.688  -0.528  22.936  0.00  0.00    +0.110 C 
ATOM     41  C   UNL     1      19.669   0.092  21.958  0.00  0.00    +0.143 C 
ATOM     42  C   UNL     1      18.418   0.569  22.697  0.00  0.00    +0.133 C 
BRANCH  42  43
ATOM     43  N   UNL     1      17.419   1.078  21.745  0.00  0.00    -0.308 N 
ATOM     44  H   UNL     1      16.961   0.411  21.140  0.00  0.00    +0.149 HD
ATOM     45  C   UNL     1      17.078   2.364  21.627  0.00  0.00    +0.210 C 
ATOM     46  C   UNL     1      17.813   3.359  22.545  0.00  0.00    +0.109 C 
ATOM     47  O   UNL     1      16.227   2.760  20.830  0.00  0.00    -0.276 OA
ENDBRANCH  42  43
BRANCH  39  48
ATOM     48  C   UNL     1      19.767  -2.879  22.953  0.00  0.00    +0.414 C 
ATOM     49  O   UNL     1      20.520  -3.171  22.025  0.00  0.00    -0.240 OA
ATOM     50  O   UNL     1      18.794  -3.596  23.187  0.00  0.00    -0.240 OA
ENDBRANCH  39  48
BRANCH  39  51
ATOM     51  O   UNL     1      20.965  -1.963  24.882  0.00  0.00    -0.343 OA
ATOM     52  C   UNL     1      22.133  -1.109  24.971  0.00  0.00    +0.198 C 
ENDBRANCH  39  51
BRANCH  41  53
ATOM     53  O   UNL     1      20.264   1.198  21.279  0.00  0.00    -0.390 OA
ATOM     54  H   UNL     1      19.593   1.858  21.090  0.00  0.00    +0.210 HD
ENDBRANCH  41  53
ENDBRANCH  36  37
BRANCH  36  55
ATOM     55  O   UNL     1      16.528   1.166  24.585  0.00  0.00    -0.387 OA
ATOM     56  H   UNL     1      15.843   1.584  24.059  0.00  0.00    +0.210 HD
ENDBRANCH  36  55
ENDBRANCH  33  36
ENDBRANCH  32  33
ENDBRANCH   3  32
TORSDOF 19
