REMARK VINA RESULT:    -6.346      2.191      3.833
REMARK INTER + INTRA:         -14.742
REMARK INTER:                 -12.482
REMARK INTRA:                  -2.260
REMARK UNBOUND:                -2.090
REMARK  Name = lig_assembled_76.pdb
REMARK  21 active torsions:
REMARK  status: ('A' for Active; 'I' for Inactive)
REMARK    1  A    between atoms: _2  and  _9
REMARK    2  A    between atoms: _4  and  _23
REMARK    3  A    between atoms: _6  and  _7
REMARK    4  A    between atoms: _6  and  _23
REMARK    5  A    between atoms: _9  and  _10
REMARK    6  A    between atoms: _10  and  _11
REMARK    7  A    between atoms: _10  and  _18
REMARK    8  A    between atoms: _11  and  _12
REMARK    9  A    between atoms: _12  and  _13
REMARK   10  A    between atoms: _19  and  _39
REMARK   11  A    between atoms: _21  and  _27
REMARK   12  A    between atoms: _22  and  _26
REMARK   13  A    between atoms: _26  and  _27
REMARK   14  A    between atoms: _29  and  _30
REMARK   15  A    between atoms: _31  and  _32
REMARK   16  A    between atoms: _33  and  _35
REMARK   17  A    between atoms: _35  and  _36
REMARK   18  A    between atoms: _35  and  _37
REMARK   19  A    between atoms: _37  and  _38
REMARK   20  A    between atoms: _37  and  _39
REMARK   21  A    between atoms: _40  and  _42
REMARK                            x       y       z     vdW  Elec       q    Type
REMARK                         _______ _______ _______ _____ _____    ______ ____
ROOT
ATOM      1  C   UNL     1       7.881   2.195  33.704  0.00  0.00    +0.141 C 
ENDROOT
BRANCH   1   4
ATOM      2  C   UNL     1       6.157   0.799  32.615  0.00  0.00    +0.401 C 
ATOM      3  O   UNL     1       5.775   0.284  33.668  0.00  0.00    -0.226 OA
ATOM      4  N   UNL     1       7.140   1.697  32.538  0.00  0.00    -0.279 N 
ATOM      5  H   UNL     1       7.390   2.055  31.627  0.00  0.00    +0.152 HD
BRANCH   2   6
ATOM      6  O   UNL     1       5.527   0.422  31.388  0.00  0.00    -0.444 OA
BRANCH   6   7
ATOM      7  C   UNL     1       4.140   0.166  31.623  0.00  0.00    +0.292 C 
BRANCH   7   9
ATOM      8  N   UNL     1       3.277   2.487  31.497  0.00  0.00    -0.131 NA
ATOM      9  C   UNL     1       3.310   1.210  30.998  0.00  0.00    +0.120 A 
ATOM     10  C   UNL     1       2.473   1.129  29.908  0.00  0.00    +0.137 A 
ATOM     11  N   UNL     1       1.967   2.387  29.794  0.00  0.00    -0.249 N 
ATOM     12  N   UNL     1       2.441   3.199  30.752  0.00  0.00    -0.065 NA
BRANCH  11  13
ATOM     13  C   UNL     1       0.938   2.847  28.889  0.00  0.00    +0.176 C 
BRANCH  13  14
ATOM     14  C   UNL     1       1.181   2.415  27.439  0.00  0.00    +0.136 C 
BRANCH  14  15
ATOM     15  O   UNL     1       0.068   1.647  26.958  0.00  0.00    -0.390 OA
ATOM     16  H   UNL     1       0.304   0.703  26.968  0.00  0.00    +0.210 HD
ENDBRANCH  14  15
BRANCH  14  17
ATOM     17  C   UNL     1       1.358   3.612  26.491  0.00  0.00    +0.038 C 
BRANCH  17  18
ATOM     18  C   UNL     1       2.522   3.449  25.514  0.00  0.00    +0.038 C 
BRANCH  18  19
ATOM     19  C   UNL     1       2.116   3.743  24.093  0.00  0.00    -0.047 A 
ATOM     20  C   UNL     1       1.822   5.056  23.700  0.00  0.00    +0.003 A 
ATOM     21  C   UNL     1       1.463   5.336  22.380  0.00  0.00    +0.000 A 
ATOM     22  C   UNL     1       1.389   4.305  21.445  0.00  0.00    +0.000 A 
ATOM     23  C   UNL     1       1.669   2.995  21.831  0.00  0.00    +0.000 A 
ATOM     24  C   UNL     1       2.027   2.713  23.150  0.00  0.00    +0.003 A 
ENDBRANCH  18  19
ENDBRANCH  17  18
ENDBRANCH  14  17
ENDBRANCH  13  14
ENDBRANCH  11  13
ENDBRANCH   7   9
ENDBRANCH   6   7
ENDBRANCH   2   6
ENDBRANCH   1   4
BRANCH   1  25
ATOM     25  C   UNL     1       7.714   3.700  33.883  0.00  0.00    +0.163 C 
BRANCH  25  26
ATOM     26  O   UNL     1       7.806   4.360  32.610  0.00  0.00    -0.388 OA
ATOM     27  H   UNL     1       8.409   5.104  32.678  0.00  0.00    +0.210 HD
ENDBRANCH  25  26
BRANCH  25  28
ATOM     28  C   UNL     1       6.362   3.990  34.557  0.00  0.00    +0.175 C 
BRANCH  28  29
ATOM     29  C   UNL     1       6.439   5.187  35.516  0.00  0.00    +0.176 C 
ATOM     30  O   UNL     1       7.768   5.203  36.106  0.00  0.00    -0.332 OA
ATOM     31  C   UNL     1       8.062   6.346  36.975  0.00  0.00    +0.277 C 
ATOM     32  C   UNL     1       6.994   6.467  38.090  0.00  0.00    +0.110 C 
ATOM     33  C   UNL     1       5.563   6.423  37.514  0.00  0.00    +0.143 C 
ATOM     34  C   UNL     1       5.367   5.196  36.623  0.00  0.00    +0.133 C 
BRANCH  34  35
ATOM     35  N   UNL     1       4.029   5.212  36.011  0.00  0.00    -0.308 N 
ATOM     36  H   UNL     1       3.847   5.898  35.293  0.00  0.00    +0.149 HD
ATOM     37  C   UNL     1       3.040   4.377  36.343  0.00  0.00    +0.210 C 
ATOM     38  C   UNL     1       3.342   3.360  37.459  0.00  0.00    +0.109 C 
ATOM     39  O   UNL     1       1.934   4.404  35.803  0.00  0.00    -0.276 OA
ENDBRANCH  34  35
BRANCH  31  40
ATOM     40  C   UNL     1       8.109   7.655  36.161  0.00  0.00    +0.414 C 
ATOM     41  O   UNL     1       8.137   8.742  36.735  0.00  0.00    -0.240 OA
ATOM     42  O   UNL     1       8.119   7.624  34.929  0.00  0.00    -0.240 OA
ENDBRANCH  31  40
BRANCH  33  43
ATOM     43  O   UNL     1       4.615   6.385  38.581  0.00  0.00    -0.390 OA
ATOM     44  H   UNL     1       3.983   5.681  38.424  0.00  0.00    +0.210 HD
ENDBRANCH  33  43
BRANCH  31  45
ATOM     45  O   UNL     1       9.351   6.114  37.600  0.00  0.00    -0.343 OA
ATOM     46  C   UNL     1       9.856   4.760  37.477  0.00  0.00    +0.198 C 
ENDBRANCH  31  45
ENDBRANCH  28  29
BRANCH  28  47
ATOM     47  O   UNL     1       5.895   2.821  35.259  0.00  0.00    -0.387 OA
ATOM     48  H   UNL     1       6.638   2.382  35.680  0.00  0.00    +0.210 HD
ENDBRANCH  28  47
ENDBRANCH  25  28
ENDBRANCH   1  25
TORSDOF 19
