REMARK VINA RESULT:    -5.714     15.022     17.868
REMARK INTER + INTRA:         -14.067
REMARK INTER:                 -11.404
REMARK INTRA:                  -2.663
REMARK UNBOUND:                -2.172
REMARK  Name = lig_assembled_54.pdb
REMARK  24 active torsions:
REMARK  status: ('A' for Active; 'I' for Inactive)
REMARK    1  A    between atoms: _2  and  _9
REMARK    2  A    between atoms: _4  and  _21
REMARK    3  A    between atoms: _5  and  _14
REMARK    4  A    between atoms: _6  and  _7
REMARK    5  A    between atoms: _6  and  _21
REMARK    6  A    between atoms: _9  and  _10
REMARK    7  A    between atoms: _10  and  _11
REMARK    8  A    between atoms: _11  and  _15
REMARK    9  A    between atoms: _11  and  _16
REMARK   10  A    between atoms: _12  and  _13
REMARK   11  A    between atoms: _12  and  _16
REMARK   12  A    between atoms: _14  and  _15
REMARK   13  A    between atoms: _17  and  _37
REMARK   14  A    between atoms: _19  and  _25
REMARK   15  A    between atoms: _20  and  _24
REMARK   16  A    between atoms: _24  and  _25
REMARK   17  A    between atoms: _27  and  _28
REMARK   18  A    between atoms: _29  and  _30
REMARK   19  A    between atoms: _31  and  _33
REMARK   20  A    between atoms: _33  and  _34
REMARK   21  A    between atoms: _33  and  _35
REMARK   22  A    between atoms: _35  and  _36
REMARK   23  A    between atoms: _35  and  _37
REMARK   24  A    between atoms: _38  and  _40
REMARK                            x       y       z     vdW  Elec       q    Type
REMARK                         _______ _______ _______ _____ _____    ______ ____
ROOT
ATOM      1  C   UNL     1      18.098  -1.264  22.249  0.00  0.00    +0.163 C 
ENDROOT
BRANCH   1   2
ATOM      2  O   UNL     1      18.945  -2.425  22.266  0.00  0.00    -0.388 OA
ATOM      3  H   UNL     1      18.589  -3.073  22.879  0.00  0.00    +0.210 HD
ENDBRANCH   1   2
BRANCH   1   4
ATOM      4  C   UNL     1      18.003  -0.632  23.649  0.00  0.00    +0.175 C 
BRANCH   4   5
ATOM      5  C   UNL     1      18.046  -1.688  24.763  0.00  0.00    +0.176 C 
ATOM      6  O   UNL     1      17.136  -2.761  24.398  0.00  0.00    -0.332 OA
ATOM      7  C   UNL     1      17.124  -3.916  25.301  0.00  0.00    +0.277 C 
ATOM      8  C   UNL     1      16.844  -3.464  26.755  0.00  0.00    +0.110 C 
ATOM      9  C   UNL     1      17.767  -2.302  27.178  0.00  0.00    +0.143 C 
ATOM     10  C   UNL     1      17.704  -1.156  26.168  0.00  0.00    +0.133 C 
BRANCH  10  11
ATOM     11  N   UNL     1      18.652  -0.093  26.535  0.00  0.00    -0.308 N 
ATOM     12  H   UNL     1      19.636  -0.321  26.546  0.00  0.00    +0.149 HD
ATOM     13  C   UNL     1      18.297   1.154  26.857  0.00  0.00    +0.210 C 
ATOM     14  C   UNL     1      16.788   1.463  26.858  0.00  0.00    +0.109 C 
ATOM     15  O   UNL     1      19.115   2.028  27.147  0.00  0.00    -0.276 OA
ENDBRANCH  10  11
BRANCH   7  16
ATOM     16  C   UNL     1      18.470  -4.668  25.245  0.00  0.00    +0.414 C 
ATOM     17  O   UNL     1      18.921  -5.207  26.254  0.00  0.00    -0.240 OA
ATOM     18  O   UNL     1      19.104  -4.736  24.191  0.00  0.00    -0.240 OA
ENDBRANCH   7  16
BRANCH   9  19
ATOM     19  O   UNL     1      17.374  -1.819  28.463  0.00  0.00    -0.390 OA
ATOM     20  H   UNL     1      18.095  -1.942  29.086  0.00  0.00    +0.210 HD
ENDBRANCH   9  19
BRANCH   7  21
ATOM     21  O   UNL     1      16.053  -4.801  24.882  0.00  0.00    -0.343 OA
ATOM     22  C   UNL     1      15.650  -4.663  23.496  0.00  0.00    +0.198 C 
ENDBRANCH   7  21
ENDBRANCH   4   5
BRANCH   4  23
ATOM     23  O   UNL     1      16.801   0.156  23.757  0.00  0.00    -0.387 OA
ATOM     24  H   UNL     1      16.896   0.958  23.238  0.00  0.00    +0.210 HD
ENDBRANCH   4  23
ENDBRANCH   1   4
BRANCH   1  25
ATOM     25  C   UNL     1      18.642  -0.236  21.262  0.00  0.00    +0.141 C 
BRANCH  25  28
ATOM     26  C   UNL     1      17.310   1.701  20.500  0.00  0.00    +0.401 C 
ATOM     27  O   UNL     1      17.113   1.241  19.373  0.00  0.00    -0.226 OA
ATOM     28  N   UNL     1      18.019   1.081  21.444  0.00  0.00    -0.279 N 
ATOM     29  H   UNL     1      18.133   1.543  22.336  0.00  0.00    +0.152 HD
BRANCH  26  30
ATOM     30  O   UNL     1      16.759   2.977  20.836  0.00  0.00    -0.444 OA
BRANCH  30  31
ATOM     31  C   UNL     1      16.564   3.055  22.250  0.00  0.00    +0.292 C 
BRANCH  31  33
ATOM     32  N   UNL     1      16.989   5.489  22.423  0.00  0.00    -0.131 NA
ATOM     33  C   UNL     1      17.302   4.210  22.799  0.00  0.00    +0.120 A 
ATOM     34  C   UNL     1      18.329   4.248  23.717  0.00  0.00    +0.137 A 
ATOM     35  N   UNL     1      18.570   5.577  23.885  0.00  0.00    -0.251 N 
ATOM     36  N   UNL     1      17.768   6.321  23.102  0.00  0.00    -0.065 NA
BRANCH  35  37
ATOM     37  C   UNL     1      19.491   6.216  24.804  0.00  0.00    +0.150 C 
BRANCH  37  38
ATOM     38  C   UNL     1      18.769   6.808  26.005  0.00  0.00    +0.084 C 
BRANCH  38  39
ATOM     39  C   UNL     1      19.675   7.661  26.901  0.00  0.00    +0.252 C 
BRANCH  39  40
ATOM     40  O   UNL     1      19.928   6.983  28.134  0.00  0.00    -0.352 OA
BRANCH  40  41
ATOM     41  C   UNL     1      18.891   6.088  28.531  0.00  0.00    +0.159 C 
ATOM     42  C   UNL     1      19.487   5.011  29.416  0.00  0.00    +0.034 C 
ENDBRANCH  40  41
ENDBRANCH  39  40
BRANCH  39  43
ATOM     43  O   UNL     1      18.994   8.896  27.156  0.00  0.00    -0.352 OA
BRANCH  43  44
ATOM     44  C   UNL     1      19.895   9.977  27.403  0.00  0.00    +0.159 C 
ATOM     45  C   UNL     1      19.125  11.282  27.372  0.00  0.00    +0.034 C 
ENDBRANCH  43  44
ENDBRANCH  39  43
ENDBRANCH  38  39
ENDBRANCH  37  38
ENDBRANCH  35  37
ENDBRANCH  31  33
ENDBRANCH  30  31
ENDBRANCH  26  30
ENDBRANCH  25  28
ENDBRANCH   1  25
TORSDOF 20
