REMARK VINA RESULT:    -5.609      7.331      9.677
REMARK INTER + INTRA:         -12.284
REMARK INTER:                  -9.352
REMARK INTRA:                  -2.932
REMARK UNBOUND:                -2.248
REMARK  Name = lig_assembled_61.pdb
REMARK  17 active torsions:
REMARK  status: ('A' for Active; 'I' for Inactive)
REMARK    1  A    between atoms: _2  and  _9
REMARK    2  A    between atoms: _4  and  _17
REMARK    3  A    between atoms: _6  and  _7
REMARK    4  A    between atoms: _6  and  _17
REMARK    5  A    between atoms: _9  and  _10
REMARK    6  A    between atoms: _13  and  _33
REMARK    7  A    between atoms: _15  and  _21
REMARK    8  A    between atoms: _16  and  _20
REMARK    9  A    between atoms: _20  and  _21
REMARK   10  A    between atoms: _23  and  _24
REMARK   11  A    between atoms: _25  and  _26
REMARK   12  A    between atoms: _27  and  _29
REMARK   13  A    between atoms: _29  and  _30
REMARK   14  A    between atoms: _29  and  _31
REMARK   15  A    between atoms: _31  and  _32
REMARK   16  A    between atoms: _31  and  _33
REMARK   17  A    between atoms: _34  and  _36
REMARK                            x       y       z     vdW  Elec       q    Type
REMARK                         _______ _______ _______ _____ _____    ______ ____
ROOT
ATOM      1  C   UNL     1       1.818   5.105  23.799  0.00  0.00    +0.163 C 
ENDROOT
BRANCH   1   2
ATOM      2  O   UNL     1       0.671   5.805  24.308  0.00  0.00    -0.388 OA
ATOM      3  H   UNL     1       0.259   5.285  25.002  0.00  0.00    +0.210 HD
ENDBRANCH   1   2
BRANCH   1   4
ATOM      4  C   UNL     1       1.617   4.776  22.324  0.00  0.00    +0.141 C 
BRANCH   4   7
ATOM      5  C   UNL     1      -0.484   3.643  21.684  0.00  0.00    +0.401 C 
ATOM      6  O   UNL     1       0.010   2.513  21.702  0.00  0.00    -0.226 OA
ATOM      7  N   UNL     1       0.196   4.758  21.956  0.00  0.00    -0.279 N 
ATOM      8  H   UNL     1      -0.295   5.639  21.906  0.00  0.00    +0.152 HD
BRANCH   5   9
ATOM      9  O   UNL     1      -1.866   3.791  21.351  0.00  0.00    -0.444 OA
BRANCH   9  10
ATOM     10  C   UNL     1      -2.641   3.873  22.550  0.00  0.00    +0.292 C 
BRANCH  10  12
ATOM     11  N   UNL     1      -2.635   6.348  22.601  0.00  0.00    -0.131 NA
ATOM     12  C   UNL     1      -3.338   5.171  22.625  0.00  0.00    +0.120 A 
ATOM     13  C   UNL     1      -4.683   5.450  22.721  0.00  0.00    +0.137 A 
ATOM     14  N   UNL     1      -4.730   6.810  22.812  0.00  0.00    -0.247 N 
ATOM     15  N   UNL     1      -3.502   7.349  22.698  0.00  0.00    -0.065 NA
BRANCH  14  16
ATOM     16  C   UNL     1      -5.895   7.661  22.968  0.00  0.00    +0.180 C 
BRANCH  16  17
ATOM     17  C   UNL     1      -6.278   8.327  21.676  0.00  0.00    -0.019 A 
ATOM     18  C   UNL     1      -6.722   9.688  21.561  0.00  0.00    +0.013 A 
ATOM     19  C   UNL     1      -7.048  10.036  20.267  0.00  0.00    +0.045 A 
ATOM     20  S   UNL     1      -6.813   8.743  19.178  0.00  0.00    -0.105 S 
ATOM     21  C   UNL     1      -6.288   7.711  20.435  0.00  0.00    +0.050 A 
ENDBRANCH  16  17
ENDBRANCH  14  16
ENDBRANCH  10  12
ENDBRANCH   9  10
ENDBRANCH   5   9
ENDBRANCH   4   7
ENDBRANCH   1   4
BRANCH   1  22
ATOM     22  C   UNL     1       2.063   3.806  24.587  0.00  0.00    +0.175 C 
BRANCH  22  23
ATOM     23  C   UNL     1       0.801   3.327  25.319  0.00  0.00    +0.176 C 
ATOM     24  O   UNL     1       0.739   4.015  26.599  0.00  0.00    -0.332 OA
ATOM     25  C   UNL     1      -0.464   3.761  27.398  0.00  0.00    +0.277 C 
ATOM     26  C   UNL     1      -0.660   2.240  27.611  0.00  0.00    +0.110 C 
ATOM     27  C   UNL     1      -0.570   1.462  26.281  0.00  0.00    +0.143 C 
ATOM     28  C   UNL     1       0.718   1.804  25.531  0.00  0.00    +0.133 C 
BRANCH  28  29
ATOM     29  N   UNL     1       0.751   1.124  24.226  0.00  0.00    -0.308 N 
ATOM     30  H   UNL     1      -0.014   1.293  23.587  0.00  0.00    +0.149 HD
ATOM     31  C   UNL     1       1.724   0.300  23.832  0.00  0.00    +0.210 C 
ATOM     32  C   UNL     1       2.861   0.043  24.839  0.00  0.00    +0.109 C 
ATOM     33  O   UNL     1       1.733  -0.245  22.727  0.00  0.00    -0.276 OA
ENDBRANCH  28  29
BRANCH  25  34
ATOM     34  C   UNL     1      -1.712   4.350  26.709  0.00  0.00    +0.414 C 
ATOM     35  O   UNL     1      -2.805   3.796  26.826  0.00  0.00    -0.240 OA
ATOM     36  O   UNL     1      -1.628   5.379  26.037  0.00  0.00    -0.240 OA
ENDBRANCH  25  34
BRANCH  25  37
ATOM     37  O   UNL     1      -0.282   4.384  28.695  0.00  0.00    -0.343 OA
ATOM     38  C   UNL     1      -1.244   3.990  29.705  0.00  0.00    +0.198 C 
ENDBRANCH  25  37
BRANCH  27  39
ATOM     39  O   UNL     1      -0.605   0.058  26.540  0.00  0.00    -0.390 OA
ATOM     40  H   UNL     1      -0.186  -0.412  25.816  0.00  0.00    +0.210 HD
ENDBRANCH  27  39
ENDBRANCH  22  23
BRANCH  22  41
ATOM     41  O   UNL     1       3.142   3.990  25.525  0.00  0.00    -0.387 OA
ATOM     42  H   UNL     1       3.883   3.434  25.274  0.00  0.00    +0.210 HD
ENDBRANCH  22  41
ENDBRANCH   1  22
TORSDOF 15
