REMARK VINA RESULT:    -5.421     13.975     17.728
REMARK INTER + INTRA:         -13.587
REMARK INTER:                 -11.608
REMARK INTRA:                  -1.979
REMARK UNBOUND:                -3.888
REMARK  Name = lig_assembled_46.pdb
REMARK  17 active torsions:
REMARK  status: ('A' for Active; 'I' for Inactive)
REMARK    1  A    between atoms: _2  and  _9
REMARK    2  A    between atoms: _4  and  _19
REMARK    3  A    between atoms: _6  and  _7
REMARK    4  A    between atoms: _6  and  _19
REMARK    5  A    between atoms: _9  and  _10
REMARK    6  A    between atoms: _15  and  _35
REMARK    7  A    between atoms: _17  and  _23
REMARK    8  A    between atoms: _18  and  _22
REMARK    9  A    between atoms: _22  and  _23
REMARK   10  A    between atoms: _25  and  _26
REMARK   11  A    between atoms: _27  and  _28
REMARK   12  A    between atoms: _29  and  _31
REMARK   13  A    between atoms: _31  and  _32
REMARK   14  A    between atoms: _31  and  _33
REMARK   15  A    between atoms: _33  and  _34
REMARK   16  A    between atoms: _33  and  _35
REMARK   17  A    between atoms: _36  and  _38
REMARK                            x       y       z     vdW  Elec       q    Type
REMARK                         _______ _______ _______ _____ _____    ______ ____
ROOT
ATOM      1  C   UNL     1      17.670   4.893  23.124  0.00  0.00    +0.163 C 
ENDROOT
BRANCH   1   2
ATOM      2  O   UNL     1      17.164   4.721  21.790  0.00  0.00    -0.388 OA
ATOM      3  H   UNL     1      17.461   3.877  21.441  0.00  0.00    +0.210 HD
ENDBRANCH   1   2
BRANCH   1   4
ATOM      4  C   UNL     1      18.379   6.238  23.244  0.00  0.00    +0.141 C 
BRANCH   4   7
ATOM      5  C   UNL     1      18.953   7.290  25.405  0.00  0.00    +0.401 C 
ATOM      6  O   UNL     1      20.163   7.086  25.290  0.00  0.00    -0.226 OA
ATOM      7  N   UNL     1      18.045   6.922  24.500  0.00  0.00    -0.279 N 
ATOM      8  H   UNL     1      17.074   7.125  24.688  0.00  0.00    +0.152 HD
BRANCH   5   9
ATOM      9  O   UNL     1      18.469   7.957  26.574  0.00  0.00    -0.444 OA
BRANCH   9  10
ATOM     10  C   UNL     1      19.334   9.050  26.893  0.00  0.00    +0.292 C 
BRANCH  10  12
ATOM     11  N   UNL     1      17.736  10.349  28.266  0.00  0.00    -0.131 NA
ATOM     12  C   UNL     1      18.924   9.676  28.164  0.00  0.00    +0.120 A 
ATOM     13  C   UNL     1      19.551   9.682  29.391  0.00  0.00    +0.137 A 
ATOM     14  N   UNL     1      18.668  10.323  30.212  0.00  0.00    -0.247 N 
ATOM     15  N   UNL     1      17.583  10.735  29.527  0.00  0.00    -0.065 NA
BRANCH  14  16
ATOM     16  C   UNL     1      18.672  10.355  31.664  0.00  0.00    +0.180 C 
BRANCH  16  17
ATOM     17  C   UNL     1      17.458   9.712  32.289  0.00  0.00    -0.026 A 
ATOM     18  C   UNL     1      16.479  10.489  32.927  0.00  0.00    +0.005 A 
ATOM     19  C   UNL     1      15.312   9.895  33.418  0.00  0.00    +0.000 A 
ATOM     20  C   UNL     1      15.111   8.525  33.273  0.00  0.00    +0.000 A 
ATOM     21  C   UNL     1      16.079   7.742  32.649  0.00  0.00    +0.000 A 
ATOM     22  C   UNL     1      17.246   8.331  32.159  0.00  0.00    +0.005 A 
ENDBRANCH  16  17
ENDBRANCH  14  16
ENDBRANCH  10  12
ENDBRANCH   9  10
ENDBRANCH   5   9
ENDBRANCH   4   7
ENDBRANCH   1   4
BRANCH   1  23
ATOM     23  C   UNL     1      18.646   3.762  23.493  0.00  0.00    +0.175 C 
BRANCH  23  24
ATOM     24  C   UNL     1      17.933   2.579  24.164  0.00  0.00    +0.176 C 
ATOM     25  O   UNL     1      18.557   2.358  25.459  0.00  0.00    -0.332 OA
ATOM     26  C   UNL     1      17.935   1.327  26.295  0.00  0.00    +0.277 C 
ATOM     27  C   UNL     1      17.842  -0.012  25.523  0.00  0.00    +0.110 C 
ATOM     28  C   UNL     1      17.214   0.178  24.126  0.00  0.00    +0.143 C 
ATOM     29  C   UNL     1      17.936   1.276  23.344  0.00  0.00    +0.133 C 
BRANCH  29  30
ATOM     30  N   UNL     1      17.275   1.507  22.051  0.00  0.00    -0.308 N 
ATOM     31  H   UNL     1      16.319   1.835  22.062  0.00  0.00    +0.149 HD
ATOM     32  C   UNL     1      17.855   1.314  20.863  0.00  0.00    +0.210 C 
ATOM     33  C   UNL     1      19.303   0.790  20.880  0.00  0.00    +0.109 C 
ATOM     34  O   UNL     1      17.281   1.530  19.795  0.00  0.00    -0.276 OA
ENDBRANCH  29  30
BRANCH  26  35
ATOM     35  C   UNL     1      16.524   1.763  26.742  0.00  0.00    +0.414 C 
ATOM     36  O   UNL     1      15.564   1.008  26.590  0.00  0.00    -0.240 OA
ATOM     37  O   UNL     1      16.346   2.869  27.253  0.00  0.00    -0.240 OA
ENDBRANCH  26  35
BRANCH  26  38
ATOM     38  O   UNL     1      18.776   1.126  27.460  0.00  0.00    -0.343 OA
ATOM     39  C   UNL     1      18.738  -0.212  28.019  0.00  0.00    +0.198 C 
ENDBRANCH  26  38
BRANCH  28  40
ATOM     40  O   UNL     1      17.286  -1.046  23.394  0.00  0.00    -0.390 OA
ATOM     41  H   UNL     1      17.915  -1.636  23.818  0.00  0.00    +0.210 HD
ENDBRANCH  28  40
ENDBRANCH  23  24
BRANCH  23  42
ATOM     42  O   UNL     1      19.688   4.267  24.351  0.00  0.00    -0.387 OA
ATOM     43  H   UNL     1      20.351   3.585  24.484  0.00  0.00    +0.210 HD
ENDBRANCH  23  42
ENDBRANCH   1  23
TORSDOF 15
