REMARK VINA RESULT:    -6.485      1.762      2.722
REMARK INTER + INTRA:         -15.185
REMARK INTER:                 -13.768
REMARK INTRA:                  -1.417
REMARK UNBOUND:                -3.014
REMARK  Name = lig_assembled_75.pdb
REMARK  19 active torsions:
REMARK  status: ('A' for Active; 'I' for Inactive)
REMARK    1  A    between atoms: _2  and  _9
REMARK    2  A    between atoms: _4  and  _23
REMARK    3  A    between atoms: _6  and  _7
REMARK    4  A    between atoms: _6  and  _23
REMARK    5  A    between atoms: _11  and  _12
REMARK    6  A    between atoms: _13  and  _14
REMARK    7  A    between atoms: _14  and  _17
REMARK    8  A    between atoms: _19  and  _39
REMARK    9  A    between atoms: _21  and  _27
REMARK   10  A    between atoms: _22  and  _26
REMARK   11  A    between atoms: _26  and  _27
REMARK   12  A    between atoms: _29  and  _30
REMARK   13  A    between atoms: _31  and  _32
REMARK   14  A    between atoms: _33  and  _35
REMARK   15  A    between atoms: _35  and  _36
REMARK   16  A    between atoms: _35  and  _37
REMARK   17  A    between atoms: _37  and  _38
REMARK   18  A    between atoms: _37  and  _39
REMARK   19  A    between atoms: _40  and  _42
REMARK                            x       y       z     vdW  Elec       q    Type
REMARK                         _______ _______ _______ _____ _____    ______ ____
ROOT
ATOM      1  C   UNL     1       3.355   3.778  32.422  0.00  0.00    +0.141 C 
ENDROOT
BRANCH   1   4
ATOM      2  C   UNL     1       1.635   4.092  30.676  0.00  0.00    +0.401 C 
ATOM      3  O   UNL     1       1.238   5.168  31.128  0.00  0.00    -0.226 OA
ATOM      4  N   UNL     1       2.616   3.371  31.221  0.00  0.00    -0.279 N 
ATOM      5  H   UNL     1       2.865   2.496  30.782  0.00  0.00    +0.152 HD
BRANCH   2   6
ATOM      6  O   UNL     1       1.019   3.563  29.499  0.00  0.00    -0.444 OA
BRANCH   6   7
ATOM      7  C   UNL     1       1.758   2.427  29.042  0.00  0.00    +0.292 C 
BRANCH   7   9
ATOM      8  N   UNL     1       1.963   1.226  26.890  0.00  0.00    -0.131 NA
ATOM      9  C   UNL     1       1.798   2.399  27.568  0.00  0.00    +0.121 A 
ATOM     10  C   UNL     1       1.693   3.431  26.665  0.00  0.00    +0.143 A 
ATOM     11  N   UNL     1       1.802   2.836  25.430  0.00  0.00    -0.220 N 
ATOM     12  N   UNL     1       1.966   1.499  25.592  0.00  0.00    -0.060 NA
BRANCH  11  13
ATOM     13  C   UNL     1       1.789   3.439  24.146  0.00  0.00    +0.068 A 
ATOM     14  C   UNL     1       1.856   2.624  23.002  0.00  0.00    +0.035 A 
ATOM     15  C   UNL     1       1.913   3.190  21.720  0.00  0.00    -0.023 A 
ATOM     16  C   UNL     1       1.836   4.582  21.596  0.00  0.00    +0.008 A 
ATOM     17  C   UNL     1       1.746   5.396  22.727  0.00  0.00    +0.003 A 
ATOM     18  C   UNL     1       1.731   4.830  24.001  0.00  0.00    +0.028 A 
BRANCH  15  19
ATOM     19  C   UNL     1       2.030   2.374  20.502  0.00  0.00    +0.015 C 
ATOM     20  C   UNL     1       2.243   2.886  19.279  0.00  0.00    +0.092 C 
BRANCH  20  21
ATOM     21  C   UNL     1       2.292   1.989  18.109  0.00  0.00    +0.330 C 
ATOM     22  O   UNL     1       1.518   1.071  17.905  0.00  0.00    -0.246 OA
BRANCH  21  23
ATOM     23  O   UNL     1       3.296   2.311  17.269  0.00  0.00    -0.478 OA
ATOM     24  H   UNL     1       3.323   3.240  16.980  0.00  0.00    +0.295 HD
ENDBRANCH  21  23
ENDBRANCH  20  21
ENDBRANCH  15  19
ENDBRANCH  11  13
ENDBRANCH   7   9
ENDBRANCH   6   7
ENDBRANCH   2   6
ENDBRANCH   1   4
BRANCH   1  25
ATOM     25  C   UNL     1       4.539   2.858  32.701  0.00  0.00    +0.163 C 
BRANCH  25  26
ATOM     26  O   UNL     1       5.718   3.365  32.054  0.00  0.00    -0.388 OA
ATOM     27  H   UNL     1       6.091   2.684  31.488  0.00  0.00    +0.210 HD
ENDBRANCH  25  26
BRANCH  25  28
ATOM     28  C   UNL     1       4.752   2.741  34.220  0.00  0.00    +0.175 C 
BRANCH  28  29
ATOM     29  C   UNL     1       4.831   4.115  34.900  0.00  0.00    +0.176 C 
ATOM     30  O   UNL     1       6.225   4.531  34.907  0.00  0.00    -0.332 OA
ATOM     31  C   UNL     1       6.482   5.878  35.427  0.00  0.00    +0.277 C 
ATOM     32  C   UNL     1       5.882   6.033  36.847  0.00  0.00    +0.110 C 
ATOM     33  C   UNL     1       4.410   5.572  36.896  0.00  0.00    +0.143 C 
ATOM     34  C   UNL     1       4.257   4.161  36.329  0.00  0.00    +0.133 C 
BRANCH  34  35
ATOM     35  N   UNL     1       2.840   3.767  36.301  0.00  0.00    -0.308 N 
ATOM     36  H   UNL     1       2.221   4.276  35.686  0.00  0.00    +0.149 HD
ATOM     37  C   UNL     1       2.318   2.782  37.036  0.00  0.00    +0.210 C 
ATOM     38  C   UNL     1       3.282   2.042  37.983  0.00  0.00    +0.109 C 
ATOM     39  O   UNL     1       1.129   2.464  36.981  0.00  0.00    -0.276 OA
ENDBRANCH  34  35
BRANCH  31  40
ATOM     40  C   UNL     1       5.881   6.949  34.494  0.00  0.00    +0.414 C 
ATOM     41  O   UNL     1       6.334   8.092  34.489  0.00  0.00    -0.240 OA
ATOM     42  O   UNL     1       4.943   6.669  33.746  0.00  0.00    -0.240 OA
ENDBRANCH  31  40
BRANCH  31  43
ATOM     43  O   UNL     1       7.919   6.058  35.516  0.00  0.00    -0.343 OA
ATOM     44  C   UNL     1       8.407   6.448  36.824  0.00  0.00    +0.198 C 
ENDBRANCH  31  43
BRANCH  33  45
ATOM     45  O   UNL     1       3.945   5.589  38.247  0.00  0.00    -0.390 OA
ATOM     46  H   UNL     1       2.993   5.711  38.257  0.00  0.00    +0.210 HD
ENDBRANCH  33  45
ENDBRANCH  28  29
BRANCH  28  47
ATOM     47  O   UNL     1       5.945   1.980  34.496  0.00  0.00    -0.387 OA
ATOM     48  H   UNL     1       5.896   1.618  35.384  0.00  0.00    +0.210 HD
ENDBRANCH  28  47
ENDBRANCH  25  28
ENDBRANCH   1  25
TORSDOF 17
