REMARK VINA RESULT:    -5.534      2.765      5.244
REMARK INTER + INTRA:         -13.055
REMARK INTER:                 -10.257
REMARK INTRA:                  -2.798
REMARK UNBOUND:                -3.800
REMARK  Name = lig_assembled_65.pdb
REMARK  16 active torsions:
REMARK  status: ('A' for Active; 'I' for Inactive)
REMARK    1  A    between atoms: _8  and  _20
REMARK    2  A    between atoms: _9  and  _15
REMARK    3  A    between atoms: _10  and  _11
REMARK    4  A    between atoms: _10  and  _20
REMARK    5  A    between atoms: _16  and  _36
REMARK    6  A    between atoms: _18  and  _24
REMARK    7  A    between atoms: _19  and  _23
REMARK    8  A    between atoms: _23  and  _24
REMARK    9  A    between atoms: _26  and  _27
REMARK   10  A    between atoms: _28  and  _29
REMARK   11  A    between atoms: _30  and  _32
REMARK   12  A    between atoms: _32  and  _33
REMARK   13  A    between atoms: _32  and  _34
REMARK   14  A    between atoms: _34  and  _35
REMARK   15  A    between atoms: _34  and  _36
REMARK   16  A    between atoms: _37  and  _39
REMARK                            x       y       z     vdW  Elec       q    Type
REMARK                         _______ _______ _______ _____ _____    ______ ____
ROOT
ATOM      1  C   UNL     1      19.131   6.355  24.017  0.00  0.00    +0.163 C 
ENDROOT
BRANCH   1   2
ATOM      2  O   UNL     1      17.998   6.310  23.135  0.00  0.00    -0.388 OA
ATOM      3  H   UNL     1      18.219   5.796  22.355  0.00  0.00    +0.210 HD
ENDBRANCH   1   2
BRANCH   1   4
ATOM      4  C   UNL     1      20.186   7.307  23.462  0.00  0.00    +0.141 C 
BRANCH   4   7
ATOM      5  C   UNL     1      21.648   8.462  25.085  0.00  0.00    +0.401 C 
ATOM      6  O   UNL     1      22.558   7.634  24.998  0.00  0.00    -0.226 OA
ATOM      7  N   UNL     1      20.502   8.385  24.408  0.00  0.00    -0.279 N 
ATOM      8  H   UNL     1      19.812   9.109  24.553  0.00  0.00    +0.152 HD
BRANCH   5   9
ATOM      9  O   UNL     1      21.809   9.580  25.961  0.00  0.00    -0.444 OA
BRANCH   9  10
ATOM     10  C   UNL     1      20.652  10.417  25.886  0.00  0.00    +0.292 C 
BRANCH  10  12
ATOM     11  N   UNL     1      19.361  11.502  27.699  0.00  0.00    -0.131 NA
ATOM     12  C   UNL     1      19.897  10.369  27.152  0.00  0.00    +0.121 A 
ATOM     13  C   UNL     1      19.604   9.298  27.961  0.00  0.00    +0.149 A 
ATOM     14  N   UNL     1      18.886   9.831  29.011  0.00  0.00    -0.155 N 
ATOM     15  C   UNL     1      18.359   9.133  30.137  0.00  0.00    +0.416 C 
ATOM     16  N   UNL     1      17.681   9.824  31.060  0.00  0.00    +0.041 NA
ATOM     17  C   UNL     1      17.236   9.106  32.089  0.00  0.00    +0.339 C 
ATOM     18  C   UNL     1      16.481   9.827  33.161  0.00  0.00    +0.149 C 
ATOM     19  N   UNL     1      17.426   7.795  32.234  0.00  0.00    +0.007 NA
ATOM     20  C   UNL     1      18.121   7.209  31.272  0.00  0.00    +0.386 C 
ATOM     21  N   UNL     1      18.351   5.854  31.390  0.00  0.00    -0.296 N 
ATOM     22  H   UNL     1      17.666   5.427  31.998  0.00  0.00    +0.148 HD
ATOM     23  H   UNL     1      18.505   5.428  30.488  0.00  0.00    +0.148 HD
ATOM     24  N   UNL     1      18.592   7.813  30.196  0.00  0.00    -0.290 NA
ATOM     25  N   UNL     1      18.744  11.168  28.827  0.00  0.00    -0.055 NA
ENDBRANCH  10  12
ENDBRANCH   9  10
ENDBRANCH   5   9
ENDBRANCH   4   7
ENDBRANCH   1   4
BRANCH   1  26
ATOM     26  C   UNL     1      19.745   4.956  24.196  0.00  0.00    +0.175 C 
BRANCH  26  27
ATOM     27  C   UNL     1      19.050   4.158  25.308  0.00  0.00    +0.176 C 
ATOM     28  O   UNL     1      20.065   3.742  26.262  0.00  0.00    -0.332 OA
ATOM     29  C   UNL     1      19.569   3.052  27.457  0.00  0.00    +0.277 C 
ATOM     30  C   UNL     1      18.697   1.837  27.057  0.00  0.00    +0.110 C 
ATOM     31  C   UNL     1      17.622   2.224  26.020  0.00  0.00    +0.143 C 
ATOM     32  C   UNL     1      18.248   2.937  24.821  0.00  0.00    +0.133 C 
BRANCH  32  33
ATOM     33  N   UNL     1      17.205   3.377  23.881  0.00  0.00    -0.308 N 
ATOM     34  H   UNL     1      16.554   4.083  24.196  0.00  0.00    +0.149 HD
ATOM     35  C   UNL     1      17.063   2.906  22.639  0.00  0.00    +0.210 C 
ATOM     36  C   UNL     1      18.054   1.813  22.199  0.00  0.00    +0.109 C 
ATOM     37  O   UNL     1      16.188   3.304  21.869  0.00  0.00    -0.276 OA
ENDBRANCH  32  33
BRANCH  29  38
ATOM     38  C   UNL     1      18.742   4.012  28.338  0.00  0.00    +0.414 C 
ATOM     39  O   UNL     1      17.997   3.566  29.210  0.00  0.00    -0.240 OA
ATOM     40  O   UNL     1      18.821   5.230  28.178  0.00  0.00    -0.240 OA
ENDBRANCH  29  38
BRANCH  29  41
ATOM     41  O   UNL     1      20.714   2.567  28.204  0.00  0.00    -0.343 OA
ATOM     42  C   UNL     1      22.004   2.881  27.620  0.00  0.00    +0.198 C 
ENDBRANCH  29  41
BRANCH  31  43
ATOM     43  O   UNL     1      16.944   1.051  25.568  0.00  0.00    -0.390 OA
ATOM     44  H   UNL     1      16.132   0.938  26.067  0.00  0.00    +0.210 HD
ENDBRANCH  31  43
ENDBRANCH  26  27
BRANCH  26  45
ATOM     45  O   UNL     1      21.156   5.064  24.470  0.00  0.00    -0.387 OA
ATOM     46  H   UNL     1      21.329   4.793  25.375  0.00  0.00    +0.210 HD
ENDBRANCH  26  45
ENDBRANCH   1  26
TORSDOF 13
