REMARK VINA RESULT:    -6.557      2.273      3.672
REMARK INTER + INTRA:         -13.608
REMARK INTER:                 -11.932
REMARK INTRA:                  -1.676
REMARK UNBOUND:                -1.875
REMARK  Name = lig_assembled_82.pdb
REMARK  19 active torsions:
REMARK  status: ('A' for Active; 'I' for Inactive)
REMARK    1  A    between atoms: _2  and  _9
REMARK    2  A    between atoms: _4  and  _22
REMARK    3  A    between atoms: _5  and  _16
REMARK    4  A    between atoms: _6  and  _7
REMARK    5  A    between atoms: _6  and  _22
REMARK    6  A    between atoms: _9  and  _10
REMARK    7  A    between atoms: _16  and  _17
REMARK    8  A    between atoms: _18  and  _38
REMARK    9  A    between atoms: _20  and  _26
REMARK   10  A    between atoms: _21  and  _25
REMARK   11  A    between atoms: _25  and  _26
REMARK   12  A    between atoms: _28  and  _29
REMARK   13  A    between atoms: _30  and  _31
REMARK   14  A    between atoms: _32  and  _34
REMARK   15  A    between atoms: _34  and  _35
REMARK   16  A    between atoms: _34  and  _36
REMARK   17  A    between atoms: _36  and  _37
REMARK   18  A    between atoms: _36  and  _38
REMARK   19  A    between atoms: _39  and  _41
REMARK                            x       y       z     vdW  Elec       q    Type
REMARK                         _______ _______ _______ _____ _____    ______ ____
ROOT
ATOM      1  C   UNL     1       6.124   3.037  34.073  0.00  0.00    +0.163 C 
ENDROOT
BRANCH   1   2
ATOM      2  O   UNL     1       5.874   1.642  33.836  0.00  0.00    -0.388 OA
ATOM      3  H   UNL     1       6.641   1.129  34.102  0.00  0.00    +0.210 HD
ENDBRANCH   1   2
BRANCH   1   4
ATOM      4  C   UNL     1       5.075   3.883  33.359  0.00  0.00    +0.141 C 
BRANCH   4   7
ATOM      5  C   UNL     1       3.299   3.324  31.734  0.00  0.00    +0.401 C 
ATOM      6  O   UNL     1       2.432   3.983  32.312  0.00  0.00    -0.226 OA
ATOM      7  N   UNL     1       4.560   3.217  32.156  0.00  0.00    -0.279 N 
ATOM      8  H   UNL     1       5.196   2.645  31.619  0.00  0.00    +0.152 HD
BRANCH   5   9
ATOM      9  O   UNL     1       2.955   2.621  30.537  0.00  0.00    -0.444 OA
BRANCH   9  10
ATOM     10  C   UNL     1       1.818   3.239  29.930  0.00  0.00    +0.292 C 
BRANCH  10  12
ATOM     11  N   UNL     1       1.062   1.642  28.197  0.00  0.00    -0.131 NA
ATOM     12  C   UNL     1       1.680   2.824  28.531  0.00  0.00    +0.120 A 
ATOM     13  C   UNL     1       2.098   3.443  27.366  0.00  0.00    +0.137 A 
ATOM     14  N   UNL     1       1.823   2.531  26.386  0.00  0.00    -0.247 N 
ATOM     15  N   UNL     1       1.121   1.494  26.882  0.00  0.00    -0.065 NA
BRANCH  14  16
ATOM     16  C   UNL     1       2.268   2.530  24.990  0.00  0.00    +0.176 C 
BRANCH  16  17
ATOM     17  C   UNL     1       1.339   3.300  24.085  0.00  0.00    -0.049 C 
ATOM     18  C   UNL     1       1.884   3.787  22.779  0.00  0.00    +0.023 C 
ATOM     19  C   UNL     1       0.920   3.792  21.508  0.00  0.00    -0.025 C 
ATOM     20  C   UNL     1      -0.223   2.852  21.105  0.00  0.00    +0.012 C 
ATOM     21  C   UNL     1       0.314   5.074  22.249  0.00  0.00    -0.000 C 
ATOM     22  C   UNL     1      -0.590   4.750  23.480  0.00  0.00    +0.031 C 
ATOM     23  C   UNL     1       1.894   3.820  20.304  0.00  0.00    +0.012 C 
ATOM     24  C   UNL     1       1.764   5.363  22.721  0.00  0.00    +0.012 C 
ATOM     25  C   UNL     1       0.111   3.758  24.394  0.00  0.00    -0.025 C 
ENDBRANCH  16  17
ENDBRANCH  14  16
ENDBRANCH  10  12
ENDBRANCH   9  10
ENDBRANCH   5   9
ENDBRANCH   4   7
ENDBRANCH   1   4
BRANCH   1  26
ATOM     26  C   UNL     1       7.526   3.436  33.582  0.00  0.00    +0.175 C 
BRANCH  26  27
ATOM     27  C   UNL     1       8.481   3.742  34.745  0.00  0.00    +0.176 C 
ATOM     28  O   UNL     1       8.834   2.480  35.377  0.00  0.00    -0.332 OA
ATOM     29  C   UNL     1       9.829   2.566  36.451  0.00  0.00    +0.277 C 
ATOM     30  C   UNL     1       9.376   3.582  37.528  0.00  0.00    +0.110 C 
ATOM     31  C   UNL     1       8.959   4.929  36.901  0.00  0.00    +0.143 C 
ATOM     32  C   UNL     1       7.924   4.722  35.794  0.00  0.00    +0.133 C 
BRANCH  32  33
ATOM     33  N   UNL     1       7.600   6.003  35.146  0.00  0.00    -0.308 N 
ATOM     34  H   UNL     1       8.295   6.413  34.538  0.00  0.00    +0.149 HD
ATOM     35  C   UNL     1       6.448   6.659  35.310  0.00  0.00    +0.210 C 
ATOM     36  C   UNL     1       5.420   6.021  36.263  0.00  0.00    +0.109 C 
ATOM     37  O   UNL     1       6.198   7.723  34.742  0.00  0.00    -0.276 OA
ENDBRANCH  32  33
BRANCH  29  38
ATOM     38  C   UNL     1      11.203   2.987  35.891  0.00  0.00    +0.414 C 
ATOM     39  O   UNL     1      11.958   3.689  36.563  0.00  0.00    -0.240 OA
ATOM     40  O   UNL     1      11.558   2.625  34.768  0.00  0.00    -0.240 OA
ENDBRANCH  29  38
BRANCH  29  41
ATOM     41  O   UNL     1       9.934   1.258  37.071  0.00  0.00    -0.343 OA
ATOM     42  C   UNL     1       9.276   0.185  36.351  0.00  0.00    +0.198 C 
ENDBRANCH  29  41
BRANCH  31  43
ATOM     43  O   UNL     1       8.408   5.779  37.908  0.00  0.00    -0.390 OA
ATOM     44  H   UNL     1       7.943   6.508  37.492  0.00  0.00    +0.210 HD
ENDBRANCH  31  43
ENDBRANCH  26  27
BRANCH  26  45
ATOM     45  O   UNL     1       7.439   4.572  32.699  0.00  0.00    -0.387 OA
ATOM     46  H   UNL     1       6.517   4.810  32.574  0.00  0.00    +0.210 HD
ENDBRANCH  26  45
ENDBRANCH   1  26
TORSDOF 15
