REMARK VINA RESULT:    -6.530      4.305      6.215
REMARK INTER + INTRA:         -14.292
REMARK INTER:                 -12.014
REMARK INTRA:                  -2.277
REMARK UNBOUND:                -2.608
REMARK  Name = lig_assembled_4.pdb
REMARK  19 active torsions:
REMARK  status: ('A' for Active; 'I' for Inactive)
REMARK    1  A    between atoms: _2  and  _9
REMARK    2  A    between atoms: _4  and  _21
REMARK    3  A    between atoms: _6  and  _7
REMARK    4  A    between atoms: _6  and  _21
REMARK    5  A    between atoms: _10  and  _11
REMARK    6  A    between atoms: _11  and  _12
REMARK    7  A    between atoms: _11  and  _13
REMARK    8  A    between atoms: _17  and  _37
REMARK    9  A    between atoms: _19  and  _25
REMARK   10  A    between atoms: _20  and  _24
REMARK   11  A    between atoms: _24  and  _25
REMARK   12  A    between atoms: _27  and  _28
REMARK   13  A    between atoms: _29  and  _30
REMARK   14  A    between atoms: _31  and  _33
REMARK   15  A    between atoms: _33  and  _34
REMARK   16  A    between atoms: _33  and  _35
REMARK   17  A    between atoms: _35  and  _36
REMARK   18  A    between atoms: _35  and  _37
REMARK   19  A    between atoms: _38  and  _40
REMARK                            x       y       z     vdW  Elec       q    Type
REMARK                         _______ _______ _______ _____ _____    ______ ____
ROOT
ATOM      1  C   UNL     1       7.791   2.403  34.071  0.00  0.00    +0.163 C 
ENDROOT
BRANCH   1   2
ATOM      2  O   UNL     1       8.412   2.661  35.340  0.00  0.00    -0.388 OA
ATOM      3  H   UNL     1       7.885   2.268  36.041  0.00  0.00    +0.210 HD
ENDBRANCH   1   2
BRANCH   1   4
ATOM      4  C   UNL     1       8.569   1.329  33.318  0.00  0.00    +0.141 C 
BRANCH   4   7
ATOM      5  C   UNL     1       6.788  -0.179  32.507  0.00  0.00    +0.401 C 
ATOM      6  O   UNL     1       6.296   0.657  31.746  0.00  0.00    -0.226 OA
ATOM      7  N   UNL     1       7.847   0.052  33.284  0.00  0.00    -0.279 N 
ATOM      8  H   UNL     1       8.172  -0.695  33.882  0.00  0.00    +0.152 HD
BRANCH   5   9
ATOM      9  O   UNL     1       6.200  -1.480  32.582  0.00  0.00    -0.444 OA
BRANCH   9  10
ATOM     10  C   UNL     1       7.098  -2.443  32.022  0.00  0.00    +0.292 C 
BRANCH  10  12
ATOM     11  N   UNL     1       6.375  -4.020  30.267  0.00  0.00    -0.131 NA
ATOM     12  C   UNL     1       6.724  -2.756  30.631  0.00  0.00    +0.121 A 
ATOM     13  C   UNL     1       6.693  -1.942  29.521  0.00  0.00    +0.143 A 
ATOM     14  N   UNL     1       6.442  -2.794  28.463  0.00  0.00    -0.219 N 
ATOM     15  N   UNL     1       6.180  -4.025  28.954  0.00  0.00    -0.060 NA
BRANCH  14  16
ATOM     16  C   UNL     1       6.468  -2.482  27.070  0.00  0.00    +0.070 A 
ATOM     17  C   UNL     1       5.300  -2.204  26.310  0.00  0.00    -0.019 A 
ATOM     18  C   UNL     1       5.467  -1.940  24.932  0.00  0.00    +0.006 A 
ATOM     19  C   UNL     1       6.721  -1.960  24.319  0.00  0.00    +0.000 A 
ATOM     20  C   UNL     1       7.854  -2.225  25.072  0.00  0.00    +0.002 A 
ATOM     21  C   UNL     1       7.731  -2.485  26.436  0.00  0.00    +0.028 A 
BRANCH  17  22
ATOM     22  C   UNL     1       3.882  -2.184  26.885  0.00  0.00    +0.015 C 
ATOM     23  C   UNL     1       2.768  -2.527  25.883  0.00  0.00    +0.012 C 
ATOM     24  C   UNL     1       3.599  -0.824  27.529  0.00  0.00    +0.012 C 
ENDBRANCH  17  22
ENDBRANCH  14  16
ENDBRANCH  10  12
ENDBRANCH   9  10
ENDBRANCH   5   9
ENDBRANCH   4   7
ENDBRANCH   1   4
BRANCH   1  25
ATOM     25  C   UNL     1       7.725   3.683  33.220  0.00  0.00    +0.175 C 
BRANCH  25  26
ATOM     26  C   UNL     1       6.940   4.802  33.919  0.00  0.00    +0.176 C 
ATOM     27  O   UNL     1       7.762   5.315  35.004  0.00  0.00    -0.332 OA
ATOM     28  C   UNL     1       7.215   6.469  35.723  0.00  0.00    +0.277 C 
ATOM     29  C   UNL     1       5.792   6.155  36.248  0.00  0.00    +0.110 C 
ATOM     30  C   UNL     1       4.890   5.577  35.136  0.00  0.00    +0.143 C 
ATOM     31  C   UNL     1       5.558   4.383  34.453  0.00  0.00    +0.133 C 
BRANCH  31  32
ATOM     32  N   UNL     1       4.728   3.897  33.340  0.00  0.00    -0.308 N 
ATOM     33  H   UNL     1       4.638   4.488  32.525  0.00  0.00    +0.149 HD
ATOM     34  C   UNL     1       4.086   2.725  33.335  0.00  0.00    +0.210 C 
ATOM     35  C   UNL     1       4.222   1.860  34.602  0.00  0.00    +0.109 C 
ATOM     36  O   UNL     1       3.409   2.337  32.382  0.00  0.00    -0.276 OA
ENDBRANCH  31  32
BRANCH  28  37
ATOM     37  C   UNL     1       7.165   7.710  34.808  0.00  0.00    +0.414 C 
ATOM     38  O   UNL     1       6.083   8.158  34.430  0.00  0.00    -0.240 OA
ATOM     39  O   UNL     1       8.205   8.263  34.449  0.00  0.00    -0.240 OA
ENDBRANCH  28  37
BRANCH  30  40
ATOM     40  O   UNL     1       3.643   5.162  35.695  0.00  0.00    -0.390 OA
ATOM     41  H   UNL     1       3.008   5.019  34.990  0.00  0.00    +0.210 HD
ENDBRANCH  30  40
BRANCH  28  42
ATOM     42  O   UNL     1       8.073   6.736  36.862  0.00  0.00    -0.343 OA
ATOM     43  C   UNL     1       7.411   7.348  37.998  0.00  0.00    +0.198 C 
ENDBRANCH  28  42
ENDBRANCH  25  26
BRANCH  25  44
ATOM     44  O   UNL     1       7.141   3.395  31.934  0.00  0.00    -0.387 OA
ATOM     45  H   UNL     1       6.185   3.448  31.997  0.00  0.00    +0.210 HD
ENDBRANCH  25  44
ENDBRANCH   1  25
TORSDOF 15
