REMARK VINA RESULT:    -5.471     14.682     18.142
REMARK INTER + INTRA:         -12.523
REMARK INTER:                 -10.612
REMARK INTRA:                  -1.910
REMARK UNBOUND:                -2.094
REMARK  Name = lig_assembled_19.pdb
REMARK  20 active torsions:
REMARK  status: ('A' for Active; 'I' for Inactive)
REMARK    1  A    between atoms: _2  and  _9
REMARK    2  A    between atoms: _4  and  _18
REMARK    3  A    between atoms: _5  and  _11
REMARK    4  A    between atoms: _6  and  _7
REMARK    5  A    between atoms: _6  and  _18
REMARK    6  A    between atoms: _9  and  _10
REMARK    7  A    between atoms: _10  and  _13
REMARK    8  A    between atoms: _11  and  _13
REMARK    9  A    between atoms: _14  and  _34
REMARK   10  A    between atoms: _16  and  _22
REMARK   11  A    between atoms: _17  and  _21
REMARK   12  A    between atoms: _21  and  _22
REMARK   13  A    between atoms: _24  and  _25
REMARK   14  A    between atoms: _26  and  _27
REMARK   15  A    between atoms: _28  and  _30
REMARK   16  A    between atoms: _30  and  _31
REMARK   17  A    between atoms: _30  and  _32
REMARK   18  A    between atoms: _32  and  _33
REMARK   19  A    between atoms: _32  and  _34
REMARK   20  A    between atoms: _35  and  _37
REMARK                            x       y       z     vdW  Elec       q    Type
REMARK                         _______ _______ _______ _____ _____    ______ ____
ROOT
ATOM      1  C   UNL     1      16.552   0.872  26.243  0.00  0.00    +0.163 C 
ENDROOT
BRANCH   1   2
ATOM      2  O   UNL     1      15.417   0.266  26.883  0.00  0.00    -0.388 OA
ATOM      3  H   UNL     1      15.713  -0.259  27.630  0.00  0.00    +0.210 HD
ENDBRANCH   1   2
BRANCH   1   4
ATOM      4  C   UNL     1      16.343   0.962  24.722  0.00  0.00    +0.175 C 
BRANCH   4   5
ATOM      5  C   UNL     1      17.501   0.325  23.940  0.00  0.00    +0.176 C 
ATOM      6  O   UNL     1      17.526   0.920  22.613  0.00  0.00    -0.332 OA
ATOM      7  C   UNL     1      18.640   0.507  21.754  0.00  0.00    +0.277 C 
ATOM      8  C   UNL     1      18.689  -1.036  21.637  0.00  0.00    +0.110 C 
ATOM      9  C   UNL     1      18.633  -1.715  23.022  0.00  0.00    +0.143 C 
ATOM     10  C   UNL     1      17.439  -1.210  23.833  0.00  0.00    +0.133 C 
BRANCH  10  11
ATOM     11  N   UNL     1      17.445  -1.798  25.181  0.00  0.00    -0.308 N 
ATOM     12  H   UNL     1      18.163  -1.494  25.825  0.00  0.00    +0.149 HD
ATOM     13  C   UNL     1      16.566  -2.706  25.611  0.00  0.00    +0.210 C 
ATOM     14  C   UNL     1      15.501  -3.168  24.598  0.00  0.00    +0.109 C 
ATOM     15  O   UNL     1      16.587  -3.171  26.751  0.00  0.00    -0.276 OA
ENDBRANCH  10  11
BRANCH   7  16
ATOM     16  C   UNL     1      19.982   1.025  22.312  0.00  0.00    +0.414 C 
ATOM     17  O   UNL     1      20.962   0.282  22.358  0.00  0.00    -0.240 OA
ATOM     18  O   UNL     1      20.085   2.184  22.715  0.00  0.00    -0.240 OA
ENDBRANCH   7  16
BRANCH   9  19
ATOM     19  O   UNL     1      18.528  -3.130  22.862  0.00  0.00    -0.390 OA
ATOM     20  H   UNL     1      18.823  -3.375  21.982  0.00  0.00    +0.210 HD
ENDBRANCH   9  19
BRANCH   7  21
ATOM     21  O   UNL     1      18.415   1.059  20.432  0.00  0.00    -0.343 OA
ATOM     22  C   UNL     1      17.283   1.958  20.328  0.00  0.00    +0.198 C 
ENDBRANCH   7  21
ENDBRANCH   4   5
BRANCH   4  23
ATOM     23  O   UNL     1      16.173   2.338  24.324  0.00  0.00    -0.387 OA
ATOM     24  H   UNL     1      17.033   2.737  24.176  0.00  0.00    +0.210 HD
ENDBRANCH   4  23
ENDBRANCH   1   4
BRANCH   1  25
ATOM     25  C   UNL     1      16.785   2.269  26.809  0.00  0.00    +0.141 C 
BRANCH  25  28
ATOM     26  C   UNL     1      18.933   3.286  26.129  0.00  0.00    +0.401 C 
ATOM     27  O   UNL     1      18.477   3.785  25.097  0.00  0.00    -0.226 OA
ATOM     28  N   UNL     1      18.214   2.557  26.984  0.00  0.00    -0.279 N 
ATOM     29  H   UNL     1      18.680   2.182  27.799  0.00  0.00    +0.152 HD
BRANCH  26  30
ATOM     30  O   UNL     1      20.313   3.484  26.446  0.00  0.00    -0.444 OA
BRANCH  30  31
ATOM     31  C   UNL     1      20.423   4.133  27.715  0.00  0.00    +0.292 C 
BRANCH  31  33
ATOM     32  N   UNL     1      19.142   6.135  28.418  0.00  0.00    -0.131 NA
ATOM     33  C   UNL     1      20.077   5.561  27.596  0.00  0.00    +0.120 A 
ATOM     34  C   UNL     1      20.562   6.517  26.733  0.00  0.00    +0.137 A 
ATOM     35  N   UNL     1      19.876   7.643  27.073  0.00  0.00    -0.248 N 
ATOM     36  N   UNL     1      19.027   7.414  28.088  0.00  0.00    -0.065 NA
BRANCH  35  37
ATOM     37  C   UNL     1      19.986   8.962  26.488  0.00  0.00    +0.186 C 
BRANCH  37  38
ATOM     38  C   UNL     1      18.889   9.896  26.987  0.00  0.00    +0.255 C 
BRANCH  38  39
ATOM     39  O   UNL     1      19.226  11.285  26.793  0.00  0.00    -0.463 OA
BRANCH  39  40
ATOM     40  C   UNL     1      19.900  11.882  27.811  0.00  0.00    +0.304 C 
ATOM     41  O   UNL     1      19.726  11.645  28.998  0.00  0.00    -0.251 OA
ATOM     42  C   UNL     1      20.913  12.852  27.286  0.00  0.00    +0.136 C 
ENDBRANCH  39  40
ENDBRANCH  38  39
ENDBRANCH  37  38
ENDBRANCH  35  37
ENDBRANCH  31  33
ENDBRANCH  30  31
ENDBRANCH  26  30
ENDBRANCH  25  28
ENDBRANCH   1  25
TORSDOF 17
