REMARK VINA RESULT:    -5.837      7.296     13.149
REMARK INTER + INTRA:         -13.696
REMARK INTER:                 -11.910
REMARK INTRA:                  -1.785
REMARK UNBOUND:                -2.569
REMARK  Name = lig_assembled_18.pdb
REMARK  19 active torsions:
REMARK  status: ('A' for Active; 'I' for Inactive)
REMARK    1  A    between atoms: _2  and  _10
REMARK    2  A    between atoms: _3  and  _12
REMARK    3  A    between atoms: _5  and  _21
REMARK    4  A    between atoms: _7  and  _8
REMARK    5  A    between atoms: _7  and  _21
REMARK    6  A    between atoms: _10  and  _11
REMARK    7  A    between atoms: _12  and  _13
REMARK    8  A    between atoms: _17  and  _37
REMARK    9  A    between atoms: _19  and  _25
REMARK   10  A    between atoms: _20  and  _24
REMARK   11  A    between atoms: _24  and  _25
REMARK   12  A    between atoms: _27  and  _28
REMARK   13  A    between atoms: _29  and  _30
REMARK   14  A    between atoms: _31  and  _33
REMARK   15  A    between atoms: _33  and  _34
REMARK   16  A    between atoms: _33  and  _35
REMARK   17  A    between atoms: _35  and  _36
REMARK   18  A    between atoms: _35  and  _37
REMARK   19  A    between atoms: _38  and  _40
REMARK                            x       y       z     vdW  Elec       q    Type
REMARK                         _______ _______ _______ _____ _____    ______ ____
ROOT
ATOM      1  C   UNL     1       9.940   3.047  35.045  0.00  0.00    +0.163 C 
ENDROOT
BRANCH   1   2
ATOM      2  O   UNL     1       9.856   2.122  33.948  0.00  0.00    -0.388 OA
ATOM      3  H   UNL     1      10.612   2.242  33.368  0.00  0.00    +0.210 HD
ENDBRANCH   1   2
BRANCH   1   4
ATOM      4  C   UNL     1       8.606   3.119  35.807  0.00  0.00    +0.175 C 
BRANCH   4   5
ATOM      5  C   UNL     1       7.758   4.325  35.376  0.00  0.00    +0.176 C 
ATOM      6  O   UNL     1       7.442   5.097  36.567  0.00  0.00    -0.332 OA
ATOM      7  C   UNL     1       6.720   6.353  36.335  0.00  0.00    +0.277 C 
ATOM      8  C   UNL     1       5.429   6.092  35.521  0.00  0.00    +0.110 C 
ATOM      9  C   UNL     1       5.711   5.247  34.261  0.00  0.00    +0.143 C 
ATOM     10  C   UNL     1       6.467   3.966  34.618  0.00  0.00    +0.133 C 
BRANCH  10  11
ATOM     11  N   UNL     1       6.806   3.212  33.400  0.00  0.00    -0.308 N 
ATOM     12  H   UNL     1       7.339   3.687  32.685  0.00  0.00    +0.149 HD
ATOM     13  C   UNL     1       6.455   1.943  33.179  0.00  0.00    +0.210 C 
ATOM     14  C   UNL     1       5.620   1.257  34.277  0.00  0.00    +0.109 C 
ATOM     15  O   UNL     1       6.765   1.332  32.156  0.00  0.00    -0.276 OA
ENDBRANCH  10  11
BRANCH   7  16
ATOM     16  C   UNL     1       7.610   7.363  35.582  0.00  0.00    +0.414 C 
ATOM     17  O   UNL     1       8.819   7.412  35.805  0.00  0.00    -0.240 OA
ATOM     18  O   UNL     1       7.119   8.129  34.751  0.00  0.00    -0.240 OA
ENDBRANCH   7  16
BRANCH   7  19
ATOM     19  O   UNL     1       6.345   6.900  37.626  0.00  0.00    -0.343 OA
ATOM     20  C   UNL     1       7.456   7.265  38.482  0.00  0.00    +0.198 C 
ENDBRANCH   7  19
BRANCH   9  21
ATOM     21  O   UNL     1       4.479   4.904  33.626  0.00  0.00    -0.390 OA
ATOM     22  H   UNL     1       4.657   4.378  32.843  0.00  0.00    +0.210 HD
ENDBRANCH   9  21
ENDBRANCH   4   5
BRANCH   4  23
ATOM     23  O   UNL     1       8.848   3.165  37.228  0.00  0.00    -0.387 OA
ATOM     24  H   UNL     1       9.212   2.325  37.518  0.00  0.00    +0.210 HD
ENDBRANCH   4  23
ENDBRANCH   1   4
BRANCH   1  25
ATOM     25  C   UNL     1      11.051   2.624  36.000  0.00  0.00    +0.141 C 
BRANCH  25  28
ATOM     26  C   UNL     1      13.147   3.737  35.310  0.00  0.00    +0.401 C 
ATOM     27  O   UNL     1      13.368   2.955  34.383  0.00  0.00    -0.226 OA
ATOM     28  N   UNL     1      12.091   3.653  36.121  0.00  0.00    -0.279 N 
ATOM     29  H   UNL     1      12.001   4.337  36.860  0.00  0.00    +0.152 HD
BRANCH  26  30
ATOM     30  O   UNL     1      14.067   4.804  35.553  0.00  0.00    -0.444 OA
BRANCH  30  31
ATOM     31  C   UNL     1      15.281   4.560  34.838  0.00  0.00    +0.292 C 
BRANCH  31  33
ATOM     32  N   UNL     1      14.974   6.931  34.182  0.00  0.00    -0.131 NA
ATOM     33  C   UNL     1      15.702   5.773  34.112  0.00  0.00    +0.120 A 
ATOM     34  C   UNL     1      16.793   5.979  33.299  0.00  0.00    +0.137 A 
ATOM     35  N   UNL     1      16.690   7.287  32.928  0.00  0.00    -0.242 N 
ATOM     36  N   UNL     1      15.582   7.850  33.444  0.00  0.00    -0.065 NA
BRANCH  35  37
ATOM     37  C   UNL     1      17.517   8.031  32.009  0.00  0.00    +0.240 C 
BRANCH  37  38
ATOM     38  C   UNL     1      17.360   9.525  32.178  0.00  0.00    +0.235 C 
ATOM     39  O   UNL     1      17.047  10.259  31.243  0.00  0.00    -0.274 OA
ATOM     40  N   UNL     1      17.534   9.992  33.466  0.00  0.00    -0.309 N 
ATOM     41  H   UNL     1      17.948   9.398  34.170  0.00  0.00    +0.149 HD
BRANCH  40  42
ATOM     42  C   UNL     1      17.399  11.398  33.784  0.00  0.00    +0.146 C 
BRANCH  42  43
ATOM     43  C   UNL     1      17.107  11.557  35.242  0.00  0.00    +0.007 A 
ATOM     44  S   UNL     1      17.806  12.839  36.139  0.00  0.00    -0.100 S 
ATOM     45  C   UNL     1      17.083  12.302  37.593  0.00  0.00    +0.045 A 
ATOM     46  C   UNL     1      16.309  11.178  37.403  0.00  0.00    +0.008 A 
ATOM     47  C   UNL     1      16.318  10.753  36.042  0.00  0.00    +0.013 A 
ENDBRANCH  42  43
ENDBRANCH  40  42
ENDBRANCH  37  38
ENDBRANCH  35  37
ENDBRANCH  31  33
ENDBRANCH  30  31
ENDBRANCH  26  30
ENDBRANCH  25  28
ENDBRANCH   1  25
TORSDOF 17
