REMARK VINA RESULT:    -6.350      2.082      3.915
REMARK INTER + INTRA:         -14.750
REMARK INTER:                 -12.511
REMARK INTRA:                  -2.239
REMARK UNBOUND:                -2.090
REMARK  Name = lig_assembled_76.pdb
REMARK  21 active torsions:
REMARK  status: ('A' for Active; 'I' for Inactive)
REMARK    1  A    between atoms: _2  and  _9
REMARK    2  A    between atoms: _4  and  _23
REMARK    3  A    between atoms: _6  and  _7
REMARK    4  A    between atoms: _6  and  _23
REMARK    5  A    between atoms: _9  and  _10
REMARK    6  A    between atoms: _10  and  _11
REMARK    7  A    between atoms: _10  and  _18
REMARK    8  A    between atoms: _11  and  _12
REMARK    9  A    between atoms: _12  and  _13
REMARK   10  A    between atoms: _19  and  _39
REMARK   11  A    between atoms: _21  and  _27
REMARK   12  A    between atoms: _22  and  _26
REMARK   13  A    between atoms: _26  and  _27
REMARK   14  A    between atoms: _29  and  _30
REMARK   15  A    between atoms: _31  and  _32
REMARK   16  A    between atoms: _33  and  _35
REMARK   17  A    between atoms: _35  and  _36
REMARK   18  A    between atoms: _35  and  _37
REMARK   19  A    between atoms: _37  and  _38
REMARK   20  A    between atoms: _37  and  _39
REMARK   21  A    between atoms: _40  and  _42
REMARK                            x       y       z     vdW  Elec       q    Type
REMARK                         _______ _______ _______ _____ _____    ______ ____
ROOT
ATOM      1  C   UNL     1       5.836   2.500  32.687  0.00  0.00    +0.141 C 
ENDROOT
BRANCH   1   4
ATOM      2  C   UNL     1       3.539   3.412  32.671  0.00  0.00    +0.401 C 
ATOM      3  O   UNL     1       3.125   2.638  33.537  0.00  0.00    -0.226 OA
ATOM      4  N   UNL     1       4.790   3.413  32.209  0.00  0.00    -0.279 N 
ATOM      5  H   UNL     1       5.033   4.081  31.490  0.00  0.00    +0.152 HD
BRANCH   2   6
ATOM      6  O   UNL     1       2.640   4.371  32.109  0.00  0.00    -0.444 OA
BRANCH   6   7
ATOM      7  C   UNL     1       1.401   3.733  31.787  0.00  0.00    +0.292 C 
BRANCH   7   9
ATOM      8  N   UNL     1       2.468   2.618  29.847  0.00  0.00    -0.131 NA
ATOM      9  C   UNL     1       1.400   3.291  30.382  0.00  0.00    +0.120 A 
ATOM     10  C   UNL     1       0.437   3.455  29.412  0.00  0.00    +0.137 A 
ATOM     11  N   UNL     1       0.976   2.857  28.315  0.00  0.00    -0.249 N 
ATOM     12  N   UNL     1       2.199   2.364  28.573  0.00  0.00    -0.065 NA
BRANCH  11  13
ATOM     13  C   UNL     1       0.448   2.836  26.970  0.00  0.00    +0.176 C 
BRANCH  13  14
ATOM     14  C   UNL     1       0.998   3.966  26.094  0.00  0.00    +0.136 C 
BRANCH  14  15
ATOM     15  O   UNL     1       2.430   4.005  26.179  0.00  0.00    -0.390 OA
ATOM     16  H   UNL     1       2.698   4.794  26.680  0.00  0.00    +0.210 HD
ENDBRANCH  14  15
BRANCH  14  17
ATOM     17  C   UNL     1       0.629   3.794  24.612  0.00  0.00    +0.038 C 
BRANCH  17  18
ATOM     18  C   UNL     1       1.078   4.961  23.733  0.00  0.00    +0.038 C 
BRANCH  18  19
ATOM     19  C   UNL     1       0.909   4.665  22.266  0.00  0.00    -0.047 A 
ATOM     20  C   UNL     1       1.904   3.967  21.566  0.00  0.00    +0.003 A 
ATOM     21  C   UNL     1       1.743   3.675  20.211  0.00  0.00    +0.000 A 
ATOM     22  C   UNL     1       0.590   4.081  19.543  0.00  0.00    +0.000 A 
ATOM     23  C   UNL     1      -0.400   4.785  20.228  0.00  0.00    +0.000 A 
ATOM     24  C   UNL     1      -0.240   5.080  21.583  0.00  0.00    +0.003 A 
ENDBRANCH  18  19
ENDBRANCH  17  18
ENDBRANCH  14  17
ENDBRANCH  13  14
ENDBRANCH  11  13
ENDBRANCH   7   9
ENDBRANCH   6   7
ENDBRANCH   2   6
ENDBRANCH   1   4
BRANCH   1  25
ATOM     25  C   UNL     1       6.455   2.980  33.996  0.00  0.00    +0.163 C 
BRANCH  25  26
ATOM     26  O   UNL     1       6.512   1.898  34.939  0.00  0.00    -0.388 OA
ATOM     27  H   UNL     1       6.547   1.063  34.467  0.00  0.00    +0.210 HD
ENDBRANCH  25  26
BRANCH  25  28
ATOM     28  C   UNL     1       7.859   3.547  33.722  0.00  0.00    +0.175 C 
BRANCH  28  29
ATOM     29  C   UNL     1       8.564   3.991  35.012  0.00  0.00    +0.176 C 
ATOM     30  O   UNL     1       8.932   2.796  35.755  0.00  0.00    -0.332 OA
ATOM     31  C   UNL     1       9.714   3.023  36.974  0.00  0.00    +0.277 C 
ATOM     32  C   UNL     1       8.982   4.017  37.909  0.00  0.00    +0.110 C 
ATOM     33  C   UNL     1       8.543   5.290  37.156  0.00  0.00    +0.143 C 
ATOM     34  C   UNL     1       7.740   4.937  35.904  0.00  0.00    +0.133 C 
BRANCH  34  35
ATOM     35  N   UNL     1       7.402   6.154  35.149  0.00  0.00    -0.308 N 
ATOM     36  H   UNL     1       8.154   6.649  34.691  0.00  0.00    +0.149 HD
ATOM     37  C   UNL     1       6.166   6.647  35.029  0.00  0.00    +0.210 C 
ATOM     38  C   UNL     1       5.045   5.884  35.760  0.00  0.00    +0.109 C 
ATOM     39  O   UNL     1       5.910   7.660  34.378  0.00  0.00    -0.276 OA
ENDBRANCH  34  35
BRANCH  31  40
ATOM     40  C   UNL     1      11.114   3.574  36.631  0.00  0.00    +0.414 C 
ATOM     41  O   UNL     1      11.640   4.423  37.350  0.00  0.00    -0.240 OA
ATOM     42  O   UNL     1      11.717   3.170  35.636  0.00  0.00    -0.240 OA
ENDBRANCH  31  40
BRANCH  33  43
ATOM     43  O   UNL     1       7.744   6.106  38.014  0.00  0.00    -0.390 OA
ATOM     44  H   UNL     1       8.007   5.965  38.927  0.00  0.00    +0.210 HD
ENDBRANCH  33  43
BRANCH  31  45
ATOM     45  O   UNL     1       9.845   1.755  37.666  0.00  0.00    -0.343 OA
ATOM     46  C   UNL     1       9.254   0.621  36.983  0.00  0.00    +0.198 C 
ENDBRANCH  31  45
ENDBRANCH  28  29
BRANCH  28  47
ATOM     47  O   UNL     1       7.779   4.648  32.795  0.00  0.00    -0.387 OA
ATOM     48  H   UNL     1       7.578   4.314  31.918  0.00  0.00    +0.210 HD
ENDBRANCH  28  47
ENDBRANCH  25  28
ENDBRANCH   1  25
TORSDOF 19
