REMARK VINA RESULT:    -5.533      1.844      2.372
REMARK INTER + INTRA:         -13.673
REMARK INTER:                 -11.956
REMARK INTRA:                  -1.718
REMARK UNBOUND:                -3.450
REMARK  Name = lig_assembled_66.pdb
REMARK  18 active torsions:
REMARK  status: ('A' for Active; 'I' for Inactive)
REMARK    1  A    between atoms: _2  and  _10
REMARK    2  A    between atoms: _5  and  _21
REMARK    3  A    between atoms: _7  and  _8
REMARK    4  A    between atoms: _7  and  _21
REMARK    5  A    between atoms: _10  and  _11
REMARK    6  A    between atoms: _15  and  _16
REMARK    7  A    between atoms: _17  and  _37
REMARK    8  A    between atoms: _19  and  _25
REMARK    9  A    between atoms: _20  and  _24
REMARK   10  A    between atoms: _24  and  _25
REMARK   11  A    between atoms: _27  and  _28
REMARK   12  A    between atoms: _29  and  _30
REMARK   13  A    between atoms: _31  and  _33
REMARK   14  A    between atoms: _33  and  _34
REMARK   15  A    between atoms: _33  and  _35
REMARK   16  A    between atoms: _35  and  _36
REMARK   17  A    between atoms: _35  and  _37
REMARK   18  A    between atoms: _38  and  _40
REMARK                            x       y       z     vdW  Elec       q    Type
REMARK                         _______ _______ _______ _____ _____    ______ ____
ROOT
ATOM      1  C   UNL     1       3.542   2.733  32.574  0.00  0.00    +0.163 C 
ENDROOT
BRANCH   1   2
ATOM      2  O   UNL     1       4.224   3.648  31.700  0.00  0.00    -0.388 OA
ATOM      3  H   UNL     1       4.737   3.154  31.056  0.00  0.00    +0.210 HD
ENDBRANCH   1   2
BRANCH   1   4
ATOM      4  C   UNL     1       4.444   2.321  33.750  0.00  0.00    +0.175 C 
BRANCH   4   5
ATOM      5  C   UNL     1       5.742   1.651  33.275  0.00  0.00    +0.176 C 
ATOM      6  O   UNL     1       5.714   0.263  33.709  0.00  0.00    -0.332 OA
ATOM      7  C   UNL     1       6.833  -0.567  33.252  0.00  0.00    +0.277 C 
ATOM      8  C   UNL     1       8.183   0.078  33.650  0.00  0.00    +0.110 C 
ATOM      9  C   UNL     1       8.248   1.564  33.238  0.00  0.00    +0.143 C 
ATOM     10  C   UNL     1       7.035   2.333  33.763  0.00  0.00    +0.133 C 
BRANCH  10  11
ATOM     11  N   UNL     1       7.063   3.726  33.290  0.00  0.00    -0.308 N 
ATOM     12  H   UNL     1       6.961   3.890  32.299  0.00  0.00    +0.149 HD
ATOM     13  C   UNL     1       7.216   4.787  34.086  0.00  0.00    +0.210 C 
ATOM     14  C   UNL     1       7.396   4.502  35.589  0.00  0.00    +0.109 C 
ATOM     15  O   UNL     1       7.222   5.944  33.664  0.00  0.00    -0.276 OA
ENDBRANCH  10  11
BRANCH   7  16
ATOM     16  C   UNL     1       6.783  -0.757  31.722  0.00  0.00    +0.414 C 
ATOM     17  O   UNL     1       5.767  -0.465  31.093  0.00  0.00    -0.240 OA
ATOM     18  O   UNL     1       7.759  -1.202  31.116  0.00  0.00    -0.240 OA
ENDBRANCH   7  16
BRANCH   7  19
ATOM     19  O   UNL     1       6.732  -1.857  33.908  0.00  0.00    -0.343 OA
ATOM     20  C   UNL     1       5.499  -2.077  34.639  0.00  0.00    +0.198 C 
ENDBRANCH   7  19
BRANCH   9  21
ATOM     21  O   UNL     1       9.440   2.156  33.755  0.00  0.00    -0.390 OA
ATOM     22  H   UNL     1       9.515   1.960  34.692  0.00  0.00    +0.210 HD
ENDBRANCH   9  21
ENDBRANCH   4   5
BRANCH   4  23
ATOM     23  O   UNL     1       3.728   1.441  34.640  0.00  0.00    -0.387 OA
ATOM     24  H   UNL     1       4.355   0.943  35.170  0.00  0.00    +0.210 HD
ENDBRANCH   4  23
ENDBRANCH   1   4
BRANCH   1  25
ATOM     25  C   UNL     1       2.268   3.376  33.111  0.00  0.00    +0.141 C 
BRANCH  25  28
ATOM     26  C   UNL     1       0.799   4.055  31.243  0.00  0.00    +0.401 C 
ATOM     27  O   UNL     1       1.398   5.112  31.032  0.00  0.00    -0.226 OA
ATOM     28  N   UNL     1       1.133   3.186  32.198  0.00  0.00    -0.279 N 
ATOM     29  H   UNL     1       0.574   2.350  32.300  0.00  0.00    +0.152 HD
BRANCH  26  30
ATOM     30  O   UNL     1      -0.329   3.721  30.430  0.00  0.00    -0.444 OA
BRANCH  30  31
ATOM     31  C   UNL     1      -0.009   2.594  29.609  0.00  0.00    +0.292 C 
BRANCH  31  33
ATOM     32  N   UNL     1      -0.170   4.063  27.620  0.00  0.00    -0.131 NA
ATOM     33  C   UNL     1       0.457   3.041  28.281  0.00  0.00    +0.120 A 
ATOM     34  C   UNL     1       1.527   2.609  27.529  0.00  0.00    +0.137 A 
ATOM     35  N   UNL     1       1.531   3.445  26.450  0.00  0.00    -0.247 N 
ATOM     36  N   UNL     1       0.497   4.305  26.499  0.00  0.00    -0.065 NA
BRANCH  35  37
ATOM     37  C   UNL     1       2.606   3.646  25.496  0.00  0.00    +0.180 C 
BRANCH  37  38
ATOM     38  C   UNL     1       2.120   3.863  24.086  0.00  0.00    -0.025 A 
ATOM     39  C   UNL     1       1.899   5.161  23.603  0.00  0.00    +0.005 A 
ATOM     40  C   UNL     1       1.530   5.375  22.273  0.00  0.00    +0.002 A 
ATOM     41  C   UNL     1       1.357   4.291  21.413  0.00  0.00    +0.019 A 
ATOM     42  C   UNL     1       1.538   2.988  21.887  0.00  0.00    +0.052 A 
ATOM     43  C   UNL     1       1.920   2.776  23.219  0.00  0.00    +0.024 A 
BRANCH  42  44
ATOM     44  C   UNL     1       1.345   1.871  21.009  0.00  0.00    +0.099 C 
ATOM     45  N   UNL     1       1.189   0.971  20.292  0.00  0.00    -0.191 NA
ENDBRANCH  42  44
ENDBRANCH  37  38
ENDBRANCH  35  37
ENDBRANCH  31  33
ENDBRANCH  30  31
ENDBRANCH  26  30
ENDBRANCH  25  28
ENDBRANCH   1  25
TORSDOF 16
