REMARK VINA RESULT:    -6.504     18.689     22.675
REMARK INTER + INTRA:         -14.345
REMARK INTER:                 -10.864
REMARK INTRA:                  -3.481
REMARK UNBOUND:                -3.089
REMARK  Name = lig_assembled_91.pdb
REMARK  16 active torsions:
REMARK  status: ('A' for Active; 'I' for Inactive)
REMARK    1  A    between atoms: _2  and  _10
REMARK    2  A    between atoms: _5  and  _26
REMARK    3  A    between atoms: _7  and  _8
REMARK    4  A    between atoms: _7  and  _26
REMARK    5  A    between atoms: _22  and  _42
REMARK    6  A    between atoms: _24  and  _30
REMARK    7  A    between atoms: _25  and  _29
REMARK    8  A    between atoms: _29  and  _30
REMARK    9  A    between atoms: _32  and  _33
REMARK   10  A    between atoms: _34  and  _35
REMARK   11  A    between atoms: _36  and  _38
REMARK   12  A    between atoms: _38  and  _39
REMARK   13  A    between atoms: _38  and  _40
REMARK   14  A    between atoms: _40  and  _41
REMARK   15  A    between atoms: _40  and  _42
REMARK   16  A    between atoms: _43  and  _45
REMARK                            x       y       z     vdW  Elec       q    Type
REMARK                         _______ _______ _______ _____ _____    ______ ____
ROOT
ATOM      1  C   UNL     1      -4.251  24.307  23.015  0.00  0.00    +0.401 C 
ATOM      2  O   UNL     1      -4.662  23.772  21.983  0.00  0.00    -0.226 OA
ATOM      3  N   UNL     1      -3.018  24.795  23.162  0.00  0.00    -0.279 N 
ATOM      4  H   UNL     1      -2.777  25.225  24.043  0.00  0.00    +0.152 HD
ENDROOT
BRANCH   3   5
ATOM      5  C   UNL     1      -1.992  24.742  22.113  0.00  0.00    +0.141 C 
BRANCH   5   6
ATOM      6  C   UNL     1      -1.040  23.566  22.308  0.00  0.00    +0.163 C 
BRANCH   6   7
ATOM      7  O   UNL     1      -1.449  22.786  23.443  0.00  0.00    -0.388 OA
ATOM      8  H   UNL     1      -2.398  22.648  23.412  0.00  0.00    +0.210 HD
ENDBRANCH   6   7
BRANCH   6   9
ATOM      9  C   UNL     1      -1.014  22.708  21.031  0.00  0.00    +0.175 C 
BRANCH   9  10
ATOM     10  C   UNL     1      -2.015  21.545  21.097  0.00  0.00    +0.176 C 
ATOM     11  O   UNL     1      -1.296  20.362  21.542  0.00  0.00    -0.332 OA
ATOM     12  C   UNL     1      -2.117  19.168  21.766  0.00  0.00    +0.277 C 
ATOM     13  C   UNL     1      -2.942  18.834  20.499  0.00  0.00    +0.110 C 
ATOM     14  C   UNL     1      -3.699  20.070  19.969  0.00  0.00    +0.143 C 
ATOM     15  C   UNL     1      -2.750  21.253  19.776  0.00  0.00    +0.133 C 
BRANCH  15  16
ATOM     16  N   UNL     1      -3.497  22.449  19.354  0.00  0.00    -0.308 N 
ATOM     17  H   UNL     1      -4.194  22.816  19.987  0.00  0.00    +0.149 HD
ATOM     18  C   UNL     1      -3.314  23.080  18.191  0.00  0.00    +0.210 C 
ATOM     19  C   UNL     1      -2.263  22.479  17.239  0.00  0.00    +0.109 C 
ATOM     20  O   UNL     1      -3.944  24.088  17.871  0.00  0.00    -0.276 OA
ENDBRANCH  15  16
BRANCH  12  21
ATOM     21  C   UNL     1      -3.070  19.376  22.961  0.00  0.00    +0.414 C 
ATOM     22  O   UNL     1      -4.197  18.884  22.949  0.00  0.00    -0.240 OA
ATOM     23  O   UNL     1      -2.711  20.035  23.938  0.00  0.00    -0.240 OA
ENDBRANCH  12  21
BRANCH  14  24
ATOM     24  O   UNL     1      -4.321  19.756  18.723  0.00  0.00    -0.390 OA
ATOM     25  H   UNL     1      -4.214  20.493  18.116  0.00  0.00    +0.210 HD
ENDBRANCH  14  24
BRANCH  12  26
ATOM     26  O   UNL     1      -1.227  18.056  22.038  0.00  0.00    -0.343 OA
ATOM     27  C   UNL     1       0.148  18.255  21.623  0.00  0.00    +0.198 C 
ENDBRANCH  12  26
ENDBRANCH   9  10
BRANCH   9  28
ATOM     28  O   UNL     1       0.317  22.207  20.797  0.00  0.00    -0.387 OA
ATOM     29  H   UNL     1       0.364  21.286  21.066  0.00  0.00    +0.210 HD
ENDBRANCH   9  28
ENDBRANCH   6   9
ENDBRANCH   5   6
ENDBRANCH   3   5
BRANCH   1  30
ATOM     30  O   UNL     1      -5.132  24.427  24.135  0.00  0.00    -0.444 OA
BRANCH  30  31
ATOM     31  C   UNL     1      -4.368  24.629  25.326  0.00  0.00    +0.292 C 
BRANCH  31  33
ATOM     32  N   UNL     1      -2.958  22.709  25.977  0.00  0.00    -0.131 NA
ATOM     33  C   UNL     1      -4.158  23.349  26.030  0.00  0.00    +0.121 A 
ATOM     34  C   UNL     1      -5.018  22.617  26.817  0.00  0.00    +0.143 A 
ATOM     35  N   UNL     1      -4.308  21.495  27.196  0.00  0.00    -0.218 N 
ATOM     36  N   UNL     1      -3.055  21.594  26.685  0.00  0.00    -0.060 NA
BRANCH  35  37
ATOM     37  C   UNL     1      -4.727  20.372  27.974  0.00  0.00    +0.085 A 
ATOM     38  C   UNL     1      -5.518  19.328  27.374  0.00  0.00    +0.026 A 
ATOM     39  C   UNL     1      -5.899  18.280  28.235  0.00  0.00    +0.074 A 
ATOM     40  C   UNL     1      -6.663  17.220  27.772  0.00  0.00    +0.028 A 
ATOM     41  C   UNL     1      -7.084  17.131  26.450  0.00  0.00    +0.002 A 
ATOM     42  C   UNL     1      -6.706  18.118  25.561  0.00  0.00    +0.001 A 
ATOM     43  N   UNL     1      -5.548  18.210  29.517  0.00  0.00    -0.247 NA
ATOM     44  C   UNL     1      -4.792  19.162  30.062  0.00  0.00    +0.074 A 
ATOM     45  C   UNL     1      -4.487  18.991  31.408  0.00  0.00    +0.028 A 
ATOM     46  C   UNL     1      -3.738  19.918  32.125  0.00  0.00    +0.002 A 
ATOM     47  C   UNL     1      -3.291  21.056  31.484  0.00  0.00    +0.001 A 
ATOM     48  C   UNL     1      -3.594  21.246  30.131  0.00  0.00    +0.012 A 
ATOM     49  C   UNL     1      -5.919  19.185  26.008  0.00  0.00    +0.012 A 
ATOM     50  C   UNL     1      -4.340  20.294  29.364  0.00  0.00    +0.026 A 
ENDBRANCH  35  37
ENDBRANCH  31  33
ENDBRANCH  30  31
ENDBRANCH   1  30
TORSDOF 14
