REMARK VINA RESULT:    -6.418      5.360      8.233
REMARK INTER + INTRA:         -14.886
REMARK INTER:                 -11.099
REMARK INTRA:                  -3.787
REMARK UNBOUND:                -2.090
REMARK  Name = lig_assembled_76.pdb
REMARK  21 active torsions:
REMARK  status: ('A' for Active; 'I' for Inactive)
REMARK    1  A    between atoms: _2  and  _9
REMARK    2  A    between atoms: _4  and  _23
REMARK    3  A    between atoms: _6  and  _7
REMARK    4  A    between atoms: _6  and  _23
REMARK    5  A    between atoms: _9  and  _10
REMARK    6  A    between atoms: _10  and  _11
REMARK    7  A    between atoms: _10  and  _18
REMARK    8  A    between atoms: _11  and  _12
REMARK    9  A    between atoms: _12  and  _13
REMARK   10  A    between atoms: _19  and  _39
REMARK   11  A    between atoms: _21  and  _27
REMARK   12  A    between atoms: _22  and  _26
REMARK   13  A    between atoms: _26  and  _27
REMARK   14  A    between atoms: _29  and  _30
REMARK   15  A    between atoms: _31  and  _32
REMARK   16  A    between atoms: _33  and  _35
REMARK   17  A    between atoms: _35  and  _36
REMARK   18  A    between atoms: _35  and  _37
REMARK   19  A    between atoms: _37  and  _38
REMARK   20  A    between atoms: _37  and  _39
REMARK   21  A    between atoms: _40  and  _42
REMARK                            x       y       z     vdW  Elec       q    Type
REMARK                         _______ _______ _______ _____ _____    ______ ____
ROOT
ATOM      1  C   UNL     1       1.464   0.021  30.184  0.00  0.00    +0.141 C 
ENDROOT
BRANCH   1   4
ATOM      2  C   UNL     1       1.105   2.403  30.735  0.00  0.00    +0.401 C 
ATOM      3  O   UNL     1       1.184   2.230  31.954  0.00  0.00    -0.226 OA
ATOM      4  N   UNL     1       1.217   1.426  29.835  0.00  0.00    -0.279 N 
ATOM      5  H   UNL     1       1.127   1.665  28.858  0.00  0.00    +0.152 HD
BRANCH   2   6
ATOM      6  O   UNL     1       0.873   3.722  30.235  0.00  0.00    -0.444 OA
BRANCH   6   7
ATOM      7  C   UNL     1      -0.216   3.698  29.309  0.00  0.00    +0.292 C 
BRANCH   7   9
ATOM      8  N   UNL     1       1.623   3.781  27.648  0.00  0.00    -0.131 NA
ATOM      9  C   UNL     1       0.285   3.659  27.925  0.00  0.00    +0.120 A 
ATOM     10  C   UNL     1      -0.409   3.521  26.744  0.00  0.00    +0.137 A 
ATOM     11  N   UNL     1       0.560   3.563  25.790  0.00  0.00    -0.249 N 
ATOM     12  N   UNL     1       1.778   3.728  26.331  0.00  0.00    -0.065 NA
BRANCH  11  13
ATOM     13  C   UNL     1       0.388   3.584  24.355  0.00  0.00    +0.176 C 
BRANCH  13  14
ATOM     14  C   UNL     1       0.251   5.003  23.792  0.00  0.00    +0.136 C 
BRANCH  14  15
ATOM     15  O   UNL     1       1.264   5.855  24.345  0.00  0.00    -0.390 OA
ATOM     16  H   UNL     1       2.105   5.690  23.885  0.00  0.00    +0.210 HD
ENDBRANCH  14  15
BRANCH  14  17
ATOM     17  C   UNL     1       0.400   5.044  22.263  0.00  0.00    +0.038 C 
BRANCH  17  18
ATOM     18  C   UNL     1       1.772   4.582  21.772  0.00  0.00    +0.038 C 
BRANCH  18  19
ATOM     19  C   UNL     1       1.665   3.529  20.698  0.00  0.00    -0.047 A 
ATOM     20  C   UNL     1       1.139   2.265  20.998  0.00  0.00    +0.003 A 
ATOM     21  C   UNL     1       1.022   1.294  20.003  0.00  0.00    +0.000 A 
ATOM     22  C   UNL     1       1.435   1.576  18.703  0.00  0.00    +0.000 A 
ATOM     23  C   UNL     1       1.970   2.827  18.398  0.00  0.00    +0.000 A 
ATOM     24  C   UNL     1       2.089   3.799  19.392  0.00  0.00    +0.003 A 
ENDBRANCH  18  19
ENDBRANCH  17  18
ENDBRANCH  14  17
ENDBRANCH  13  14
ENDBRANCH  11  13
ENDBRANCH   7   9
ENDBRANCH   6   7
ENDBRANCH   2   6
ENDBRANCH   1   4
BRANCH   1  25
ATOM     25  C   UNL     1       2.713  -0.524  29.499  0.00  0.00    +0.163 C 
BRANCH  25  26
ATOM     26  O   UNL     1       2.996  -1.850  29.976  0.00  0.00    -0.388 OA
ATOM     27  H   UNL     1       3.674  -2.250  29.426  0.00  0.00    +0.210 HD
ENDBRANCH  25  26
BRANCH  25  28
ATOM     28  C   UNL     1       2.507  -0.519  27.975  0.00  0.00    +0.175 C 
BRANCH  28  29
ATOM     29  C   UNL     1       3.535  -1.399  27.250  0.00  0.00    +0.176 C 
ATOM     30  O   UNL     1       4.774  -1.359  28.010  0.00  0.00    -0.332 OA
ATOM     31  C   UNL     1       5.847  -2.230  27.522  0.00  0.00    +0.277 C 
ATOM     32  C   UNL     1       6.140  -1.944  26.029  0.00  0.00    +0.110 C 
ATOM     33  C   UNL     1       4.848  -1.945  25.185  0.00  0.00    +0.143 C 
ATOM     34  C   UNL     1       3.800  -1.007  25.784  0.00  0.00    +0.133 C 
BRANCH  34  35
ATOM     35  N   UNL     1       2.544  -1.083  25.021  0.00  0.00    -0.308 N 
ATOM     36  H   UNL     1       1.983  -1.917  25.118  0.00  0.00    +0.149 HD
ATOM     37  C   UNL     1       2.098  -0.121  24.209  0.00  0.00    +0.210 C 
ATOM     38  C   UNL     1       2.989   1.127  24.062  0.00  0.00    +0.109 C 
ATOM     39  O   UNL     1       1.034  -0.206  23.593  0.00  0.00    -0.276 OA
ENDBRANCH  34  35
BRANCH  31  40
ATOM     40  C   UNL     1       5.467  -3.715  27.697  0.00  0.00    +0.414 C 
ATOM     41  O   UNL     1       4.586  -4.041  28.492  0.00  0.00    -0.240 OA
ATOM     42  O   UNL     1       6.040  -4.588  27.044  0.00  0.00    -0.240 OA
ENDBRANCH  31  40
BRANCH  33  43
ATOM     43  O   UNL     1       5.144  -1.529  23.851  0.00  0.00    -0.390 OA
ATOM     44  H   UNL     1       5.291  -0.580  23.836  0.00  0.00    +0.210 HD
ENDBRANCH  33  43
BRANCH  31  45
ATOM     45  O   UNL     1       7.045  -1.940  28.287  0.00  0.00    -0.343 OA
ATOM     46  C   UNL     1       6.859  -1.905  29.725  0.00  0.00    +0.198 C 
ENDBRANCH  31  45
ENDBRANCH  28  29
BRANCH  28  47
ATOM     47  O   UNL     1       2.563   0.830  27.470  0.00  0.00    -0.387 OA
ATOM     48  H   UNL     1       2.821   1.426  28.177  0.00  0.00    +0.210 HD
ENDBRANCH  28  47
ENDBRANCH  25  28
ENDBRANCH   1  25
TORSDOF 19
