REMARK VINA RESULT:    -6.919      8.762     16.238
REMARK INTER + INTRA:         -14.851
REMARK INTER:                 -11.786
REMARK INTRA:                  -3.065
REMARK UNBOUND:                -2.067
REMARK  Name = lig_assembled_79.pdb
REMARK  20 active torsions:
REMARK  status: ('A' for Active; 'I' for Inactive)
REMARK    1  A    between atoms: _2  and  _10
REMARK    2  A    between atoms: _5  and  _26
REMARK    3  A    between atoms: _7  and  _8
REMARK    4  A    between atoms: _7  and  _26
REMARK    5  A    between atoms: _10  and  _11
REMARK    6  A    between atoms: _10  and  _12
REMARK    7  A    between atoms: _10  and  _13
REMARK    8  A    between atoms: _13  and  _14
REMARK    9  A    between atoms: _22  and  _42
REMARK   10  A    between atoms: _24  and  _30
REMARK   11  A    between atoms: _25  and  _29
REMARK   12  A    between atoms: _29  and  _30
REMARK   13  A    between atoms: _32  and  _33
REMARK   14  A    between atoms: _34  and  _35
REMARK   15  A    between atoms: _36  and  _38
REMARK   16  A    between atoms: _38  and  _39
REMARK   17  A    between atoms: _38  and  _40
REMARK   18  A    between atoms: _40  and  _41
REMARK   19  A    between atoms: _40  and  _42
REMARK   20  A    between atoms: _43  and  _45
REMARK                            x       y       z     vdW  Elec       q    Type
REMARK                         _______ _______ _______ _____ _____    ______ ____
ROOT
ATOM      1  C   UNL     1      -2.037   4.026  29.177  0.00  0.00    +0.401 C 
ATOM      2  O   UNL     1      -2.924   4.761  29.617  0.00  0.00    -0.226 OA
ATOM      3  N   UNL     1      -0.828   3.906  29.728  0.00  0.00    -0.279 N 
ATOM      4  H   UNL     1      -0.170   3.270  29.300  0.00  0.00    +0.152 HD
ENDROOT
BRANCH   3   5
ATOM      5  C   UNL     1      -0.399   4.646  30.921  0.00  0.00    +0.141 C 
BRANCH   5   6
ATOM      6  C   UNL     1       1.060   4.370  31.268  0.00  0.00    +0.163 C 
BRANCH   6   7
ATOM      7  O   UNL     1       1.184   4.076  32.669  0.00  0.00    -0.388 OA
ATOM      8  H   UNL     1       0.310   3.992  33.058  0.00  0.00    +0.210 HD
ENDBRANCH   6   7
BRANCH   6   9
ATOM      9  C   UNL     1       1.579   3.202  30.413  0.00  0.00    +0.175 C 
BRANCH   9  10
ATOM     10  C   UNL     1       2.529   2.286  31.200  0.00  0.00    +0.176 C 
ATOM     11  O   UNL     1       3.696   3.068  31.574  0.00  0.00    -0.332 OA
ATOM     12  C   UNL     1       4.671   2.383  32.428  0.00  0.00    +0.277 C 
ATOM     13  C   UNL     1       5.120   1.052  31.776  0.00  0.00    +0.110 C 
ATOM     14  C   UNL     1       3.912   0.200  31.333  0.00  0.00    +0.143 C 
ATOM     15  C   UNL     1       2.961   1.011  30.452  0.00  0.00    +0.133 C 
BRANCH  15  16
ATOM     16  N   UNL     1       1.772   0.216  30.108  0.00  0.00    -0.308 N 
ATOM     17  H   UNL     1       1.152  -0.055  30.859  0.00  0.00    +0.149 HD
ATOM     18  C   UNL     1       1.459  -0.172  28.869  0.00  0.00    +0.210 C 
ATOM     19  C   UNL     1       2.437   0.235  27.751  0.00  0.00    +0.109 C 
ATOM     20  O   UNL     1       0.448  -0.825  28.608  0.00  0.00    -0.276 OA
ENDBRANCH  15  16
BRANCH  12  21
ATOM     21  C   UNL     1       4.074   2.100  33.821  0.00  0.00    +0.414 C 
ATOM     22  O   UNL     1       3.117   2.756  34.231  0.00  0.00    -0.240 OA
ATOM     23  O   UNL     1       4.548   1.216  34.536  0.00  0.00    -0.240 OA
ENDBRANCH  12  21
BRANCH  14  24
ATOM     24  O   UNL     1       4.369  -0.941  30.606  0.00  0.00    -0.390 OA
ATOM     25  H   UNL     1       5.326  -0.918  30.542  0.00  0.00    +0.210 HD
ENDBRANCH  14  24
BRANCH  12  26
ATOM     26  O   UNL     1       5.833   3.242  32.560  0.00  0.00    -0.343 OA
ATOM     27  C   UNL     1       7.079   2.550  32.828  0.00  0.00    +0.198 C 
ENDBRANCH  12  26
ENDBRANCH   9  10
BRANCH   9  28
ATOM     28  O   UNL     1       2.238   3.705  29.233  0.00  0.00    -0.387 OA
ATOM     29  H   UNL     1       1.663   4.331  28.788  0.00  0.00    +0.210 HD
ENDBRANCH   9  28
ENDBRANCH   6   9
ENDBRANCH   5   6
ENDBRANCH   3   5
BRANCH   1  30
ATOM     30  O   UNL     1      -2.298   3.243  28.010  0.00  0.00    -0.444 OA
BRANCH  30  31
ATOM     31  C   UNL     1      -2.674   4.103  26.931  0.00  0.00    +0.292 C 
BRANCH  31  33
ATOM     32  N   UNL     1      -1.178   5.648  25.722  0.00  0.00    -0.131 NA
ATOM     33  C   UNL     1      -1.511   4.371  26.066  0.00  0.00    +0.120 A 
ATOM     34  C   UNL     1      -0.620   3.499  25.480  0.00  0.00    +0.138 A 
ATOM     35  N   UNL     1       0.294   4.307  24.861  0.00  0.00    -0.238 N 
ATOM     36  N   UNL     1      -0.105   5.600  24.951  0.00  0.00    -0.064 NA
BRANCH  35  37
ATOM     37  C   UNL     1       1.461   3.974  23.994  0.00  0.00    +0.122 C 
ATOM     38  C   UNL     1       2.515   3.310  24.911  0.00  0.00    +0.044 C 
ATOM     39  C   UNL     1       1.896   5.319  23.379  0.00  0.00    +0.044 C 
BRANCH  37  40
ATOM     40  C   UNL     1       1.128   2.968  22.873  0.00  0.00    +0.192 C 
ATOM     41  O   UNL     1       1.452   1.782  22.984  0.00  0.00    -0.289 OA
BRANCH  40  42
ATOM     42  C   UNL     1       0.434   3.367  21.614  0.00  0.00    +0.045 A 
ATOM     43  C   UNL     1      -0.931   3.633  21.631  0.00  0.00    +0.095 A 
ATOM     44  N   UNL     1      -1.354   3.948  20.375  0.00  0.00    -0.360 N 
ATOM     45  H   UNL     1      -2.305   4.172  20.117  0.00  0.00    +0.165 HD
ATOM     46  C   UNL     1      -0.299   3.905  19.501  0.00  0.00    +0.047 A 
ATOM     47  C   UNL     1      -0.291   4.149  18.120  0.00  0.00    +0.026 A 
ATOM     48  C   UNL     1       0.919   4.037  17.437  0.00  0.00    +0.002 A 
ATOM     49  C   UNL     1       2.079   3.696  18.114  0.00  0.00    +0.001 A 
ATOM     50  C   UNL     1       2.051   3.457  19.493  0.00  0.00    +0.011 A 
ATOM     51  C   UNL     1       0.844   3.553  20.233  0.00  0.00    +0.010 A 
ENDBRANCH  40  42
ENDBRANCH  37  40
ENDBRANCH  35  37
ENDBRANCH  31  33
ENDBRANCH  30  31
ENDBRANCH   1  30
TORSDOF 16
