REMARK VINA RESULT:    -6.905      2.400      4.975
REMARK INTER + INTRA:         -15.460
REMARK INTER:                 -12.775
REMARK INTRA:                  -2.685
REMARK UNBOUND:                -2.499
REMARK  Name = lig_assembled_64.pdb
REMARK  19 active torsions:
REMARK  status: ('A' for Active; 'I' for Inactive)
REMARK    1  A    between atoms: _2  and  _10
REMARK    2  A    between atoms: _5  and  _27
REMARK    3  A    between atoms: _7  and  _8
REMARK    4  A    between atoms: _7  and  _27
REMARK    5  A    between atoms: _12  and  _13
REMARK    6  A    between atoms: _13  and  _21
REMARK    7  A    between atoms: _14  and  _15
REMARK    8  A    between atoms: _23  and  _43
REMARK    9  A    between atoms: _25  and  _31
REMARK   10  A    between atoms: _26  and  _30
REMARK   11  A    between atoms: _30  and  _31
REMARK   12  A    between atoms: _33  and  _34
REMARK   13  A    between atoms: _35  and  _36
REMARK   14  A    between atoms: _37  and  _39
REMARK   15  A    between atoms: _39  and  _40
REMARK   16  A    between atoms: _39  and  _41
REMARK   17  A    between atoms: _41  and  _42
REMARK   18  A    between atoms: _41  and  _43
REMARK   19  A    between atoms: _44  and  _46
REMARK                            x       y       z     vdW  Elec       q    Type
REMARK                         _______ _______ _______ _____ _____    ______ ____
ROOT
ATOM      1  C   UNL     1       2.496   3.629  32.470  0.00  0.00    +0.401 C 
ATOM      2  O   UNL     1       3.648   3.381  32.108  0.00  0.00    -0.226 OA
ATOM      3  N   UNL     1       1.987   3.256  33.645  0.00  0.00    -0.279 N 
ATOM      4  H   UNL     1       1.033   3.515  33.855  0.00  0.00    +0.152 HD
ENDROOT
BRANCH   3   5
ATOM      5  C   UNL     1       2.735   2.489  34.649  0.00  0.00    +0.141 C 
BRANCH   5   6
ATOM      6  C   UNL     1       3.117   3.348  35.851  0.00  0.00    +0.163 C 
BRANCH   6   7
ATOM      7  O   UNL     1       2.369   2.937  37.007  0.00  0.00    -0.388 OA
ATOM      8  H   UNL     1       2.203   1.992  36.962  0.00  0.00    +0.210 HD
ENDBRANCH   6   7
BRANCH   6   9
ATOM      9  C   UNL     1       4.630   3.232  36.105  0.00  0.00    +0.175 C 
BRANCH   9  10
ATOM     10  C   UNL     1       5.401   2.848  34.834  0.00  0.00    +0.176 C 
ATOM     11  O   UNL     1       6.174   1.651  35.125  0.00  0.00    -0.332 OA
ATOM     12  C   UNL     1       6.899   1.072  33.990  0.00  0.00    +0.277 C 
ATOM     13  C   UNL     1       7.810   2.136  33.330  0.00  0.00    +0.110 C 
ATOM     14  C   UNL     1       7.039   3.439  33.030  0.00  0.00    +0.143 C 
ATOM     15  C   UNL     1       6.321   3.951  34.279  0.00  0.00    +0.133 C 
BRANCH  15  16
ATOM     16  N   UNL     1       5.520   5.144  33.960  0.00  0.00    -0.308 N 
ATOM     17  H   UNL     1       4.724   5.028  33.349  0.00  0.00    +0.149 HD
ATOM     18  C   UNL     1       5.777   6.369  34.426  0.00  0.00    +0.210 C 
ATOM     19  C   UNL     1       7.013   6.518  35.333  0.00  0.00    +0.109 C 
ATOM     20  O   UNL     1       5.080   7.348  34.153  0.00  0.00    -0.276 OA
ENDBRANCH  15  16
BRANCH  12  21
ATOM     21  C   UNL     1       5.915   0.514  32.940  0.00  0.00    +0.414 C 
ATOM     22  O   UNL     1       6.207   0.530  31.745  0.00  0.00    -0.240 OA
ATOM     23  O   UNL     1       4.830   0.047  33.289  0.00  0.00    -0.240 OA
ENDBRANCH  12  21
BRANCH  12  24
ATOM     24  O   UNL     1       7.737  -0.000  34.492  0.00  0.00    -0.343 OA
ATOM     25  C   UNL     1       7.263  -0.629  35.709  0.00  0.00    +0.198 C 
ENDBRANCH  12  24
BRANCH  14  26
ATOM     26  O   UNL     1       7.946   4.439  32.565  0.00  0.00    -0.390 OA
ATOM     27  H   UNL     1       8.155   5.041  33.283  0.00  0.00    +0.210 HD
ENDBRANCH  14  26
ENDBRANCH   9  10
BRANCH   9  28
ATOM     28  O   UNL     1       4.886   2.274  37.151  0.00  0.00    -0.387 OA
ATOM     29  H   UNL     1       4.085   2.137  37.663  0.00  0.00    +0.210 HD
ENDBRANCH   9  28
ENDBRANCH   6   9
ENDBRANCH   5   6
ENDBRANCH   3   5
BRANCH   1  30
ATOM     30  O   UNL     1       1.636   4.363  31.595  0.00  0.00    -0.444 OA
BRANCH  30  31
ATOM     31  C   UNL     1       0.483   3.575  31.285  0.00  0.00    +0.292 C 
BRANCH  31  33
ATOM     32  N   UNL     1       0.571   1.304  30.290  0.00  0.00    -0.131 NA
ATOM     33  C   UNL     1       0.773   2.650  30.174  0.00  0.00    +0.121 A 
ATOM     34  C   UNL     1       1.258   2.923  28.916  0.00  0.00    +0.143 A 
ATOM     35  N   UNL     1       1.345   1.699  28.295  0.00  0.00    -0.220 N 
ATOM     36  N   UNL     1       0.919   0.733  29.143  0.00  0.00    -0.060 NA
BRANCH  35  37
ATOM     37  C   UNL     1       1.791   1.408  26.983  0.00  0.00    +0.071 A 
ATOM     38  C   UNL     1       2.431   0.204  26.709  0.00  0.00    +0.063 A 
ATOM     39  CA  UNL     1       2.842  -0.018  25.410  0.00  0.00    +0.150 A 
ATOM     40  N   UNL     1       2.673   0.858  24.378  0.00  0.00    -0.240 NA
ATOM     41  C   UNL     1       2.059   2.039  24.657  0.00  0.00    +0.074 A 
ATOM     42  C   UNL     1       1.598   2.334  25.944  0.00  0.00    +0.056 A 
BRANCH  41  43
ATOM     43  C   UNL     1       1.941   2.984  23.520  0.00  0.00    +0.000 A 
ATOM     44  C   UNL     1       1.897   2.544  22.184  0.00  0.00    +0.010 A 
ATOM     45  C   UNL     1       1.747   3.444  21.120  0.00  0.00    +0.001 A 
ATOM     46  C   UNL     1       1.638   4.808  21.368  0.00  0.00    +0.000 A 
ATOM     47  C   UNL     1       1.686   5.273  22.678  0.00  0.00    +0.001 A 
ATOM     48  C   UNL     1       1.836   4.372  23.739  0.00  0.00    +0.010 A 
ENDBRANCH  41  43
BRANCH  39  49
ATOM     49  C   UNL     1       3.533  -1.296  25.071  0.00  0.00    +0.355 C 
ATOM     50  OXT UNL     1       3.203  -2.391  25.489  0.00  0.00    -0.243 OA
BRANCH  49  51
ATOM     51  O   UNL     1       4.575  -1.070  24.239  0.00  0.00    -0.476 OA
ATOM     52  H   UNL     1       4.259  -1.119  23.307  0.00  0.00    +0.295 HD
ENDBRANCH  49  51
ENDBRANCH  39  49
ENDBRANCH  35  37
ENDBRANCH  31  33
ENDBRANCH  30  31
ENDBRANCH   1  30
TORSDOF 17
