REMARK VINA RESULT:    -5.998      5.713      9.018
REMARK INTER + INTRA:         -15.443
REMARK INTER:                 -11.283
REMARK INTRA:                  -4.159
REMARK UNBOUND:                -3.133
REMARK  Name = lig_assembled_90.pdb
REMARK  22 active torsions:
REMARK  status: ('A' for Active; 'I' for Inactive)
REMARK    1  A    between atoms: _2  and  _13
REMARK    2  A    between atoms: _3  and  _15
REMARK    3  A    between atoms: _4  and  _17
REMARK    4  A    between atoms: _8  and  _28
REMARK    5  A    between atoms: _10  and  _11
REMARK    6  A    between atoms: _10  and  _28
REMARK    7  A    between atoms: _13  and  _14
REMARK    8  A    between atoms: _15  and  _16
REMARK    9  A    between atoms: _16  and  _17
REMARK   10  A    between atoms: _16  and  _22
REMARK   11  A    between atoms: _24  and  _44
REMARK   12  A    between atoms: _26  and  _32
REMARK   13  A    between atoms: _27  and  _31
REMARK   14  A    between atoms: _31  and  _32
REMARK   15  A    between atoms: _34  and  _35
REMARK   16  A    between atoms: _36  and  _37
REMARK   17  A    between atoms: _38  and  _40
REMARK   18  A    between atoms: _40  and  _41
REMARK   19  A    between atoms: _40  and  _42
REMARK   20  A    between atoms: _42  and  _43
REMARK   21  A    between atoms: _42  and  _44
REMARK   22  A    between atoms: _45  and  _47
REMARK                            x       y       z     vdW  Elec       q    Type
REMARK                         _______ _______ _______ _____ _____    ______ ____
ROOT
ATOM      1  C   UNL     1      17.897  -1.878  23.232  0.00  0.00    +0.401 C 
ATOM      2  O   UNL     1      17.973  -3.015  22.760  0.00  0.00    -0.226 OA
ATOM      3  N   UNL     1      17.001  -1.510  24.149  0.00  0.00    -0.279 N 
ATOM      4  H   UNL     1      17.023  -0.557  24.482  0.00  0.00    +0.152 HD
ENDROOT
BRANCH   3   5
ATOM      5  C   UNL     1      15.982  -2.412  24.701  0.00  0.00    +0.141 C 
BRANCH   5   6
ATOM      6  C   UNL     1      16.348  -2.894  26.101  0.00  0.00    +0.163 C 
BRANCH   6   7
ATOM      7  O   UNL     1      15.350  -2.469  27.043  0.00  0.00    -0.388 OA
ATOM      8  H   UNL     1      15.603  -2.747  27.926  0.00  0.00    +0.210 HD
ENDBRANCH   6   7
BRANCH   6   9
ATOM      9  C   UNL     1      16.485  -4.426  26.098  0.00  0.00    +0.175 C 
BRANCH   9  10
ATOM     10  C   UNL     1      15.171  -5.124  26.478  0.00  0.00    +0.176 C 
ATOM     11  O   UNL     1      15.247  -5.485  27.885  0.00  0.00    -0.332 OA
ATOM     12  C   UNL     1      14.031  -6.072  28.455  0.00  0.00    +0.277 C 
ATOM     13  C   UNL     1      13.581  -7.299  27.623  0.00  0.00    +0.110 C 
ATOM     14  C   UNL     1      13.516  -6.972  26.116  0.00  0.00    +0.143 C 
ATOM     15  C   UNL     1      14.832  -6.364  25.630  0.00  0.00    +0.133 C 
BRANCH  15  16
ATOM     16  N   UNL     1      14.728  -5.977  24.214  0.00  0.00    -0.308 N 
ATOM     17  H   UNL     1      14.040  -5.281  23.964  0.00  0.00    +0.149 HD
ATOM     18  C   UNL     1      15.483  -6.487  23.237  0.00  0.00    +0.210 C 
ATOM     19  C   UNL     1      16.504  -7.565  23.646  0.00  0.00    +0.109 C 
ATOM     20  O   UNL     1      15.385  -6.133  22.062  0.00  0.00    -0.276 OA
ENDBRANCH  15  16
BRANCH  12  21
ATOM     21  C   UNL     1      12.891  -5.034  28.500  0.00  0.00    +0.414 C 
ATOM     22  O   UNL     1      11.745  -5.382  28.782  0.00  0.00    -0.240 OA
ATOM     23  O   UNL     1      13.117  -3.848  28.254  0.00  0.00    -0.240 OA
ENDBRANCH  12  21
BRANCH  14  24
ATOM     24  O   UNL     1      13.246  -8.164  25.377  0.00  0.00    -0.390 OA
ATOM     25  H   UNL     1      12.301  -8.239  25.224  0.00  0.00    +0.210 HD
ENDBRANCH  14  24
BRANCH  12  26
ATOM     26  O   UNL     1      14.337  -6.520  29.801  0.00  0.00    -0.343 OA
ATOM     27  C   UNL     1      15.053  -5.559  30.617  0.00  0.00    +0.198 C 
ENDBRANCH  12  26
ENDBRANCH   9  10
BRANCH   9  28
ATOM     28  O   UNL     1      17.540  -4.832  26.993  0.00  0.00    -0.387 OA
ATOM     29  H   UNL     1      17.355  -4.503  27.876  0.00  0.00    +0.210 HD
ENDBRANCH   9  28
ENDBRANCH   6   9
ENDBRANCH   5   6
ENDBRANCH   3   5
BRANCH   1  30
ATOM     30  O   UNL     1      18.818  -0.879  22.788  0.00  0.00    -0.444 OA
BRANCH  30  31
ATOM     31  C   UNL     1      18.257  -0.173  21.677  0.00  0.00    +0.292 C 
BRANCH  31  33
ATOM     32  N   UNL     1      16.978   1.288  23.220  0.00  0.00    -0.131 NA
ATOM     33  C   UNL     1      17.763   1.150  22.104  0.00  0.00    +0.120 A 
ATOM     34  C   UNL     1      17.958   2.390  21.538  0.00  0.00    +0.137 A 
ATOM     35  N   UNL     1      17.288   3.240  22.365  0.00  0.00    -0.242 N 
ATOM     36  N   UNL     1      16.683   2.574  23.365  0.00  0.00    -0.065 NA
BRANCH  35  37
ATOM     37  C   UNL     1      17.088   4.661  22.215  0.00  0.00    +0.240 C 
BRANCH  37  38
ATOM     38  C   UNL     1      17.944   5.443  23.184  0.00  0.00    +0.235 C 
ATOM     39  O   UNL     1      18.244   6.622  23.003  0.00  0.00    -0.274 OA
ATOM     40  N   UNL     1      18.323   4.756  24.323  0.00  0.00    -0.311 N 
ATOM     41  H   UNL     1      18.297   3.739  24.309  0.00  0.00    +0.149 HD
BRANCH  40  42
ATOM     42  C   UNL     1      19.219   5.371  25.293  0.00  0.00    +0.137 C 
BRANCH  42  43
ATOM     43  C   UNL     1      20.023   4.309  26.057  0.00  0.00    +0.151 C 
BRANCH  43  44
ATOM     44  O   UNL     1      21.088   4.960  26.761  0.00  0.00    -0.388 OA
ATOM     45  H   UNL     1      21.068   4.678  27.698  0.00  0.00    +0.210 HD
ENDBRANCH  43  44
BRANCH  43  46
ATOM     46  C   UNL     1      19.135   3.502  27.012  0.00  0.00    +0.162 C 
BRANCH  46  47
ATOM     47  N   UNL     1      19.169   2.073  26.729  0.00  0.00    -0.269 N 
ATOM     48  C   UNL     1      20.338   1.380  26.505  0.00  0.00    +0.113 A 
ATOM     49  C   UNL     1      19.960   0.087  26.234  0.00  0.00    +0.137 A 
ATOM     50  N   UNL     1      18.595  -0.037  26.282  0.00  0.00    -0.172 NA
ATOM     51  C   UNL     1      18.145   1.168  26.593  0.00  0.00    +0.450 A 
ATOM     52  N   UNL     1      16.739   1.450  26.750  0.00  0.00    +0.120 N 
ATOM     53  O   UNL     1      16.419   2.579  27.147  0.00  0.00    +0.045 OA
ATOM     54  O   UNL     1      15.944   0.545  26.464  0.00  0.00    -0.573 OA
ENDBRANCH  46  47
ENDBRANCH  43  46
ENDBRANCH  42  43
ENDBRANCH  40  42
ENDBRANCH  37  38
ENDBRANCH  35  37
ENDBRANCH  31  33
ENDBRANCH  30  31
ENDBRANCH   1  30
TORSDOF 20
