REMARK VINA RESULT:    -6.365     14.855     18.184
REMARK INTER + INTRA:         -13.293
REMARK INTER:                 -11.354
REMARK INTRA:                  -1.939
REMARK UNBOUND:                -1.905
REMARK  Name = lig_assembled_38.pdb
REMARK  17 active torsions:
REMARK  status: ('A' for Active; 'I' for Inactive)
REMARK    1  A    between atoms: _2  and  _9
REMARK    2  A    between atoms: _4  and  _19
REMARK    3  A    between atoms: _6  and  _7
REMARK    4  A    between atoms: _6  and  _19
REMARK    5  A    between atoms: _9  and  _10
REMARK    6  A    between atoms: _15  and  _35
REMARK    7  A    between atoms: _17  and  _23
REMARK    8  A    between atoms: _18  and  _22
REMARK    9  A    between atoms: _22  and  _23
REMARK   10  A    between atoms: _25  and  _26
REMARK   11  A    between atoms: _27  and  _28
REMARK   12  A    between atoms: _29  and  _31
REMARK   13  A    between atoms: _31  and  _32
REMARK   14  A    between atoms: _31  and  _33
REMARK   15  A    between atoms: _33  and  _34
REMARK   16  A    between atoms: _33  and  _35
REMARK   17  A    between atoms: _36  and  _38
REMARK                            x       y       z     vdW  Elec       q    Type
REMARK                         _______ _______ _______ _____ _____    ______ ____
ROOT
ATOM      1  C   UNL     1      16.595   1.130  26.215  0.00  0.00    +0.163 C 
ENDROOT
BRANCH   1   2
ATOM      2  O   UNL     1      15.659   0.263  26.876  0.00  0.00    -0.388 OA
ATOM      3  H   UNL     1      16.017  -0.627  26.913  0.00  0.00    +0.210 HD
ENDBRANCH   1   2
BRANCH   1   4
ATOM      4  C   UNL     1      16.516   2.533  26.809  0.00  0.00    +0.141 C 
BRANCH   4   7
ATOM      5  C   UNL     1      18.512   3.406  27.975  0.00  0.00    +0.401 C 
ATOM      6  O   UNL     1      18.106   3.099  29.098  0.00  0.00    -0.226 OA
ATOM      7  N   UNL     1      17.831   3.185  26.850  0.00  0.00    -0.279 N 
ATOM      8  H   UNL     1      18.243   3.482  25.977  0.00  0.00    +0.152 HD
BRANCH   5   9
ATOM      9  O   UNL     1      19.785   4.044  27.847  0.00  0.00    -0.444 OA
BRANCH   9  10
ATOM     10  C   UNL     1      20.122   4.165  26.463  0.00  0.00    +0.292 C 
BRANCH  10  12
ATOM     11  N   UNL     1      18.927   6.026  25.348  0.00  0.00    -0.131 NA
ATOM     12  C   UNL     1      20.025   5.573  26.030  0.00  0.00    +0.120 A 
ATOM     13  C   UNL     1      20.896   6.621  26.229  0.00  0.00    +0.137 A 
ATOM     14  N   UNL     1      20.246   7.696  25.695  0.00  0.00    -0.247 N 
ATOM     15  N   UNL     1      19.069   7.330  25.154  0.00  0.00    -0.065 NA
BRANCH  14  16
ATOM     16  C   UNL     1      20.566   9.102  25.870  0.00  0.00    +0.180 C 
BRANCH  16  17
ATOM     17  C   UNL     1      19.917   9.719  27.085  0.00  0.00    -0.025 A 
ATOM     18  C   UNL     1      18.656  10.329  26.997  0.00  0.00    +0.005 A 
ATOM     19  C   UNL     1      18.021  10.818  28.144  0.00  0.00    +0.001 A 
ATOM     20  C   UNL     1      18.638  10.704  29.388  0.00  0.00    +0.015 A 
ATOM     21  C   UNL     1      19.892  10.111  29.481  0.00  0.00    +0.018 A 
ATOM     22 BR   UNL     1      20.729   9.946  31.169  0.00  0.00    -0.050 Br
ATOM     23  C   UNL     1      20.534   9.619  28.343  0.00  0.00    +0.020 A 
ENDBRANCH  16  17
ENDBRANCH  14  16
ENDBRANCH  10  12
ENDBRANCH   9  10
ENDBRANCH   5   9
ENDBRANCH   4   7
ENDBRANCH   1   4
BRANCH   1  24
ATOM     24  C   UNL     1      16.313   1.195  24.704  0.00  0.00    +0.175 C 
BRANCH  24  25
ATOM     25  C   UNL     1      17.485   0.652  23.874  0.00  0.00    +0.176 C 
ATOM     26  O   UNL     1      17.500   1.360  22.604  0.00  0.00    -0.332 OA
ATOM     27  C   UNL     1      18.623   1.046  21.716  0.00  0.00    +0.277 C 
ATOM     28  C   UNL     1      18.704  -0.480  21.465  0.00  0.00    +0.110 C 
ATOM     29  C   UNL     1      18.659  -1.278  22.785  0.00  0.00    +0.143 C 
ATOM     30  C   UNL     1      17.454  -0.869  23.633  0.00  0.00    +0.133 C 
BRANCH  30  31
ATOM     31  N   UNL     1      17.471  -1.572  24.925  0.00  0.00    -0.308 N 
ATOM     32  H   UNL     1      18.183  -1.313  25.594  0.00  0.00    +0.149 HD
ATOM     33  C   UNL     1      16.607  -2.530  25.272  0.00  0.00    +0.210 C 
ATOM     34  C   UNL     1      15.551  -2.920  24.221  0.00  0.00    +0.109 C 
ATOM     35  O   UNL     1      16.636  -3.092  26.368  0.00  0.00    -0.276 OA
ENDBRANCH  30  31
BRANCH  27  36
ATOM     36  C   UNL     1      19.954   1.540  22.321  0.00  0.00    +0.414 C 
ATOM     37  O   UNL     1      19.951   2.364  23.234  0.00  0.00    -0.240 OA
ATOM     38  O   UNL     1      21.029   1.115  21.895  0.00  0.00    -0.240 OA
ENDBRANCH  27  36
BRANCH  27  39
ATOM     39  O   UNL     1      18.389   1.706  20.446  0.00  0.00    -0.343 OA
ATOM     40  C   UNL     1      17.002   1.748  20.024  0.00  0.00    +0.198 C 
ENDBRANCH  27  39
BRANCH  29  41
ATOM     41  O   UNL     1      18.583  -2.675  22.501  0.00  0.00    -0.390 OA
ATOM     42  H   UNL     1      17.764  -2.864  22.039  0.00  0.00    +0.210 HD
ENDBRANCH  29  41
ENDBRANCH  24  25
BRANCH  24  43
ATOM     43  O   UNL     1      16.013   2.549  24.313  0.00  0.00    -0.387 OA
ATOM     44  H   UNL     1      15.262   2.550  23.714  0.00  0.00    +0.210 HD
ENDBRANCH  24  43
ENDBRANCH   1  24
TORSDOF 15
