REMARK VINA RESULT:    -6.175      7.352     12.907
REMARK INTER + INTRA:         -14.605
REMARK INTER:                 -12.928
REMARK INTRA:                  -1.677
REMARK UNBOUND:                -3.014
REMARK  Name = lig_assembled_75.pdb
REMARK  19 active torsions:
REMARK  status: ('A' for Active; 'I' for Inactive)
REMARK    1  A    between atoms: _2  and  _9
REMARK    2  A    between atoms: _4  and  _23
REMARK    3  A    between atoms: _6  and  _7
REMARK    4  A    between atoms: _6  and  _23
REMARK    5  A    between atoms: _11  and  _12
REMARK    6  A    between atoms: _13  and  _14
REMARK    7  A    between atoms: _14  and  _17
REMARK    8  A    between atoms: _19  and  _39
REMARK    9  A    between atoms: _21  and  _27
REMARK   10  A    between atoms: _22  and  _26
REMARK   11  A    between atoms: _26  and  _27
REMARK   12  A    between atoms: _29  and  _30
REMARK   13  A    between atoms: _31  and  _32
REMARK   14  A    between atoms: _33  and  _35
REMARK   15  A    between atoms: _35  and  _36
REMARK   16  A    between atoms: _35  and  _37
REMARK   17  A    between atoms: _37  and  _38
REMARK   18  A    between atoms: _37  and  _39
REMARK   19  A    between atoms: _40  and  _42
REMARK                            x       y       z     vdW  Elec       q    Type
REMARK                         _______ _______ _______ _____ _____    ______ ____
ROOT
ATOM      1  C   UNL     1       8.375   1.479  33.768  0.00  0.00    +0.141 C 
ENDROOT
BRANCH   1   4
ATOM      2  C   UNL     1      10.419   0.968  35.059  0.00  0.00    +0.401 C 
ATOM      3  O   UNL     1       9.947  -0.043  35.585  0.00  0.00    -0.226 OA
ATOM      4  N   UNL     1       9.752   1.742  34.202  0.00  0.00    -0.279 N 
ATOM      5  H   UNL     1      10.221   2.557  33.831  0.00  0.00    +0.152 HD
BRANCH   2   6
ATOM      6  O   UNL     1      11.758   1.354  35.375  0.00  0.00    -0.444 OA
BRANCH   6   7
ATOM      7  C   UNL     1      11.735   2.459  36.283  0.00  0.00    +0.292 C 
BRANCH   7   9
ATOM      8  N   UNL     1      13.290   3.464  34.644  0.00  0.00    -0.131 NA
ATOM      9  C   UNL     1      12.739   3.467  35.892  0.00  0.00    +0.121 A 
ATOM     10  C   UNL     1      13.274   4.504  36.620  0.00  0.00    +0.143 A 
ATOM     11  N   UNL     1      14.161   5.117  35.766  0.00  0.00    -0.220 N 
ATOM     12  N   UNL     1      14.155   4.467  34.575  0.00  0.00    -0.060 NA
BRANCH  11  13
ATOM     13  C   UNL     1      15.010   6.227  36.010  0.00  0.00    +0.068 A 
ATOM     14  C   UNL     1      15.293   7.120  34.962  0.00  0.00    +0.035 A 
ATOM     15  C   UNL     1      16.181   8.189  35.149  0.00  0.00    -0.023 A 
ATOM     16  C   UNL     1      16.731   8.391  36.421  0.00  0.00    +0.008 A 
ATOM     17  C   UNL     1      16.436   7.520  37.472  0.00  0.00    +0.003 A 
ATOM     18  C   UNL     1      15.585   6.435  37.268  0.00  0.00    +0.028 A 
BRANCH  15  19
ATOM     19  C   UNL     1      16.538   9.118  34.066  0.00  0.00    +0.015 C 
ATOM     20  C   UNL     1      15.800  10.187  33.726  0.00  0.00    +0.092 C 
BRANCH  20  21
ATOM     21  C   UNL     1      16.215  11.030  32.589  0.00  0.00    +0.330 C 
ATOM     22  O   UNL     1      15.457  11.693  31.903  0.00  0.00    -0.246 OA
BRANCH  21  23
ATOM     23  O   UNL     1      17.549  10.996  32.397  0.00  0.00    -0.478 OA
ATOM     24  H   UNL     1      18.089  11.343  33.129  0.00  0.00    +0.295 HD
ENDBRANCH  21  23
ENDBRANCH  20  21
ENDBRANCH  15  19
ENDBRANCH  11  13
ENDBRANCH   7   9
ENDBRANCH   6   7
ENDBRANCH   2   6
ENDBRANCH   1   4
BRANCH   1  25
ATOM     25  C   UNL     1       7.404   2.536  34.283  0.00  0.00    +0.163 C 
BRANCH  25  26
ATOM     26  O   UNL     1       7.408   2.550  35.720  0.00  0.00    -0.388 OA
ATOM     27  H   UNL     1       8.307   2.669  36.036  0.00  0.00    +0.210 HD
ENDBRANCH  25  26
BRANCH  25  28
ATOM     28  C   UNL     1       7.796   3.913  33.718  0.00  0.00    +0.175 C 
BRANCH  28  29
ATOM     29  C   UNL     1       7.172   5.065  34.519  0.00  0.00    +0.176 C 
ATOM     30  O   UNL     1       7.915   5.199  35.762  0.00  0.00    -0.332 OA
ATOM     31  C   UNL     1       7.525   6.326  36.615  0.00  0.00    +0.277 C 
ATOM     32  C   UNL     1       6.006   6.278  36.915  0.00  0.00    +0.110 C 
ATOM     33  C   UNL     1       5.177   6.104  35.625  0.00  0.00    +0.143 C 
ATOM     34  C   UNL     1       5.669   4.905  34.814  0.00  0.00    +0.133 C 
BRANCH  34  35
ATOM     35  N   UNL     1       4.928   4.801  33.546  0.00  0.00    -0.308 N 
ATOM     36  H   UNL     1       5.098   5.506  32.842  0.00  0.00    +0.149 HD
ATOM     37  C   UNL     1       4.046   3.838  33.267  0.00  0.00    +0.210 C 
ATOM     38  C   UNL     1       3.791   2.795  34.371  0.00  0.00    +0.109 C 
ATOM     39  O   UNL     1       3.452   3.768  32.191  0.00  0.00    -0.276 OA
ENDBRANCH  34  35
BRANCH  31  40
ATOM     40  C   UNL     1       7.874   7.669  35.940  0.00  0.00    +0.414 C 
ATOM     41  O   UNL     1       8.189   8.643  36.624  0.00  0.00    -0.240 OA
ATOM     42  O   UNL     1       7.842   7.779  34.714  0.00  0.00    -0.240 OA
ENDBRANCH  31  40
BRANCH  31  43
ATOM     43  O   UNL     1       8.243   6.209  37.870  0.00  0.00    -0.343 OA
ATOM     44  C   UNL     1       8.195   4.895  38.482  0.00  0.00    +0.198 C 
ENDBRANCH  31  43
BRANCH  33  45
ATOM     45  O   UNL     1       3.801   5.912  35.960  0.00  0.00    -0.390 OA
ATOM     46  H   UNL     1       3.479   6.677  36.442  0.00  0.00    +0.210 HD
ENDBRANCH  33  45
ENDBRANCH  28  29
BRANCH  28  47
ATOM     47  O   UNL     1       7.415   4.008  32.331  0.00  0.00    -0.387 OA
ATOM     48  H   UNL     1       7.533   3.154  31.907  0.00  0.00    +0.210 HD
ENDBRANCH  28  47
ENDBRANCH  25  28
ENDBRANCH   1  25
TORSDOF 17
