REMARK VINA RESULT:    -6.391      3.831      5.880
REMARK INTER + INTRA:         -12.908
REMARK INTER:                 -10.836
REMARK INTRA:                  -2.072
REMARK UNBOUND:                -1.847
REMARK  Name = lig_assembled_2.pdb
REMARK  16 active torsions:
REMARK  status: ('A' for Active; 'I' for Inactive)
REMARK    1  A    between atoms: _2  and  _9
REMARK    2  A    between atoms: _4  and  _18
REMARK    3  A    between atoms: _6  and  _7
REMARK    4  A    between atoms: _6  and  _18
REMARK    5  A    between atoms: _14  and  _34
REMARK    6  A    between atoms: _16  and  _22
REMARK    7  A    between atoms: _17  and  _21
REMARK    8  A    between atoms: _21  and  _22
REMARK    9  A    between atoms: _24  and  _25
REMARK   10  A    between atoms: _26  and  _27
REMARK   11  A    between atoms: _28  and  _30
REMARK   12  A    between atoms: _30  and  _31
REMARK   13  A    between atoms: _30  and  _32
REMARK   14  A    between atoms: _32  and  _33
REMARK   15  A    between atoms: _32  and  _34
REMARK   16  A    between atoms: _35  and  _37
REMARK                            x       y       z     vdW  Elec       q    Type
REMARK                         _______ _______ _______ _____ _____    ______ ____
ROOT
ATOM      1  C   UNL     1       7.977   2.471  34.283  0.00  0.00    +0.163 C 
ENDROOT
BRANCH   1   2
ATOM      2  O   UNL     1       8.497   2.838  35.572  0.00  0.00    -0.388 OA
ATOM      3  H   UNL     1       9.139   3.544  35.469  0.00  0.00    +0.210 HD
ENDBRANCH   1   2
BRANCH   1   4
ATOM      4  C   UNL     1       8.861   1.403  33.649  0.00  0.00    +0.141 C 
BRANCH   4   7
ATOM      5  C   UNL     1       7.606  -0.707  33.368  0.00  0.00    +0.401 C 
ATOM      6  O   UNL     1       7.787  -1.079  34.530  0.00  0.00    -0.226 OA
ATOM      7  N   UNL     1       8.078   0.436  32.869  0.00  0.00    -0.279 N 
ATOM      8  H   UNL     1       7.886   0.649  31.901  0.00  0.00    +0.152 HD
BRANCH   5   9
ATOM      9  O   UNL     1       6.852  -1.539  32.482  0.00  0.00    -0.444 OA
BRANCH   9  10
ATOM     10  C   UNL     1       7.686  -1.965  31.402  0.00  0.00    +0.292 C 
BRANCH  10  12
ATOM     11  N   UNL     1       7.586  -2.114  28.934  0.00  0.00    -0.131 NA
ATOM     12  C   UNL     1       6.979  -1.807  30.116  0.00  0.00    +0.121 A 
ATOM     13  C   UNL     1       5.697  -1.373  29.865  0.00  0.00    +0.143 A 
ATOM     14  N   UNL     1       5.555  -1.462  28.499  0.00  0.00    -0.220 N 
ATOM     15  N   UNL     1       6.718  -1.895  27.956  0.00  0.00    -0.060 NA
BRANCH  14  16
ATOM     16  C   UNL     1       4.407  -1.195  27.707  0.00  0.00    +0.067 A 
ATOM     17  C   UNL     1       4.343  -1.608  26.369  0.00  0.00    +0.029 A 
ATOM     18  C   UNL     1       3.218  -1.302  25.595  0.00  0.00    +0.022 A 
ATOM     19  C   UNL     1       2.159  -0.588  26.153  0.00  0.00    +0.041 A 
ATOM     20 CL   UNL     1       0.791  -0.197  25.187  0.00  0.00    -0.084 Cl
ATOM     21  C   UNL     1       2.207  -0.185  27.485  0.00  0.00    +0.022 A 
ATOM     22  C   UNL     1       3.328  -0.489  28.265  0.00  0.00    +0.029 A 
ENDBRANCH  14  16
ENDBRANCH  10  12
ENDBRANCH   9  10
ENDBRANCH   5   9
ENDBRANCH   4   7
ENDBRANCH   1   4
BRANCH   1  23
ATOM     23  C   UNL     1       7.900   3.694  33.352  0.00  0.00    +0.175 C 
BRANCH  23  24
ATOM     24  C   UNL     1       7.027   4.812  33.939  0.00  0.00    +0.176 C 
ATOM     25  O   UNL     1       7.757   5.419  35.041  0.00  0.00    -0.332 OA
ATOM     26  C   UNL     1       7.119   6.584  35.660  0.00  0.00    +0.277 C 
ATOM     27  C   UNL     1       5.681   6.235  36.115  0.00  0.00    +0.110 C 
ATOM     28  C   UNL     1       4.875   5.558  34.986  0.00  0.00    +0.143 C 
ATOM     29  C   UNL     1       5.633   4.361  34.412  0.00  0.00    +0.133 C 
BRANCH  29  30
ATOM     30  N   UNL     1       4.895   3.778  33.281  0.00  0.00    -0.308 N 
ATOM     31  H   UNL     1       4.802   4.333  32.442  0.00  0.00    +0.149 HD
ATOM     32  C   UNL     1       4.339   2.563  33.290  0.00  0.00    +0.210 C 
ATOM     33  C   UNL     1       4.475   1.753  34.593  0.00  0.00    +0.109 C 
ATOM     34  O   UNL     1       3.739   2.095  32.322  0.00  0.00    -0.276 OA
ENDBRANCH  29  30
BRANCH  26  35
ATOM     35  C   UNL     1       7.074   7.771  34.675  0.00  0.00    +0.414 C 
ATOM     36  O   UNL     1       5.993   8.212  34.285  0.00  0.00    -0.240 OA
ATOM     37  O   UNL     1       8.116   8.287  34.271  0.00  0.00    -0.240 OA
ENDBRANCH  26  35
BRANCH  28  38
ATOM     38  O   UNL     1       3.613   5.118  35.492  0.00  0.00    -0.390 OA
ATOM     39  H   UNL     1       3.750   4.603  36.291  0.00  0.00    +0.210 HD
ENDBRANCH  28  38
BRANCH  26  40
ATOM     40  O   UNL     1       7.893   6.951  36.831  0.00  0.00    -0.343 OA
ATOM     41  C   UNL     1       9.068   6.136  37.068  0.00  0.00    +0.198 C 
ENDBRANCH  26  40
ENDBRANCH  23  24
BRANCH  23  42
ATOM     42  O   UNL     1       7.402   3.302  32.058  0.00  0.00    -0.387 OA
ATOM     43  H   UNL     1       7.390   2.344  31.996  0.00  0.00    +0.210 HD
ENDBRANCH  23  42
ENDBRANCH   1  23
TORSDOF 14
